MODEL 1
REMARK VINA RESULT:      -9.2      0.000      0.000
REMARK SMILES O=C(OCCOCCOCCOCCOC(=O)c1cc(-c2ccc(C(F)(F)F)cc2)cc([N+](=O)[O-])c1)c1ccc(-c2c3nc(c(-c4ccccc4)c4ccc([nH]4)c(-c4ccccc4)c4nc(c(-c5ccccc5)c5ccc2[nH]5)C=C4)C=C3)cc1
REMARK SMILES IDX 9 1 8 2 7 3 6 4 5 5 4 6 3 7 2 8 1 9 37 10 38 11 84 12 39 13
REMARK SMILES IDX 83 14 40 15 41 16 42 17 77 18 43 19 82 20 76 21 78 22 44 23
REMARK SMILES IDX 81 24 75 25 74 26 45 28 67 29 52 30 66 31 53 32 56 33 65 34
REMARK SMILES IDX 79 35 54 36 55 37 64 39 80 40 57 41 46 42 47 43 51 44 48 45
REMARK SMILES IDX 50 46 49 47 68 48 69 49 73 50 70 51 72 52 71 53 58 54 59 55
REMARK SMILES IDX 63 56 60 57 62 58 61 59 10 60 11 61 12 62 13 63 14 64 15 65
REMARK SMILES IDX 16 66 17 67 18 68 19 69 36 70 20 71 32 72 31 73 21 74 22 75
REMARK SMILES IDX 30 76 23 77 29 78 24 79 25 80 26 81 27 82 28 83 33 84 34 85
REMARK SMILES IDX 35 86
REMARK H PARENT 78 27 56 38
REMARK Flexibility Score: inf
ROOT
ATOM      1  O   UNL A   1      38.545  29.010  28.016  1.00  0.00    -0.377 OA
ENDROOT
BRANCH   1   2
ATOM      2  C   UNL A   1      39.756  28.948  27.269  1.00  0.00     0.188 C 
BRANCH   2   3
ATOM      3  C   UNL A   1      40.596  27.682  27.447  1.00  0.00     0.188 C 
BRANCH   3   4
ATOM      4  O   UNL A   1      40.014  26.541  26.816  1.00  0.00    -0.376 OA
BRANCH   4   5
ATOM      5  C   UNL A   1      39.338  25.604  27.655  1.00  0.00     0.202 C 
BRANCH   5   6
ATOM      6  C   UNL A   1      39.843  24.163  27.586  1.00  0.00     0.261 C 
BRANCH   6   7
ATOM      7  O   UNL A   1      41.257  24.027  27.798  1.00  0.00    -0.460 OA
BRANCH   7   8
ATOM      8  C   UNL A   1      42.254  23.962  26.882  1.00  0.00     0.338 C 
ATOM      9  O   UNL A   1      42.223  23.053  26.053  1.00  0.00    -0.246 OA
BRANCH   8  10
ATOM     10  C   UNL A   1      43.402  24.917  26.815  1.00  0.00     0.060 A 
ATOM     11  C   UNL A   1      44.200  25.295  27.891  1.00  0.00     0.016 A 
ATOM     12  C   UNL A   1      43.740  25.426  25.549  1.00  0.00     0.016 A 
ATOM     13  C   UNL A   1      45.233  26.200  27.763  1.00  0.00     0.010 A 
ATOM     14  C   UNL A   1      44.792  26.332  25.395  1.00  0.00     0.010 A 
ATOM     15  C   UNL A   1      45.508  26.750  26.521  1.00  0.00    -0.014 A 
BRANCH  15  16
ATOM     16  C   UNL A   1      46.365  27.941  26.528  1.00  0.00     0.031 A 
ATOM     17  C   UNL A   1      47.811  27.736  26.188  1.00  0.00     0.074 A 
ATOM     18  C   UNL A   1      45.808  29.162  26.595  1.00  0.00     0.049 A 
ATOM     19  N   UNL A   1      48.777  28.608  26.114  1.00  0.00    -0.248 NA
ATOM     20  C   UNL A   1      48.220  26.356  25.866  1.00  0.00     0.031 C 
ATOM     21  C   UNL A   1      44.371  29.432  26.709  1.00  0.00     0.029 A 
ATOM     22  N   UNL A   1      46.376  30.401  26.517  1.00  0.00    -0.354 N 
ATOM     23  C   UNL A   1      49.911  27.876  25.789  1.00  0.00     0.074 A 
ATOM     24  C   UNL A   1      49.521  26.492  25.676  1.00  0.00     0.031 C 
ATOM     25  C   UNL A   1      44.171  30.759  26.664  1.00  0.00     0.029 A 
ATOM     26  C   UNL A   1      45.464  31.425  26.604  1.00  0.00     0.049 A 
ATOM     27  H   UNL A   1      47.343  30.547  26.409  1.00  0.00     0.167 HD
ATOM     28  C   UNL A   1      51.172  28.330  25.620  1.00  0.00     0.031 A 
ATOM     29  C   UNL A   1      45.678  32.750  26.667  1.00  0.00     0.031 A 
ATOM     30  C   UNL A   1      51.515  29.717  25.751  1.00  0.00     0.049 A 
ATOM     31  C   UNL A   1      47.108  33.218  26.623  1.00  0.00     0.074 A 
ATOM     32  C   UNL A   1      52.756  30.316  25.688  1.00  0.00     0.029 A 
ATOM     33  N   UNL A   1      50.586  30.726  25.977  1.00  0.00    -0.354 N 
ATOM     34  N   UNL A   1      48.200  32.518  26.419  1.00  0.00    -0.248 NA
ATOM     35  C   UNL A   1      47.337  34.650  26.832  1.00  0.00     0.031 C 
ATOM     36  C   UNL A   1      52.583  31.682  25.943  1.00  0.00     0.029 A 
ATOM     37  C   UNL A   1      51.227  31.944  26.087  1.00  0.00     0.049 A 
ATOM     38  H   UNL A   1      49.613  30.592  26.050  1.00  0.00     0.167 HD
ATOM     39  C   UNL A   1      49.247  33.427  26.449  1.00  0.00     0.074 A 
ATOM     40  C   UNL A   1      48.650  34.732  26.671  1.00  0.00     0.031 C 
ATOM     41  C   UNL A   1      50.579  33.214  26.308  1.00  0.00     0.031 A 
BRANCH  28  42
ATOM     42  C   UNL A   1      52.243  27.297  25.410  1.00  0.00    -0.014 A 
ATOM     43  C   UNL A   1      52.709  26.948  24.131  1.00  0.00     0.009 A 
ATOM     44  C   UNL A   1      52.740  26.601  26.523  1.00  0.00     0.009 A 
ATOM     45  C   UNL A   1      53.607  25.888  23.971  1.00  0.00     0.001 A 
ATOM     46  C   UNL A   1      53.661  25.564  26.363  1.00  0.00     0.001 A 
ATOM     47  C   UNL A   1      54.083  25.198  25.087  1.00  0.00     0.000 A 
ENDBRANCH  28  42
BRANCH  29  48
ATOM     48  C   UNL A   1      44.546  33.699  26.848  1.00  0.00    -0.014 A 
ATOM     49  C   UNL A   1      43.942  34.324  25.748  1.00  0.00     0.009 A 
ATOM     50  C   UNL A   1      44.074  34.004  28.137  1.00  0.00     0.009 A 
ATOM     51  C   UNL A   1      42.913  35.252  25.936  1.00  0.00     0.001 A 
ATOM     52  C   UNL A   1      43.024  34.906  28.320  1.00  0.00     0.001 A 
ATOM     53  C   UNL A   1      42.454  35.540  27.219  1.00  0.00     0.000 A 
ENDBRANCH  29  48
BRANCH  41  54
ATOM     54  C   UNL A   1      51.458  34.430  26.337  1.00  0.00    -0.014 A 
ATOM     55  C   UNL A   1      52.089  34.850  27.516  1.00  0.00     0.009 A 
ATOM     56  C   UNL A   1      51.687  35.134  25.144  1.00  0.00     0.009 A 
ATOM     57  C   UNL A   1      52.904  35.982  27.507  1.00  0.00     0.001 A 
ATOM     58  C   UNL A   1      52.533  36.241  25.133  1.00  0.00     0.001 A 
ATOM     59  C   UNL A   1      53.130  36.672  26.316  1.00  0.00     0.000 A 
ENDBRANCH  41  54
ENDBRANCH  15  16
ENDBRANCH   8  10
ENDBRANCH   7   8
ENDBRANCH   6   7
ENDBRANCH   5   6
ENDBRANCH   4   5
ENDBRANCH   3   4
ENDBRANCH   2   3
ENDBRANCH   1   2
BRANCH   1  60
ATOM     60  C   UNL A   1      38.353  30.167  28.820  1.00  0.00     0.188 C 
BRANCH  60  61
ATOM     61  C   UNL A   1      37.058  30.995  28.641  1.00  0.00     0.188 C 
BRANCH  61  62
ATOM     62  O   UNL A   1      36.253  30.565  27.562  1.00  0.00    -0.376 OA
BRANCH  62  63
ATOM     63  C   UNL A   1      34.888  30.952  27.556  1.00  0.00     0.202 C 
BRANCH  63  64
ATOM     64  C   UNL A   1      33.753  29.972  27.178  1.00  0.00     0.261 C 
BRANCH  64  65
ATOM     65  O   UNL A   1      33.132  30.105  25.888  1.00  0.00    -0.460 OA
BRANCH  65  66
ATOM     66  C   UNL A   1      31.843  30.501  25.809  1.00  0.00     0.338 C 
ATOM     67  O   UNL A   1      31.361  31.534  26.244  1.00  0.00    -0.246 OA
BRANCH  66  68
ATOM     68  C   UNL A   1      31.152  29.571  24.877  1.00  0.00     0.067 A 
ATOM     69  C   UNL A   1      31.521  28.210  24.873  1.00  0.00     0.025 A 
ATOM     70  C   UNL A   1      30.068  30.008  24.112  1.00  0.00     0.101 A 
ATOM     71  C   UNL A   1      30.772  27.257  24.158  1.00  0.00    -0.011 A 
ATOM     72  C   UNL A   1      29.374  29.073  23.333  1.00  0.00     0.270 A 
ATOM     73  C   UNL A   1      29.698  27.706  23.377  1.00  0.00     0.094 A 
BRANCH  71  74
ATOM     74  C   UNL A   1      31.149  25.838  24.157  1.00  0.00    -0.018 A 
ATOM     75  C   UNL A   1      31.498  25.139  25.325  1.00  0.00     0.009 A 
ATOM     76  C   UNL A   1      31.146  25.138  22.943  1.00  0.00     0.009 A 
ATOM     77  C   UNL A   1      31.846  23.780  25.270  1.00  0.00     0.014 A 
ATOM     78  C   UNL A   1      31.492  23.787  22.885  1.00  0.00     0.014 A 
ATOM     79  C   UNL A   1      31.850  23.091  24.046  1.00  0.00     0.056 A 
BRANCH  79  80
ATOM     80  C   UNL A   1      32.239  21.632  23.977  1.00  0.00     0.416 C 
ATOM     81  F   UNL A   1      33.588  21.451  24.032  1.00  0.00    -0.166 F 
ATOM     82  F   UNL A   1      31.721  20.903  25.004  1.00  0.00    -0.166 F 
ATOM     83  F   UNL A   1      31.828  21.013  22.834  1.00  0.00    -0.166 F 
ENDBRANCH  79  80
ENDBRANCH  71  74
BRANCH  72  84
ATOM     84  N   UNL A   1      28.321  29.532  22.417  1.00  0.00     0.062 N 
ATOM     85  O   UNL A   1      28.637  29.739  21.238  1.00  0.00    -0.258 OA
ATOM     86  O   UNL A   1      27.190  29.713  22.888  1.00  0.00    -0.258 OA
ENDBRANCH  72  84
ENDBRANCH  66  68
ENDBRANCH  65  66
ENDBRANCH  64  65
ENDBRANCH  63  64
ENDBRANCH  62  63
ENDBRANCH  61  62
ENDBRANCH  60  61
ENDBRANCH   1  60
TORSDOF 23
ENDMDL
MODEL 2
REMARK VINA RESULT:      -9.1      4.716      8.161
REMARK SMILES O=C(OCCOCCOCCOCCOC(=O)c1cc(-c2ccc(C(F)(F)F)cc2)cc([N+](=O)[O-])c1)c1ccc(-c2c3nc(c(-c4ccccc4)c4ccc([nH]4)c(-c4ccccc4)c4nc(c(-c5ccccc5)c5ccc2[nH]5)C=C4)C=C3)cc1
REMARK SMILES IDX 9 1 8 2 7 3 6 4 5 5 4 6 3 7 2 8 1 9 37 10 38 11 84 12 39 13
REMARK SMILES IDX 83 14 40 15 41 16 42 17 77 18 43 19 82 20 76 21 78 22 44 23
REMARK SMILES IDX 81 24 75 25 74 26 45 28 67 29 52 30 66 31 53 32 56 33 65 34
REMARK SMILES IDX 79 35 54 36 55 37 64 39 80 40 57 41 46 42 47 43 51 44 48 45
REMARK SMILES IDX 50 46 49 47 68 48 69 49 73 50 70 51 72 52 71 53 58 54 59 55
REMARK SMILES IDX 63 56 60 57 62 58 61 59 10 60 11 61 12 62 13 63 14 64 15 65
REMARK SMILES IDX 16 66 17 67 18 68 19 69 36 70 20 71 32 72 31 73 21 74 22 75
REMARK SMILES IDX 30 76 23 77 29 78 24 79 25 80 26 81 27 82 28 83 33 84 34 85
REMARK SMILES IDX 35 86
REMARK H PARENT 78 27 56 38
REMARK Flexibility Score: inf
ROOT
ATOM      1  O   UNL A   1      32.949  24.467  24.408  1.00  0.00    -0.377 OA
ENDROOT
BRANCH   1   2
ATOM      2  C   UNL A   1      33.498  23.807  25.545  1.00  0.00     0.188 C 
BRANCH   2   3
ATOM      3  C   UNL A   1      34.216  22.483  25.275  1.00  0.00     0.188 C 
BRANCH   3   4
ATOM      4  O   UNL A   1      35.553  22.469  25.775  1.00  0.00    -0.376 OA
BRANCH   4   5
ATOM      5  C   UNL A   1      36.393  23.569  25.422  1.00  0.00     0.202 C 
BRANCH   5   6
ATOM      6  C   UNL A   1      37.888  23.372  25.675  1.00  0.00     0.261 C 
BRANCH   6   7
ATOM      7  O   UNL A   1      38.261  22.014  25.955  1.00  0.00    -0.460 OA
BRANCH   7   8
ATOM      8  C   UNL A   1      39.497  21.490  26.137  1.00  0.00     0.338 C 
ATOM      9  O   UNL A   1      39.712  20.350  25.724  1.00  0.00    -0.246 OA
BRANCH   8  10
ATOM     10  C   UNL A   1      40.622  22.198  26.821  1.00  0.00     0.060 A 
ATOM     11  C   UNL A   1      40.498  23.341  27.605  1.00  0.00     0.016 A 
ATOM     12  C   UNL A   1      41.902  21.625  26.710  1.00  0.00     0.016 A 
ATOM     13  C   UNL A   1      41.584  23.958  28.190  1.00  0.00     0.010 A 
ATOM     14  C   UNL A   1      43.013  22.226  27.308  1.00  0.00     0.010 A 
ATOM     15  C   UNL A   1      42.850  23.422  28.011  1.00  0.00    -0.014 A 
BRANCH  15  16
ATOM     16  C   UNL A   1      43.970  24.307  28.356  1.00  0.00     0.031 A 
ATOM     17  C   UNL A   1      44.390  24.338  29.795  1.00  0.00     0.074 A 
ATOM     18  C   UNL A   1      44.712  24.854  27.378  1.00  0.00     0.049 A 
ATOM     19  N   UNL A   1      45.345  25.018  30.365  1.00  0.00    -0.248 NA
ATOM     20  C   UNL A   1      43.643  23.461  30.716  1.00  0.00     0.031 C 
ATOM     21  C   UNL A   1      44.477  24.680  25.940  1.00  0.00     0.029 A 
ATOM     22  N   UNL A   1      45.843  25.614  27.443  1.00  0.00    -0.354 N 
ATOM     23  C   UNL A   1      45.276  24.690  31.713  1.00  0.00     0.074 A 
ATOM     24  C   UNL A   1      44.194  23.751  31.881  1.00  0.00     0.031 C 
ATOM     25  C   UNL A   1      45.458  25.296  25.261  1.00  0.00     0.029 A 
ATOM     26  C   UNL A   1      46.332  25.971  26.211  1.00  0.00     0.049 A 
ATOM     27  H   UNL A   1      46.267  25.881  28.291  1.00  0.00     0.167 HD
ATOM     28  C   UNL A   1      46.047  25.155  32.720  1.00  0.00     0.031 A 
ATOM     29  C   UNL A   1      47.354  26.789  25.906  1.00  0.00     0.031 A 
ATOM     30  C   UNL A   1      47.108  26.098  32.506  1.00  0.00     0.049 A 
ATOM     31  C   UNL A   1      48.103  27.409  27.054  1.00  0.00     0.074 A 
ATOM     32  C   UNL A   1      47.919  26.719  33.433  1.00  0.00     0.029 A 
ATOM     33  N   UNL A   1      47.497  26.553  31.251  1.00  0.00    -0.354 N 
ATOM     34  N   UNL A   1      47.976  27.183  28.341  1.00  0.00    -0.248 NA
ATOM     35  C   UNL A   1      49.122  28.405  26.711  1.00  0.00     0.031 C 
ATOM     36  C   UNL A   1      48.757  27.603  32.740  1.00  0.00     0.029 A 
ATOM     37  C   UNL A   1      48.519  27.472  31.379  1.00  0.00     0.049 A 
ATOM     38  H   UNL A   1      47.102  26.262  30.398  1.00  0.00     0.167 HD
ATOM     39  C   UNL A   1      48.917  27.989  28.965  1.00  0.00     0.074 A 
ATOM     40  C   UNL A   1      49.619  28.694  27.906  1.00  0.00     0.031 C 
ATOM     41  C   UNL A   1      49.183  28.141  30.286  1.00  0.00     0.031 A 
BRANCH  28  42
ATOM     42  C   UNL A   1      45.666  24.742  34.114  1.00  0.00    -0.014 A 
ATOM     43  C   UNL A   1      46.108  23.537  34.686  1.00  0.00     0.009 A 
ATOM     44  C   UNL A   1      44.773  25.546  34.839  1.00  0.00     0.009 A 
ATOM     45  C   UNL A   1      45.622  23.125  35.931  1.00  0.00     0.001 A 
ATOM     46  C   UNL A   1      44.314  25.148  36.096  1.00  0.00     0.001 A 
ATOM     47  C   UNL A   1      44.726  23.931  36.634  1.00  0.00     0.000 A 
ENDBRANCH  28  42
BRANCH  29  48
ATOM     48  C   UNL A   1      47.672  27.118  24.490  1.00  0.00    -0.014 A 
ATOM     49  C   UNL A   1      46.937  28.084  23.788  1.00  0.00     0.009 A 
ATOM     50  C   UNL A   1      48.709  26.445  23.819  1.00  0.00     0.009 A 
ATOM     51  C   UNL A   1      47.213  28.347  22.443  1.00  0.00     0.001 A 
ATOM     52  C   UNL A   1      49.004  26.734  22.485  1.00  0.00     0.001 A 
ATOM     53  C   UNL A   1      48.246  27.675  21.794  1.00  0.00     0.000 A 
ENDBRANCH  29  48
BRANCH  41  54
ATOM     54  C   UNL A   1      50.314  29.063  30.640  1.00  0.00    -0.014 A 
ATOM     55  C   UNL A   1      51.651  28.660  30.520  1.00  0.00     0.009 A 
ATOM     56  C   UNL A   1      50.023  30.371  31.057  1.00  0.00     0.009 A 
ATOM     57  C   UNL A   1      52.679  29.543  30.853  1.00  0.00     0.001 A 
ATOM     58  C   UNL A   1      51.053  31.261  31.351  1.00  0.00     0.001 A 
ATOM     59  C   UNL A   1      52.379  30.843  31.261  1.00  0.00     0.000 A 
ENDBRANCH  41  54
ENDBRANCH  15  16
ENDBRANCH   8  10
ENDBRANCH   7   8
ENDBRANCH   6   7
ENDBRANCH   5   6
ENDBRANCH   4   5
ENDBRANCH   3   4
ENDBRANCH   2   3
ENDBRANCH   1   2
BRANCH   1  60
ATOM     60  C   UNL A   1      32.699  25.861  24.542  1.00  0.00     0.188 C 
BRANCH  60  61
ATOM     61  C   UNL A   1      31.783  26.558  23.508  1.00  0.00     0.188 C 
BRANCH  61  62
ATOM     62  O   UNL A   1      31.924  27.963  23.480  1.00  0.00    -0.376 OA
BRANCH  62  63
ATOM     63  C   UNL A   1      31.016  28.737  24.248  1.00  0.00     0.202 C 
BRANCH  63  64
ATOM     64  C   UNL A   1      31.480  29.909  25.144  1.00  0.00     0.261 C 
BRANCH  64  65
ATOM     65  O   UNL A   1      32.840  29.917  25.614  1.00  0.00    -0.460 OA
BRANCH  65  66
ATOM     66  C   UNL A   1      33.157  29.243  26.741  1.00  0.00     0.338 C 
ATOM     67  O   UNL A   1      32.794  28.122  27.056  1.00  0.00    -0.246 OA
BRANCH  66  68
ATOM     68  C   UNL A   1      34.233  30.008  27.425  1.00  0.00     0.067 A 
ATOM     69  C   UNL A   1      35.494  29.402  27.602  1.00  0.00     0.025 A 
ATOM     70  C   UNL A   1      34.043  31.348  27.769  1.00  0.00     0.101 A 
ATOM     71  C   UNL A   1      36.598  30.144  28.062  1.00  0.00    -0.011 A 
ATOM     72  C   UNL A   1      35.120  32.064  28.308  1.00  0.00     0.270 A 
ATOM     73  C   UNL A   1      36.394  31.482  28.425  1.00  0.00     0.094 A 
BRANCH  71  74
ATOM     74  C   UNL A   1      37.914  29.517  28.242  1.00  0.00    -0.018 A 
ATOM     75  C   UNL A   1      38.329  28.949  29.458  1.00  0.00     0.009 A 
ATOM     76  C   UNL A   1      38.792  29.464  27.151  1.00  0.00     0.009 A 
ATOM     77  C   UNL A   1      39.597  28.357  29.575  1.00  0.00     0.014 A 
ATOM     78  C   UNL A   1      40.053  28.876  27.266  1.00  0.00     0.014 A 
ATOM     79  C   UNL A   1      40.474  28.319  28.479  1.00  0.00     0.056 A 
BRANCH  79  80
ATOM     80  C   UNL A   1      41.846  27.697  28.603  1.00  0.00     0.416 C 
ATOM     81  F   UNL A   1      41.875  26.682  29.511  1.00  0.00    -0.166 F 
ATOM     82  F   UNL A   1      42.288  27.164  27.431  1.00  0.00    -0.166 F 
ATOM     83  F   UNL A   1      42.808  28.577  29.000  1.00  0.00    -0.166 F 
ENDBRANCH  79  80
ENDBRANCH  71  74
BRANCH  72  84
ATOM     84  N   UNL A   1      34.906  33.430  28.803  1.00  0.00     0.062 N 
ATOM     85  O   UNL A   1      34.519  33.562  29.972  1.00  0.00    -0.258 OA
ATOM     86  O   UNL A   1      35.098  34.364  28.013  1.00  0.00    -0.258 OA
ENDBRANCH  72  84
ENDBRANCH  66  68
ENDBRANCH  65  66
ENDBRANCH  64  65
ENDBRANCH  63  64
ENDBRANCH  62  63
ENDBRANCH  61  62
ENDBRANCH  60  61
ENDBRANCH   1  60
TORSDOF 23
ENDMDL
MODEL 3
REMARK VINA RESULT:      -8.2      6.980     10.902
REMARK SMILES O=C(OCCOCCOCCOCCOC(=O)c1cc(-c2ccc(C(F)(F)F)cc2)cc([N+](=O)[O-])c1)c1ccc(-c2c3nc(c(-c4ccccc4)c4ccc([nH]4)c(-c4ccccc4)c4nc(c(-c5ccccc5)c5ccc2[nH]5)C=C4)C=C3)cc1
REMARK SMILES IDX 9 1 8 2 7 3 6 4 5 5 4 6 3 7 2 8 1 9 37 10 38 11 84 12 39 13
REMARK SMILES IDX 83 14 40 15 41 16 42 17 77 18 43 19 82 20 76 21 78 22 44 23
REMARK SMILES IDX 81 24 75 25 74 26 45 28 67 29 52 30 66 31 53 32 56 33 65 34
REMARK SMILES IDX 79 35 54 36 55 37 64 39 80 40 57 41 46 42 47 43 51 44 48 45
REMARK SMILES IDX 50 46 49 47 68 48 69 49 73 50 70 51 72 52 71 53 58 54 59 55
REMARK SMILES IDX 63 56 60 57 62 58 61 59 10 60 11 61 12 62 13 63 14 64 15 65
REMARK SMILES IDX 16 66 17 67 18 68 19 69 36 70 20 71 32 72 31 73 21 74 22 75
REMARK SMILES IDX 30 76 23 77 29 78 24 79 25 80 26 81 27 82 28 83 33 84 34 85
REMARK SMILES IDX 35 86
REMARK H PARENT 78 27 56 38
REMARK Flexibility Score: inf
ROOT
ATOM      1  O   UNL A   1      43.028  29.447  27.402  1.00  0.00    -0.377 OA
ENDROOT
BRANCH   1   2
ATOM      2  C   UNL A   1      44.333  29.269  26.858  1.00  0.00     0.188 C 
BRANCH   2   3
ATOM      3  C   UNL A   1      44.709  27.841  26.461  1.00  0.00     0.188 C 
BRANCH   3   4
ATOM      4  O   UNL A   1      44.885  27.688  25.052  1.00  0.00    -0.376 OA
BRANCH   4   5
ATOM      5  C   UNL A   1      46.186  27.949  24.524  1.00  0.00     0.202 C 
BRANCH   5   6
ATOM      6  C   UNL A   1      47.353  27.718  25.485  1.00  0.00     0.261 C 
BRANCH   6   7
ATOM      7  O   UNL A   1      47.945  28.926  25.987  1.00  0.00    -0.460 OA
BRANCH   7   8
ATOM      8  C   UNL A   1      49.105  29.088  26.669  1.00  0.00     0.338 C 
ATOM      9  O   UNL A   1      49.879  29.970  26.298  1.00  0.00    -0.246 OA
BRANCH   8  10
ATOM     10  C   UNL A   1      49.519  28.256  27.840  1.00  0.00     0.060 A 
ATOM     11  C   UNL A   1      49.981  26.945  27.774  1.00  0.00     0.016 A 
ATOM     12  C   UNL A   1      49.496  28.871  29.104  1.00  0.00     0.016 A 
ATOM     13  C   UNL A   1      50.327  26.225  28.899  1.00  0.00     0.010 A 
ATOM     14  C   UNL A   1      49.856  28.165  30.254  1.00  0.00     0.010 A 
ATOM     15  C   UNL A   1      50.229  26.822  30.146  1.00  0.00    -0.014 A 
BRANCH  15  16
ATOM     16  C   UNL A   1      50.271  25.908  31.294  1.00  0.00     0.031 A 
ATOM     17  C   UNL A   1      51.623  25.583  31.852  1.00  0.00     0.074 A 
ATOM     18  C   UNL A   1      49.133  25.596  31.938  1.00  0.00     0.049 A 
ATOM     19  N   UNL A   1      51.944  24.818  32.857  1.00  0.00    -0.248 NA
ATOM     20  C   UNL A   1      52.776  26.230  31.197  1.00  0.00     0.031 C 
ATOM     21  C   UNL A   1      47.794  26.064  31.566  1.00  0.00     0.029 A 
ATOM     22  N   UNL A   1      48.928  24.863  33.070  1.00  0.00    -0.354 N 
ATOM     23  C   UNL A   1      53.331  24.852  32.919  1.00  0.00     0.074 A 
ATOM     24  C   UNL A   1      53.795  25.712  31.859  1.00  0.00     0.031 C 
ATOM     25  C   UNL A   1      46.909  25.626  32.476  1.00  0.00     0.029 A 
ATOM     26  C   UNL A   1      47.607  24.784  33.438  1.00  0.00     0.049 A 
ATOM     27  H   UNL A   1      49.655  24.432  33.575  1.00  0.00     0.167 HD
ATOM     28  C   UNL A   1      54.139  24.200  33.784  1.00  0.00     0.031 A 
ATOM     29  C   UNL A   1      47.040  24.070  34.426  1.00  0.00     0.031 A 
ATOM     30  C   UNL A   1      53.630  23.347  34.820  1.00  0.00     0.049 A 
ATOM     31  C   UNL A   1      47.955  23.237  35.282  1.00  0.00     0.074 A 
ATOM     32  C   UNL A   1      54.323  22.560  35.717  1.00  0.00     0.029 A 
ATOM     33  N   UNL A   1      52.276  23.175  35.086  1.00  0.00    -0.354 N 
ATOM     34  N   UNL A   1      49.267  23.184  35.281  1.00  0.00    -0.248 NA
ATOM     35  C   UNL A   1      47.314  22.358  36.264  1.00  0.00     0.031 C 
ATOM     36  C   UNL A   1      53.383  21.861  36.484  1.00  0.00     0.029 A 
ATOM     37  C   UNL A   1      52.108  22.271  36.116  1.00  0.00     0.049 A 
ATOM     38  H   UNL A   1      51.545  23.631  34.610  1.00  0.00     0.167 HD
ATOM     39  C   UNL A   1      49.613  22.284  36.277  1.00  0.00     0.074 A 
ATOM     40  C   UNL A   1      48.368  21.834  36.874  1.00  0.00     0.031 C 
ATOM     41  C   UNL A   1      50.841  21.862  36.671  1.00  0.00     0.031 A 
BRANCH  28  42
ATOM     42  C   UNL A   1      55.618  24.302  33.539  1.00  0.00    -0.014 A 
ATOM     43  C   UNL A   1      56.433  25.210  34.237  1.00  0.00     0.009 A 
ATOM     44  C   UNL A   1      56.193  23.521  32.525  1.00  0.00     0.009 A 
ATOM     45  C   UNL A   1      57.777  25.369  33.884  1.00  0.00     0.001 A 
ATOM     46  C   UNL A   1      57.542  23.658  32.196  1.00  0.00     0.001 A 
ATOM     47  C   UNL A   1      58.330  24.592  32.865  1.00  0.00     0.000 A 
ENDBRANCH  28  42
BRANCH  29  48
ATOM     48  C   UNL A   1      45.564  24.054  34.606  1.00  0.00    -0.014 A 
ATOM     49  C   UNL A   1      44.930  24.954  35.476  1.00  0.00     0.009 A 
ATOM     50  C   UNL A   1      44.774  23.115  33.920  1.00  0.00     0.009 A 
ATOM     51  C   UNL A   1      43.548  24.895  35.675  1.00  0.00     0.001 A 
ATOM     52  C   UNL A   1      43.389  23.080  34.095  1.00  0.00     0.001 A 
ATOM     53  C   UNL A   1      42.778  23.961  34.983  1.00  0.00     0.000 A 
ENDBRANCH  29  48
BRANCH  41  54
ATOM     54  C   UNL A   1      50.882  20.910  37.830  1.00  0.00    -0.014 A 
ATOM     55  C   UNL A   1      50.788  21.363  39.154  1.00  0.00     0.009 A 
ATOM     56  C   UNL A   1      50.973  19.532  37.579  1.00  0.00     0.009 A 
ATOM     57  C   UNL A   1      50.826  20.452  40.209  1.00  0.00     0.001 A 
ATOM     58  C   UNL A   1      50.971  18.623  38.634  1.00  0.00     0.001 A 
ATOM     59  C   UNL A   1      50.910  19.084  39.948  1.00  0.00     0.000 A 
ENDBRANCH  41  54
ENDBRANCH  15  16
ENDBRANCH   8  10
ENDBRANCH   7   8
ENDBRANCH   6   7
ENDBRANCH   5   6
ENDBRANCH   4   5
ENDBRANCH   3   4
ENDBRANCH   2   3
ENDBRANCH   1   2
BRANCH   1  60
ATOM     60  C   UNL A   1      42.621  28.514  28.395  1.00  0.00     0.188 C 
BRANCH  60  61
ATOM     61  C   UNL A   1      42.150  29.045  29.770  1.00  0.00     0.188 C 
BRANCH  61  62
ATOM     62  O   UNL A   1      41.052  28.337  30.307  1.00  0.00    -0.376 OA
BRANCH  62  63
ATOM     63  C   UNL A   1      39.936  28.104  29.463  1.00  0.00     0.202 C 
BRANCH  63  64
ATOM     64  C   UNL A   1      39.414  26.681  29.156  1.00  0.00     0.261 C 
BRANCH  64  65
ATOM     65  O   UNL A   1      40.279  25.767  28.460  1.00  0.00    -0.460 OA
BRANCH  65  66
ATOM     66  C   UNL A   1      40.181  25.652  27.117  1.00  0.00     0.338 C 
ATOM     67  O   UNL A   1      40.566  26.450  26.279  1.00  0.00    -0.246 OA
BRANCH  66  68
ATOM     68  C   UNL A   1      39.743  24.262  26.825  1.00  0.00     0.067 A 
ATOM     69  C   UNL A   1      38.461  24.052  26.276  1.00  0.00     0.025 A 
ATOM     70  C   UNL A   1      40.630  23.193  26.967  1.00  0.00     0.101 A 
ATOM     71  C   UNL A   1      38.073  22.785  25.801  1.00  0.00    -0.011 A 
ATOM     72  C   UNL A   1      40.213  21.914  26.572  1.00  0.00     0.270 A 
ATOM     73  C   UNL A   1      38.962  21.713  25.966  1.00  0.00     0.094 A 
BRANCH  71  74
ATOM     74  C   UNL A   1      36.742  22.564  25.223  1.00  0.00    -0.018 A 
ATOM     75  C   UNL A   1      36.047  23.552  24.506  1.00  0.00     0.009 A 
ATOM     76  C   UNL A   1      36.138  21.308  25.374  1.00  0.00     0.009 A 
ATOM     77  C   UNL A   1      34.777  23.288  23.969  1.00  0.00     0.014 A 
ATOM     78  C   UNL A   1      34.876  21.043  24.842  1.00  0.00     0.014 A 
ATOM     79  C   UNL A   1      34.176  22.029  24.136  1.00  0.00     0.056 A 
BRANCH  79  80
ATOM     80  C   UNL A   1      32.803  21.742  23.573  1.00  0.00     0.416 C 
ATOM     81  F   UNL A   1      32.577  20.409  23.411  1.00  0.00    -0.166 F 
ATOM     82  F   UNL A   1      31.802  22.196  24.377  1.00  0.00    -0.166 F 
ATOM     83  F   UNL A   1      32.587  22.307  22.352  1.00  0.00    -0.166 F 
ENDBRANCH  79  80
ENDBRANCH  71  74
BRANCH  72  84
ATOM     84  N   UNL A   1      41.076  20.757  26.839  1.00  0.00     0.062 N 
ATOM     85  O   UNL A   1      42.020  20.553  26.064  1.00  0.00    -0.258 OA
ATOM     86  O   UNL A   1      40.789  20.038  27.806  1.00  0.00    -0.258 OA
ENDBRANCH  72  84
ENDBRANCH  66  68
ENDBRANCH  65  66
ENDBRANCH  64  65
ENDBRANCH  63  64
ENDBRANCH  62  63
ENDBRANCH  61  62
ENDBRANCH  60  61
ENDBRANCH   1  60
TORSDOF 23
ENDMDL
