MODEL 1
REMARK VINA RESULT:      -9.0      0.000      0.000
REMARK SMILES O=C(C[C@@H]1CSCC[NH2+]1)NC[C@@H](C(=O)OCCOCCOCCOCCOC(=O)c1ccc(-c2c3nc(c(-c4ccccc4)c4ccc([nH]4)c(-c4ccccc4)c4nc(c(-c5ccccc5)c5ccc2[nH]5)C=C4)C=C3)cc1)c1ccccc1
REMARK SMILES IDX 20 1 19 2 18 3 17 4 16 5 15 6 13 7 14 8 12 9 11 10 10 11
REMARK SMILES IDX 1 12 2 13 3 15 4 16 5 17 9 18 6 19 8 20 7 23 78 24 79 25
REMARK SMILES IDX 83 26 80 27 82 28 81 29 21 30 22 31 23 32 24 33 25 34 26 35
REMARK SMILES IDX 27 36 28 37 29 38 30 39 31 40 77 41 32 42 76 43 33 44 34 45
REMARK SMILES IDX 35 46 70 47 36 48 75 49 69 50 71 51 37 52 74 53 68 54 67 55
REMARK SMILES IDX 38 57 60 58 45 59 59 60 46 61 49 62 58 63 72 64 47 65 48 66
REMARK SMILES IDX 57 68 73 69 50 70 39 71 40 72 44 73 41 74 43 75 42 76 61 77
REMARK SMILES IDX 62 78 66 79 63 80 65 81 64 82 51 83 52 84 56 85 53 86 55 87
REMARK SMILES IDX 54 88
REMARK H PARENT 10 14 9 21 9 22 71 56 49 67
REMARK Flexibility Score: inf
ROOT
ATOM      1  C   UNL A   1      33.390  21.797  24.235  1.00  0.00     0.188 C 
ENDROOT
BRANCH   1   2
ATOM      2  C   UNL A   1      32.658  22.242  22.956  1.00  0.00     0.188 C 
BRANCH   2   3
ATOM      3  O   UNL A   1      32.809  23.573  22.496  1.00  0.00    -0.376 OA
BRANCH   3   4
ATOM      4  C   UNL A   1      33.642  24.484  23.194  1.00  0.00     0.202 C 
BRANCH   4   5
ATOM      5  C   UNL A   1      33.764  25.984  22.830  1.00  0.00     0.261 C 
BRANCH   5   6
ATOM      6  O   UNL A   1      34.003  26.925  23.899  1.00  0.00    -0.463 OA
BRANCH   6   7
ATOM      7  C   UNL A   1      33.774  28.232  23.609  1.00  0.00     0.315 C 
ATOM      8  O   UNL A   1      34.356  28.823  22.703  1.00  0.00    -0.251 OA
BRANCH   7   9
ATOM      9  C   UNL A   1      32.704  28.928  24.479  1.00  0.00     0.148 C 
BRANCH   9  10
ATOM     10  C   UNL A   1      32.743  28.908  26.024  1.00  0.00     0.136 C 
BRANCH  10  11
ATOM     11  N   UNL A   1      32.651  30.181  26.704  1.00  0.00    -0.355 N 
ATOM     12  O   UNL A   1      34.875  30.244  27.293  1.00  0.00    -0.275 OA
ATOM     13  C   UNL A   1      33.753  30.735  27.326  1.00  0.00     0.226 C 
ATOM     14  H   UNL A   1      31.791  30.660  26.723  1.00  0.00     0.163 HD
BRANCH  13  15
ATOM     15  C   UNL A   1      33.444  31.986  28.107  1.00  0.00     0.165 C 
BRANCH  15  16
ATOM     16  C   UNL A   1      34.531  33.065  27.965  1.00  0.00     0.201 C 
ATOM     17  C   UNL A   1      35.500  33.120  29.171  1.00  0.00     0.135 C 
ATOM     18  N   UNL A   1      33.925  34.392  27.702  1.00  0.00    -0.342 N 
ATOM     19  S   UNL A   1      34.733  33.673  30.737  1.00  0.00    -0.150 SA
ATOM     20  C   UNL A   1      33.092  34.849  28.824  1.00  0.00     0.271 C 
ATOM     21  H   UNL A   1      33.344  34.328  26.866  1.00  0.00     0.346 HD
ATOM     22  H   UNL A   1      34.682  35.064  27.577  1.00  0.00     0.346 HD
ATOM     23  C   UNL A   1      33.884  35.150  30.098  1.00  0.00     0.131 C 
ENDBRANCH  15  16
ENDBRANCH  13  15
ENDBRANCH  10  11
ENDBRANCH   9  10
BRANCH   9  24
ATOM     24  C   UNL A   1      31.311  28.577  23.935  1.00  0.00    -0.032 A 
ATOM     25  C   UNL A   1      30.549  29.446  23.133  1.00  0.00     0.004 A 
ATOM     26  C   UNL A   1      30.718  27.373  24.346  1.00  0.00     0.004 A 
ATOM     27  C   UNL A   1      29.230  29.138  22.790  1.00  0.00     0.000 A 
ATOM     28  C   UNL A   1      29.406  27.060  23.989  1.00  0.00     0.000 A 
ATOM     29  C   UNL A   1      28.658  27.948  23.220  1.00  0.00     0.000 A 
ENDBRANCH   9  24
ENDBRANCH   7   9
ENDBRANCH   6   7
ENDBRANCH   5   6
ENDBRANCH   4   5
ENDBRANCH   3   4
ENDBRANCH   2   3
ENDBRANCH   1   2
BRANCH   1  30
ATOM     30  O   UNL A   1      33.830  20.452  24.235  1.00  0.00    -0.377 OA
BRANCH  30  31
ATOM     31  C   UNL A   1      34.915  20.151  25.100  1.00  0.00     0.188 C 
BRANCH  31  32
ATOM     32  C   UNL A   1      36.061  21.173  25.231  1.00  0.00     0.188 C 
BRANCH  32  33
ATOM     33  O   UNL A   1      37.293  20.742  24.663  1.00  0.00    -0.376 OA
BRANCH  33  34
ATOM     34  C   UNL A   1      38.484  20.890  25.421  1.00  0.00     0.202 C 
BRANCH  34  35
ATOM     35  C   UNL A   1      39.322  19.626  25.676  1.00  0.00     0.261 C 
BRANCH  35  36
ATOM     36  O   UNL A   1      40.684  19.655  25.219  1.00  0.00    -0.460 OA
BRANCH  36  37
ATOM     37  C   UNL A   1      41.669  19.488  26.133  1.00  0.00     0.338 C 
ATOM     38  O   UNL A   1      42.229  18.458  26.428  1.00  0.00    -0.246 OA
BRANCH  37  39
ATOM     39  C   UNL A   1      42.101  20.842  26.562  1.00  0.00     0.060 A 
ATOM     40  C   UNL A   1      42.236  21.847  25.595  1.00  0.00     0.016 A 
ATOM     41  C   UNL A   1      42.323  21.129  27.910  1.00  0.00     0.016 A 
ATOM     42  C   UNL A   1      42.595  23.144  25.974  1.00  0.00     0.010 A 
ATOM     43  C   UNL A   1      42.714  22.419  28.283  1.00  0.00     0.010 A 
ATOM     44  C   UNL A   1      42.867  23.431  27.316  1.00  0.00    -0.014 A 
BRANCH  44  45
ATOM     45  C   UNL A   1      43.460  24.736  27.702  1.00  0.00     0.031 A 
ATOM     46  C   UNL A   1      42.543  25.832  28.170  1.00  0.00     0.074 A 
ATOM     47  C   UNL A   1      44.788  24.956  27.646  1.00  0.00     0.049 A 
ATOM     48  N   UNL A   1      42.819  27.081  28.441  1.00  0.00    -0.248 NA
ATOM     49  C   UNL A   1      41.131  25.468  28.369  1.00  0.00     0.031 C 
ATOM     50  C   UNL A   1      45.799  23.958  27.309  1.00  0.00     0.029 A 
ATOM     51  N   UNL A   1      45.511  26.107  27.858  1.00  0.00    -0.354 N 
ATOM     52  C   UNL A   1      41.615  27.654  28.830  1.00  0.00     0.074 A 
ATOM     53  C   UNL A   1      40.605  26.623  28.748  1.00  0.00     0.031 C 
ATOM     54  C   UNL A   1      47.008  24.547  27.307  1.00  0.00     0.029 A 
ATOM     55  C   UNL A   1      46.848  25.973  27.566  1.00  0.00     0.049 A 
ATOM     56  H   UNL A   1      45.110  26.944  28.186  1.00  0.00     0.167 HD
ATOM     57  C   UNL A   1      41.377  28.929  29.218  1.00  0.00     0.031 A 
ATOM     58  C   UNL A   1      47.819  26.903  27.458  1.00  0.00     0.031 A 
ATOM     59  C   UNL A   1      42.382  29.953  29.295  1.00  0.00     0.049 A 
ATOM     60  C   UNL A   1      47.492  28.344  27.745  1.00  0.00     0.074 A 
ATOM     61  C   UNL A   1      42.242  31.262  29.723  1.00  0.00     0.029 A 
ATOM     62  N   UNL A   1      43.704  29.793  28.917  1.00  0.00    -0.354 N 
ATOM     63  N   UNL A   1      46.362  28.867  28.150  1.00  0.00    -0.248 NA
ATOM     64  C   UNL A   1      48.577  29.321  27.566  1.00  0.00     0.031 C 
ATOM     65  C   UNL A   1      43.460  31.916  29.527  1.00  0.00     0.029 A 
ATOM     66  C   UNL A   1      44.377  30.996  29.046  1.00  0.00     0.049 A 
ATOM     67  H   UNL A   1      44.106  28.951  28.605  1.00  0.00     0.167 HD
ATOM     68  C   UNL A   1      46.608  30.226  28.308  1.00  0.00     0.074 A 
ATOM     69  C   UNL A   1      47.997  30.444  27.966  1.00  0.00     0.031 C 
ATOM     70  C   UNL A   1      45.759  31.203  28.704  1.00  0.00     0.031 A 
BRANCH  57  71
ATOM     71  C   UNL A   1      39.962  29.313  29.545  1.00  0.00    -0.014 A 
ATOM     72  C   UNL A   1      39.080  29.780  28.560  1.00  0.00     0.009 A 
ATOM     73  C   UNL A   1      39.484  29.116  30.851  1.00  0.00     0.009 A 
ATOM     74  C   UNL A   1      37.749  30.054  28.881  1.00  0.00     0.001 A 
ATOM     75  C   UNL A   1      38.147  29.366  31.162  1.00  0.00     0.001 A 
ATOM     76  C   UNL A   1      37.281  29.837  30.177  1.00  0.00     0.000 A 
ENDBRANCH  57  71
BRANCH  58  77
ATOM     77  C   UNL A   1      49.173  26.536  26.960  1.00  0.00    -0.014 A 
ATOM     78  C   UNL A   1      49.508  26.638  25.602  1.00  0.00     0.009 A 
ATOM     79  C   UNL A   1      50.117  25.991  27.846  1.00  0.00     0.009 A 
ATOM     80  C   UNL A   1      50.747  26.179  25.143  1.00  0.00     0.001 A 
ATOM     81  C   UNL A   1      51.369  25.569  27.393  1.00  0.00     0.001 A 
ATOM     82  C   UNL A   1      51.678  25.652  26.038  1.00  0.00     0.000 A 
ENDBRANCH  58  77
BRANCH  70  83
ATOM     83  C   UNL A   1      46.310  32.595  28.825  1.00  0.00    -0.014 A 
ATOM     84  C   UNL A   1      46.915  33.038  30.011  1.00  0.00     0.009 A 
ATOM     85  C   UNL A   1      46.273  33.455  27.715  1.00  0.00     0.009 A 
ATOM     86  C   UNL A   1      47.450  34.326  30.090  1.00  0.00     0.001 A 
ATOM     87  C   UNL A   1      46.838  34.728  27.787  1.00  0.00     0.001 A 
ATOM     88  C   UNL A   1      47.419  35.166  28.976  1.00  0.00     0.000 A 
ENDBRANCH  70  83
ENDBRANCH  44  45
ENDBRANCH  37  39
ENDBRANCH  36  37
ENDBRANCH  35  36
ENDBRANCH  34  35
ENDBRANCH  33  34
ENDBRANCH  32  33
ENDBRANCH  31  32
ENDBRANCH  30  31
ENDBRANCH   1  30
TORSDOF 25
ENDMDL
MODEL 2
REMARK VINA RESULT:      -8.6      2.603      4.301
REMARK SMILES O=C(C[C@@H]1CSCC[NH2+]1)NC[C@@H](C(=O)OCCOCCOCCOCCOC(=O)c1ccc(-c2c3nc(c(-c4ccccc4)c4ccc([nH]4)c(-c4ccccc4)c4nc(c(-c5ccccc5)c5ccc2[nH]5)C=C4)C=C3)cc1)c1ccccc1
REMARK SMILES IDX 20 1 19 2 18 3 17 4 16 5 15 6 13 7 14 8 12 9 11 10 10 11
REMARK SMILES IDX 1 12 2 13 3 15 4 16 5 17 9 18 6 19 8 20 7 23 78 24 79 25
REMARK SMILES IDX 83 26 80 27 82 28 81 29 21 30 22 31 23 32 24 33 25 34 26 35
REMARK SMILES IDX 27 36 28 37 29 38 30 39 31 40 77 41 32 42 76 43 33 44 34 45
REMARK SMILES IDX 35 46 70 47 36 48 75 49 69 50 71 51 37 52 74 53 68 54 67 55
REMARK SMILES IDX 38 57 60 58 45 59 59 60 46 61 49 62 58 63 72 64 47 65 48 66
REMARK SMILES IDX 57 68 73 69 50 70 39 71 40 72 44 73 41 74 43 75 42 76 61 77
REMARK SMILES IDX 62 78 66 79 63 80 65 81 64 82 51 83 52 84 56 85 53 86 55 87
REMARK SMILES IDX 54 88
REMARK H PARENT 10 14 9 21 9 22 71 56 49 67
REMARK Flexibility Score: inf
ROOT
ATOM      1  C   UNL A   1      33.340  24.417  26.628  1.00  0.00     0.188 C 
ENDROOT
BRANCH   1   2
ATOM      2  C   UNL A   1      33.332  25.753  25.864  1.00  0.00     0.188 C 
BRANCH   2   3
ATOM      3  O   UNL A   1      33.896  26.903  26.468  1.00  0.00    -0.376 OA
BRANCH   3   4
ATOM      4  C   UNL A   1      33.076  28.006  26.817  1.00  0.00     0.202 C 
BRANCH   4   5
ATOM      5  C   UNL A   1      31.835  28.442  26.001  1.00  0.00     0.261 C 
BRANCH   5   6
ATOM      6  O   UNL A   1      32.010  29.450  24.982  1.00  0.00    -0.463 OA
BRANCH   6   7
ATOM      7  C   UNL A   1      31.400  29.213  23.793  1.00  0.00     0.315 C 
ATOM      8  O   UNL A   1      32.026  28.995  22.758  1.00  0.00    -0.251 OA
BRANCH   7   9
ATOM      9  C   UNL A   1      29.856  29.204  23.827  1.00  0.00     0.148 C 
BRANCH   9  10
ATOM     10  C   UNL A   1      29.023  27.936  23.529  1.00  0.00     0.136 C 
BRANCH  10  11
ATOM     11  N   UNL A   1      29.727  26.798  22.979  1.00  0.00    -0.355 N 
ATOM     12  O   UNL A   1      29.759  25.622  24.957  1.00  0.00    -0.275 OA
ATOM     13  C   UNL A   1      30.072  25.725  23.777  1.00  0.00     0.226 C 
ATOM     14  H   UNL A   1      29.963  26.788  22.023  1.00  0.00     0.163 HD
BRANCH  13  15
ATOM     15  C   UNL A   1      30.926  24.699  23.078  1.00  0.00     0.165 C 
BRANCH  15  16
ATOM     16  C   UNL A   1      32.398  25.129  22.952  1.00  0.00     0.201 C 
ATOM     17  C   UNL A   1      32.667  26.037  21.727  1.00  0.00     0.135 C 
ATOM     18  N   UNL A   1      33.294  23.949  22.953  1.00  0.00    -0.342 N 
ATOM     19  S   UNL A   1      32.457  25.211  20.109  1.00  0.00    -0.150 SA
ATOM     20  C   UNL A   1      33.061  23.080  21.790  1.00  0.00     0.271 C 
ATOM     21  H   UNL A   1      33.128  23.411  23.804  1.00  0.00     0.346 HD
ATOM     22  H   UNL A   1      34.256  24.284  22.907  1.00  0.00     0.346 HD
ATOM     23  C   UNL A   1      33.441  23.720  20.454  1.00  0.00     0.131 C 
ENDBRANCH  15  16
ENDBRANCH  13  15
ENDBRANCH  10  11
ENDBRANCH   9  10
BRANCH   9  24
ATOM     24  C   UNL A   1      29.332  30.429  23.063  1.00  0.00    -0.032 A 
ATOM     25  C   UNL A   1      29.135  31.688  23.658  1.00  0.00     0.004 A 
ATOM     26  C   UNL A   1      28.922  30.261  21.731  1.00  0.00     0.004 A 
ATOM     27  C   UNL A   1      28.516  32.727  22.958  1.00  0.00     0.000 A 
ATOM     28  C   UNL A   1      28.319  31.305  21.028  1.00  0.00     0.000 A 
ATOM     29  C   UNL A   1      28.106  32.534  21.645  1.00  0.00     0.000 A 
ENDBRANCH   9  24
ENDBRANCH   7   9
ENDBRANCH   6   7
ENDBRANCH   5   6
ENDBRANCH   4   5
ENDBRANCH   3   4
ENDBRANCH   2   3
ENDBRANCH   1   2
BRANCH   1  30
ATOM     30  O   UNL A   1      33.428  23.263  25.815  1.00  0.00    -0.377 OA
BRANCH  30  31
ATOM     31  C   UNL A   1      34.446  22.334  26.158  1.00  0.00     0.188 C 
BRANCH  31  32
ATOM     32  C   UNL A   1      35.625  22.137  25.185  1.00  0.00     0.188 C 
BRANCH  32  33
ATOM     33  O   UNL A   1      36.248  20.860  25.277  1.00  0.00    -0.376 OA
BRANCH  33  34
ATOM     34  C   UNL A   1      37.475  20.648  24.594  1.00  0.00     0.202 C 
BRANCH  34  35
ATOM     35  C   UNL A   1      38.430  19.589  25.169  1.00  0.00     0.261 C 
BRANCH  35  36
ATOM     36  O   UNL A   1      39.265  20.003  26.262  1.00  0.00    -0.460 OA
BRANCH  36  37
ATOM     37  C   UNL A   1      40.593  19.750  26.184  1.00  0.00     0.338 C 
ATOM     38  O   UNL A   1      41.127  18.774  25.709  1.00  0.00    -0.246 OA
BRANCH  37  39
ATOM     39  C   UNL A   1      41.299  20.992  26.588  1.00  0.00     0.060 A 
ATOM     40  C   UNL A   1      41.561  21.209  27.947  1.00  0.00     0.016 A 
ATOM     41  C   UNL A   1      41.741  21.908  25.631  1.00  0.00     0.016 A 
ATOM     42  C   UNL A   1      42.266  22.346  28.355  1.00  0.00     0.010 A 
ATOM     43  C   UNL A   1      42.418  23.060  26.044  1.00  0.00     0.010 A 
ATOM     44  C   UNL A   1      42.672  23.295  27.409  1.00  0.00    -0.014 A 
BRANCH  44  45
ATOM     45  C   UNL A   1      43.221  24.604  27.843  1.00  0.00     0.031 A 
ATOM     46  C   UNL A   1      42.261  25.687  28.248  1.00  0.00     0.074 A 
ATOM     47  C   UNL A   1      44.547  24.836  27.886  1.00  0.00     0.049 A 
ATOM     48  N   UNL A   1      42.503  26.937  28.546  1.00  0.00    -0.248 NA
ATOM     49  C   UNL A   1      40.842  25.307  28.343  1.00  0.00     0.031 C 
ATOM     50  C   UNL A   1      45.590  23.851  27.618  1.00  0.00     0.029 A 
ATOM     51  N   UNL A   1      45.241  25.993  28.155  1.00  0.00    -0.354 N 
ATOM     52  C   UNL A   1      41.268  27.496  28.849  1.00  0.00     0.074 A 
ATOM     53  C   UNL A   1      40.277  26.456  28.689  1.00  0.00     0.031 C 
ATOM     54  C   UNL A   1      46.791  24.452  27.706  1.00  0.00     0.029 A 
ATOM     55  C   UNL A   1      46.597  25.876  27.960  1.00  0.00     0.049 A 
ATOM     56  H   UNL A   1      44.808  26.824  28.457  1.00  0.00     0.167 HD
ATOM     57  C   UNL A   1      40.989  28.766  29.224  1.00  0.00     0.031 A 
ATOM     58  C   UNL A   1      47.563  26.816  27.928  1.00  0.00     0.031 A 
ATOM     59  C   UNL A   1      41.975  29.800  29.379  1.00  0.00     0.049 A 
ATOM     60  C   UNL A   1      47.201  28.251  28.197  1.00  0.00     0.074 A 
ATOM     61  C   UNL A   1      41.790  31.105  29.803  1.00  0.00     0.029 A 
ATOM     62  N   UNL A   1      43.323  29.656  29.098  1.00  0.00    -0.354 N 
ATOM     63  N   UNL A   1      46.039  28.761  28.522  1.00  0.00    -0.248 NA
ATOM     64  C   UNL A   1      48.286  29.240  28.103  1.00  0.00     0.031 C 
ATOM     65  C   UNL A   1      43.013  31.772  29.699  1.00  0.00     0.029 A 
ATOM     66  C   UNL A   1      43.972  30.864  29.281  1.00  0.00     0.049 A 
ATOM     67  H   UNL A   1      43.755  28.819  28.811  1.00  0.00     0.167 HD
ATOM     68  C   UNL A   1      46.259  30.121  28.704  1.00  0.00     0.074 A 
ATOM     69  C   UNL A   1      47.667  30.355  28.466  1.00  0.00     0.031 C 
ATOM     70  C   UNL A   1      45.373  31.087  29.042  1.00  0.00     0.031 A 
BRANCH  57  71
ATOM     71  C   UNL A   1      39.551  29.134  29.450  1.00  0.00    -0.014 A 
ATOM     72  C   UNL A   1      38.786  29.756  28.452  1.00  0.00     0.009 A 
ATOM     73  C   UNL A   1      38.930  28.766  30.655  1.00  0.00     0.009 A 
ATOM     74  C   UNL A   1      37.430  30.014  28.665  1.00  0.00     0.001 A 
ATOM     75  C   UNL A   1      37.570  29.001  30.854  1.00  0.00     0.001 A 
ATOM     76  C   UNL A   1      36.821  29.628  29.859  1.00  0.00     0.000 A 
ENDBRANCH  57  71
BRANCH  58  77
ATOM     77  C   UNL A   1      48.954  26.465  27.528  1.00  0.00    -0.014 A 
ATOM     78  C   UNL A   1      49.940  26.174  28.481  1.00  0.00     0.009 A 
ATOM     79  C   UNL A   1      49.321  26.510  26.173  1.00  0.00     0.009 A 
ATOM     80  C   UNL A   1      51.264  25.962  28.085  1.00  0.00     0.001 A 
ATOM     81  C   UNL A   1      50.636  26.259  25.775  1.00  0.00     0.001 A 
ATOM     82  C   UNL A   1      51.610  25.997  26.735  1.00  0.00     0.000 A 
ENDBRANCH  58  77
BRANCH  70  83
ATOM     83  C   UNL A   1      45.899  32.484  29.209  1.00  0.00    -0.014 A 
ATOM     84  C   UNL A   1      46.064  33.336  28.107  1.00  0.00     0.009 A 
ATOM     85  C   UNL A   1      46.180  32.971  30.496  1.00  0.00     0.009 A 
ATOM     86  C   UNL A   1      46.523  34.642  28.289  1.00  0.00     0.001 A 
ATOM     87  C   UNL A   1      46.607  34.287  30.677  1.00  0.00     0.001 A 
ATOM     88  C   UNL A   1      46.785  35.119  29.574  1.00  0.00     0.000 A 
ENDBRANCH  70  83
ENDBRANCH  44  45
ENDBRANCH  37  39
ENDBRANCH  36  37
ENDBRANCH  35  36
ENDBRANCH  34  35
ENDBRANCH  33  34
ENDBRANCH  32  33
ENDBRANCH  31  32
ENDBRANCH  30  31
ENDBRANCH   1  30
TORSDOF 25
ENDMDL
MODEL 3
REMARK VINA RESULT:      -8.5      0.875      5.709
REMARK SMILES O=C(C[C@@H]1CSCC[NH2+]1)NC[C@@H](C(=O)OCCOCCOCCOCCOC(=O)c1ccc(-c2c3nc(c(-c4ccccc4)c4ccc([nH]4)c(-c4ccccc4)c4nc(c(-c5ccccc5)c5ccc2[nH]5)C=C4)C=C3)cc1)c1ccccc1
REMARK SMILES IDX 20 1 19 2 18 3 17 4 16 5 15 6 13 7 14 8 12 9 11 10 10 11
REMARK SMILES IDX 1 12 2 13 3 15 4 16 5 17 9 18 6 19 8 20 7 23 78 24 79 25
REMARK SMILES IDX 83 26 80 27 82 28 81 29 21 30 22 31 23 32 24 33 25 34 26 35
REMARK SMILES IDX 27 36 28 37 29 38 30 39 31 40 77 41 32 42 76 43 33 44 34 45
REMARK SMILES IDX 35 46 70 47 36 48 75 49 69 50 71 51 37 52 74 53 68 54 67 55
REMARK SMILES IDX 38 57 60 58 45 59 59 60 46 61 49 62 58 63 72 64 47 65 48 66
REMARK SMILES IDX 57 68 73 69 50 70 39 71 40 72 44 73 41 74 43 75 42 76 61 77
REMARK SMILES IDX 62 78 66 79 63 80 65 81 64 82 51 83 52 84 56 85 53 86 55 87
REMARK SMILES IDX 54 88
REMARK H PARENT 10 14 9 21 9 22 71 56 49 67
REMARK Flexibility Score: inf
ROOT
ATOM      1  C   UNL A   1      33.215  21.637  24.243  1.00  0.00     0.188 C 
ENDROOT
BRANCH   1   2
ATOM      2  C   UNL A   1      32.439  22.042  22.977  1.00  0.00     0.188 C 
BRANCH   2   3
ATOM      3  O   UNL A   1      32.543  23.368  22.492  1.00  0.00    -0.376 OA
BRANCH   3   4
ATOM      4  C   UNL A   1      33.403  24.300  23.127  1.00  0.00     0.202 C 
BRANCH   4   5
ATOM      5  C   UNL A   1      33.460  25.802  22.759  1.00  0.00     0.261 C 
BRANCH   5   6
ATOM      6  O   UNL A   1      33.789  26.746  23.802  1.00  0.00    -0.463 OA
BRANCH   6   7
ATOM      7  C   UNL A   1      33.663  28.060  23.484  1.00  0.00     0.315 C 
ATOM      8  O   UNL A   1      34.298  28.585  22.573  1.00  0.00    -0.251 OA
BRANCH   7   9
ATOM      9  C   UNL A   1      32.641  28.854  24.327  1.00  0.00     0.148 C 
BRANCH   9  10
ATOM     10  C   UNL A   1      32.564  28.742  25.866  1.00  0.00     0.136 C 
BRANCH  10  11
ATOM     11  N   UNL A   1      32.634  29.974  26.622  1.00  0.00    -0.355 N 
ATOM     12  O   UNL A   1      34.849  29.719  27.194  1.00  0.00    -0.275 OA
ATOM     13  C   UNL A   1      33.798  30.345  27.267  1.00  0.00     0.226 C 
ATOM     14  H   UNL A   1      31.841  30.555  26.678  1.00  0.00     0.163 HD
BRANCH  13  15
ATOM     15  C   UNL A   1      33.651  31.575  28.123  1.00  0.00     0.165 C 
BRANCH  15  16
ATOM     16  C   UNL A   1      34.484  32.765  27.614  1.00  0.00     0.201 C 
ATOM     17  C   UNL A   1      35.778  33.000  28.431  1.00  0.00     0.135 C 
ATOM     18  N   UNL A   1      33.660  33.994  27.546  1.00  0.00    -0.342 N 
ATOM     19  S   UNL A   1      35.499  33.547  30.153  1.00  0.00    -0.150 SA
ATOM     20  C   UNL A   1      33.187  34.415  28.873  1.00  0.00     0.271 C 
ATOM     21  H   UNL A   1      32.851  33.816  26.950  1.00  0.00     0.346 HD
ATOM     22  H   UNL A   1      34.241  34.742  27.168  1.00  0.00     0.346 HD
ATOM     23  C   UNL A   1      34.306  34.877  29.808  1.00  0.00     0.131 C 
ENDBRANCH  15  16
ENDBRANCH  13  15
ENDBRANCH  10  11
ENDBRANCH   9  10
BRANCH   9  24
ATOM     24  C   UNL A   1      31.255  28.736  23.673  1.00  0.00    -0.032 A 
ATOM     25  C   UNL A   1      30.722  29.708  22.807  1.00  0.00     0.004 A 
ATOM     26  C   UNL A   1      30.431  27.661  24.040  1.00  0.00     0.004 A 
ATOM     27  C   UNL A   1      29.401  29.626  22.359  1.00  0.00     0.000 A 
ATOM     28  C   UNL A   1      29.118  27.573  23.579  1.00  0.00     0.000 A 
ATOM     29  C   UNL A   1      28.599  28.560  22.747  1.00  0.00     0.000 A 
ENDBRANCH   9  24
ENDBRANCH   7   9
ENDBRANCH   6   7
ENDBRANCH   5   6
ENDBRANCH   4   5
ENDBRANCH   3   4
ENDBRANCH   2   3
ENDBRANCH   1   2
BRANCH   1  30
ATOM     30  O   UNL A   1      33.668  20.296  24.264  1.00  0.00    -0.377 OA
BRANCH  30  31
ATOM     31  C   UNL A   1      34.792  20.030  25.089  1.00  0.00     0.188 C 
BRANCH  31  32
ATOM     32  C   UNL A   1      35.933  21.065  25.139  1.00  0.00     0.188 C 
BRANCH  32  33
ATOM     33  O   UNL A   1      37.151  20.617  24.554  1.00  0.00    -0.376 OA
BRANCH  33  34
ATOM     34  C   UNL A   1      38.372  20.885  25.228  1.00  0.00     0.202 C 
BRANCH  34  35
ATOM     35  C   UNL A   1      39.170  19.680  25.751  1.00  0.00     0.261 C 
BRANCH  35  36
ATOM     36  O   UNL A   1      40.544  19.590  25.338  1.00  0.00    -0.460 OA
BRANCH  36  37
ATOM     37  C   UNL A   1      41.499  19.560  26.296  1.00  0.00     0.338 C 
ATOM     38  O   UNL A   1      42.051  18.585  26.751  1.00  0.00    -0.246 OA
BRANCH  37  39
ATOM     39  C   UNL A   1      41.916  20.964  26.541  1.00  0.00     0.060 A 
ATOM     40  C   UNL A   1      42.168  21.375  27.857  1.00  0.00     0.016 A 
ATOM     41  C   UNL A   1      42.105  21.851  25.479  1.00  0.00     0.016 A 
ATOM     42  C   UNL A   1      42.607  22.676  28.115  1.00  0.00     0.010 A 
ATOM     43  C   UNL A   1      42.514  23.162  25.743  1.00  0.00     0.010 A 
ATOM     44  C   UNL A   1      42.753  23.588  27.063  1.00  0.00    -0.014 A 
BRANCH  44  45
ATOM     45  C   UNL A   1      43.004  25.025  27.341  1.00  0.00     0.031 A 
ATOM     46  C   UNL A   1      44.404  25.551  27.197  1.00  0.00     0.074 A 
ATOM     47  C   UNL A   1      42.012  25.858  27.712  1.00  0.00     0.049 A 
ATOM     48  N   UNL A   1      44.878  26.731  27.499  1.00  0.00    -0.248 NA
ATOM     49  C   UNL A   1      45.399  24.628  26.624  1.00  0.00     0.031 C 
ATOM     50  C   UNL A   1      40.597  25.508  27.794  1.00  0.00     0.029 A 
ATOM     51  N   UNL A   1      42.055  27.174  28.108  1.00  0.00    -0.354 N 
ATOM     52  C   UNL A   1      46.227  26.689  27.167  1.00  0.00     0.074 A 
ATOM     53  C   UNL A   1      46.499  25.366  26.652  1.00  0.00     0.031 C 
ATOM     54  C   UNL A   1      39.911  26.575  28.244  1.00  0.00     0.029 A 
ATOM     55  C   UNL A   1      40.845  27.652  28.552  1.00  0.00     0.049 A 
ATOM     56  H   UNL A   1      42.873  27.721  28.076  1.00  0.00     0.167 HD
ATOM     57  C   UNL A   1      47.153  27.669  27.285  1.00  0.00     0.031 A 
ATOM     58  C   UNL A   1      40.535  28.798  29.190  1.00  0.00     0.031 A 
ATOM     59  C   UNL A   1      46.881  28.983  27.801  1.00  0.00     0.049 A 
ATOM     60  C   UNL A   1      41.618  29.810  29.450  1.00  0.00     0.074 A 
ATOM     61  C   UNL A   1      47.748  30.057  27.913  1.00  0.00     0.029 A 
ATOM     62  N   UNL A   1      45.662  29.396  28.309  1.00  0.00    -0.354 N 
ATOM     63  N   UNL A   1      42.879  29.778  29.096  1.00  0.00    -0.248 NA
ATOM     64  C   UNL A   1      41.234  31.022  30.191  1.00  0.00     0.031 C 
ATOM     65  C   UNL A   1      47.074  31.092  28.565  1.00  0.00     0.029 A 
ATOM     66  C   UNL A   1      45.768  30.688  28.791  1.00  0.00     0.049 A 
ATOM     67  H   UNL A   1      44.841  28.852  28.325  1.00  0.00     0.167 HD
ATOM     68  C   UNL A   1      43.429  30.974  29.539  1.00  0.00     0.074 A 
ATOM     69  C   UNL A   1      42.363  31.716  30.178  1.00  0.00     0.031 C 
ATOM     70  C   UNL A   1      44.702  31.419  29.424  1.00  0.00     0.031 A 
BRANCH  57  71
ATOM     71  C   UNL A   1      48.568  27.351  26.896  1.00  0.00    -0.014 A 
ATOM     72  C   UNL A   1      49.541  27.031  27.855  1.00  0.00     0.009 A 
ATOM     73  C   UNL A   1      48.906  27.284  25.534  1.00  0.00     0.009 A 
ATOM     74  C   UNL A   1      50.827  26.664  27.456  1.00  0.00     0.001 A 
ATOM     75  C   UNL A   1      50.184  26.892  25.138  1.00  0.00     0.001 A 
ATOM     76  C   UNL A   1      51.145  26.584  26.099  1.00  0.00     0.000 A 
ENDBRANCH  57  71
BRANCH  58  77
ATOM     77  C   UNL A   1      39.166  29.024  29.730  1.00  0.00    -0.014 A 
ATOM     78  C   UNL A   1      38.196  29.725  28.999  1.00  0.00     0.009 A 
ATOM     79  C   UNL A   1      38.853  28.607  31.034  1.00  0.00     0.009 A 
ATOM     80  C   UNL A   1      36.957  30.024  29.574  1.00  0.00     0.001 A 
ATOM     81  C   UNL A   1      37.601  28.871  31.593  1.00  0.00     0.001 A 
ATOM     82  C   UNL A   1      36.657  29.592  30.866  1.00  0.00     0.000 A 
ENDBRANCH  58  77
BRANCH  70  83
ATOM     83  C   UNL A   1      45.013  32.784  29.968  1.00  0.00    -0.014 A 
ATOM     84  C   UNL A   1      45.064  33.908  29.129  1.00  0.00     0.009 A 
ATOM     85  C   UNL A   1      45.202  32.954  31.348  1.00  0.00     0.009 A 
ATOM     86  C   UNL A   1      45.323  35.172  29.661  1.00  0.00     0.001 A 
ATOM     87  C   UNL A   1      45.427  34.224  31.881  1.00  0.00     0.001 A 
ATOM     88  C   UNL A   1      45.495  35.331  31.036  1.00  0.00     0.000 A 
ENDBRANCH  70  83
ENDBRANCH  44  45
ENDBRANCH  37  39
ENDBRANCH  36  37
ENDBRANCH  35  36
ENDBRANCH  34  35
ENDBRANCH  33  34
ENDBRANCH  32  33
ENDBRANCH  31  32
ENDBRANCH  30  31
ENDBRANCH   1  30
TORSDOF 25
ENDMDL
