MODEL 1
REMARK VINA RESULT:      -9.7      0.000      0.000
REMARK SMILES Cc1cccc(N2C(=O)/C(=C/c3cccn3-c3cccc(C(=O)OCCOCCOCCOCCOC(=O)c4ccc(-c5c6nc(c(-c7ccccc7)c7ccc([nH]7)c(-c7ccccc7)c7nc(c(-c8ccccc8)c8ccc5[nH]8)C=C7)C=C6)cc4)c3)C(O)=NC2=S)c1C
REMARK SMILES IDX 29 1 28 2 27 3 26 4 25 5 24 6 22 7 23 8 21 9 17 10 18 11
REMARK SMILES IDX 87 12 19 13 20 14 16 15 12 16 13 17 14 18 15 19 11 20 7 21
REMARK SMILES IDX 8 22 91 23 9 24 10 25 90 26 92 27 88 28 6 29 1 30 2 31 3 32
REMARK SMILES IDX 93 33 4 34 94 35 5 36 89 37 30 39 31 40 32 41 33 42 34 43
REMARK SMILES IDX 35 44 36 45 37 46 38 47 39 48 40 49 86 50 41 51 85 52 42 53
REMARK SMILES IDX 43 54 44 55 79 56 45 57 84 58 78 59 80 60 46 61 83 62 77 63
REMARK SMILES IDX 76 64 47 66 69 67 54 68 68 69 55 70 58 71 67 72 81 73 56 74
REMARK SMILES IDX 57 75 66 77 82 78 59 79 48 80 49 81 53 82 50 83 52 84 51 85
REMARK SMILES IDX 70 86 71 87 75 88 72 89 74 90 73 91 60 92 61 93 65 94 62 95
REMARK SMILES IDX 64 96 63 97
REMARK H PARENT 89 38 80 65 58 76
REMARK Flexibility Score: inf
ROOT
ATOM      1  C   UNL A   1      36.240  32.293  30.862  1.00  0.00     0.188 C 
ENDROOT
BRANCH   1   2
ATOM      2  C   UNL A   1      37.582  31.921  30.199  1.00  0.00     0.188 C 
BRANCH   2   3
ATOM      3  O   UNL A   1      37.449  31.687  28.799  1.00  0.00    -0.376 OA
BRANCH   3   4
ATOM      4  C   UNL A   1      37.742  30.368  28.359  1.00  0.00     0.202 C 
BRANCH   4   5
ATOM      5  C   UNL A   1      36.526  29.443  28.225  1.00  0.00     0.261 C 
BRANCH   5   6
ATOM      6  O   UNL A   1      35.744  29.615  27.038  1.00  0.00    -0.460 OA
BRANCH   6   7
ATOM      7  C   UNL A   1      34.622  30.371  27.105  1.00  0.00     0.338 C 
ATOM      8  O   UNL A   1      34.566  31.599  27.147  1.00  0.00    -0.246 OA
BRANCH   7   9
ATOM      9  C   UNL A   1      33.461  29.480  26.879  1.00  0.00     0.062 A 
ATOM     10  C   UNL A   1      31.703  28.654  25.415  1.00  0.00     0.046 A 
ATOM     11  C   UNL A   1      31.133  27.978  26.505  1.00  0.00     0.026 A 
ATOM     12  C   UNL A   1      32.840  29.443  25.630  1.00  0.00     0.042 A 
ATOM     13  C   UNL A   1      31.746  28.029  27.765  1.00  0.00     0.003 A 
ATOM     14  C   UNL A   1      32.926  28.760  27.944  1.00  0.00     0.016 A 
BRANCH  10  15
ATOM     15  N   UNL A   1      31.139  28.518  24.107  1.00  0.00    -0.317 N 
ATOM     16  C   UNL A   1      31.450  27.571  23.120  1.00  0.00     0.047 A 
ATOM     17  C   UNL A   1      30.638  27.806  22.024  1.00  0.00     0.028 A 
ATOM     18  C   UNL A   1      29.833  28.924  22.313  1.00  0.00     0.020 A 
ATOM     19  C   UNL A   1      30.147  29.332  23.591  1.00  0.00     0.092 A 
BRANCH  16  20
ATOM     20  C   UNL A   1      32.359  26.512  23.380  1.00  0.00     0.046 C 
ATOM     21  N   UNL A   1      33.064  23.371  25.058  1.00  0.00    -0.251 N 
ATOM     22  C   UNL A   1      33.203  24.394  24.120  1.00  0.00     0.270 C 
ATOM     23  C   UNL A   1      32.016  23.333  25.998  1.00  0.00     0.210 C 
ATOM     24  O   UNL A   1      34.125  24.478  23.305  1.00  0.00    -0.268 OA
ATOM     25  C   UNL A   1      32.112  25.416  24.127  1.00  0.00     0.104 C 
ATOM     26  N   UNL A   1      30.890  24.079  25.749  1.00  0.00    -0.184 NA
ATOM     27  S   UNL A   1      32.063  22.433  27.440  1.00  0.00    -0.038 S 
ATOM     28  C   UNL A   1      30.925  25.032  24.894  1.00  0.00     0.226 C 
BRANCH  21  29
ATOM     29  C   UNL A   1      34.077  22.357  25.049  1.00  0.00     0.055 A 
ATOM     30  C   UNL A   1      34.576  18.610  24.372  1.00  0.00     0.044 C 
ATOM     31  C   UNL A   1      34.810  20.053  24.732  1.00  0.00    -0.046 A 
ATOM     32  C   UNL A   1      36.093  20.431  25.163  1.00  0.00     0.004 A 
ATOM     33  C   UNL A   1      33.791  21.029  24.637  1.00  0.00    -0.024 A 
ATOM     34  C   UNL A   1      36.379  21.750  25.502  1.00  0.00     0.002 A 
ATOM     35  C   UNL A   1      32.435  20.685  24.068  1.00  0.00     0.047 C 
ATOM     36  C   UNL A   1      35.375  22.711  25.445  1.00  0.00     0.027 A 
ENDBRANCH  21  29
BRANCH  28  37
ATOM     37  O   UNL A   1      29.766  25.667  24.674  1.00  0.00    -0.493 OA
ATOM     38  H   UNL A   1      28.975  25.343  25.058  1.00  0.00     0.295 HD
ENDBRANCH  28  37
ENDBRANCH  16  20
ENDBRANCH  10  15
ENDBRANCH   7   9
ENDBRANCH   6   7
ENDBRANCH   5   6
ENDBRANCH   4   5
ENDBRANCH   3   4
ENDBRANCH   2   3
ENDBRANCH   1   2
BRANCH   1  39
ATOM     39  O   UNL A   1      35.209  32.607  29.937  1.00  0.00    -0.377 OA
BRANCH  39  40
ATOM     40  C   UNL A   1      34.926  33.986  29.687  1.00  0.00     0.188 C 
BRANCH  40  41
ATOM     41  C   UNL A   1      33.894  34.785  30.520  1.00  0.00     0.188 C 
BRANCH  41  42
ATOM     42  O   UNL A   1      33.701  34.320  31.850  1.00  0.00    -0.376 OA
BRANCH  42  43
ATOM     43  C   UNL A   1      34.369  34.950  32.925  1.00  0.00     0.202 C 
BRANCH  43  44
ATOM     44  C   UNL A   1      34.753  33.986  34.049  1.00  0.00     0.261 C 
BRANCH  44  45
ATOM     45  O   UNL A   1      36.134  33.645  34.071  1.00  0.00    -0.460 OA
BRANCH  45  46
ATOM     46  C   UNL A   1      36.580  33.304  35.290  1.00  0.00     0.338 C 
ATOM     47  O   UNL A   1      36.193  33.705  36.386  1.00  0.00    -0.246 OA
BRANCH  46  48
ATOM     48  C   UNL A   1      37.723  32.428  35.184  1.00  0.00     0.060 A 
ATOM     49  C   UNL A   1      38.932  32.912  35.687  1.00  0.00     0.016 A 
ATOM     50  C   UNL A   1      37.632  31.403  34.243  1.00  0.00     0.016 A 
ATOM     51  C   UNL A   1      40.099  32.469  35.112  1.00  0.00     0.010 A 
ATOM     52  C   UNL A   1      38.793  30.990  33.638  1.00  0.00     0.010 A 
ATOM     53  C   UNL A   1      40.007  31.567  34.045  1.00  0.00    -0.014 A 
BRANCH  53  54
ATOM     54  C   UNL A   1      41.230  31.155  33.362  1.00  0.00     0.031 A 
ATOM     55  C   UNL A   1      41.873  29.953  34.029  1.00  0.00     0.074 A 
ATOM     56  C   UNL A   1      41.542  31.868  32.242  1.00  0.00     0.049 A 
ATOM     57  N   UNL A   1      42.999  29.375  33.767  1.00  0.00    -0.248 NA
ATOM     58  C   UNL A   1      41.156  29.283  35.152  1.00  0.00     0.031 C 
ATOM     59  C   UNL A   1      40.775  33.036  31.747  1.00  0.00     0.029 A 
ATOM     60  N   UNL A   1      42.539  31.769  31.299  1.00  0.00    -0.354 N 
ATOM     61  C   UNL A   1      43.033  28.191  34.522  1.00  0.00     0.074 A 
ATOM     62  C   UNL A   1      41.910  28.218  35.408  1.00  0.00     0.031 C 
ATOM     63  C   UNL A   1      41.362  33.565  30.655  1.00  0.00     0.029 A 
ATOM     64  C   UNL A   1      42.531  32.779  30.311  1.00  0.00     0.049 A 
ATOM     65  H   UNL A   1      43.208  31.047  31.311  1.00  0.00     0.167 HD
ATOM     66  C   UNL A   1      43.915  27.184  34.284  1.00  0.00     0.031 A 
ATOM     67  C   UNL A   1      43.413  32.987  29.292  1.00  0.00     0.031 A 
ATOM     68  C   UNL A   1      44.924  27.584  33.364  1.00  0.00     0.049 A 
ATOM     69  C   UNL A   1      44.298  31.811  29.260  1.00  0.00     0.074 A 
ATOM     70  C   UNL A   1      45.974  28.462  33.461  1.00  0.00     0.029 A 
ATOM     71  N   UNL A   1      44.712  27.300  32.039  1.00  0.00    -0.354 N 
ATOM     72  N   UNL A   1      43.942  30.633  28.848  1.00  0.00    -0.248 NA
ATOM     73  C   UNL A   1      45.664  31.923  29.777  1.00  0.00     0.031 C 
ATOM     74  C   UNL A   1      46.091  29.012  32.163  1.00  0.00     0.029 A 
ATOM     75  C   UNL A   1      45.174  28.380  31.320  1.00  0.00     0.049 A 
ATOM     76  H   UNL A   1      44.306  26.482  31.672  1.00  0.00     0.167 HD
ATOM     77  C   UNL A   1      44.885  29.815  29.420  1.00  0.00     0.074 A 
ATOM     78  C   UNL A   1      46.036  30.647  29.690  1.00  0.00     0.031 C 
ATOM     79  C   UNL A   1      44.495  28.697  30.084  1.00  0.00     0.031 A 
BRANCH  66  80
ATOM     80  C   UNL A   1      43.810  25.746  34.679  1.00  0.00    -0.014 A 
ATOM     81  C   UNL A   1      44.849  24.880  34.284  1.00  0.00     0.009 A 
ATOM     82  C   UNL A   1      42.620  25.165  35.140  1.00  0.00     0.009 A 
ATOM     83  C   UNL A   1      44.681  23.495  34.273  1.00  0.00     0.001 A 
ATOM     84  C   UNL A   1      42.463  23.773  35.162  1.00  0.00     0.001 A 
ATOM     85  C   UNL A   1      43.480  22.943  34.700  1.00  0.00     0.000 A 
ENDBRANCH  66  80
BRANCH  67  86
ATOM     86  C   UNL A   1      43.694  34.068  28.285  1.00  0.00    -0.014 A 
ATOM     87  C   UNL A   1      43.775  33.895  26.901  1.00  0.00     0.009 A 
ATOM     88  C   UNL A   1      43.806  35.407  28.743  1.00  0.00     0.009 A 
ATOM     89  C   UNL A   1      43.886  34.997  26.030  1.00  0.00     0.001 A 
ATOM     90  C   UNL A   1      43.879  36.507  27.885  1.00  0.00     0.001 A 
ATOM     91  C   UNL A   1      43.908  36.301  26.519  1.00  0.00     0.000 A 
ENDBRANCH  67  86
BRANCH  79  92
ATOM     92  C   UNL A   1      43.106  28.196  29.722  1.00  0.00    -0.014 A 
ATOM     93  C   UNL A   1      42.906  27.402  28.585  1.00  0.00     0.009 A 
ATOM     94  C   UNL A   1      41.962  28.597  30.436  1.00  0.00     0.009 A 
ATOM     95  C   UNL A   1      41.616  27.038  28.174  1.00  0.00     0.001 A 
ATOM     96  C   UNL A   1      40.672  28.230  30.035  1.00  0.00     0.001 A 
ATOM     97  C   UNL A   1      40.499  27.452  28.897  1.00  0.00     0.000 A 
ENDBRANCH  79  92
ENDBRANCH  53  54
ENDBRANCH  46  48
ENDBRANCH  45  46
ENDBRANCH  44  45
ENDBRANCH  43  44
ENDBRANCH  42  43
ENDBRANCH  41  42
ENDBRANCH  40  41
ENDBRANCH  39  40
ENDBRANCH   1  39
TORSDOF 24
ENDMDL
MODEL 2
REMARK VINA RESULT:      -9.6      4.336      9.772
REMARK SMILES Cc1cccc(N2C(=O)/C(=C/c3cccn3-c3cccc(C(=O)OCCOCCOCCOCCOC(=O)c4ccc(-c5c6nc(c(-c7ccccc7)c7ccc([nH]7)c(-c7ccccc7)c7nc(c(-c8ccccc8)c8ccc5[nH]8)C=C7)C=C6)cc4)c3)C(O)=NC2=S)c1C
REMARK SMILES IDX 29 1 28 2 27 3 26 4 25 5 24 6 22 7 23 8 21 9 17 10 18 11
REMARK SMILES IDX 87 12 19 13 20 14 16 15 12 16 13 17 14 18 15 19 11 20 7 21
REMARK SMILES IDX 8 22 91 23 9 24 10 25 90 26 92 27 88 28 6 29 1 30 2 31 3 32
REMARK SMILES IDX 93 33 4 34 94 35 5 36 89 37 30 39 31 40 32 41 33 42 34 43
REMARK SMILES IDX 35 44 36 45 37 46 38 47 39 48 40 49 86 50 41 51 85 52 42 53
REMARK SMILES IDX 43 54 44 55 79 56 45 57 84 58 78 59 80 60 46 61 83 62 77 63
REMARK SMILES IDX 76 64 47 66 69 67 54 68 68 69 55 70 58 71 67 72 81 73 56 74
REMARK SMILES IDX 57 75 66 77 82 78 59 79 48 80 49 81 53 82 50 83 52 84 51 85
REMARK SMILES IDX 70 86 71 87 75 88 72 89 74 90 73 91 60 92 61 93 65 94 62 95
REMARK SMILES IDX 64 96 63 97
REMARK H PARENT 89 38 80 65 58 76
REMARK Flexibility Score: inf
ROOT
ATOM      1  C   UNL A   1      43.373  18.707  25.348  1.00  0.00     0.188 C 
ENDROOT
BRANCH   1   2
ATOM      2  C   UNL A   1      42.735  19.572  26.454  1.00  0.00     0.188 C 
BRANCH   2   3
ATOM      3  O   UNL A   1      42.776  20.964  26.146  1.00  0.00    -0.376 OA
BRANCH   3   4
ATOM      4  C   UNL A   1      42.179  21.829  27.101  1.00  0.00     0.202 C 
BRANCH   4   5
ATOM      5  C   UNL A   1      41.115  22.781  26.539  1.00  0.00     0.261 C 
BRANCH   5   6
ATOM      6  O   UNL A   1      39.757  22.437  26.838  1.00  0.00    -0.460 OA
BRANCH   6   7
ATOM      7  C   UNL A   1      39.143  21.499  26.078  1.00  0.00     0.338 C 
ATOM      8  O   UNL A   1      39.551  20.364  25.842  1.00  0.00    -0.246 OA
BRANCH   7   9
ATOM      9  C   UNL A   1      37.778  21.988  25.771  1.00  0.00     0.062 A 
ATOM     10  C   UNL A   1      35.528  21.554  24.957  1.00  0.00     0.046 A 
ATOM     11  C   UNL A   1      35.273  22.934  24.971  1.00  0.00     0.026 A 
ATOM     12  C   UNL A   1      36.805  21.101  25.311  1.00  0.00     0.042 A 
ATOM     13  C   UNL A   1      36.258  23.829  25.415  1.00  0.00     0.003 A 
ATOM     14  C   UNL A   1      37.502  23.351  25.840  1.00  0.00     0.016 A 
BRANCH  10  15
ATOM     15  N   UNL A   1      34.492  20.633  24.604  1.00  0.00    -0.317 N 
ATOM     16  C   UNL A   1      33.198  20.915  24.143  1.00  0.00     0.047 A 
ATOM     17  C   UNL A   1      32.551  19.713  23.907  1.00  0.00     0.028 A 
ATOM     18  C   UNL A   1      33.435  18.672  24.249  1.00  0.00     0.020 A 
ATOM     19  C   UNL A   1      34.613  19.256  24.659  1.00  0.00     0.092 A 
BRANCH  16  20
ATOM     20  C   UNL A   1      32.791  22.247  23.867  1.00  0.00     0.046 C 
ATOM     21  N   UNL A   1      31.013  25.229  24.925  1.00  0.00    -0.251 N 
ATOM     22  C   UNL A   1      31.918  24.454  24.200  1.00  0.00     0.270 C 
ATOM     23  C   UNL A   1      30.256  24.718  25.997  1.00  0.00     0.210 C 
ATOM     24  O   UNL A   1      32.572  24.857  23.236  1.00  0.00    -0.268 OA
ATOM     25  C   UNL A   1      32.091  23.052  24.692  1.00  0.00     0.104 C 
ATOM     26  N   UNL A   1      30.686  23.566  26.609  1.00  0.00    -0.184 NA
ATOM     27  S   UNL A   1      28.823  25.430  26.574  1.00  0.00    -0.038 S 
ATOM     28  C   UNL A   1      31.527  22.801  26.019  1.00  0.00     0.226 C 
BRANCH  21  29
ATOM     29  C   UNL A   1      30.853  26.588  24.497  1.00  0.00     0.055 A 
ATOM     30  C   UNL A   1      31.859  30.174  25.437  1.00  0.00     0.044 C 
ATOM     31  C   UNL A   1      31.249  28.981  24.749  1.00  0.00    -0.046 A 
ATOM     32  C   UNL A   1      30.401  29.209  23.652  1.00  0.00     0.004 A 
ATOM     33  C   UNL A   1      31.512  27.655  25.163  1.00  0.00    -0.024 A 
ATOM     34  C   UNL A   1      29.812  28.150  22.966  1.00  0.00     0.002 A 
ATOM     35  C   UNL A   1      32.508  27.366  26.262  1.00  0.00     0.047 C 
ATOM     36  C   UNL A   1      30.037  26.844  23.386  1.00  0.00     0.027 A 
ENDBRANCH  21  29
BRANCH  28  37
ATOM     37  O   UNL A   1      31.934  21.731  26.715  1.00  0.00    -0.493 OA
ATOM     38  H   UNL A   1      32.850  21.586  26.859  1.00  0.00     0.295 HD
ENDBRANCH  28  37
ENDBRANCH  16  20
ENDBRANCH  10  15
ENDBRANCH   7   9
ENDBRANCH   6   7
ENDBRANCH   5   6
ENDBRANCH   4   5
ENDBRANCH   3   4
ENDBRANCH   2   3
ENDBRANCH   1   2
BRANCH   1  39
ATOM     39  O   UNL A   1      44.782  18.573  25.464  1.00  0.00    -0.377 OA
BRANCH  39  40
ATOM     40  C   UNL A   1      45.600  19.188  24.466  1.00  0.00     0.188 C 
BRANCH  40  41
ATOM     41  C   UNL A   1      46.020  20.677  24.538  1.00  0.00     0.188 C 
BRANCH  41  42
ATOM     42  O   UNL A   1      45.088  21.595  23.980  1.00  0.00    -0.376 OA
BRANCH  42  43
ATOM     43  C   UNL A   1      45.026  22.922  24.463  1.00  0.00     0.202 C 
BRANCH  43  44
ATOM     44  C   UNL A   1      46.390  23.612  24.517  1.00  0.00     0.261 C 
BRANCH  44  45
ATOM     45  O   UNL A   1      46.320  25.010  24.772  1.00  0.00    -0.460 OA
BRANCH  45  46
ATOM     46  C   UNL A   1      46.677  25.343  26.022  1.00  0.00     0.338 C 
ATOM     47  O   UNL A   1      47.610  24.907  26.693  1.00  0.00    -0.246 OA
BRANCH  46  48
ATOM     48  C   UNL A   1      45.719  26.260  26.594  1.00  0.00     0.060 A 
ATOM     49  C   UNL A   1      45.447  27.419  25.864  1.00  0.00     0.016 A 
ATOM     50  C   UNL A   1      45.484  26.135  27.963  1.00  0.00     0.016 A 
ATOM     51  C   UNL A   1      45.078  28.549  26.553  1.00  0.00     0.010 A 
ATOM     52  C   UNL A   1      45.157  27.273  28.658  1.00  0.00     0.010 A 
ATOM     53  C   UNL A   1      45.010  28.477  27.950  1.00  0.00    -0.014 A 
BRANCH  53  54
ATOM     54  C   UNL A   1      44.710  29.690  28.705  1.00  0.00     0.031 A 
ATOM     55  C   UNL A   1      45.964  30.481  29.027  1.00  0.00     0.074 A 
ATOM     56  C   UNL A   1      43.386  29.921  28.935  1.00  0.00     0.049 A 
ATOM     57  N   UNL A   1      46.100  31.544  29.751  1.00  0.00    -0.248 NA
ATOM     58  C   UNL A   1      47.266  30.035  28.452  1.00  0.00     0.031 C 
ATOM     59  C   UNL A   1      42.290  29.005  28.537  1.00  0.00     0.029 A 
ATOM     60  N   UNL A   1      42.690  30.947  29.531  1.00  0.00    -0.354 N 
ATOM     61  C   UNL A   1      47.415  32.000  29.560  1.00  0.00     0.074 A 
ATOM     62  C   UNL A   1      48.109  30.999  28.810  1.00  0.00     0.031 C 
ATOM     63  C   UNL A   1      41.098  29.478  28.954  1.00  0.00     0.029 A 
ATOM     64  C   UNL A   1      41.293  30.751  29.620  1.00  0.00     0.049 A 
ATOM     65  H   UNL A   1      43.132  31.758  29.871  1.00  0.00     0.167 HD
ATOM     66  C   UNL A   1      47.827  33.245  29.918  1.00  0.00     0.031 A 
ATOM     67  C   UNL A   1      40.352  31.548  30.203  1.00  0.00     0.031 A 
ATOM     68  C   UNL A   1      46.850  33.908  30.711  1.00  0.00     0.049 A 
ATOM     69  C   UNL A   1      41.031  32.804  30.559  1.00  0.00     0.074 A 
ATOM     70  C   UNL A   1      46.399  33.704  31.991  1.00  0.00     0.029 A 
ATOM     71  N   UNL A   1      45.961  34.723  30.058  1.00  0.00    -0.354 N 
ATOM     72  N   UNL A   1      41.410  33.704  29.704  1.00  0.00    -0.248 NA
ATOM     73  C   UNL A   1      41.376  33.066  31.959  1.00  0.00     0.031 C 
ATOM     74  C   UNL A   1      45.030  34.060  31.940  1.00  0.00     0.029 A 
ATOM     75  C   UNL A   1      44.738  34.547  30.664  1.00  0.00     0.049 A 
ATOM     76  H   UNL A   1      46.160  35.320  29.301  1.00  0.00     0.167 HD
ATOM     77  C   UNL A   1      42.357  34.408  30.405  1.00  0.00     0.074 A 
ATOM     78  C   UNL A   1      42.071  34.190  31.807  1.00  0.00     0.031 C 
ATOM     79  C   UNL A   1      43.560  34.674  29.836  1.00  0.00     0.031 A 
BRANCH  66  80
ATOM     80  C   UNL A   1      49.007  34.012  29.413  1.00  0.00    -0.014 A 
ATOM     81  C   UNL A   1      48.863  34.710  28.197  1.00  0.00     0.009 A 
ATOM     82  C   UNL A   1      50.306  33.831  29.908  1.00  0.00     0.009 A 
ATOM     83  C   UNL A   1      49.971  35.138  27.465  1.00  0.00     0.001 A 
ATOM     84  C   UNL A   1      51.418  34.291  29.192  1.00  0.00     0.001 A 
ATOM     85  C   UNL A   1      51.251  34.916  27.958  1.00  0.00     0.000 A 
ENDBRANCH  66  80
BRANCH  67  86
ATOM     86  C   UNL A   1      38.897  31.442  30.569  1.00  0.00    -0.014 A 
ATOM     87  C   UNL A   1      38.346  30.529  31.471  1.00  0.00     0.009 A 
ATOM     88  C   UNL A   1      37.993  32.395  30.031  1.00  0.00     0.009 A 
ATOM     89  C   UNL A   1      36.995  30.612  31.866  1.00  0.00     0.001 A 
ATOM     90  C   UNL A   1      36.663  32.508  30.445  1.00  0.00     0.001 A 
ATOM     91  C   UNL A   1      36.164  31.617  31.376  1.00  0.00     0.000 A 
ENDBRANCH  67  86
BRANCH  79  92
ATOM     92  C   UNL A   1      43.573  34.597  28.317  1.00  0.00    -0.014 A 
ATOM     93  C   UNL A   1      42.975  35.602  27.545  1.00  0.00     0.009 A 
ATOM     94  C   UNL A   1      44.076  33.474  27.635  1.00  0.00     0.009 A 
ATOM     95  C   UNL A   1      42.873  35.480  26.152  1.00  0.00     0.001 A 
ATOM     96  C   UNL A   1      43.984  33.351  26.244  1.00  0.00     0.001 A 
ATOM     97  C   UNL A   1      43.377  34.355  25.501  1.00  0.00     0.000 A 
ENDBRANCH  79  92
ENDBRANCH  53  54
ENDBRANCH  46  48
ENDBRANCH  45  46
ENDBRANCH  44  45
ENDBRANCH  43  44
ENDBRANCH  42  43
ENDBRANCH  41  42
ENDBRANCH  40  41
ENDBRANCH  39  40
ENDBRANCH   1  39
TORSDOF 24
ENDMDL
MODEL 3
REMARK VINA RESULT:      -9.4      4.003      8.650
REMARK SMILES Cc1cccc(N2C(=O)/C(=C/c3cccn3-c3cccc(C(=O)OCCOCCOCCOCCOC(=O)c4ccc(-c5c6nc(c(-c7ccccc7)c7ccc([nH]7)c(-c7ccccc7)c7nc(c(-c8ccccc8)c8ccc5[nH]8)C=C7)C=C6)cc4)c3)C(O)=NC2=S)c1C
REMARK SMILES IDX 29 1 28 2 27 3 26 4 25 5 24 6 22 7 23 8 21 9 17 10 18 11
REMARK SMILES IDX 87 12 19 13 20 14 16 15 12 16 13 17 14 18 15 19 11 20 7 21
REMARK SMILES IDX 8 22 91 23 9 24 10 25 90 26 92 27 88 28 6 29 1 30 2 31 3 32
REMARK SMILES IDX 93 33 4 34 94 35 5 36 89 37 30 39 31 40 32 41 33 42 34 43
REMARK SMILES IDX 35 44 36 45 37 46 38 47 39 48 40 49 86 50 41 51 85 52 42 53
REMARK SMILES IDX 43 54 44 55 79 56 45 57 84 58 78 59 80 60 46 61 83 62 77 63
REMARK SMILES IDX 76 64 47 66 69 67 54 68 68 69 55 70 58 71 67 72 81 73 56 74
REMARK SMILES IDX 57 75 66 77 82 78 59 79 48 80 49 81 53 82 50 83 52 84 51 85
REMARK SMILES IDX 70 86 71 87 75 88 72 89 74 90 73 91 60 92 61 93 65 94 62 95
REMARK SMILES IDX 64 96 63 97
REMARK H PARENT 89 38 80 65 58 76
REMARK Flexibility Score: inf
ROOT
ATOM      1  C   UNL A   1      43.384  18.849  25.358  1.00  0.00     0.188 C 
ENDROOT
BRANCH   1   2
ATOM      2  C   UNL A   1      42.776  19.700  26.491  1.00  0.00     0.188 C 
BRANCH   2   3
ATOM      3  O   UNL A   1      42.906  21.099  26.249  1.00  0.00    -0.376 OA
BRANCH   3   4
ATOM      4  C   UNL A   1      42.248  21.953  27.174  1.00  0.00     0.202 C 
BRANCH   4   5
ATOM      5  C   UNL A   1      41.091  22.775  26.591  1.00  0.00     0.261 C 
BRANCH   5   6
ATOM      6  O   UNL A   1      39.777  22.275  26.864  1.00  0.00    -0.460 OA
BRANCH   6   7
ATOM      7  C   UNL A   1      39.222  21.400  25.992  1.00  0.00     0.338 C 
ATOM      8  O   UNL A   1      39.655  20.289  25.692  1.00  0.00    -0.246 OA
BRANCH   7   9
ATOM      9  C   UNL A   1      37.876  21.906  25.638  1.00  0.00     0.062 A 
ATOM     10  C   UNL A   1      35.619  21.484  24.834  1.00  0.00     0.046 A 
ATOM     11  C   UNL A   1      35.407  22.868  24.748  1.00  0.00     0.026 A 
ATOM     12  C   UNL A   1      36.879  21.019  25.232  1.00  0.00     0.042 A 
ATOM     13  C   UNL A   1      36.415  23.762  25.138  1.00  0.00     0.003 A 
ATOM     14  C   UNL A   1      37.640  23.278  25.608  1.00  0.00     0.016 A 
BRANCH  10  15
ATOM     15  N   UNL A   1      34.558  20.571  24.537  1.00  0.00    -0.317 N 
ATOM     16  C   UNL A   1      33.245  20.864  24.140  1.00  0.00     0.047 A 
ATOM     17  C   UNL A   1      32.577  19.668  23.940  1.00  0.00     0.028 A 
ATOM     18  C   UNL A   1      33.467  18.620  24.240  1.00  0.00     0.020 A 
ATOM     19  C   UNL A   1      34.670  19.194  24.589  1.00  0.00     0.092 A 
BRANCH  16  20
ATOM     20  C   UNL A   1      32.837  22.199  23.881  1.00  0.00     0.046 C 
ATOM     21  N   UNL A   1      31.069  25.171  24.984  1.00  0.00    -0.251 N 
ATOM     22  C   UNL A   1      31.968  24.404  24.245  1.00  0.00     0.270 C 
ATOM     23  C   UNL A   1      30.320  24.649  26.056  1.00  0.00     0.210 C 
ATOM     24  O   UNL A   1      32.615  24.816  23.280  1.00  0.00    -0.268 OA
ATOM     25  C   UNL A   1      32.144  22.997  24.720  1.00  0.00     0.104 C 
ATOM     26  N   UNL A   1      30.754  23.491  26.653  1.00  0.00    -0.184 NA
ATOM     27  S   UNL A   1      28.892  25.356  26.652  1.00  0.00    -0.038 S 
ATOM     28  C   UNL A   1      31.590  22.731  26.049  1.00  0.00     0.226 C 
BRANCH  21  29
ATOM     29  C   UNL A   1      30.907  26.535  24.572  1.00  0.00     0.055 A 
ATOM     30  C   UNL A   1      31.946  30.107  25.526  1.00  0.00     0.044 C 
ATOM     31  C   UNL A   1      31.318  28.924  24.839  1.00  0.00    -0.046 A 
ATOM     32  C   UNL A   1      30.450  29.165  23.760  1.00  0.00     0.004 A 
ATOM     33  C   UNL A   1      31.583  27.592  25.235  1.00  0.00    -0.024 A 
ATOM     34  C   UNL A   1      29.844  28.115  23.075  1.00  0.00     0.002 A 
ATOM     35  C   UNL A   1      32.599  27.290  26.312  1.00  0.00     0.047 C 
ATOM     36  C   UNL A   1      30.071  26.805  23.479  1.00  0.00     0.027 A 
ENDBRANCH  21  29
BRANCH  28  37
ATOM     37  O   UNL A   1      32.002  21.653  26.730  1.00  0.00    -0.493 OA
ATOM     38  H   UNL A   1      31.520  20.851  26.673  1.00  0.00     0.295 HD
ENDBRANCH  28  37
ENDBRANCH  16  20
ENDBRANCH  10  15
ENDBRANCH   7   9
ENDBRANCH   6   7
ENDBRANCH   5   6
ENDBRANCH   4   5
ENDBRANCH   3   4
ENDBRANCH   2   3
ENDBRANCH   1   2
BRANCH   1  39
ATOM     39  O   UNL A   1      44.783  18.640  25.482  1.00  0.00    -0.377 OA
BRANCH  39  40
ATOM     40  C   UNL A   1      45.640  19.212  24.491  1.00  0.00     0.188 C 
BRANCH  40  41
ATOM     41  C   UNL A   1      46.410  20.535  24.722  1.00  0.00     0.188 C 
BRANCH  41  42
ATOM     42  O   UNL A   1      45.595  21.688  24.890  1.00  0.00    -0.376 OA
BRANCH  42  43
ATOM     43  C   UNL A   1      46.190  22.958  25.059  1.00  0.00     0.202 C 
BRANCH  43  44
ATOM     44  C   UNL A   1      45.382  23.891  25.964  1.00  0.00     0.261 C 
BRANCH  44  45
ATOM     45  O   UNL A   1      46.103  25.036  26.404  1.00  0.00    -0.460 OA
BRANCH  45  46
ATOM     46  C   UNL A   1      46.208  25.993  25.469  1.00  0.00     0.338 C 
ATOM     47  O   UNL A   1      46.669  25.906  24.333  1.00  0.00    -0.246 OA
BRANCH  46  48
ATOM     48  C   UNL A   1      45.790  27.268  26.003  1.00  0.00     0.060 A 
ATOM     49  C   UNL A   1      46.576  27.810  27.021  1.00  0.00     0.016 A 
ATOM     50  C   UNL A   1      44.462  27.628  25.778  1.00  0.00     0.016 A 
ATOM     51  C   UNL A   1      45.970  28.621  27.949  1.00  0.00     0.010 A 
ATOM     52  C   UNL A   1      43.843  28.404  26.726  1.00  0.00     0.010 A 
ATOM     53  C   UNL A   1      44.593  28.847  27.828  1.00  0.00    -0.014 A 
BRANCH  53  54
ATOM     54  C   UNL A   1      43.914  29.631  28.855  1.00  0.00     0.031 A 
ATOM     55  C   UNL A   1      43.404  28.759  29.988  1.00  0.00     0.074 A 
ATOM     56  C   UNL A   1      43.905  30.979  28.650  1.00  0.00     0.049 A 
ATOM     57  N   UNL A   1      42.682  29.082  31.011  1.00  0.00    -0.248 NA
ATOM     58  C   UNL A   1      43.754  27.309  29.995  1.00  0.00     0.031 C 
ATOM     59  C   UNL A   1      44.462  31.652  27.452  1.00  0.00     0.029 A 
ATOM     60  N   UNL A   1      43.443  32.049  29.382  1.00  0.00    -0.354 N 
ATOM     61  C   UNL A   1      42.664  27.966  31.864  1.00  0.00     0.074 A 
ATOM     62  C   UNL A   1      43.278  26.882  31.162  1.00  0.00     0.031 C 
ATOM     63  C   UNL A   1      44.250  32.982  27.510  1.00  0.00     0.029 A 
ATOM     64  C   UNL A   1      43.580  33.307  28.754  1.00  0.00     0.049 A 
ATOM     65  H   UNL A   1      43.048  31.945  30.277  1.00  0.00     0.167 HD
ATOM     66  C   UNL A   1      42.261  28.031  33.161  1.00  0.00     0.031 A 
ATOM     67  C   UNL A   1      43.167  34.532  29.191  1.00  0.00     0.031 A 
ATOM     68  C   UNL A   1      41.646  29.280  33.453  1.00  0.00     0.049 A 
ATOM     69  C   UNL A   1      42.724  34.350  30.582  1.00  0.00     0.074 A 
ATOM     70  C   UNL A   1      40.454  29.840  33.069  1.00  0.00     0.029 A 
ATOM     71  N   UNL A   1      42.446  30.266  33.972  1.00  0.00    -0.354 N 
ATOM     72  N   UNL A   1      43.519  34.145  31.588  1.00  0.00    -0.248 NA
ATOM     73  C   UNL A   1      41.290  34.332  30.886  1.00  0.00     0.031 C 
ATOM     74  C   UNL A   1      40.731  31.224  32.978  1.00  0.00     0.029 A 
ATOM     75  C   UNL A   1      42.044  31.450  33.397  1.00  0.00     0.049 A 
ATOM     76  H   UNL A   1      43.169  30.149  34.629  1.00  0.00     0.167 HD
ATOM     77  C   UNL A   1      42.683  33.592  32.527  1.00  0.00     0.074 A 
ATOM     78  C   UNL A   1      41.344  34.013  32.177  1.00  0.00     0.031 C 
ATOM     79  C   UNL A   1      43.054  32.462  33.179  1.00  0.00     0.031 A 
BRANCH  66  80
ATOM     80  C   UNL A   1      42.579  27.090  34.279  1.00  0.00    -0.014 A 
ATOM     81  C   UNL A   1      43.931  26.751  34.486  1.00  0.00     0.009 A 
ATOM     82  C   UNL A   1      41.608  26.308  34.920  1.00  0.00     0.009 A 
ATOM     83  C   UNL A   1      44.297  25.631  35.233  1.00  0.00     0.001 A 
ATOM     84  C   UNL A   1      41.975  25.204  35.699  1.00  0.00     0.001 A 
ATOM     85  C   UNL A   1      43.315  24.849  35.829  1.00  0.00     0.000 A 
ENDBRANCH  66  80
BRANCH  67  86
ATOM     86  C   UNL A   1      43.041  35.917  28.620  1.00  0.00    -0.014 A 
ATOM     87  C   UNL A   1      43.834  37.015  28.957  1.00  0.00     0.009 A 
ATOM     88  C   UNL A   1      42.096  36.137  27.583  1.00  0.00     0.009 A 
ATOM     89  C   UNL A   1      43.740  38.232  28.251  1.00  0.00     0.001 A 
ATOM     90  C   UNL A   1      42.022  37.327  26.854  1.00  0.00     0.001 A 
ATOM     91  C   UNL A   1      42.857  38.378  27.183  1.00  0.00     0.000 A 
ENDBRANCH  67  86
BRANCH  79  92
ATOM     92  C   UNL A   1      44.549  32.185  33.168  1.00  0.00    -0.014 A 
ATOM     93  C   UNL A   1      45.066  31.082  32.474  1.00  0.00     0.009 A 
ATOM     94  C   UNL A   1      45.451  32.943  33.935  1.00  0.00     0.009 A 
ATOM     95  C   UNL A   1      46.425  30.747  32.558  1.00  0.00     0.001 A 
ATOM     96  C   UNL A   1      46.810  32.618  34.016  1.00  0.00     0.001 A 
ATOM     97  C   UNL A   1      47.297  31.514  33.328  1.00  0.00     0.000 A 
ENDBRANCH  79  92
ENDBRANCH  53  54
ENDBRANCH  46  48
ENDBRANCH  45  46
ENDBRANCH  44  45
ENDBRANCH  43  44
ENDBRANCH  42  43
ENDBRANCH  41  42
ENDBRANCH  40  41
ENDBRANCH  39  40
ENDBRANCH   1  39
TORSDOF 24
ENDMDL
