MODEL 1
REMARK VINA RESULT:     -10.2      0.000      0.000
REMARK SMILES Cc1ccccc1OC1(C(=O)OCCOCCOCCOCCOC(=O)c2ccc(-c3c4nc(c(-c5ccccc5)c5ccc([nH]5)c(-c5ccccc5)c5nc(c(-c6ccccc6)c6ccc3[nH]6)C=C5)C=C4)cc2)CCN(C(=O)[C@H]2CCCCO2)CC1
REMARK SMILES IDX 18 1 17 2 16 3 15 4 14 5 13 6 12 7 10 8 11 9 9 10 75 11
REMARK SMILES IDX 87 12 76 13 86 14 77 15 78 16 79 17 8 18 7 19 1 20 2 21 3 22
REMARK SMILES IDX 4 23 6 24 5 25 80 26 81 27 85 28 82 29 84 30 83 31 19 32
REMARK SMILES IDX 20 33 21 34 22 35 23 36 24 37 25 38 26 39 27 40 28 41 74 42
REMARK SMILES IDX 29 43 73 44 30 45 31 46 32 47 67 48 33 49 72 50 66 51 68 52
REMARK SMILES IDX 34 53 71 54 65 55 64 56 35 58 57 59 42 60 56 61 43 62 46 63
REMARK SMILES IDX 55 64 69 65 44 66 45 67 54 69 70 70 47 71 36 72 37 73 41 74
REMARK SMILES IDX 38 75 40 76 39 77 58 78 59 79 63 80 60 81 62 82 61 83 48 84
REMARK SMILES IDX 49 85 53 86 50 87 52 88 51 89
REMARK H PARENT 68 57 46 68
REMARK Flexibility Score: inf
ROOT
ATOM      1  O   UNL A   1      32.641  28.253  23.988  1.00  0.00    -0.377 OA
ENDROOT
BRANCH   1   2
ATOM      2  C   UNL A   1      33.624  27.500  23.297  1.00  0.00     0.188 C 
BRANCH   2   3
ATOM      3  C   UNL A   1      32.977  26.366  22.485  1.00  0.00     0.188 C 
BRANCH   3   4
ATOM      4  O   UNL A   1      33.645  25.105  22.514  1.00  0.00    -0.376 OA
BRANCH   4   5
ATOM      5  C   UNL A   1      33.062  24.079  21.707  1.00  0.00     0.202 C 
BRANCH   5   6
ATOM      6  C   UNL A   1      32.968  22.710  22.375  1.00  0.00     0.261 C 
BRANCH   6   7
ATOM      7  O   UNL A   1      33.965  22.625  23.396  1.00  0.00    -0.460 OA
BRANCH   7   8
ATOM      8  C   UNL A   1      33.964  21.533  24.201  1.00  0.00     0.350 C 
ATOM      9  O   UNL A   1      33.043  20.757  24.280  1.00  0.00    -0.247 OA
BRANCH   8  10
ATOM     10  C   UNL A   1      35.331  21.445  24.946  1.00  0.00     0.209 C 
ATOM     11  C   UNL A   1      35.809  19.988  25.038  1.00  0.00     0.082 C 
ATOM     12  C   UNL A   1      36.361  22.199  24.087  1.00  0.00     0.082 C 
ATOM     13  C   UNL A   1      37.295  19.675  24.984  1.00  0.00     0.124 C 
ATOM     14  C   UNL A   1      37.766  22.119  24.681  1.00  0.00     0.124 C 
ATOM     15  N   UNL A   1      38.192  20.800  25.146  1.00  0.00    -0.340 N 
ATOM     16  C   UNL A   1      39.443  20.515  25.713  1.00  0.00     0.251 C 
ATOM     17  O   UNL A   1      39.788  19.350  25.941  1.00  0.00    -0.272 OA
BRANCH  10  18
ATOM     18  O   UNL A   1      35.325  22.132  26.204  1.00  0.00    -0.475 OA
BRANCH  18  19
ATOM     19  C   UNL A   1      34.247  22.836  26.678  1.00  0.00     0.123 A 
ATOM     20  C   UNL A   1      35.223  24.942  25.654  1.00  0.00     0.048 C 
ATOM     21  C   UNL A   1      34.083  24.135  26.177  1.00  0.00    -0.009 A 
ATOM     22  C   UNL A   1      32.808  24.711  26.114  1.00  0.00     0.007 A 
ATOM     23  C   UNL A   1      31.706  24.036  26.618  1.00  0.00     0.001 A 
ATOM     24  C   UNL A   1      33.149  22.204  27.268  1.00  0.00     0.047 A 
ATOM     25  C   UNL A   1      31.885  22.809  27.248  1.00  0.00     0.004 A 
ENDBRANCH  18  19
ENDBRANCH  10  18
BRANCH  16  26
ATOM     26  C   UNL A   1      40.349  21.704  26.109  1.00  0.00     0.207 C 
ATOM     27  C   UNL A   1      40.578  21.672  27.623  1.00  0.00     0.042 C 
ATOM     28  O   UNL A   1      41.615  21.611  25.442  1.00  0.00    -0.368 OA
ATOM     29  C   UNL A   1      41.540  22.758  28.073  1.00  0.00     0.006 C 
ATOM     30  C   UNL A   1      42.499  22.678  25.771  1.00  0.00     0.161 C 
ATOM     31  C   UNL A   1      42.821  22.686  27.259  1.00  0.00     0.029 C 
ENDBRANCH  16  26
ENDBRANCH   8  10
ENDBRANCH   7   8
ENDBRANCH   6   7
ENDBRANCH   5   6
ENDBRANCH   4   5
ENDBRANCH   3   4
ENDBRANCH   2   3
ENDBRANCH   1   2
BRANCH   1  32
ATOM     32  C   UNL A   1      33.105  29.343  24.756  1.00  0.00     0.188 C 
BRANCH  32  33
ATOM     33  C   UNL A   1      33.204  29.105  26.264  1.00  0.00     0.188 C 
BRANCH  33  34
ATOM     34  O   UNL A   1      34.440  29.426  26.886  1.00  0.00    -0.376 OA
BRANCH  34  35
ATOM     35  C   UNL A   1      34.608  30.705  27.496  1.00  0.00     0.202 C 
BRANCH  35  36
ATOM     36  C   UNL A   1      33.375  31.618  27.537  1.00  0.00     0.261 C 
BRANCH  36  37
ATOM     37  O   UNL A   1      33.321  32.308  28.800  1.00  0.00    -0.460 OA
BRANCH  37  38
ATOM     38  C   UNL A   1      33.780  33.588  28.790  1.00  0.00     0.338 C 
ATOM     39  O   UNL A   1      33.483  34.439  27.966  1.00  0.00    -0.246 OA
BRANCH  38  40
ATOM     40  C   UNL A   1      34.939  33.715  29.725  1.00  0.00     0.060 A 
ATOM     41  C   UNL A   1      36.175  34.167  29.232  1.00  0.00     0.016 A 
ATOM     42  C   UNL A   1      34.902  32.995  30.914  1.00  0.00     0.016 A 
ATOM     43  C   UNL A   1      37.374  33.704  29.801  1.00  0.00     0.010 A 
ATOM     44  C   UNL A   1      36.080  32.444  31.382  1.00  0.00     0.010 A 
ATOM     45  C   UNL A   1      37.325  32.734  30.802  1.00  0.00    -0.014 A 
BRANCH  45  46
ATOM     46  C   UNL A   1      38.433  31.817  31.166  1.00  0.00     0.031 A 
ATOM     47  C   UNL A   1      38.586  30.513  30.415  1.00  0.00     0.074 A 
ATOM     48  C   UNL A   1      39.481  32.318  31.884  1.00  0.00     0.049 A 
ATOM     49  N   UNL A   1      39.535  29.654  30.592  1.00  0.00    -0.248 NA
ATOM     50  C   UNL A   1      37.673  30.068  29.354  1.00  0.00     0.031 C 
ATOM     51  C   UNL A   1      40.860  31.819  31.883  1.00  0.00     0.029 A 
ATOM     52  N   UNL A   1      39.578  33.388  32.775  1.00  0.00    -0.354 N 
ATOM     53  C   UNL A   1      39.578  28.806  29.497  1.00  0.00     0.074 A 
ATOM     54  C   UNL A   1      38.343  29.049  28.801  1.00  0.00     0.031 C 
ATOM     55  C   UNL A   1      41.606  32.480  32.778  1.00  0.00     0.029 A 
ATOM     56  C   UNL A   1      40.675  33.167  33.622  1.00  0.00     0.049 A 
ATOM     57  H   UNL A   1      38.977  34.167  32.805  1.00  0.00     0.167 HD
ATOM     58  C   UNL A   1      40.720  28.101  29.230  1.00  0.00     0.031 A 
ATOM     59  C   UNL A   1      40.583  32.873  34.957  1.00  0.00     0.031 A 
ATOM     60  C   UNL A   1      41.705  28.220  30.318  1.00  0.00     0.049 A 
ATOM     61  C   UNL A   1      41.041  31.434  35.236  1.00  0.00     0.074 A 
ATOM     62  C   UNL A   1      43.038  28.585  30.389  1.00  0.00     0.029 A 
ATOM     63  N   UNL A   1      41.269  28.105  31.636  1.00  0.00    -0.354 N 
ATOM     64  N   UNL A   1      41.052  30.503  34.306  1.00  0.00    -0.248 NA
ATOM     65  C   UNL A   1      41.637  30.941  36.480  1.00  0.00     0.031 C 
ATOM     66  C   UNL A   1      43.355  28.812  31.761  1.00  0.00     0.029 A 
ATOM     67  C   UNL A   1      42.233  28.519  32.525  1.00  0.00     0.049 A 
ATOM     68  H   UNL A   1      40.382  27.769  31.897  1.00  0.00     0.167 HD
ATOM     69  C   UNL A   1      41.716  29.394  34.743  1.00  0.00     0.074 A 
ATOM     70  C   UNL A   1      42.015  29.692  36.132  1.00  0.00     0.031 C 
ATOM     71  C   UNL A   1      42.025  28.322  33.954  1.00  0.00     0.031 A 
BRANCH  58  72
ATOM     72  C   UNL A   1      41.067  27.435  27.900  1.00  0.00    -0.014 A 
ATOM     73  C   UNL A   1      41.960  28.079  27.016  1.00  0.00     0.009 A 
ATOM     74  C   UNL A   1      40.483  26.254  27.404  1.00  0.00     0.009 A 
ATOM     75  C   UNL A   1      42.237  27.594  25.725  1.00  0.00     0.001 A 
ATOM     76  C   UNL A   1      40.787  25.739  26.127  1.00  0.00     0.001 A 
ATOM     77  C   UNL A   1      41.655  26.415  25.283  1.00  0.00     0.000 A 
ENDBRANCH  58  72
BRANCH  59  78
ATOM     78  C   UNL A   1      39.617  33.777  35.652  1.00  0.00    -0.014 A 
ATOM     79  C   UNL A   1      38.612  33.073  36.359  1.00  0.00     0.009 A 
ATOM     80  C   UNL A   1      40.086  34.982  36.202  1.00  0.00     0.009 A 
ATOM     81  C   UNL A   1      38.364  33.358  37.706  1.00  0.00     0.001 A 
ATOM     82  C   UNL A   1      39.794  35.288  37.544  1.00  0.00     0.001 A 
ATOM     83  C   UNL A   1      39.007  34.431  38.315  1.00  0.00     0.000 A 
ENDBRANCH  59  78
BRANCH  71  84
ATOM     84  C   UNL A   1      42.131  26.903  34.459  1.00  0.00    -0.014 A 
ATOM     85  C   UNL A   1      43.329  26.181  34.447  1.00  0.00     0.009 A 
ATOM     86  C   UNL A   1      41.063  26.349  35.207  1.00  0.00     0.009 A 
ATOM     87  C   UNL A   1      43.446  24.959  35.120  1.00  0.00     0.001 A 
ATOM     88  C   UNL A   1      41.191  25.158  35.922  1.00  0.00     0.001 A 
ATOM     89  C   UNL A   1      42.385  24.457  35.869  1.00  0.00     0.000 A 
ENDBRANCH  71  84
ENDBRANCH  45  46
ENDBRANCH  38  40
ENDBRANCH  37  38
ENDBRANCH  36  37
ENDBRANCH  35  36
ENDBRANCH  34  35
ENDBRANCH  33  34
ENDBRANCH  32  33
ENDBRANCH   1  32
TORSDOF 23
ENDMDL
MODEL 2
REMARK VINA RESULT:      -8.9      2.341      4.851
REMARK SMILES Cc1ccccc1OC1(C(=O)OCCOCCOCCOCCOC(=O)c2ccc(-c3c4nc(c(-c5ccccc5)c5ccc([nH]5)c(-c5ccccc5)c5nc(c(-c6ccccc6)c6ccc3[nH]6)C=C5)C=C4)cc2)CCN(C(=O)[C@H]2CCCCO2)CC1
REMARK SMILES IDX 18 1 17 2 16 3 15 4 14 5 13 6 12 7 10 8 11 9 9 10 75 11
REMARK SMILES IDX 87 12 76 13 86 14 77 15 78 16 79 17 8 18 7 19 1 20 2 21 3 22
REMARK SMILES IDX 4 23 6 24 5 25 80 26 81 27 85 28 82 29 84 30 83 31 19 32
REMARK SMILES IDX 20 33 21 34 22 35 23 36 24 37 25 38 26 39 27 40 28 41 74 42
REMARK SMILES IDX 29 43 73 44 30 45 31 46 32 47 67 48 33 49 72 50 66 51 68 52
REMARK SMILES IDX 34 53 71 54 65 55 64 56 35 58 57 59 42 60 56 61 43 62 46 63
REMARK SMILES IDX 55 64 69 65 44 66 45 67 54 69 70 70 47 71 36 72 37 73 41 74
REMARK SMILES IDX 38 75 40 76 39 77 58 78 59 79 63 80 60 81 62 82 61 83 48 84
REMARK SMILES IDX 49 85 53 86 50 87 52 88 51 89
REMARK H PARENT 68 57 46 68
REMARK Flexibility Score: inf
ROOT
ATOM      1  O   UNL A   1      35.438  30.959  27.246  1.00  0.00    -0.377 OA
ENDROOT
BRANCH   1   2
ATOM      2  C   UNL A   1      35.254  29.772  27.998  1.00  0.00     0.188 C 
BRANCH   2   3
ATOM      3  C   UNL A   1      34.165  28.886  27.369  1.00  0.00     0.188 C 
BRANCH   3   4
ATOM      4  O   UNL A   1      33.294  29.522  26.434  1.00  0.00    -0.376 OA
BRANCH   4   5
ATOM      5  C   UNL A   1      31.916  29.154  26.525  1.00  0.00     0.202 C 
BRANCH   5   6
ATOM      6  C   UNL A   1      31.645  27.860  27.287  1.00  0.00     0.261 C 
BRANCH   6   7
ATOM      7  O   UNL A   1      31.942  26.751  26.435  1.00  0.00    -0.460 OA
BRANCH   7   8
ATOM      8  C   UNL A   1      31.040  25.741  26.361  1.00  0.00     0.350 C 
ATOM      9  O   UNL A   1      29.898  25.829  26.744  1.00  0.00    -0.247 OA
BRANCH   8  10
ATOM     10  C   UNL A   1      31.707  24.506  25.683  1.00  0.00     0.209 C 
ATOM     11  C   UNL A   1      33.203  24.758  25.441  1.00  0.00     0.082 C 
ATOM     12  C   UNL A   1      31.606  23.336  26.677  1.00  0.00     0.082 C 
ATOM     13  C   UNL A   1      34.188  23.604  25.534  1.00  0.00     0.124 C 
ATOM     14  C   UNL A   1      32.296  22.079  26.152  1.00  0.00     0.124 C 
ATOM     15  N   UNL A   1      33.616  22.275  25.554  1.00  0.00    -0.340 N 
ATOM     16  C   UNL A   1      34.415  21.251  25.022  1.00  0.00     0.251 C 
ATOM     17  O   UNL A   1      35.581  21.470  24.675  1.00  0.00    -0.272 OA
BRANCH  10  18
ATOM     18  O   UNL A   1      31.000  24.062  24.518  1.00  0.00    -0.475 OA
BRANCH  18  19
ATOM     19  C   UNL A   1      31.344  24.421  23.239  1.00  0.00     0.123 A 
ATOM     20  C   UNL A   1      29.738  26.379  23.401  1.00  0.00     0.048 C 
ATOM     21  C   UNL A   1      30.924  25.690  22.816  1.00  0.00    -0.009 A 
ATOM     22  C   UNL A   1      31.648  26.382  21.836  1.00  0.00     0.007 A 
ATOM     23  C   UNL A   1      32.740  25.789  21.218  1.00  0.00     0.001 A 
ATOM     24  C   UNL A   1      32.384  23.796  22.547  1.00  0.00     0.047 A 
ATOM     25  C   UNL A   1      33.070  24.475  21.531  1.00  0.00     0.004 A 
ENDBRANCH  18  19
ENDBRANCH  10  18
BRANCH  16  26
ATOM     26  C   UNL A   1      33.773  19.860  24.820  1.00  0.00     0.207 C 
ATOM     27  C   UNL A   1      32.852  19.910  23.596  1.00  0.00     0.042 C 
ATOM     28  O   UNL A   1      34.786  18.868  24.602  1.00  0.00    -0.368 OA
ATOM     29  C   UNL A   1      32.258  18.549  23.278  1.00  0.00     0.006 C 
ATOM     30  C   UNL A   1      34.255  17.562  24.402  1.00  0.00     0.161 C 
ATOM     31  C   UNL A   1      33.365  17.514  23.168  1.00  0.00     0.029 C 
ENDBRANCH  16  26
ENDBRANCH   8  10
ENDBRANCH   7   8
ENDBRANCH   6   7
ENDBRANCH   5   6
ENDBRANCH   4   5
ENDBRANCH   3   4
ENDBRANCH   2   3
ENDBRANCH   1   2
BRANCH   1  32
ATOM     32  C   UNL A   1      35.743  32.128  27.976  1.00  0.00     0.188 C 
BRANCH  32  33
ATOM     33  C   UNL A   1      34.548  32.888  28.554  1.00  0.00     0.188 C 
BRANCH  33  34
ATOM     34  O   UNL A   1      34.127  32.527  29.862  1.00  0.00    -0.376 OA
BRANCH  34  35
ATOM     35  C   UNL A   1      35.095  32.410  30.904  1.00  0.00     0.202 C 
BRANCH  35  36
ATOM     36  C   UNL A   1      34.767  33.104  32.233  1.00  0.00     0.261 C 
BRANCH  36  37
ATOM     37  O   UNL A   1      35.698  34.178  32.466  1.00  0.00    -0.460 OA
BRANCH  37  38
ATOM     38  C   UNL A   1      35.840  34.561  33.763  1.00  0.00     0.338 C 
ATOM     39  O   UNL A   1      35.037  35.228  34.396  1.00  0.00    -0.246 OA
BRANCH  38  40
ATOM     40  C   UNL A   1      37.251  34.333  34.203  1.00  0.00     0.060 A 
ATOM     41  C   UNL A   1      38.305  34.669  33.335  1.00  0.00     0.016 A 
ATOM     42  C   UNL A   1      37.476  33.424  35.230  1.00  0.00     0.016 A 
ATOM     43  C   UNL A   1      39.499  33.928  33.357  1.00  0.00     0.010 A 
ATOM     44  C   UNL A   1      38.598  32.620  35.157  1.00  0.00     0.010 A 
ATOM     45  C   UNL A   1      39.597  32.812  34.188  1.00  0.00    -0.014 A 
BRANCH  45  46
ATOM     46  C   UNL A   1      40.541  31.683  34.005  1.00  0.00     0.031 A 
ATOM     47  C   UNL A   1      40.172  30.561  33.061  1.00  0.00     0.074 A 
ATOM     48  C   UNL A   1      41.841  31.857  34.383  1.00  0.00     0.049 A 
ATOM     49  N   UNL A   1      40.923  29.551  32.768  1.00  0.00    -0.248 NA
ATOM     50  C   UNL A   1      38.901  30.494  32.326  1.00  0.00     0.031 C 
ATOM     51  C   UNL A   1      43.012  31.168  33.830  1.00  0.00     0.029 A 
ATOM     52  N   UNL A   1      42.436  32.686  35.335  1.00  0.00    -0.354 N 
ATOM     53  C   UNL A   1      40.441  28.959  31.612  1.00  0.00     0.074 A 
ATOM     54  C   UNL A   1      39.133  29.527  31.430  1.00  0.00     0.031 C 
ATOM     55  C   UNL A   1      44.123  31.504  34.500  1.00  0.00     0.029 A 
ATOM     56  C   UNL A   1      43.669  32.128  35.707  1.00  0.00     0.049 A 
ATOM     57  H   UNL A   1      42.054  33.522  35.687  1.00  0.00     0.167 HD
ATOM     58  C   UNL A   1      41.266  28.163  30.863  1.00  0.00     0.031 A 
ATOM     59  C   UNL A   1      43.936  31.574  36.932  1.00  0.00     0.031 A 
ATOM     60  C   UNL A   1      42.542  27.899  31.548  1.00  0.00     0.049 A 
ATOM     61  C   UNL A   1      44.142  30.056  36.816  1.00  0.00     0.074 A 
ATOM     62  C   UNL A   1      43.877  28.035  31.208  1.00  0.00     0.029 A 
ATOM     63  N   UNL A   1      42.524  27.573  32.902  1.00  0.00    -0.354 N 
ATOM     64  N   UNL A   1      43.665  29.354  35.810  1.00  0.00    -0.248 NA
ATOM     65  C   UNL A   1      44.976  29.227  37.687  1.00  0.00     0.031 C 
ATOM     66  C   UNL A   1      44.645  27.916  32.403  1.00  0.00     0.029 A 
ATOM     67  C   UNL A   1      43.782  27.639  33.454  1.00  0.00     0.049 A 
ATOM     68  H   UNL A   1      41.712  27.326  33.401  1.00  0.00     0.167 HD
ATOM     69  C   UNL A   1      44.180  28.090  35.819  1.00  0.00     0.074 A 
ATOM     70  C   UNL A   1      44.952  28.038  37.047  1.00  0.00     0.031 C 
ATOM     71  C   UNL A   1      43.992  27.176  34.821  1.00  0.00     0.031 A 
BRANCH  58  72
ATOM     72  C   UNL A   1      41.032  27.751  29.411  1.00  0.00    -0.014 A 
ATOM     73  C   UNL A   1      41.335  26.432  29.008  1.00  0.00     0.009 A 
ATOM     74  C   UNL A   1      40.629  28.615  28.375  1.00  0.00     0.009 A 
ATOM     75  C   UNL A   1      41.263  26.009  27.668  1.00  0.00     0.001 A 
ATOM     76  C   UNL A   1      40.514  28.187  27.036  1.00  0.00     0.001 A 
ATOM     77  C   UNL A   1      40.842  26.887  26.681  1.00  0.00     0.000 A 
ENDBRANCH  58  72
BRANCH  59  78
ATOM     78  C   UNL A   1      43.450  32.444  38.045  1.00  0.00    -0.014 A 
ATOM     79  C   UNL A   1      43.946  33.768  37.966  1.00  0.00     0.009 A 
ATOM     80  C   UNL A   1      42.147  32.259  38.536  1.00  0.00     0.009 A 
ATOM     81  C   UNL A   1      43.068  34.857  38.020  1.00  0.00     0.001 A 
ATOM     82  C   UNL A   1      41.281  33.364  38.633  1.00  0.00     0.001 A 
ATOM     83  C   UNL A   1      41.720  34.644  38.291  1.00  0.00     0.000 A 
ENDBRANCH  59  78
BRANCH  71  84
ATOM     84  C   UNL A   1      43.946  25.682  35.039  1.00  0.00    -0.014 A 
ATOM     85  C   UNL A   1      42.942  24.868  34.508  1.00  0.00     0.009 A 
ATOM     86  C   UNL A   1      45.079  25.024  35.579  1.00  0.00     0.009 A 
ATOM     87  C   UNL A   1      43.047  23.473  34.540  1.00  0.00     0.001 A 
ATOM     88  C   UNL A   1      45.211  23.636  35.566  1.00  0.00     0.001 A 
ATOM     89  C   UNL A   1      44.186  22.859  35.053  1.00  0.00     0.000 A 
ENDBRANCH  71  84
ENDBRANCH  45  46
ENDBRANCH  38  40
ENDBRANCH  37  38
ENDBRANCH  36  37
ENDBRANCH  35  36
ENDBRANCH  34  35
ENDBRANCH  33  34
ENDBRANCH  32  33
ENDBRANCH   1  32
TORSDOF 23
ENDMDL
MODEL 3
REMARK VINA RESULT:      -8.4      4.147      7.206
REMARK SMILES Cc1ccccc1OC1(C(=O)OCCOCCOCCOCCOC(=O)c2ccc(-c3c4nc(c(-c5ccccc5)c5ccc([nH]5)c(-c5ccccc5)c5nc(c(-c6ccccc6)c6ccc3[nH]6)C=C5)C=C4)cc2)CCN(C(=O)[C@H]2CCCCO2)CC1
REMARK SMILES IDX 18 1 17 2 16 3 15 4 14 5 13 6 12 7 10 8 11 9 9 10 75 11
REMARK SMILES IDX 87 12 76 13 86 14 77 15 78 16 79 17 8 18 7 19 1 20 2 21 3 22
REMARK SMILES IDX 4 23 6 24 5 25 80 26 81 27 85 28 82 29 84 30 83 31 19 32
REMARK SMILES IDX 20 33 21 34 22 35 23 36 24 37 25 38 26 39 27 40 28 41 74 42
REMARK SMILES IDX 29 43 73 44 30 45 31 46 32 47 67 48 33 49 72 50 66 51 68 52
REMARK SMILES IDX 34 53 71 54 65 55 64 56 35 58 57 59 42 60 56 61 43 62 46 63
REMARK SMILES IDX 55 64 69 65 44 66 45 67 54 69 70 70 47 71 36 72 37 73 41 74
REMARK SMILES IDX 38 75 40 76 39 77 58 78 59 79 63 80 60 81 62 82 61 83 48 84
REMARK SMILES IDX 49 85 53 86 50 87 52 88 51 89
REMARK H PARENT 68 57 46 68
REMARK Flexibility Score: inf
ROOT
ATOM      1  O   UNL A   1      35.143  32.107  27.594  1.00  0.00    -0.377 OA
ENDROOT
BRANCH   1   2
ATOM      2  C   UNL A   1      35.496  30.995  28.398  1.00  0.00     0.188 C 
BRANCH   2   3
ATOM      3  C   UNL A   1      35.070  29.677  27.730  1.00  0.00     0.188 C 
BRANCH   3   4
ATOM      4  O   UNL A   1      34.530  29.781  26.412  1.00  0.00    -0.376 OA
BRANCH   4   5
ATOM      5  C   UNL A   1      33.236  29.202  26.229  1.00  0.00     0.202 C 
BRANCH   5   6
ATOM      6  C   UNL A   1      32.935  28.001  27.121  1.00  0.00     0.261 C 
BRANCH   6   7
ATOM      7  O   UNL A   1      33.087  26.805  26.353  1.00  0.00    -0.460 OA
BRANCH   7   8
ATOM      8  C   UNL A   1      32.136  25.845  26.468  1.00  0.00     0.350 C 
ATOM      9  O   UNL A   1      31.058  26.024  26.983  1.00  0.00    -0.247 OA
BRANCH   8  10
ATOM     10  C   UNL A   1      32.650  24.531  25.807  1.00  0.00     0.209 C 
ATOM     11  C   UNL A   1      34.185  24.475  25.826  1.00  0.00     0.082 C 
ATOM     12  C   UNL A   1      32.150  23.363  26.675  1.00  0.00     0.082 C 
ATOM     13  C   UNL A   1      34.891  23.138  25.980  1.00  0.00     0.124 C 
ATOM     14  C   UNL A   1      32.657  22.015  26.166  1.00  0.00     0.124 C 
ATOM     15  N   UNL A   1      34.072  21.958  25.802  1.00  0.00    -0.340 N 
ATOM     16  C   UNL A   1      34.731  20.815  25.323  1.00  0.00     0.251 C 
ATOM     17  O   UNL A   1      35.958  20.801  25.182  1.00  0.00    -0.272 OA
BRANCH  10  18
ATOM     18  O   UNL A   1      32.079  24.299  24.513  1.00  0.00    -0.475 OA
BRANCH  18  19
ATOM     19  C   UNL A   1      32.318  25.099  23.424  1.00  0.00     0.123 A 
ATOM     20  C   UNL A   1      33.774  23.267  22.446  1.00  0.00     0.048 C 
ATOM     21  C   UNL A   1      32.921  24.483  22.319  1.00  0.00    -0.009 A 
ATOM     22  C   UNL A   1      32.700  24.979  21.027  1.00  0.00     0.007 A 
ATOM     23  C   UNL A   1      31.949  26.129  20.834  1.00  0.00     0.001 A 
ATOM     24  C   UNL A   1      31.644  26.307  23.230  1.00  0.00     0.047 A 
ATOM     25  C   UNL A   1      31.472  26.826  21.939  1.00  0.00     0.004 A 
ENDBRANCH  18  19
ENDBRANCH  10  18
BRANCH  16  26
ATOM     26  C   UNL A   1      33.869  19.600  24.909  1.00  0.00     0.207 C 
ATOM     27  C   UNL A   1      33.029  19.979  23.685  1.00  0.00     0.042 C 
ATOM     28  O   UNL A   1      34.705  18.484  24.577  1.00  0.00    -0.368 OA
ATOM     29  C   UNL A   1      32.226  18.800  23.162  1.00  0.00     0.006 C 
ATOM     30  C   UNL A   1      33.968  17.332  24.180  1.00  0.00     0.161 C 
ATOM     31  C   UNL A   1      33.143  17.610  22.932  1.00  0.00     0.029 C 
ENDBRANCH  16  26
ENDBRANCH   8  10
ENDBRANCH   7   8
ENDBRANCH   6   7
ENDBRANCH   5   6
ENDBRANCH   4   5
ENDBRANCH   3   4
ENDBRANCH   2   3
ENDBRANCH   1   2
BRANCH   1  32
ATOM     32  C   UNL A   1      35.208  33.376  28.207  1.00  0.00     0.188 C 
BRANCH  32  33
ATOM     33  C   UNL A   1      34.047  33.731  29.139  1.00  0.00     0.188 C 
BRANCH  33  34
ATOM     34  O   UNL A   1      34.256  33.538  30.530  1.00  0.00    -0.376 OA
BRANCH  34  35
ATOM     35  C   UNL A   1      35.456  32.908  30.979  1.00  0.00     0.202 C 
BRANCH  35  36
ATOM     36  C   UNL A   1      36.609  33.834  31.392  1.00  0.00     0.261 C 
BRANCH  36  37
ATOM     37  O   UNL A   1      37.849  33.337  30.854  1.00  0.00    -0.460 OA
BRANCH  37  38
ATOM     38  C   UNL A   1      38.944  33.514  31.642  1.00  0.00     0.338 C 
ATOM     39  O   UNL A   1      39.314  34.579  32.109  1.00  0.00    -0.246 OA
BRANCH  38  40
ATOM     40  C   UNL A   1      39.806  32.293  31.587  1.00  0.00     0.060 A 
ATOM     41  C   UNL A   1      41.056  32.304  32.231  1.00  0.00     0.016 A 
ATOM     42  C   UNL A   1      39.569  31.371  30.575  1.00  0.00     0.016 A 
ATOM     43  C   UNL A   1      42.125  31.556  31.709  1.00  0.00     0.010 A 
ATOM     44  C   UNL A   1      40.655  30.743  29.994  1.00  0.00     0.010 A 
ATOM     45  C   UNL A   1      41.957  30.871  30.505  1.00  0.00    -0.014 A 
BRANCH  45  46
ATOM     46  C   UNL A   1      43.050  30.448  29.596  1.00  0.00     0.031 A 
ATOM     47  C   UNL A   1      43.343  28.973  29.434  1.00  0.00     0.074 A 
ATOM     48  C   UNL A   1      43.502  31.339  28.666  1.00  0.00     0.049 A 
ATOM     49  N   UNL A   1      44.224  28.469  28.636  1.00  0.00    -0.248 NA
ATOM     50  C   UNL A   1      42.629  27.913  30.159  1.00  0.00     0.031 C 
ATOM     51  C   UNL A   1      44.119  31.019  27.375  1.00  0.00     0.029 A 
ATOM     52  N   UNL A   1      43.515  32.735  28.636  1.00  0.00    -0.354 N 
ATOM     53  C   UNL A   1      43.951  27.121  28.466  1.00  0.00     0.074 A 
ATOM     54  C   UNL A   1      43.006  26.807  29.504  1.00  0.00     0.031 C 
ATOM     55  C   UNL A   1      44.536  32.132  26.757  1.00  0.00     0.029 A 
ATOM     56  C   UNL A   1      44.528  33.155  27.760  1.00  0.00     0.049 A 
ATOM     57  H   UNL A   1      42.914  33.326  29.145  1.00  0.00     0.167 HD
ATOM     58  C   UNL A   1      44.447  26.461  27.375  1.00  0.00     0.031 A 
ATOM     59  C   UNL A   1      45.688  33.772  28.148  1.00  0.00     0.031 A 
ATOM     60  C   UNL A   1      45.401  27.290  26.620  1.00  0.00     0.049 A 
ATOM     61  C   UNL A   1      46.902  32.862  27.909  1.00  0.00     0.074 A 
ATOM     62  C   UNL A   1      45.520  27.679  25.296  1.00  0.00     0.029 A 
ATOM     63  N   UNL A   1      46.359  28.019  27.320  1.00  0.00    -0.354 N 
ATOM     64  N   UNL A   1      46.795  31.554  27.811  1.00  0.00    -0.248 NA
ATOM     65  C   UNL A   1      48.271  33.300  27.629  1.00  0.00     0.031 C 
ATOM     66  C   UNL A   1      46.470  28.740  25.238  1.00  0.00     0.029 A 
ATOM     67  C   UNL A   1      46.975  28.948  26.514  1.00  0.00     0.049 A 
ATOM     68  H   UNL A   1      46.570  27.884  28.272  1.00  0.00     0.167 HD
ATOM     69  C   UNL A   1      47.965  31.008  27.368  1.00  0.00     0.074 A 
ATOM     70  C   UNL A   1      48.880  32.135  27.323  1.00  0.00     0.031 C 
ATOM     71  C   UNL A   1      48.119  29.694  27.024  1.00  0.00     0.031 A 
BRANCH  58  72
ATOM     72  C   UNL A   1      43.950  25.118  26.841  1.00  0.00    -0.014 A 
ATOM     73  C   UNL A   1      44.514  23.923  27.340  1.00  0.00     0.009 A 
ATOM     74  C   UNL A   1      43.029  24.951  25.790  1.00  0.00     0.009 A 
ATOM     75  C   UNL A   1      44.199  22.657  26.817  1.00  0.00     0.001 A 
ATOM     76  C   UNL A   1      42.677  23.681  25.288  1.00  0.00     0.001 A 
ATOM     77  C   UNL A   1      43.270  22.534  25.794  1.00  0.00     0.000 A 
ENDBRANCH  58  72
BRANCH  59  78
ATOM     78  C   UNL A   1      45.424  34.865  29.132  1.00  0.00    -0.014 A 
ATOM     79  C   UNL A   1      46.042  34.640  30.385  1.00  0.00     0.009 A 
ATOM     80  C   UNL A   1      45.335  36.190  28.671  1.00  0.00     0.009 A 
ATOM     81  C   UNL A   1      46.849  35.627  30.963  1.00  0.00     0.001 A 
ATOM     82  C   UNL A   1      46.113  37.189  29.285  1.00  0.00     0.001 A 
ATOM     83  C   UNL A   1      46.933  36.884  30.373  1.00  0.00     0.000 A 
ENDBRANCH  59  78
BRANCH  71  84
ATOM     84  C   UNL A   1      49.412  28.927  27.171  1.00  0.00    -0.014 A 
ATOM     85  C   UNL A   1      50.195  28.974  28.327  1.00  0.00     0.009 A 
ATOM     86  C   UNL A   1      49.735  27.923  26.225  1.00  0.00     0.009 A 
ATOM     87  C   UNL A   1      51.261  28.089  28.518  1.00  0.00     0.001 A 
ATOM     88  C   UNL A   1      50.764  27.005  26.434  1.00  0.00     0.001 A 
ATOM     89  C   UNL A   1      51.535  27.096  27.581  1.00  0.00     0.000 A 
ENDBRANCH  71  84
ENDBRANCH  45  46
ENDBRANCH  38  40
ENDBRANCH  37  38
ENDBRANCH  36  37
ENDBRANCH  35  36
ENDBRANCH  34  35
ENDBRANCH  33  34
ENDBRANCH  32  33
ENDBRANCH   1  32
TORSDOF 23
ENDMDL
