MODEL 1
REMARK VINA RESULT:      -9.9      0.000      0.000
REMARK SMILES Cc1ccc(S(=O)(=O)Nc2ccc(C(=O)CCC(=O)OCCOCCOCCOCCOC(=O)c3ccc(-c4c5nc(c(-c6ccccc6)c6ccc([nH]6)c(-c6ccccc6)c6nc(c(-c7ccccc7)c7ccc4[nH]7)C=C6)C=C5)cc3)cc2)c(C)c1
REMARK SMILES IDX 24 1 23 2 22 3 21 4 20 5 18 6 19 7 17 8 16 9 14 10 15 11
REMARK SMILES IDX 13 12 10 13 11 14 84 15 12 16 83 17 9 18 6 20 7 21 8 22 5 23
REMARK SMILES IDX 1 24 2 25 3 26 87 27 4 28 85 29 86 30 25 31 26 32 27 33
REMARK SMILES IDX 28 34 29 35 30 36 31 37 32 38 33 39 34 40 35 41 36 42 82 43
REMARK SMILES IDX 37 44 81 45 38 46 39 47 40 48 75 49 41 50 80 51 74 52 76 53
REMARK SMILES IDX 42 54 79 55 73 56 72 57 43 59 65 60 50 61 64 62 51 63 54 64
REMARK SMILES IDX 63 65 77 66 52 67 53 68 62 70 78 71 55 72 44 73 45 74 49 75
REMARK SMILES IDX 46 76 48 77 47 78 66 79 67 80 71 81 68 82 70 83 69 84 56 85
REMARK SMILES IDX 57 86 61 87 58 88 60 89 59 90
REMARK H PARENT 9 19 76 58 54 69
REMARK Flexibility Score: inf
ROOT
ATOM      1  C   UNL A   1      41.925  20.266  26.522  1.00  0.00     0.188 C 
ENDROOT
BRANCH   1   2
ATOM      2  O   UNL A   1      40.568  20.597  26.251  1.00  0.00    -0.376 OA
BRANCH   2   3
ATOM      3  C   UNL A   1      40.184  21.967  26.270  1.00  0.00     0.202 C 
BRANCH   3   4
ATOM      4  C   UNL A   1      38.695  22.248  26.122  1.00  0.00     0.261 C 
BRANCH   4   5
ATOM      5  O   UNL A   1      38.198  21.686  24.898  1.00  0.00    -0.463 OA
BRANCH   5   6
ATOM      6  C   UNL A   1      37.325  20.665  25.033  1.00  0.00     0.306 C 
ATOM      7  O   UNL A   1      37.633  19.482  24.986  1.00  0.00    -0.252 OA
BRANCH   6   8
ATOM      8  C   UNL A   1      35.912  21.145  25.272  1.00  0.00     0.131 C 
BRANCH   8   9
ATOM      9  C   UNL A   1      35.343  22.197  24.313  1.00  0.00     0.093 C 
BRANCH   9  10
ATOM     10  C   UNL A   1      33.871  21.988  23.974  1.00  0.00     0.163 C 
ATOM     11  O   UNL A   1      33.362  20.878  24.133  1.00  0.00    -0.294 OA
BRANCH  10  12
ATOM     12  C   UNL A   1      33.032  23.080  23.371  1.00  0.00     0.018 A 
ATOM     13  C   UNL A   1      31.615  25.430  22.655  1.00  0.00     0.049 A 
ATOM     14  C   UNL A   1      32.973  25.298  22.362  1.00  0.00     0.027 A 
ATOM     15  C   UNL A   1      30.945  24.311  23.125  1.00  0.00     0.027 A 
ATOM     16  C   UNL A   1      33.678  24.140  22.726  1.00  0.00     0.014 A 
ATOM     17  C   UNL A   1      31.644  23.138  23.461  1.00  0.00     0.014 A 
BRANCH  13  18
ATOM     18  N   UNL A   1      31.007  26.697  22.444  1.00  0.00    -0.280 N 
ATOM     19  H   UNL A   1      31.144  27.101  21.557  1.00  0.00     0.180 HD
BRANCH  18  20
ATOM     20  S   UNL A   1      30.083  27.587  23.529  1.00  0.00     0.262 S 
ATOM     21  O   UNL A   1      29.110  26.688  24.128  1.00  0.00    -0.201 OA
ATOM     22  O   UNL A   1      29.665  28.753  22.790  1.00  0.00    -0.201 OA
BRANCH  20  23
ATOM     23  C   UNL A   1      31.126  28.180  24.862  1.00  0.00     0.090 A 
ATOM     24  C   UNL A   1      34.547  29.193  27.272  1.00  0.00     0.044 C 
ATOM     25  C   UNL A   1      33.261  28.894  26.553  1.00  0.00    -0.051 A 
ATOM     26  C   UNL A   1      32.647  29.853  25.741  1.00  0.00     0.005 A 
ATOM     27  C   UNL A   1      32.668  27.635  26.661  1.00  0.00     0.008 A 
ATOM     28  C   UNL A   1      31.607  29.492  24.871  1.00  0.00     0.023 A 
ATOM     29  C   UNL A   1      31.582  27.268  25.842  1.00  0.00    -0.030 A 
ATOM     30  C   UNL A   1      30.907  25.959  26.153  1.00  0.00     0.046 C 
ENDBRANCH  20  23
ENDBRANCH  18  20
ENDBRANCH  13  18
ENDBRANCH  10  12
ENDBRANCH   9  10
ENDBRANCH   8   9
ENDBRANCH   6   8
ENDBRANCH   5   6
ENDBRANCH   4   5
ENDBRANCH   3   4
ENDBRANCH   2   3
ENDBRANCH   1   2
BRANCH   1  31
ATOM     31  C   UNL A   1      42.568  19.112  25.750  1.00  0.00     0.188 C 
BRANCH  31  32
ATOM     32  O   UNL A   1      43.352  19.347  24.599  1.00  0.00    -0.377 OA
BRANCH  32  33
ATOM     33  C   UNL A   1      44.729  19.050  24.569  1.00  0.00     0.188 C 
BRANCH  33  34
ATOM     34  C   UNL A   1      45.597  20.138  25.218  1.00  0.00     0.188 C 
BRANCH  34  35
ATOM     35  O   UNL A   1      45.583  21.460  24.696  1.00  0.00    -0.376 OA
BRANCH  35  36
ATOM     36  C   UNL A   1      45.653  22.562  25.592  1.00  0.00     0.202 C 
BRANCH  36  37
ATOM     37  C   UNL A   1      44.483  22.858  26.555  1.00  0.00     0.261 C 
BRANCH  37  38
ATOM     38  O   UNL A   1      44.151  24.237  26.807  1.00  0.00    -0.460 OA
BRANCH  38  39
ATOM     39  C   UNL A   1      43.069  24.692  26.132  1.00  0.00     0.338 C 
ATOM     40  O   UNL A   1      42.677  24.335  25.036  1.00  0.00    -0.246 OA
BRANCH  39  41
ATOM     41  C   UNL A   1      42.355  25.721  26.912  1.00  0.00     0.060 A 
ATOM     42  C   UNL A   1      42.891  27.012  27.003  1.00  0.00     0.016 A 
ATOM     43  C   UNL A   1      41.295  25.338  27.736  1.00  0.00     0.016 A 
ATOM     44  C   UNL A   1      42.408  27.904  27.968  1.00  0.00     0.010 A 
ATOM     45  C   UNL A   1      40.815  26.230  28.700  1.00  0.00     0.010 A 
ATOM     46  C   UNL A   1      41.404  27.499  28.856  1.00  0.00    -0.014 A 
BRANCH  46  47
ATOM     47  C   UNL A   1      41.087  28.303  30.067  1.00  0.00     0.031 A 
ATOM     48  C   UNL A   1      39.948  29.287  30.010  1.00  0.00     0.074 A 
ATOM     49  C   UNL A   1      41.812  28.194  31.194  1.00  0.00     0.049 A 
ATOM     50  N   UNL A   1      39.574  30.181  30.892  1.00  0.00    -0.248 NA
ATOM     51  C   UNL A   1      39.130  29.266  28.788  1.00  0.00     0.031 C 
ATOM     52  C   UNL A   1      42.909  27.254  31.405  1.00  0.00     0.029 A 
ATOM     53  N   UNL A   1      41.744  28.907  32.365  1.00  0.00    -0.354 N 
ATOM     54  C   UNL A   1      38.493  30.843  30.322  1.00  0.00     0.074 A 
ATOM     55  C   UNL A   1      38.288  30.263  29.012  1.00  0.00     0.031 C 
ATOM     56  C   UNL A   1      43.430  27.465  32.626  1.00  0.00     0.029 A 
ATOM     57  C   UNL A   1      42.731  28.583  33.261  1.00  0.00     0.049 A 
ATOM     58  H   UNL A   1      41.053  29.586  32.545  1.00  0.00     0.167 HD
ATOM     59  C   UNL A   1      37.741  31.847  30.836  1.00  0.00     0.031 A 
ATOM     60  C   UNL A   1      43.062  29.146  34.441  1.00  0.00     0.031 A 
ATOM     61  C   UNL A   1      37.954  32.439  32.131  1.00  0.00     0.049 A 
ATOM     62  C   UNL A   1      42.268  30.315  34.965  1.00  0.00     0.074 A 
ATOM     63  C   UNL A   1      37.229  33.443  32.749  1.00  0.00     0.029 A 
ATOM     64  N   UNL A   1      38.978  32.091  32.999  1.00  0.00    -0.354 N 
ATOM     65  N   UNL A   1      41.234  30.918  34.429  1.00  0.00    -0.248 NA
ATOM     66  C   UNL A   1      42.686  30.878  36.258  1.00  0.00     0.031 C 
ATOM     67  C   UNL A   1      37.856  33.751  33.961  1.00  0.00     0.029 A 
ATOM     68  C   UNL A   1      38.926  32.886  34.132  1.00  0.00     0.049 A 
ATOM     69  H   UNL A   1      39.643  31.384  32.834  1.00  0.00     0.167 HD
ATOM     70  C   UNL A   1      40.857  31.906  35.333  1.00  0.00     0.074 A 
ATOM     71  C   UNL A   1      41.771  31.820  36.452  1.00  0.00     0.031 C 
ATOM     72  C   UNL A   1      39.838  32.795  35.245  1.00  0.00     0.031 A 
BRANCH  59  73
ATOM     73  C   UNL A   1      36.652  32.407  29.962  1.00  0.00    -0.014 A 
ATOM     74  C   UNL A   1      35.327  31.950  30.049  1.00  0.00     0.009 A 
ATOM     75  C   UNL A   1      36.960  33.417  29.036  1.00  0.00     0.009 A 
ATOM     76  C   UNL A   1      34.347  32.453  29.189  1.00  0.00     0.001 A 
ATOM     77  C   UNL A   1      35.972  33.942  28.202  1.00  0.00     0.001 A 
ATOM     78  C   UNL A   1      34.670  33.449  28.267  1.00  0.00     0.000 A 
ENDBRANCH  59  73
BRANCH  60  79
ATOM     79  C   UNL A   1      44.230  28.623  35.198  1.00  0.00    -0.014 A 
ATOM     80  C   UNL A   1      45.531  29.047  34.894  1.00  0.00     0.009 A 
ATOM     81  C   UNL A   1      44.042  27.704  36.243  1.00  0.00     0.009 A 
ATOM     82  C   UNL A   1      46.622  28.552  35.613  1.00  0.00     0.001 A 
ATOM     83  C   UNL A   1      45.131  27.233  36.980  1.00  0.00     0.001 A 
ATOM     84  C   UNL A   1      46.421  27.653  36.660  1.00  0.00     0.000 A 
ENDBRANCH  60  79
BRANCH  72  85
ATOM     85  C   UNL A   1      39.611  33.724  36.407  1.00  0.00    -0.014 A 
ATOM     86  C   UNL A   1      40.127  35.028  36.421  1.00  0.00     0.009 A 
ATOM     87  C   UNL A   1      38.797  33.306  37.474  1.00  0.00     0.009 A 
ATOM     88  C   UNL A   1      39.849  35.886  37.489  1.00  0.00     0.001 A 
ATOM     89  C   UNL A   1      38.498  34.175  38.525  1.00  0.00     0.001 A 
ATOM     90  C   UNL A   1      39.030  35.462  38.535  1.00  0.00     0.000 A 
ENDBRANCH  72  85
ENDBRANCH  46  47
ENDBRANCH  39  41
ENDBRANCH  38  39
ENDBRANCH  37  38
ENDBRANCH  36  37
ENDBRANCH  35  36
ENDBRANCH  34  35
ENDBRANCH  33  34
ENDBRANCH  32  33
ENDBRANCH  31  32
ENDBRANCH   1  31
TORSDOF 26
ENDMDL
MODEL 2
REMARK VINA RESULT:      -9.7      0.899      5.589
REMARK SMILES Cc1ccc(S(=O)(=O)Nc2ccc(C(=O)CCC(=O)OCCOCCOCCOCCOC(=O)c3ccc(-c4c5nc(c(-c6ccccc6)c6ccc([nH]6)c(-c6ccccc6)c6nc(c(-c7ccccc7)c7ccc4[nH]7)C=C6)C=C5)cc3)cc2)c(C)c1
REMARK SMILES IDX 24 1 23 2 22 3 21 4 20 5 18 6 19 7 17 8 16 9 14 10 15 11
REMARK SMILES IDX 13 12 10 13 11 14 84 15 12 16 83 17 9 18 6 20 7 21 8 22 5 23
REMARK SMILES IDX 1 24 2 25 3 26 87 27 4 28 85 29 86 30 25 31 26 32 27 33
REMARK SMILES IDX 28 34 29 35 30 36 31 37 32 38 33 39 34 40 35 41 36 42 82 43
REMARK SMILES IDX 37 44 81 45 38 46 39 47 40 48 75 49 41 50 80 51 74 52 76 53
REMARK SMILES IDX 42 54 79 55 73 56 72 57 43 59 65 60 50 61 64 62 51 63 54 64
REMARK SMILES IDX 63 65 77 66 52 67 53 68 62 70 78 71 55 72 44 73 45 74 49 75
REMARK SMILES IDX 46 76 48 77 47 78 66 79 67 80 71 81 68 82 70 83 69 84 56 85
REMARK SMILES IDX 57 86 61 87 58 88 60 89 59 90
REMARK H PARENT 9 19 76 58 54 69
REMARK Flexibility Score: inf
ROOT
ATOM      1  C   UNL A   1      41.997  20.325  26.550  1.00  0.00     0.188 C 
ENDROOT
BRANCH   1   2
ATOM      2  O   UNL A   1      40.659  20.574  26.136  1.00  0.00    -0.376 OA
BRANCH   2   3
ATOM      3  C   UNL A   1      40.184  21.916  26.137  1.00  0.00     0.202 C 
BRANCH   3   4
ATOM      4  C   UNL A   1      38.673  22.093  26.194  1.00  0.00     0.261 C 
BRANCH   4   5
ATOM      5  O   UNL A   1      38.078  21.736  24.938  1.00  0.00    -0.463 OA
BRANCH   5   6
ATOM      6  C   UNL A   1      37.351  20.599  24.935  1.00  0.00     0.306 C 
ATOM      7  O   UNL A   1      37.827  19.473  24.874  1.00  0.00    -0.252 OA
BRANCH   6   8
ATOM      8  C   UNL A   1      35.866  20.866  25.036  1.00  0.00     0.131 C 
BRANCH   8   9
ATOM      9  C   UNL A   1      35.306  22.075  24.279  1.00  0.00     0.093 C 
BRANCH   9  10
ATOM     10  C   UNL A   1      33.791  22.217  24.383  1.00  0.00     0.163 C 
ATOM     11  O   UNL A   1      33.158  21.455  25.115  1.00  0.00    -0.294 OA
BRANCH  10  12
ATOM     12  C   UNL A   1      33.027  23.211  23.553  1.00  0.00     0.018 A 
ATOM     13  C   UNL A   1      31.789  25.449  22.329  1.00  0.00     0.049 A 
ATOM     14  C   UNL A   1      33.121  25.136  22.060  1.00  0.00     0.027 A 
ATOM     15  C   UNL A   1      31.042  24.532  23.052  1.00  0.00     0.027 A 
ATOM     16  C   UNL A   1      33.739  24.034  22.675  1.00  0.00     0.014 A 
ATOM     17  C   UNL A   1      31.652  23.409  23.643  1.00  0.00     0.014 A 
BRANCH  13  18
ATOM     18  N   UNL A   1      31.281  26.683  21.838  1.00  0.00    -0.280 N 
ATOM     19  H   UNL A   1      31.336  26.817  20.864  1.00  0.00     0.180 HD
BRANCH  18  20
ATOM     20  S   UNL A   1      30.601  27.940  22.722  1.00  0.00     0.262 S 
ATOM     21  O   UNL A   1      29.541  27.382  23.547  1.00  0.00    -0.201 OA
ATOM     22  O   UNL A   1      30.327  28.970  21.750  1.00  0.00    -0.201 OA
BRANCH  20  23
ATOM     23  C   UNL A   1      31.825  28.616  23.845  1.00  0.00     0.090 A 
ATOM     24  C   UNL A   1      34.236  29.381  27.329  1.00  0.00     0.044 C 
ATOM     25  C   UNL A   1      33.477  29.234  26.040  1.00  0.00    -0.051 A 
ATOM     26  C   UNL A   1      33.932  28.386  25.025  1.00  0.00     0.005 A 
ATOM     27  C   UNL A   1      32.278  29.923  25.844  1.00  0.00     0.008 A 
ATOM     28  C   UNL A   1      33.098  28.048  23.949  1.00  0.00     0.023 A 
ATOM     29  C   UNL A   1      31.451  29.646  24.738  1.00  0.00    -0.030 A 
ATOM     30  C   UNL A   1      30.273  30.559  24.525  1.00  0.00     0.046 C 
ENDBRANCH  20  23
ENDBRANCH  18  20
ENDBRANCH  13  18
ENDBRANCH  10  12
ENDBRANCH   9  10
ENDBRANCH   8   9
ENDBRANCH   6   8
ENDBRANCH   5   6
ENDBRANCH   4   5
ENDBRANCH   3   4
ENDBRANCH   2   3
ENDBRANCH   1   2
BRANCH   1  31
ATOM     31  C   UNL A   1      42.721  19.098  25.992  1.00  0.00     0.188 C 
BRANCH  31  32
ATOM     32  O   UNL A   1      43.283  19.106  24.696  1.00  0.00    -0.377 OA
BRANCH  32  33
ATOM     33  C   UNL A   1      44.629  18.753  24.472  1.00  0.00     0.188 C 
BRANCH  33  34
ATOM     34  C   UNL A   1      45.622  19.831  24.931  1.00  0.00     0.188 C 
BRANCH  34  35
ATOM     35  O   UNL A   1      45.631  21.102  24.296  1.00  0.00    -0.376 OA
BRANCH  35  36
ATOM     36  C   UNL A   1      45.950  22.259  25.058  1.00  0.00     0.202 C 
BRANCH  36  37
ATOM     37  C   UNL A   1      45.256  22.514  26.413  1.00  0.00     0.261 C 
BRANCH  37  38
ATOM     38  O   UNL A   1      44.691  23.819  26.646  1.00  0.00    -0.460 OA
BRANCH  38  39
ATOM     39  C   UNL A   1      43.510  24.044  26.023  1.00  0.00     0.338 C 
ATOM     40  O   UNL A   1      43.064  23.465  25.050  1.00  0.00    -0.246 OA
BRANCH  39  41
ATOM     41  C   UNL A   1      42.759  25.123  26.693  1.00  0.00     0.060 A 
ATOM     42  C   UNL A   1      43.181  26.451  26.547  1.00  0.00     0.016 A 
ATOM     43  C   UNL A   1      41.793  24.791  27.646  1.00  0.00     0.016 A 
ATOM     44  C   UNL A   1      42.683  27.442  27.401  1.00  0.00     0.010 A 
ATOM     45  C   UNL A   1      41.299  25.783  28.499  1.00  0.00     0.010 A 
ATOM     46  C   UNL A   1      41.779  27.103  28.416  1.00  0.00    -0.014 A 
BRANCH  46  47
ATOM     47  C   UNL A   1      41.471  28.059  29.513  1.00  0.00     0.031 A 
ATOM     48  C   UNL A   1      42.262  27.979  30.792  1.00  0.00     0.074 A 
ATOM     49  C   UNL A   1      40.485  28.966  29.400  1.00  0.00     0.049 A 
ATOM     50  N   UNL A   1      42.085  28.617  31.923  1.00  0.00    -0.248 NA
ATOM     51  C   UNL A   1      43.398  27.045  30.798  1.00  0.00     0.031 C 
ATOM     52  C   UNL A   1      39.672  29.185  28.208  1.00  0.00     0.029 A 
ATOM     53  N   UNL A   1      39.987  29.854  30.321  1.00  0.00    -0.354 N 
ATOM     54  C   UNL A   1      43.072  28.144  32.781  1.00  0.00     0.074 A 
ATOM     55  C   UNL A   1      43.827  27.152  32.047  1.00  0.00     0.031 C 
ATOM     56  C   UNL A   1      38.756  30.132  28.477  1.00  0.00     0.029 A 
ATOM     57  C   UNL A   1      38.893  30.550  29.874  1.00  0.00     0.049 A 
ATOM     58  H   UNL A   1      40.377  29.979  31.216  1.00  0.00     0.167 HD
ATOM     59  C   UNL A   1      43.325  28.497  34.064  1.00  0.00     0.031 A 
ATOM     60  C   UNL A   1      38.068  31.398  30.522  1.00  0.00     0.031 A 
ATOM     61  C   UNL A   1      42.565  29.470  34.804  1.00  0.00     0.049 A 
ATOM     62  C   UNL A   1      38.314  31.720  31.973  1.00  0.00     0.074 A 
ATOM     63  C   UNL A   1      42.762  29.913  36.101  1.00  0.00     0.029 A 
ATOM     64  N   UNL A   1      41.453  30.139  34.316  1.00  0.00    -0.354 N 
ATOM     65  N   UNL A   1      39.262  31.286  32.768  1.00  0.00    -0.248 NA
ATOM     66  C   UNL A   1      37.375  32.653  32.616  1.00  0.00     0.031 C 
ATOM     67  C   UNL A   1      41.726  30.798  36.421  1.00  0.00     0.029 A 
ATOM     68  C   UNL A   1      40.930  30.963  35.298  1.00  0.00     0.049 A 
ATOM     69  H   UNL A   1      41.089  30.041  33.407  1.00  0.00     0.167 HD
ATOM     70  C   UNL A   1      39.056  31.917  33.990  1.00  0.00     0.074 A 
ATOM     71  C   UNL A   1      37.894  32.766  33.832  1.00  0.00     0.031 C 
ATOM     72  C   UNL A   1      39.774  31.809  35.135  1.00  0.00     0.031 A 
BRANCH  59  73
ATOM     73  C   UNL A   1      44.443  27.775  34.768  1.00  0.00    -0.014 A 
ATOM     74  C   UNL A   1      45.775  28.208  34.676  1.00  0.00     0.009 A 
ATOM     75  C   UNL A   1      44.152  26.640  35.542  1.00  0.00     0.009 A 
ATOM     76  C   UNL A   1      46.798  27.488  35.299  1.00  0.00     0.001 A 
ATOM     77  C   UNL A   1      45.171  25.942  36.191  1.00  0.00     0.001 A 
ATOM     78  C   UNL A   1      46.495  26.357  36.057  1.00  0.00     0.000 A 
ENDBRANCH  59  73
BRANCH  60  79
ATOM     79  C   UNL A   1      36.907  31.983  29.801  1.00  0.00    -0.014 A 
ATOM     80  C   UNL A   1      35.594  31.676  30.186  1.00  0.00     0.009 A 
ATOM     81  C   UNL A   1      37.111  32.867  28.729  1.00  0.00     0.009 A 
ATOM     82  C   UNL A   1      34.509  32.232  29.506  1.00  0.00     0.001 A 
ATOM     83  C   UNL A   1      36.024  33.445  28.069  1.00  0.00     0.001 A 
ATOM     84  C   UNL A   1      34.724  33.122  28.454  1.00  0.00     0.000 A 
ENDBRANCH  60  79
BRANCH  72  85
ATOM     85  C   UNL A   1      39.365  32.662  36.306  1.00  0.00    -0.014 A 
ATOM     86  C   UNL A   1      40.034  33.854  36.619  1.00  0.00     0.009 A 
ATOM     87  C   UNL A   1      38.237  32.299  37.062  1.00  0.00     0.009 A 
ATOM     88  C   UNL A   1      39.594  34.653  37.678  1.00  0.00     0.001 A 
ATOM     89  C   UNL A   1      37.783  33.114  38.100  1.00  0.00     0.001 A 
ATOM     90  C   UNL A   1      38.465  34.287  38.411  1.00  0.00     0.000 A 
ENDBRANCH  72  85
ENDBRANCH  46  47
ENDBRANCH  39  41
ENDBRANCH  38  39
ENDBRANCH  37  38
ENDBRANCH  36  37
ENDBRANCH  35  36
ENDBRANCH  34  35
ENDBRANCH  33  34
ENDBRANCH  32  33
ENDBRANCH  31  32
ENDBRANCH   1  31
TORSDOF 26
ENDMDL
MODEL 3
REMARK VINA RESULT:      -8.3      1.454      2.300
REMARK SMILES Cc1ccc(S(=O)(=O)Nc2ccc(C(=O)CCC(=O)OCCOCCOCCOCCOC(=O)c3ccc(-c4c5nc(c(-c6ccccc6)c6ccc([nH]6)c(-c6ccccc6)c6nc(c(-c7ccccc7)c7ccc4[nH]7)C=C6)C=C5)cc3)cc2)c(C)c1
REMARK SMILES IDX 24 1 23 2 22 3 21 4 20 5 18 6 19 7 17 8 16 9 14 10 15 11
REMARK SMILES IDX 13 12 10 13 11 14 84 15 12 16 83 17 9 18 6 20 7 21 8 22 5 23
REMARK SMILES IDX 1 24 2 25 3 26 87 27 4 28 85 29 86 30 25 31 26 32 27 33
REMARK SMILES IDX 28 34 29 35 30 36 31 37 32 38 33 39 34 40 35 41 36 42 82 43
REMARK SMILES IDX 37 44 81 45 38 46 39 47 40 48 75 49 41 50 80 51 74 52 76 53
REMARK SMILES IDX 42 54 79 55 73 56 72 57 43 59 65 60 50 61 64 62 51 63 54 64
REMARK SMILES IDX 63 65 77 66 52 67 53 68 62 70 78 71 55 72 44 73 45 74 49 75
REMARK SMILES IDX 46 76 48 77 47 78 66 79 67 80 71 81 68 82 70 83 69 84 56 85
REMARK SMILES IDX 57 86 61 87 58 88 60 89 59 90
REMARK H PARENT 9 19 76 58 54 69
REMARK Flexibility Score: inf
ROOT
ATOM      1  C   UNL A   1      41.955  20.531  26.666  1.00  0.00     0.188 C 
ENDROOT
BRANCH   1   2
ATOM      2  O   UNL A   1      40.699  20.809  26.059  1.00  0.00    -0.376 OA
BRANCH   2   3
ATOM      3  C   UNL A   1      40.161  22.121  26.176  1.00  0.00     0.202 C 
BRANCH   3   4
ATOM      4  C   UNL A   1      38.644  22.220  26.257  1.00  0.00     0.261 C 
BRANCH   4   5
ATOM      5  O   UNL A   1      38.051  21.897  24.991  1.00  0.00    -0.463 OA
BRANCH   5   6
ATOM      6  C   UNL A   1      37.357  20.740  24.946  1.00  0.00     0.306 C 
ATOM      7  O   UNL A   1      37.855  19.642  24.743  1.00  0.00    -0.252 OA
BRANCH   6   8
ATOM      8  C   UNL A   1      35.880  20.947  25.197  1.00  0.00     0.131 C 
BRANCH   8   9
ATOM      9  C   UNL A   1      35.222  22.194  24.598  1.00  0.00     0.093 C 
BRANCH   9  10
ATOM     10  C   UNL A   1      33.702  22.201  24.710  1.00  0.00     0.163 C 
ATOM     11  O   UNL A   1      33.142  21.382  25.440  1.00  0.00    -0.294 OA
BRANCH  10  12
ATOM     12  C   UNL A   1      32.848  23.128  23.889  1.00  0.00     0.018 A 
ATOM     13  C   UNL A   1      31.529  25.265  22.574  1.00  0.00     0.049 A 
ATOM     14  C   UNL A   1      32.756  24.793  22.111  1.00  0.00     0.027 A 
ATOM     15  C   UNL A   1      30.888  24.538  23.565  1.00  0.00     0.027 A 
ATOM     16  C   UNL A   1      33.417  23.742  22.768  1.00  0.00     0.014 A 
ATOM     17  C   UNL A   1      31.535  23.464  24.205  1.00  0.00     0.014 A 
BRANCH  13  18
ATOM     18  N   UNL A   1      31.009  26.455  21.993  1.00  0.00    -0.280 N 
ATOM     19  H   UNL A   1      30.962  26.472  21.009  1.00  0.00     0.180 HD
BRANCH  18  20
ATOM     20  S   UNL A   1      30.467  27.834  22.784  1.00  0.00     0.262 S 
ATOM     21  O   UNL A   1      29.351  27.451  23.634  1.00  0.00    -0.201 OA
ATOM     22  O   UNL A   1      30.309  28.820  21.744  1.00  0.00    -0.201 OA
BRANCH  20  23
ATOM     23  C   UNL A   1      31.755  28.448  23.872  1.00  0.00     0.090 A 
ATOM     24  C   UNL A   1      34.281  29.110  27.294  1.00  0.00     0.044 C 
ATOM     25  C   UNL A   1      33.488  28.992  26.024  1.00  0.00    -0.051 A 
ATOM     26  C   UNL A   1      33.867  28.102  25.014  1.00  0.00     0.005 A 
ATOM     27  C   UNL A   1      32.331  29.753  25.840  1.00  0.00     0.008 A 
ATOM     28  C   UNL A   1      32.991  27.802  23.960  1.00  0.00     0.023 A 
ATOM     29  C   UNL A   1      31.465  29.513  24.756  1.00  0.00    -0.030 A 
ATOM     30  C   UNL A   1      30.343  30.495  24.551  1.00  0.00     0.046 C 
ENDBRANCH  20  23
ENDBRANCH  18  20
ENDBRANCH  13  18
ENDBRANCH  10  12
ENDBRANCH   9  10
ENDBRANCH   8   9
ENDBRANCH   6   8
ENDBRANCH   5   6
ENDBRANCH   4   5
ENDBRANCH   3   4
ENDBRANCH   2   3
ENDBRANCH   1   2
BRANCH   1  31
ATOM     31  C   UNL A   1      43.073  19.944  25.802  1.00  0.00     0.188 C 
BRANCH  31  32
ATOM     32  O   UNL A   1      43.716  20.719  24.812  1.00  0.00    -0.377 OA
BRANCH  32  33
ATOM     33  C   UNL A   1      44.636  21.733  25.147  1.00  0.00     0.188 C 
BRANCH  33  34
ATOM     34  C   UNL A   1      43.973  22.961  25.790  1.00  0.00     0.188 C 
BRANCH  34  35
ATOM     35  O   UNL A   1      43.004  23.705  25.065  1.00  0.00    -0.376 OA
BRANCH  35  36
ATOM     36  C   UNL A   1      42.638  25.001  25.520  1.00  0.00     0.202 C 
BRANCH  36  37
ATOM     37  C   UNL A   1      43.384  26.248  24.999  1.00  0.00     0.261 C 
BRANCH  37  38
ATOM     38  O   UNL A   1      43.948  27.151  25.971  1.00  0.00    -0.460 OA
BRANCH  38  39
ATOM     39  C   UNL A   1      44.898  26.605  26.766  1.00  0.00     0.338 C 
ATOM     40  O   UNL A   1      45.818  25.882  26.430  1.00  0.00    -0.246 OA
BRANCH  39  41
ATOM     41  C   UNL A   1      44.707  27.012  28.172  1.00  0.00     0.060 A 
ATOM     42  C   UNL A   1      43.795  26.314  28.973  1.00  0.00     0.016 A 
ATOM     43  C   UNL A   1      45.253  28.220  28.611  1.00  0.00     0.016 A 
ATOM     44  C   UNL A   1      43.375  26.859  30.192  1.00  0.00     0.010 A 
ATOM     45  C   UNL A   1      44.830  28.763  29.829  1.00  0.00     0.010 A 
ATOM     46  C   UNL A   1      43.850  28.112  30.601  1.00  0.00    -0.014 A 
BRANCH  46  47
ATOM     47  C   UNL A   1      43.204  28.844  31.723  1.00  0.00     0.031 A 
ATOM     48  C   UNL A   1      41.942  29.621  31.454  1.00  0.00     0.074 A 
ATOM     49  C   UNL A   1      43.738  28.854  32.957  1.00  0.00     0.049 A 
ATOM     50  N   UNL A   1      41.280  30.434  32.240  1.00  0.00    -0.248 NA
ATOM     51  C   UNL A   1      41.356  29.467  30.113  1.00  0.00     0.031 C 
ATOM     52  C   UNL A   1      44.925  28.112  33.370  1.00  0.00     0.029 A 
ATOM     53  N   UNL A   1      43.354  29.540  34.083  1.00  0.00    -0.354 N 
ATOM     54  C   UNL A   1      40.215  30.906  31.481  1.00  0.00     0.074 A 
ATOM     55  C   UNL A   1      40.333  30.306  30.170  1.00  0.00     0.031 C 
ATOM     56  C   UNL A   1      45.190  28.403  34.655  1.00  0.00     0.029 A 
ATOM     57  C   UNL A   1      44.217  29.384  35.139  1.00  0.00     0.049 A 
ATOM     58  H   UNL A   1      42.539  30.090  34.129  1.00  0.00     0.167 HD
ATOM     59  C   UNL A   1      39.229  31.765  31.840  1.00  0.00     0.031 A 
ATOM     60  C   UNL A   1      44.246  29.989  36.343  1.00  0.00     0.031 A 
ATOM     61  C   UNL A   1      39.119  32.378  33.137  1.00  0.00     0.049 A 
ATOM     62  C   UNL A   1      43.190  31.003  36.699  1.00  0.00     0.074 A 
ATOM     63  C   UNL A   1      38.142  33.242  33.602  1.00  0.00     0.029 A 
ATOM     64  N   UNL A   1      40.026  32.205  34.172  1.00  0.00    -0.354 N 
ATOM     65  N   UNL A   1      42.174  31.425  35.985  1.00  0.00    -0.248 NA
ATOM     66  C   UNL A   1      43.283  31.623  38.031  1.00  0.00     0.031 C 
ATOM     67  C   UNL A   1      38.495  33.645  34.894  1.00  0.00     0.029 A 
ATOM     68  C   UNL A   1      39.652  32.974  35.261  1.00  0.00     0.049 A 
ATOM     69  H   UNL A   1      40.818  31.622  34.136  1.00  0.00     0.167 HD
ATOM     70  C   UNL A   1      41.490  32.330  36.790  1.00  0.00     0.074 A 
ATOM     71  C   UNL A   1      42.204  32.395  38.047  1.00  0.00     0.031 C 
ATOM     72  C   UNL A   1      40.365  33.034  36.512  1.00  0.00     0.031 A 
BRANCH  59  73
ATOM     73  C   UNL A   1      38.224  32.137  30.783  1.00  0.00    -0.014 A 
ATOM     74  C   UNL A   1      38.436  33.213  29.908  1.00  0.00     0.009 A 
ATOM     75  C   UNL A   1      37.041  31.388  30.662  1.00  0.00     0.009 A 
ATOM     76  C   UNL A   1      37.461  33.566  28.971  1.00  0.00     0.001 A 
ATOM     77  C   UNL A   1      36.085  31.721  29.702  1.00  0.00     0.001 A 
ATOM     78  C   UNL A   1      36.287  32.819  28.868  1.00  0.00     0.000 A 
ENDBRANCH  59  73
BRANCH  60  79
ATOM     79  C   UNL A   1      45.340  29.667  37.297  1.00  0.00    -0.014 A 
ATOM     80  C   UNL A   1      46.615  30.230  37.142  1.00  0.00     0.009 A 
ATOM     81  C   UNL A   1      45.106  28.803  38.378  1.00  0.00     0.009 A 
ATOM     82  C   UNL A   1      47.636  29.925  38.045  1.00  0.00     0.001 A 
ATOM     83  C   UNL A   1      46.121  28.523  39.296  1.00  0.00     0.001 A 
ATOM     84  C   UNL A   1      47.387  29.079  39.125  1.00  0.00     0.000 A 
ENDBRANCH  60  79
BRANCH  72  85
ATOM     85  C   UNL A   1      39.793  33.905  37.598  1.00  0.00    -0.014 A 
ATOM     86  C   UNL A   1      38.997  33.377  38.625  1.00  0.00     0.009 A 
ATOM     87  C   UNL A   1      40.125  35.270  37.632  1.00  0.00     0.009 A 
ATOM     88  C   UNL A   1      38.529  34.203  39.651  1.00  0.00     0.001 A 
ATOM     89  C   UNL A   1      39.681  36.086  38.673  1.00  0.00     0.001 A 
ATOM     90  C   UNL A   1      38.877  35.553  39.679  1.00  0.00     0.000 A 
ENDBRANCH  72  85
ENDBRANCH  46  47
ENDBRANCH  39  41
ENDBRANCH  38  39
ENDBRANCH  37  38
ENDBRANCH  36  37
ENDBRANCH  35  36
ENDBRANCH  34  35
ENDBRANCH  33  34
ENDBRANCH  32  33
ENDBRANCH  31  32
ENDBRANCH   1  31
TORSDOF 26
ENDMDL
