MODEL 1
REMARK VINA RESULT:      -8.3      0.000      0.000
REMARK SMILES CCOC[C@@H](O)C[C@@]1(C(=O)OCCOCCOCCOCCOC(=O)c2ccc(-c3c4nc(c(-c5ccccc5)c5ccc([nH]5)c(-c5ccccc5)c5nc(c(-c6ccccc6)c6ccc3[nH]6)C=C5)C=C4)cc2)CC[C@H](C)C1
REMARK SMILES IDX 15 1 14 2 13 3 12 4 11 5 9 6 10 7 8 8 74 9 78 10 75 11 76 12
REMARK SMILES IDX 77 13 7 14 5 15 4 16 3 17 2 18 1 19 6 20 16 22 17 23 18 24
REMARK SMILES IDX 19 25 20 26 21 27 22 28 23 29 24 30 25 31 26 32 27 33 73 34
REMARK SMILES IDX 28 35 72 36 29 37 30 38 31 39 66 40 32 41 71 42 65 43 67 44
REMARK SMILES IDX 33 45 70 46 64 47 63 48 34 50 56 51 41 52 55 53 42 54 45 55
REMARK SMILES IDX 54 56 68 57 43 58 44 59 53 61 69 62 46 63 35 64 36 65 40 66
REMARK SMILES IDX 37 67 39 68 38 69 57 70 58 71 62 72 59 73 61 74 60 75 47 76
REMARK SMILES IDX 48 77 52 78 49 79 51 80 50 81
REMARK H PARENT 6 21 67 49 45 60
REMARK Flexibility Score: inf
ROOT
ATOM      1  C   UNL A   1      33.463  21.984  25.304  1.00  0.00     0.188 C 
ENDROOT
BRANCH   1   2
ATOM      2  O   UNL A   1      33.266  22.936  26.329  1.00  0.00    -0.376 OA
BRANCH   2   3
ATOM      3  C   UNL A   1      31.992  23.278  26.826  1.00  0.00     0.202 C 
BRANCH   3   4
ATOM      4  C   UNL A   1      30.900  23.952  25.976  1.00  0.00     0.261 C 
BRANCH   4   5
ATOM      5  O   UNL A   1      31.262  25.112  25.213  1.00  0.00    -0.463 OA
BRANCH   5   6
ATOM      6  C   UNL A   1      31.270  26.295  25.861  1.00  0.00     0.312 C 
ATOM      7  O   UNL A   1      30.674  26.462  26.922  1.00  0.00    -0.252 OA
BRANCH   6   8
ATOM      8  C   UNL A   1      32.123  27.408  25.198  1.00  0.00     0.071 C 
ATOM      9  C   UNL A   1      33.505  27.345  25.913  1.00  0.00     0.019 C 
ATOM     10  C   UNL A   1      31.579  28.760  25.708  1.00  0.00     0.022 C 
ATOM     11  C   UNL A   1      34.027  28.771  25.973  1.00  0.00     0.004 C 
ATOM     12  C   UNL A   1      32.799  29.680  25.870  1.00  0.00    -0.013 C 
ATOM     13  C   UNL A   1      32.655  30.598  27.074  1.00  0.00     0.007 C 
BRANCH   8  14
ATOM     14  C   UNL A   1      32.386  27.509  23.651  1.00  0.00     0.053 C 
BRANCH  14  15
ATOM     15  C   UNL A   1      33.651  26.916  22.998  1.00  0.00     0.141 C 
BRANCH  15  16
ATOM     16  C   UNL A   1      33.305  25.528  22.394  1.00  0.00     0.191 C 
BRANCH  16  17
ATOM     17  O   UNL A   1      33.372  25.444  20.966  1.00  0.00    -0.379 OA
BRANCH  17  18
ATOM     18  C   UNL A   1      32.134  25.533  20.261  1.00  0.00     0.157 C 
ATOM     19  C   UNL A   1      32.253  25.470  18.747  1.00  0.00     0.035 C 
ENDBRANCH  17  18
ENDBRANCH  16  17
ENDBRANCH  15  16
BRANCH  15  20
ATOM     20  O   UNL A   1      34.087  27.754  21.939  1.00  0.00    -0.391 OA
ATOM     21  H   UNL A   1      34.233  28.651  22.276  1.00  0.00     0.211 HD
ENDBRANCH  15  20
ENDBRANCH  14  15
ENDBRANCH   8  14
ENDBRANCH   6   8
ENDBRANCH   5   6
ENDBRANCH   4   5
ENDBRANCH   3   4
ENDBRANCH   2   3
ENDBRANCH   1   2
BRANCH   1  22
ATOM     22  C   UNL A   1      34.461  22.465  24.242  1.00  0.00     0.188 C 
BRANCH  22  23
ATOM     23  O   UNL A   1      35.257  23.615  24.464  1.00  0.00    -0.377 OA
BRANCH  23  24
ATOM     24  C   UNL A   1      36.650  23.389  24.601  1.00  0.00     0.188 C 
BRANCH  24  25
ATOM     25  C   UNL A   1      37.023  21.954  24.202  1.00  0.00     0.188 C 
BRANCH  25  26
ATOM     26  O   UNL A   1      37.512  21.068  25.194  1.00  0.00    -0.376 OA
BRANCH  26  27
ATOM     27  C   UNL A   1      38.890  21.005  25.529  1.00  0.00     0.202 C 
BRANCH  27  28
ATOM     28  C   UNL A   1      39.676  19.713  25.853  1.00  0.00     0.261 C 
BRANCH  28  29
ATOM     29  O   UNL A   1      40.994  19.540  25.329  1.00  0.00    -0.460 OA
BRANCH  29  30
ATOM     30  C   UNL A   1      42.018  19.556  26.204  1.00  0.00     0.338 C 
ATOM     31  O   UNL A   1      42.779  18.645  26.480  1.00  0.00    -0.246 OA
BRANCH  30  32
ATOM     32  C   UNL A   1      42.151  20.948  26.686  1.00  0.00     0.060 A 
ATOM     33  C   UNL A   1      42.508  21.959  25.785  1.00  0.00     0.016 A 
ATOM     34  C   UNL A   1      41.905  21.254  28.025  1.00  0.00     0.016 A 
ATOM     35  C   UNL A   1      42.629  23.278  26.220  1.00  0.00     0.010 A 
ATOM     36  C   UNL A   1      42.039  22.575  28.464  1.00  0.00     0.010 A 
ATOM     37  C   UNL A   1      42.435  23.588  27.570  1.00  0.00    -0.014 A 
BRANCH  37  38
ATOM     38  C   UNL A   1      42.889  24.901  28.091  1.00  0.00     0.031 A 
ATOM     39  C   UNL A   1      41.839  25.951  28.343  1.00  0.00     0.074 A 
ATOM     40  C   UNL A   1      44.179  25.153  28.377  1.00  0.00     0.049 A 
ATOM     41  N   UNL A   1      41.979  27.185  28.752  1.00  0.00    -0.248 NA
ATOM     42  C   UNL A   1      40.444  25.553  28.092  1.00  0.00     0.031 C 
ATOM     43  C   UNL A   1      45.285  24.207  28.238  1.00  0.00     0.029 A 
ATOM     44  N   UNL A   1      44.773  26.297  28.850  1.00  0.00    -0.354 N 
ATOM     45  C   UNL A   1      40.694  27.715  28.779  1.00  0.00     0.074 A 
ATOM     46  C   UNL A   1      39.794  26.684  28.315  1.00  0.00     0.031 C 
ATOM     47  C   UNL A   1      46.425  24.811  28.623  1.00  0.00     0.029 A 
ATOM     48  C   UNL A   1      46.136  26.195  28.995  1.00  0.00     0.049 A 
ATOM     49  H   UNL A   1      44.269  27.115  29.066  1.00  0.00     0.167 HD
ATOM     50  C   UNL A   1      40.293  28.948  29.164  1.00  0.00     0.031 A 
ATOM     51  C   UNL A   1      47.042  27.120  29.368  1.00  0.00     0.031 A 
ATOM     52  C   UNL A   1      41.182  29.974  29.631  1.00  0.00     0.049 A 
ATOM     53  C   UNL A   1      46.579  28.515  29.712  1.00  0.00     0.074 A 
ATOM     54  C   UNL A   1      40.870  31.250  30.067  1.00  0.00     0.029 A 
ATOM     55  N   UNL A   1      42.559  29.844  29.716  1.00  0.00    -0.354 N 
ATOM     56  N   UNL A   1      45.360  28.997  29.760  1.00  0.00    -0.248 NA
ATOM     57  C   UNL A   1      47.622  29.491  30.062  1.00  0.00     0.031 C 
ATOM     58  C   UNL A   1      42.066  31.915  30.351  1.00  0.00     0.029 A 
ATOM     59  C   UNL A   1      43.115  31.029  30.166  1.00  0.00     0.049 A 
ATOM     60  H   UNL A   1      43.065  29.031  29.491  1.00  0.00     0.167 HD
ATOM     61  C   UNL A   1      45.488  30.317  30.177  1.00  0.00     0.074 A 
ATOM     62  C   UNL A   1      46.901  30.556  30.385  1.00  0.00     0.031 C 
ATOM     63  C   UNL A   1      44.523  31.249  30.375  1.00  0.00     0.031 A 
BRANCH  50  64
ATOM     64  C   UNL A   1      38.828  29.265  29.050  1.00  0.00    -0.014 A 
ATOM     65  C   UNL A   1      38.273  29.771  27.863  1.00  0.00     0.009 A 
ATOM     66  C   UNL A   1      37.985  29.035  30.148  1.00  0.00     0.009 A 
ATOM     67  C   UNL A   1      36.912  30.073  27.792  1.00  0.00     0.001 A 
ATOM     68  C   UNL A   1      36.619  29.306  30.063  1.00  0.00     0.001 A 
ATOM     69  C   UNL A   1      36.085  29.834  28.890  1.00  0.00     0.000 A 
ENDBRANCH  50  64
BRANCH  51  70
ATOM     70  C   UNL A   1      48.492  26.781  29.421  1.00  0.00    -0.014 A 
ATOM     71  C   UNL A   1      49.300  26.908  28.281  1.00  0.00     0.009 A 
ATOM     72  C   UNL A   1      49.064  26.279  30.600  1.00  0.00     0.009 A 
ATOM     73  C   UNL A   1      50.639  26.508  28.311  1.00  0.00     0.001 A 
ATOM     74  C   UNL A   1      50.412  25.912  30.638  1.00  0.00     0.001 A 
ATOM     75  C   UNL A   1      51.195  26.014  29.490  1.00  0.00     0.000 A 
ENDBRANCH  51  70
BRANCH  63  76
ATOM     76  C   UNL A   1      44.949  32.596  30.891  1.00  0.00    -0.014 A 
ATOM     77  C   UNL A   1      45.005  32.876  32.265  1.00  0.00     0.009 A 
ATOM     78  C   UNL A   1      45.356  33.586  29.980  1.00  0.00     0.009 A 
ATOM     79  C   UNL A   1      45.425  34.131  32.714  1.00  0.00     0.001 A 
ATOM     80  C   UNL A   1      45.808  34.827  30.433  1.00  0.00     0.001 A 
ATOM     81  C   UNL A   1      45.832  35.101  31.799  1.00  0.00     0.000 A 
ENDBRANCH  63  76
ENDBRANCH  37  38
ENDBRANCH  30  32
ENDBRANCH  29  30
ENDBRANCH  28  29
ENDBRANCH  27  28
ENDBRANCH  26  27
ENDBRANCH  25  26
ENDBRANCH  24  25
ENDBRANCH  23  24
ENDBRANCH  22  23
ENDBRANCH   1  22
TORSDOF 26
ENDMDL
MODEL 2
REMARK VINA RESULT:      -8.3      1.420      6.479
REMARK SMILES CCOC[C@@H](O)C[C@@]1(C(=O)OCCOCCOCCOCCOC(=O)c2ccc(-c3c4nc(c(-c5ccccc5)c5ccc([nH]5)c(-c5ccccc5)c5nc(c(-c6ccccc6)c6ccc3[nH]6)C=C5)C=C4)cc2)CC[C@H](C)C1
REMARK SMILES IDX 15 1 14 2 13 3 12 4 11 5 9 6 10 7 8 8 74 9 78 10 75 11 76 12
REMARK SMILES IDX 77 13 7 14 5 15 4 16 3 17 2 18 1 19 6 20 16 22 17 23 18 24
REMARK SMILES IDX 19 25 20 26 21 27 22 28 23 29 24 30 25 31 26 32 27 33 73 34
REMARK SMILES IDX 28 35 72 36 29 37 30 38 31 39 66 40 32 41 71 42 65 43 67 44
REMARK SMILES IDX 33 45 70 46 64 47 63 48 34 50 56 51 41 52 55 53 42 54 45 55
REMARK SMILES IDX 54 56 68 57 43 58 44 59 53 61 69 62 46 63 35 64 36 65 40 66
REMARK SMILES IDX 37 67 39 68 38 69 57 70 58 71 62 72 59 73 61 74 60 75 47 76
REMARK SMILES IDX 48 77 52 78 49 79 51 80 50 81
REMARK H PARENT 6 21 67 49 45 60
REMARK Flexibility Score: inf
ROOT
ATOM      1  C   UNL A   1      33.115  23.423  24.099  1.00  0.00     0.188 C 
ENDROOT
BRANCH   1   2
ATOM      2  O   UNL A   1      33.468  23.456  25.466  1.00  0.00    -0.376 OA
BRANCH   2   3
ATOM      3  C   UNL A   1      32.776  24.227  26.422  1.00  0.00     0.202 C 
BRANCH   3   4
ATOM      4  C   UNL A   1      31.413  24.891  26.152  1.00  0.00     0.261 C 
BRANCH   4   5
ATOM      5  O   UNL A   1      31.397  26.108  25.392  1.00  0.00    -0.463 OA
BRANCH   5   6
ATOM      6  C   UNL A   1      31.445  27.265  26.084  1.00  0.00     0.312 C 
ATOM      7  O   UNL A   1      31.107  27.335  27.262  1.00  0.00    -0.252 OA
BRANCH   6   8
ATOM      8  C   UNL A   1      32.003  28.482  25.300  1.00  0.00     0.071 C 
ATOM      9  C   UNL A   1      30.999  28.712  24.132  1.00  0.00     0.019 C 
ATOM     10  C   UNL A   1      33.252  27.995  24.535  1.00  0.00     0.022 C 
ATOM     11  C   UNL A   1      31.815  29.217  22.954  1.00  0.00     0.004 C 
ATOM     12  C   UNL A   1      33.250  28.740  23.191  1.00  0.00    -0.013 C 
ATOM     13  C   UNL A   1      33.762  27.861  22.060  1.00  0.00     0.007 C 
BRANCH   8  14
ATOM     14  C   UNL A   1      32.310  29.880  25.952  1.00  0.00     0.053 C 
BRANCH  14  15
ATOM     15  C   UNL A   1      33.502  30.090  26.908  1.00  0.00     0.141 C 
BRANCH  15  16
ATOM     16  C   UNL A   1      33.367  31.480  27.587  1.00  0.00     0.191 C 
BRANCH  16  17
ATOM     17  O   UNL A   1      34.600  32.111  27.948  1.00  0.00    -0.379 OA
BRANCH  17  18
ATOM     18  C   UNL A   1      34.617  33.538  27.935  1.00  0.00     0.157 C 
ATOM     19  C   UNL A   1      33.369  34.199  28.496  1.00  0.00     0.035 C 
ENDBRANCH  17  18
ENDBRANCH  16  17
ENDBRANCH  15  16
BRANCH  15  20
ATOM     20  O   UNL A   1      33.482  29.104  27.929  1.00  0.00    -0.391 OA
ATOM     21  H   UNL A   1      32.804  28.443  27.726  1.00  0.00     0.211 HD
ENDBRANCH  15  20
ENDBRANCH  14  15
ENDBRANCH   8  14
ENDBRANCH   6   8
ENDBRANCH   5   6
ENDBRANCH   4   5
ENDBRANCH   3   4
ENDBRANCH   2   3
ENDBRANCH   1   2
BRANCH   1  22
ATOM     22  C   UNL A   1      34.280  22.979  23.204  1.00  0.00     0.188 C 
BRANCH  22  23
ATOM     23  O   UNL A   1      35.535  23.631  23.272  1.00  0.00    -0.377 OA
BRANCH  23  24
ATOM     24  C   UNL A   1      36.658  22.795  23.505  1.00  0.00     0.188 C 
BRANCH  24  25
ATOM     25  C   UNL A   1      36.337  21.707  24.540  1.00  0.00     0.188 C 
BRANCH  25  26
ATOM     26  O   UNL A   1      37.220  21.512  25.631  1.00  0.00    -0.376 OA
BRANCH  26  27
ATOM     27  C   UNL A   1      38.614  21.320  25.440  1.00  0.00     0.202 C 
BRANCH  27  28
ATOM     28  C   UNL A   1      39.440  20.134  25.993  1.00  0.00     0.261 C 
BRANCH  28  29
ATOM     29  O   UNL A   1      40.597  19.690  25.283  1.00  0.00    -0.460 OA
BRANCH  29  30
ATOM     30  C   UNL A   1      41.715  19.458  25.999  1.00  0.00     0.338 C 
ATOM     31  O   UNL A   1      42.279  18.393  26.179  1.00  0.00    -0.246 OA
BRANCH  30  32
ATOM     32  C   UNL A   1      42.231  20.775  26.431  1.00  0.00     0.060 A 
ATOM     33  C   UNL A   1      42.267  21.088  27.796  1.00  0.00     0.016 A 
ATOM     34  C   UNL A   1      42.695  21.692  25.486  1.00  0.00     0.016 A 
ATOM     35  C   UNL A   1      42.759  22.321  28.222  1.00  0.00     0.010 A 
ATOM     36  C   UNL A   1      43.176  22.934  25.913  1.00  0.00     0.010 A 
ATOM     37  C   UNL A   1      43.178  23.267  27.280  1.00  0.00    -0.014 A 
BRANCH  37  38
ATOM     38  C   UNL A   1      43.375  24.677  27.700  1.00  0.00     0.031 A 
ATOM     39  C   UNL A   1      44.790  25.184  27.796  1.00  0.00     0.074 A 
ATOM     40  C   UNL A   1      42.343  25.504  27.947  1.00  0.00     0.049 A 
ATOM     41  N   UNL A   1      45.230  26.355  28.180  1.00  0.00    -0.248 NA
ATOM     42  C   UNL A   1      45.851  24.237  27.414  1.00  0.00     0.031 C 
ATOM     43  C   UNL A   1      40.927  25.159  27.832  1.00  0.00     0.029 A 
ATOM     44  N   UNL A   1      42.338  26.817  28.348  1.00  0.00    -0.354 N 
ATOM     45  C   UNL A   1      46.615  26.272  28.110  1.00  0.00     0.074 A 
ATOM     46  C   UNL A   1      46.945  24.932  27.683  1.00  0.00     0.031 C 
ATOM     47  C   UNL A   1      40.189  26.238  28.153  1.00  0.00     0.029 A 
ATOM     48  C   UNL A   1      41.078  27.335  28.534  1.00  0.00     0.049 A 
ATOM     49  H   UNL A   1      43.160  27.339  28.491  1.00  0.00     0.167 HD
ATOM     50  C   UNL A   1      47.537  27.228  28.370  1.00  0.00     0.031 A 
ATOM     51  C   UNL A   1      40.693  28.547  28.978  1.00  0.00     0.031 A 
ATOM     52  C   UNL A   1      47.214  28.563  28.790  1.00  0.00     0.049 A 
ATOM     53  C   UNL A   1      41.742  29.570  29.343  1.00  0.00     0.074 A 
ATOM     54  C   UNL A   1      48.076  29.612  29.056  1.00  0.00     0.029 A 
ATOM     55  N   UNL A   1      45.929  29.030  29.012  1.00  0.00    -0.354 N 
ATOM     56  N   UNL A   1      43.048  29.490  29.248  1.00  0.00    -0.248 NA
ATOM     57  C   UNL A   1      41.259  30.855  29.869  1.00  0.00     0.031 C 
ATOM     58  C   UNL A   1      47.314  30.695  29.504  1.00  0.00     0.029 A 
ATOM     59  C   UNL A   1      45.975  30.344  29.444  1.00  0.00     0.049 A 
ATOM     60  H   UNL A   1      45.106  28.506  28.881  1.00  0.00     0.167 HD
ATOM     61  C   UNL A   1      43.537  30.722  29.668  1.00  0.00     0.074 A 
ATOM     62  C   UNL A   1      42.388  31.536  30.003  1.00  0.00     0.031 C 
ATOM     63  C   UNL A   1      44.822  31.144  29.766  1.00  0.00     0.031 A 
BRANCH  50  64
ATOM     64  C   UNL A   1      48.985  26.843  28.250  1.00  0.00    -0.014 A 
ATOM     65  C   UNL A   1      49.700  27.028  27.056  1.00  0.00     0.009 A 
ATOM     66  C   UNL A   1      49.648  26.302  29.362  1.00  0.00     0.009 A 
ATOM     67  C   UNL A   1      51.040  26.644  26.969  1.00  0.00     0.001 A 
ATOM     68  C   UNL A   1      50.996  25.951  29.283  1.00  0.00     0.001 A 
ATOM     69  C   UNL A   1      51.689  26.113  28.085  1.00  0.00     0.000 A 
ENDBRANCH  50  64
BRANCH  51  70
ATOM     70  C   UNL A   1      39.248  28.874  29.131  1.00  0.00    -0.014 A 
ATOM     71  C   UNL A   1      38.529  29.456  28.076  1.00  0.00     0.009 A 
ATOM     72  C   UNL A   1      38.593  28.655  30.353  1.00  0.00     0.009 A 
ATOM     73  C   UNL A   1      37.196  29.841  28.251  1.00  0.00     0.001 A 
ATOM     74  C   UNL A   1      37.251  29.009  30.515  1.00  0.00     0.001 A 
ATOM     75  C   UNL A   1      36.557  29.614  29.469  1.00  0.00     0.000 A 
ENDBRANCH  51  70
BRANCH  63  76
ATOM     76  C   UNL A   1      45.058  32.565  30.201  1.00  0.00    -0.014 A 
ATOM     77  C   UNL A   1      45.051  33.627  29.283  1.00  0.00     0.009 A 
ATOM     78  C   UNL A   1      45.237  32.848  31.566  1.00  0.00     0.009 A 
ATOM     79  C   UNL A   1      45.254  34.939  29.721  1.00  0.00     0.001 A 
ATOM     80  C   UNL A   1      45.404  34.162  32.003  1.00  0.00     0.001 A 
ATOM     81  C   UNL A   1      45.423  35.205  31.079  1.00  0.00     0.000 A 
ENDBRANCH  63  76
ENDBRANCH  37  38
ENDBRANCH  30  32
ENDBRANCH  29  30
ENDBRANCH  28  29
ENDBRANCH  27  28
ENDBRANCH  26  27
ENDBRANCH  25  26
ENDBRANCH  24  25
ENDBRANCH  23  24
ENDBRANCH  22  23
ENDBRANCH   1  22
TORSDOF 26
ENDMDL
MODEL 3
REMARK VINA RESULT:      -7.8      1.370      6.418
REMARK SMILES CCOC[C@@H](O)C[C@@]1(C(=O)OCCOCCOCCOCCOC(=O)c2ccc(-c3c4nc(c(-c5ccccc5)c5ccc([nH]5)c(-c5ccccc5)c5nc(c(-c6ccccc6)c6ccc3[nH]6)C=C5)C=C4)cc2)CC[C@H](C)C1
REMARK SMILES IDX 15 1 14 2 13 3 12 4 11 5 9 6 10 7 8 8 74 9 78 10 75 11 76 12
REMARK SMILES IDX 77 13 7 14 5 15 4 16 3 17 2 18 1 19 6 20 16 22 17 23 18 24
REMARK SMILES IDX 19 25 20 26 21 27 22 28 23 29 24 30 25 31 26 32 27 33 73 34
REMARK SMILES IDX 28 35 72 36 29 37 30 38 31 39 66 40 32 41 71 42 65 43 67 44
REMARK SMILES IDX 33 45 70 46 64 47 63 48 34 50 56 51 41 52 55 53 42 54 45 55
REMARK SMILES IDX 54 56 68 57 43 58 44 59 53 61 69 62 46 63 35 64 36 65 40 66
REMARK SMILES IDX 37 67 39 68 38 69 57 70 58 71 62 72 59 73 61 74 60 75 47 76
REMARK SMILES IDX 48 77 52 78 49 79 51 80 50 81
REMARK H PARENT 6 21 67 49 45 60
REMARK Flexibility Score: inf
ROOT
ATOM      1  C   UNL A   1      33.449  25.758  23.574  1.00  0.00     0.188 C 
ENDROOT
BRANCH   1   2
ATOM      2  O   UNL A   1      34.061  25.850  24.843  1.00  0.00    -0.376 OA
BRANCH   2   3
ATOM      3  C   UNL A   1      33.820  26.911  25.739  1.00  0.00     0.202 C 
BRANCH   3   4
ATOM      4  C   UNL A   1      34.047  28.392  25.384  1.00  0.00     0.261 C 
BRANCH   4   5
ATOM      5  O   UNL A   1      32.894  29.206  25.127  1.00  0.00    -0.463 OA
BRANCH   5   6
ATOM      6  C   UNL A   1      32.331  29.105  23.906  1.00  0.00     0.312 C 
ATOM      7  O   UNL A   1      33.001  29.092  22.877  1.00  0.00    -0.252 OA
BRANCH   6   8
ATOM      8  C   UNL A   1      30.786  28.958  23.898  1.00  0.00     0.071 C 
ATOM      9  C   UNL A   1      30.410  28.673  22.414  1.00  0.00     0.019 C 
ATOM     10  C   UNL A   1      30.195  30.370  24.095  1.00  0.00     0.022 C 
ATOM     11  C   UNL A   1      29.058  29.326  22.178  1.00  0.00     0.004 C 
ATOM     12  C   UNL A   1      28.926  30.429  23.232  1.00  0.00    -0.013 C 
ATOM     13  C   UNL A   1      28.732  31.804  22.610  1.00  0.00     0.007 C 
BRANCH   8  14
ATOM     14  C   UNL A   1      29.997  27.938  24.799  1.00  0.00     0.053 C 
BRANCH  14  15
ATOM     15  C   UNL A   1      30.255  26.419  24.729  1.00  0.00     0.141 C 
BRANCH  15  16
ATOM     16  C   UNL A   1      30.474  25.878  26.169  1.00  0.00     0.191 C 
BRANCH  16  17
ATOM     17  O   UNL A   1      30.298  24.466  26.329  1.00  0.00    -0.379 OA
BRANCH  17  18
ATOM     18  C   UNL A   1      31.396  23.637  25.950  1.00  0.00     0.157 C 
ATOM     19  C   UNL A   1      32.147  23.000  27.106  1.00  0.00     0.035 C 
ENDBRANCH  17  18
ENDBRANCH  16  17
ENDBRANCH  15  16
BRANCH  15  20
ATOM     20  O   UNL A   1      29.122  25.761  24.186  1.00  0.00    -0.391 OA
ATOM     21  H   UNL A   1      28.414  26.406  24.036  1.00  0.00     0.211 HD
ENDBRANCH  15  20
ENDBRANCH  14  15
ENDBRANCH   8  14
ENDBRANCH   6   8
ENDBRANCH   5   6
ENDBRANCH   4   5
ENDBRANCH   3   4
ENDBRANCH   2   3
ENDBRANCH   1   2
BRANCH   1  22
ATOM     22  C   UNL A   1      33.937  24.542  22.775  1.00  0.00     0.188 C 
BRANCH  22  23
ATOM     23  O   UNL A   1      34.387  23.374  23.436  1.00  0.00    -0.377 OA
BRANCH  23  24
ATOM     24  C   UNL A   1      35.720  22.977  23.160  1.00  0.00     0.188 C 
BRANCH  24  25
ATOM     25  C   UNL A   1      36.407  22.421  24.416  1.00  0.00     0.188 C 
BRANCH  25  26
ATOM     26  O   UNL A   1      37.452  21.475  24.268  1.00  0.00    -0.376 OA
BRANCH  26  27
ATOM     27  C   UNL A   1      38.026  20.811  25.384  1.00  0.00     0.202 C 
BRANCH  27  28
ATOM     28  C   UNL A   1      39.478  20.991  25.885  1.00  0.00     0.261 C 
BRANCH  28  29
ATOM     29  O   UNL A   1      40.255  19.840  26.219  1.00  0.00    -0.460 OA
BRANCH  29  30
ATOM     30  C   UNL A   1      41.583  19.900  25.996  1.00  0.00     0.338 C 
ATOM     31  O   UNL A   1      42.270  19.112  25.369  1.00  0.00    -0.246 OA
BRANCH  30  32
ATOM     32  C   UNL A   1      42.054  21.190  26.542  1.00  0.00     0.060 A 
ATOM     33  C   UNL A   1      42.017  21.408  27.925  1.00  0.00     0.016 A 
ATOM     34  C   UNL A   1      42.549  22.176  25.687  1.00  0.00     0.016 A 
ATOM     35  C   UNL A   1      42.466  22.616  28.459  1.00  0.00     0.010 A 
ATOM     36  C   UNL A   1      42.987  23.393  26.222  1.00  0.00     0.010 A 
ATOM     37  C   UNL A   1      42.916  23.630  27.607  1.00  0.00    -0.014 A 
BRANCH  37  38
ATOM     38  C   UNL A   1      43.067  25.010  28.132  1.00  0.00     0.031 A 
ATOM     39  C   UNL A   1      44.453  25.466  28.503  1.00  0.00     0.074 A 
ATOM     40  C   UNL A   1      42.027  25.856  28.238  1.00  0.00     0.049 A 
ATOM     41  N   UNL A   1      44.845  26.601  29.022  1.00  0.00    -0.248 NA
ATOM     42  C   UNL A   1      45.544  24.505  28.262  1.00  0.00     0.031 C 
ATOM     43  C   UNL A   1      40.646  25.564  27.857  1.00  0.00     0.029 A 
ATOM     44  N   UNL A   1      41.981  27.147  28.704  1.00  0.00    -0.354 N 
ATOM     45  C   UNL A   1      46.219  26.477  29.193  1.00  0.00     0.074 A 
ATOM     46  C   UNL A   1      46.588  25.150  28.757  1.00  0.00     0.031 C 
ATOM     47  C   UNL A   1      39.888  26.649  28.102  1.00  0.00     0.029 A 
ATOM     48  C   UNL A   1      40.720  27.696  28.693  1.00  0.00     0.049 A 
ATOM     49  H   UNL A   1      42.777  27.635  29.017  1.00  0.00     0.167 HD
ATOM     50  C   UNL A   1      47.101  27.388  29.662  1.00  0.00     0.031 A 
ATOM     51  C   UNL A   1      40.291  28.896  29.129  1.00  0.00     0.031 A 
ATOM     52  C   UNL A   1      46.740  28.710  30.092  1.00  0.00     0.049 A 
ATOM     53  C   UNL A   1      41.282  29.865  29.728  1.00  0.00     0.074 A 
ATOM     54  C   UNL A   1      47.565  29.716  30.563  1.00  0.00     0.029 A 
ATOM     55  N   UNL A   1      45.447  29.207  30.110  1.00  0.00    -0.354 N 
ATOM     56  N   UNL A   1      42.581  29.747  29.860  1.00  0.00    -0.248 NA
ATOM     57  C   UNL A   1      40.742  31.137  30.231  1.00  0.00     0.031 C 
ATOM     58  C   UNL A   1      46.761  30.799  30.929  1.00  0.00     0.029 A 
ATOM     59  C   UNL A   1      45.446  30.495  30.615  1.00  0.00     0.049 A 
ATOM     60  H   UNL A   1      44.649  28.717  29.807  1.00  0.00     0.167 HD
ATOM     61  C   UNL A   1      43.016  30.940  30.427  1.00  0.00     0.074 A 
ATOM     62  C   UNL A   1      41.845  31.774  30.598  1.00  0.00     0.031 C 
ATOM     63  C   UNL A   1      44.273  31.316  30.772  1.00  0.00     0.031 A 
BRANCH  50  64
ATOM     64  C   UNL A   1      48.538  26.963  29.779  1.00  0.00    -0.014 A 
ATOM     65  C   UNL A   1      49.048  26.403  30.961  1.00  0.00     0.009 A 
ATOM     66  C   UNL A   1      49.392  27.110  28.674  1.00  0.00     0.009 A 
ATOM     67  C   UNL A   1      50.392  26.034  31.045  1.00  0.00     0.001 A 
ATOM     68  C   UNL A   1      50.726  26.709  28.751  1.00  0.00     0.001 A 
ATOM     69  C   UNL A   1      51.228  26.181  29.938  1.00  0.00     0.000 A 
ENDBRANCH  50  64
BRANCH  51  70
ATOM     70  C   UNL A   1      38.850  29.262  29.043  1.00  0.00    -0.014 A 
ATOM     71  C   UNL A   1      37.997  29.084  30.143  1.00  0.00     0.009 A 
ATOM     72  C   UNL A   1      38.307  29.743  27.841  1.00  0.00     0.009 A 
ATOM     73  C   UNL A   1      36.628  29.347  30.032  1.00  0.00     0.001 A 
ATOM     74  C   UNL A   1      36.944  30.038  27.742  1.00  0.00     0.001 A 
ATOM     75  C   UNL A   1      36.104  29.827  28.833  1.00  0.00     0.000 A 
ENDBRANCH  51  70
BRANCH  63  76
ATOM     76  C   UNL A   1      44.461  32.704  31.319  1.00  0.00    -0.014 A 
ATOM     77  C   UNL A   1      44.673  33.806  30.476  1.00  0.00     0.009 A 
ATOM     78  C   UNL A   1      44.369  32.918  32.705  1.00  0.00     0.009 A 
ATOM     79  C   UNL A   1      44.825  35.087  31.013  1.00  0.00     0.001 A 
ATOM     80  C   UNL A   1      44.485  34.203  33.236  1.00  0.00     0.001 A 
ATOM     81  C   UNL A   1      44.723  35.285  32.390  1.00  0.00     0.000 A 
ENDBRANCH  63  76
ENDBRANCH  37  38
ENDBRANCH  30  32
ENDBRANCH  29  30
ENDBRANCH  28  29
ENDBRANCH  27  28
ENDBRANCH  26  27
ENDBRANCH  25  26
ENDBRANCH  24  25
ENDBRANCH  23  24
ENDBRANCH  22  23
ENDBRANCH   1  22
TORSDOF 26
ENDMDL
