MODEL 1
REMARK VINA RESULT:      -9.3      0.000      0.000
REMARK SMILES Nc1ccc([C@H]([NH3+])C(=O)OCCOCCOCCOCCOC(=O)c2ccc(-c3c4nc(c(-c5ccccc5)c5ccc([nH]5)c(-c5ccccc5)c5nc(c(-c6ccccc6)c6ccc3[nH]6)C=C5)C=C4)cc2)cc1C(F)(F)F
REMARK SMILES IDX 16 1 15 2 14 3 13 4 12 5 11 6 10 7 8 8 9 9 6 10 5 11 2 12
REMARK SMILES IDX 3 13 74 14 4 15 73 16 1 17 75 20 76 21 77 22 78 23 7 24
REMARK SMILES IDX 17 28 18 29 19 30 20 31 21 32 22 33 23 34 24 35 25 36 26 37
REMARK SMILES IDX 72 38 27 39 71 40 28 41 29 42 30 43 65 44 31 45 70 46 64 47
REMARK SMILES IDX 66 48 32 49 69 50 63 51 62 52 33 54 55 55 40 56 54 57 41 58
REMARK SMILES IDX 44 59 53 60 67 61 42 62 43 63 52 65 68 66 45 67 34 68 35 69
REMARK SMILES IDX 39 70 36 71 38 72 37 73 56 74 57 75 61 76 58 77 60 78 59 79
REMARK SMILES IDX 46 80 47 81 51 82 48 83 50 84 49 85
REMARK H PARENT 1 18 1 19 7 25 7 26 7 27 66 53 44 64
REMARK Flexibility Score: inf
ROOT
ATOM      1  O   UNL A   1      30.418  26.737  23.671  1.00  0.00    -0.377 OA
ENDROOT
BRANCH   1   2
ATOM      2  C   UNL A   1      30.369  27.329  24.954  1.00  0.00     0.188 C 
BRANCH   2   3
ATOM      3  C   UNL A   1      30.612  26.354  26.118  1.00  0.00     0.188 C 
BRANCH   3   4
ATOM      4  O   UNL A   1      30.632  24.945  25.919  1.00  0.00    -0.376 OA
BRANCH   4   5
ATOM      5  C   UNL A   1      31.608  24.109  26.521  1.00  0.00     0.202 C 
BRANCH   5   6
ATOM      6  C   UNL A   1      33.090  24.144  26.120  1.00  0.00     0.261 C 
BRANCH   6   7
ATOM      7  O   UNL A   1      33.492  23.230  25.096  1.00  0.00    -0.459 OA
BRANCH   7   8
ATOM      8  C   UNL A   1      34.716  22.662  25.278  1.00  0.00     0.369 C 
ATOM      9  O   UNL A   1      35.777  23.189  24.953  1.00  0.00    -0.245 OA
BRANCH   8  10
ATOM     10  C   UNL A   1      34.636  21.234  25.854  1.00  0.00     0.323 C 
BRANCH  10  11
ATOM     11  C   UNL A   1      33.946  20.334  24.869  1.00  0.00     0.021 A 
ATOM     12  C   UNL A   1      32.558  18.610  23.142  1.00  0.00     0.044 A 
ATOM     13  C   UNL A   1      32.252  19.979  23.206  1.00  0.00     0.026 A 
ATOM     14  C   UNL A   1      33.615  18.108  23.911  1.00  0.00     0.079 A 
ATOM     15  C   UNL A   1      32.928  20.835  24.067  1.00  0.00     0.013 A 
ATOM     16  C   UNL A   1      34.304  18.983  24.765  1.00  0.00     0.025 A 
BRANCH  12  17
ATOM     17  N   UNL A   1      31.859  17.832  22.234  1.00  0.00    -0.398 N 
ATOM     18  H   UNL A   1      31.319  18.260  21.531  1.00  0.00     0.156 HD
ATOM     19  H   UNL A   1      31.904  16.849  22.290  1.00  0.00     0.156 HD
ENDBRANCH  12  17
BRANCH  14  20
ATOM     20  C   UNL A   1      34.049  16.666  23.922  1.00  0.00     0.418 C 
ATOM     21  F   UNL A   1      33.044  15.822  24.298  1.00  0.00    -0.166 F 
ATOM     22  F   UNL A   1      34.435  16.237  22.684  1.00  0.00    -0.166 F 
ATOM     23  F   UNL A   1      35.098  16.383  24.746  1.00  0.00    -0.166 F 
ENDBRANCH  14  20
ENDBRANCH  10  11
BRANCH  10  24
ATOM     24  N   UNL A   1      33.994  21.098  27.172  1.00  0.00    -0.342 N 
ATOM     25  H   UNL A   1      33.068  21.524  27.145  1.00  0.00     0.345 HD
ATOM     26  H   UNL A   1      34.563  21.566  27.877  1.00  0.00     0.345 HD
ATOM     27  H   UNL A   1      33.906  20.110  27.408  1.00  0.00     0.345 HD
ENDBRANCH  10  24
ENDBRANCH   8  10
ENDBRANCH   7   8
ENDBRANCH   6   7
ENDBRANCH   5   6
ENDBRANCH   4   5
ENDBRANCH   3   4
ENDBRANCH   2   3
ENDBRANCH   1   2
BRANCH   1  28
ATOM     28  C   UNL A   1      31.484  27.171  22.836  1.00  0.00     0.188 C 
BRANCH  28  29
ATOM     29  C   UNL A   1      32.888  26.569  23.082  1.00  0.00     0.188 C 
BRANCH  29  30
ATOM     30  O   UNL A   1      33.636  27.199  24.111  1.00  0.00    -0.376 OA
BRANCH  30  31
ATOM     31  C   UNL A   1      33.707  28.617  24.160  1.00  0.00     0.202 C 
BRANCH  31  32
ATOM     32  C   UNL A   1      33.335  29.329  25.473  1.00  0.00     0.261 C 
BRANCH  32  33
ATOM     33  O   UNL A   1      34.168  29.057  26.609  1.00  0.00    -0.460 OA
BRANCH  33  34
ATOM     34  C   UNL A   1      34.436  30.078  27.448  1.00  0.00     0.338 C 
ATOM     35  O   UNL A   1      33.661  30.935  27.837  1.00  0.00    -0.246 OA
BRANCH  34  36
ATOM     36  C   UNL A   1      35.794  29.870  27.993  1.00  0.00     0.060 A 
ATOM     37  C   UNL A   1      36.892  29.971  27.129  1.00  0.00     0.016 A 
ATOM     38  C   UNL A   1      35.983  29.584  29.347  1.00  0.00     0.016 A 
ATOM     39  C   UNL A   1      38.182  29.741  27.606  1.00  0.00     0.010 A 
ATOM     40  C   UNL A   1      37.273  29.327  29.819  1.00  0.00     0.010 A 
ATOM     41  C   UNL A   1      38.371  29.365  28.941  1.00  0.00    -0.014 A 
BRANCH  41  42
ATOM     42  C   UNL A   1      39.674  28.798  29.362  1.00  0.00     0.031 A 
ATOM     43  C   UNL A   1      40.531  29.610  30.295  1.00  0.00     0.074 A 
ATOM     44  C   UNL A   1      40.081  27.585  28.952  1.00  0.00     0.049 A 
ATOM     45  N   UNL A   1      41.725  29.354  30.762  1.00  0.00    -0.248 NA
ATOM     46  C   UNL A   1      39.963  30.887  30.757  1.00  0.00     0.031 C 
ATOM     47  C   UNL A   1      39.319  26.677  28.098  1.00  0.00     0.029 A 
ATOM     48  N   UNL A   1      41.252  26.913  29.203  1.00  0.00    -0.354 N 
ATOM     49  C   UNL A   1      42.055  30.441  31.561  1.00  0.00     0.074 A 
ATOM     50  C   UNL A   1      40.951  31.373  31.492  1.00  0.00     0.031 C 
ATOM     51  C   UNL A   1      40.049  25.567  27.886  1.00  0.00     0.029 A 
ATOM     52  C   UNL A   1      41.340  25.705  28.556  1.00  0.00     0.049 A 
ATOM     53  H   UNL A   1      41.959  27.263  29.790  1.00  0.00     0.167 HD
ATOM     54  C   UNL A   1      43.177  30.646  32.291  1.00  0.00     0.031 A 
ATOM     55  C   UNL A   1      42.360  24.826  28.494  1.00  0.00     0.031 A 
ATOM     56  C   UNL A   1      44.283  29.730  32.344  1.00  0.00     0.049 A 
ATOM     57  C   UNL A   1      43.636  25.119  29.240  1.00  0.00     0.074 A 
ATOM     58  C   UNL A   1      45.459  29.839  33.063  1.00  0.00     0.029 A 
ATOM     59  N   UNL A   1      44.352  28.537  31.639  1.00  0.00    -0.354 N 
ATOM     60  N   UNL A   1      43.931  26.138  30.011  1.00  0.00    -0.248 NA
ATOM     61  C   UNL A   1      44.718  24.132  29.113  1.00  0.00     0.031 C 
ATOM     62  C   UNL A   1      46.271  28.747  32.739  1.00  0.00     0.029 A 
ATOM     63  C   UNL A   1      45.566  27.918  31.880  1.00  0.00     0.049 A 
ATOM     64  H   UNL A   1      43.642  28.183  31.055  1.00  0.00     0.167 HD
ATOM     65  C   UNL A   1      45.214  25.898  30.487  1.00  0.00     0.074 A 
ATOM     66  C   UNL A   1      45.637  24.631  29.927  1.00  0.00     0.031 C 
ATOM     67  C   UNL A   1      45.974  26.655  31.317  1.00  0.00     0.031 A 
BRANCH  54  68
ATOM     68  C   UNL A   1      43.279  31.941  33.051  1.00  0.00    -0.014 A 
ATOM     69  C   UNL A   1      42.822  32.057  34.373  1.00  0.00     0.009 A 
ATOM     70  C   UNL A   1      43.861  33.060  32.434  1.00  0.00     0.009 A 
ATOM     71  C   UNL A   1      42.910  33.277  35.048  1.00  0.00     0.001 A 
ATOM     72  C   UNL A   1      43.980  34.268  33.123  1.00  0.00     0.001 A 
ATOM     73  C   UNL A   1      43.494  34.379  34.424  1.00  0.00     0.000 A 
ENDBRANCH  54  68
BRANCH  55  74
ATOM     74  C   UNL A   1      42.230  23.592  27.673  1.00  0.00    -0.014 A 
ATOM     75  C   UNL A   1      41.717  22.410  28.230  1.00  0.00     0.009 A 
ATOM     76  C   UNL A   1      42.639  23.585  26.330  1.00  0.00     0.009 A 
ATOM     77  C   UNL A   1      41.641  21.242  27.466  1.00  0.00     0.001 A 
ATOM     78  C   UNL A   1      42.531  22.425  25.560  1.00  0.00     0.001 A 
ATOM     79  C   UNL A   1      42.043  21.252  26.131  1.00  0.00     0.000 A 
ENDBRANCH  55  74
BRANCH  67  80
ATOM     80  C   UNL A   1      47.321  26.115  31.715  1.00  0.00    -0.014 A 
ATOM     81  C   UNL A   1      48.452  26.286  30.904  1.00  0.00     0.009 A 
ATOM     82  C   UNL A   1      47.465  25.468  32.954  1.00  0.00     0.009 A 
ATOM     83  C   UNL A   1      49.694  25.787  31.309  1.00  0.00     0.001 A 
ATOM     84  C   UNL A   1      48.713  25.002  33.371  1.00  0.00     0.001 A 
ATOM     85  C   UNL A   1      49.824  25.153  32.544  1.00  0.00     0.000 A 
ENDBRANCH  67  80
ENDBRANCH  41  42
ENDBRANCH  34  36
ENDBRANCH  33  34
ENDBRANCH  32  33
ENDBRANCH  31  32
ENDBRANCH  30  31
ENDBRANCH  29  30
ENDBRANCH  28  29
ENDBRANCH   1  28
TORSDOF 24
ENDMDL
MODEL 2
REMARK VINA RESULT:      -9.2      3.876      5.761
REMARK SMILES Nc1ccc([C@H]([NH3+])C(=O)OCCOCCOCCOCCOC(=O)c2ccc(-c3c4nc(c(-c5ccccc5)c5ccc([nH]5)c(-c5ccccc5)c5nc(c(-c6ccccc6)c6ccc3[nH]6)C=C5)C=C4)cc2)cc1C(F)(F)F
REMARK SMILES IDX 16 1 15 2 14 3 13 4 12 5 11 6 10 7 8 8 9 9 6 10 5 11 2 12
REMARK SMILES IDX 3 13 74 14 4 15 73 16 1 17 75 20 76 21 77 22 78 23 7 24
REMARK SMILES IDX 17 28 18 29 19 30 20 31 21 32 22 33 23 34 24 35 25 36 26 37
REMARK SMILES IDX 72 38 27 39 71 40 28 41 29 42 30 43 65 44 31 45 70 46 64 47
REMARK SMILES IDX 66 48 32 49 69 50 63 51 62 52 33 54 55 55 40 56 54 57 41 58
REMARK SMILES IDX 44 59 53 60 67 61 42 62 43 63 52 65 68 66 45 67 34 68 35 69
REMARK SMILES IDX 39 70 36 71 38 72 37 73 56 74 57 75 61 76 58 77 60 78 59 79
REMARK SMILES IDX 46 80 47 81 51 82 48 83 50 84 49 85
REMARK H PARENT 1 18 1 19 7 25 7 26 7 27 66 53 44 64
REMARK Flexibility Score: inf
ROOT
ATOM      1  O   UNL A   1      34.237  33.966  28.187  1.00  0.00    -0.377 OA
ENDROOT
BRANCH   1   2
ATOM      2  C   UNL A   1      35.101  32.876  27.937  1.00  0.00     0.188 C 
BRANCH   2   3
ATOM      3  C   UNL A   1      34.404  31.507  27.877  1.00  0.00     0.188 C 
BRANCH   3   4
ATOM      4  O   UNL A   1      35.118  30.320  27.549  1.00  0.00    -0.376 OA
BRANCH   4   5
ATOM      5  C   UNL A   1      34.459  29.098  27.253  1.00  0.00     0.202 C 
BRANCH   5   6
ATOM      6  C   UNL A   1      33.008  29.039  26.752  1.00  0.00     0.261 C 
BRANCH   6   7
ATOM      7  O   UNL A   1      32.619  27.841  26.074  1.00  0.00    -0.459 OA
BRANCH   7   8
ATOM      8  C   UNL A   1      31.402  27.347  26.432  1.00  0.00     0.369 C 
ATOM      9  O   UNL A   1      30.932  27.420  27.564  1.00  0.00    -0.245 OA
BRANCH   8  10
ATOM     10  C   UNL A   1      30.700  26.591  25.284  1.00  0.00     0.323 C 
BRANCH  10  11
ATOM     11  C   UNL A   1      31.062  25.135  25.349  1.00  0.00     0.021 A 
ATOM     12  C   UNL A   1      31.867  22.452  25.548  1.00  0.00     0.044 A 
ATOM     13  C   UNL A   1      30.970  23.015  26.471  1.00  0.00     0.026 A 
ATOM     14  C   UNL A   1      32.322  23.229  24.475  1.00  0.00     0.079 A 
ATOM     15  C   UNL A   1      30.577  24.345  26.383  1.00  0.00     0.013 A 
ATOM     16  C   UNL A   1      31.906  24.566  24.385  1.00  0.00     0.025 A 
BRANCH  12  17
ATOM     17  N   UNL A   1      32.183  21.111  25.686  1.00  0.00    -0.398 N 
ATOM     18  H   UNL A   1      31.782  20.446  25.082  1.00  0.00     0.156 HD
ATOM     19  H   UNL A   1      32.809  20.822  26.389  1.00  0.00     0.156 HD
ENDBRANCH  12  17
BRANCH  14  20
ATOM     20  C   UNL A   1      33.274  22.741  23.415  1.00  0.00     0.418 C 
ATOM     21  F   UNL A   1      34.163  21.823  23.895  1.00  0.00    -0.166 F 
ATOM     22  F   UNL A   1      32.624  22.110  22.393  1.00  0.00    -0.166 F 
ATOM     23  F   UNL A   1      34.027  23.711  22.821  1.00  0.00    -0.166 F 
ENDBRANCH  14  20
ENDBRANCH  10  11
BRANCH  10  24
ATOM     24  N   UNL A   1      30.949  27.096  23.924  1.00  0.00    -0.342 N 
ATOM     25  H   UNL A   1      31.228  28.076  23.971  1.00  0.00     0.345 HD
ATOM     26  H   UNL A   1      30.098  27.011  23.369  1.00  0.00     0.345 HD
ATOM     27  H   UNL A   1      31.694  26.551  23.489  1.00  0.00     0.345 HD
ENDBRANCH  10  24
ENDBRANCH   8  10
ENDBRANCH   7   8
ENDBRANCH   6   7
ENDBRANCH   5   6
ENDBRANCH   4   5
ENDBRANCH   3   4
ENDBRANCH   2   3
ENDBRANCH   1   2
BRANCH   1  28
ATOM     28  C   UNL A   1      33.910  34.187  29.553  1.00  0.00     0.188 C 
BRANCH  28  29
ATOM     29  C   UNL A   1      33.230  35.527  29.926  1.00  0.00     0.188 C 
BRANCH  29  30
ATOM     30  O   UNL A   1      33.660  36.092  31.156  1.00  0.00    -0.376 OA
BRANCH  30  31
ATOM     31  C   UNL A   1      33.599  35.315  32.344  1.00  0.00     0.202 C 
BRANCH  31  32
ATOM     32  C   UNL A   1      34.916  34.943  33.050  1.00  0.00     0.261 C 
BRANCH  32  33
ATOM     33  O   UNL A   1      35.727  33.946  32.413  1.00  0.00    -0.460 OA
BRANCH  33  34
ATOM     34  C   UNL A   1      36.249  32.974  33.187  1.00  0.00     0.338 C 
ATOM     35  O   UNL A   1      35.925  32.685  34.327  1.00  0.00    -0.246 OA
BRANCH  34  36
ATOM     36  C   UNL A   1      37.155  32.165  32.346  1.00  0.00     0.060 A 
ATOM     37  C   UNL A   1      38.011  31.244  32.965  1.00  0.00     0.016 A 
ATOM     38  C   UNL A   1      37.156  32.308  30.956  1.00  0.00     0.016 A 
ATOM     39  C   UNL A   1      38.904  30.495  32.201  1.00  0.00     0.010 A 
ATOM     40  C   UNL A   1      38.069  31.576  30.193  1.00  0.00     0.010 A 
ATOM     41  C   UNL A   1      38.974  30.698  30.817  1.00  0.00    -0.014 A 
BRANCH  41  42
ATOM     42  C   UNL A   1      40.130  30.167  30.059  1.00  0.00     0.031 A 
ATOM     43  C   UNL A   1      41.323  31.063  29.867  1.00  0.00     0.074 A 
ATOM     44  C   UNL A   1      40.140  28.914  29.573  1.00  0.00     0.049 A 
ATOM     45  N   UNL A   1      42.429  30.847  29.202  1.00  0.00    -0.248 NA
ATOM     46  C   UNL A   1      41.255  32.387  30.509  1.00  0.00     0.031 C 
ATOM     47  C   UNL A   1      39.074  27.929  29.741  1.00  0.00     0.029 A 
ATOM     48  N   UNL A   1      41.091  28.262  28.827  1.00  0.00    -0.354 N 
ATOM     49  C   UNL A   1      43.179  32.008  29.334  1.00  0.00     0.074 A 
ATOM     50  C   UNL A   1      42.393  32.937  30.116  1.00  0.00     0.031 C 
ATOM     51  C   UNL A   1      39.427  26.797  29.106  1.00  0.00     0.029 A 
ATOM     52  C   UNL A   1      40.721  26.992  28.456  1.00  0.00     0.049 A 
ATOM     53  H   UNL A   1      41.954  28.665  28.582  1.00  0.00     0.167 HD
ATOM     54  C   UNL A   1      44.415  32.278  28.852  1.00  0.00     0.031 A 
ATOM     55  C   UNL A   1      41.346  26.104  27.660  1.00  0.00     0.031 A 
ATOM     56  C   UNL A   1      45.187  31.363  28.058  1.00  0.00     0.049 A 
ATOM     57  C   UNL A   1      42.680  26.461  27.056  1.00  0.00     0.074 A 
ATOM     58  C   UNL A   1      46.454  31.536  27.531  1.00  0.00     0.029 A 
ATOM     59  N   UNL A   1      44.758  30.103  27.667  1.00  0.00    -0.354 N 
ATOM     60  N   UNL A   1      43.393  27.552  27.206  1.00  0.00    -0.248 NA
ATOM     61  C   UNL A   1      43.301  25.457  26.180  1.00  0.00     0.031 C 
ATOM     62  C   UNL A   1      46.764  30.409  26.762  1.00  0.00     0.029 A 
ATOM     63  C   UNL A   1      45.722  29.502  26.877  1.00  0.00     0.049 A 
ATOM     64  H   UNL A   1      43.896  29.697  27.915  1.00  0.00     0.167 HD
ATOM     65  C   UNL A   1      44.557  27.351  26.474  1.00  0.00     0.074 A 
ATOM     66  C   UNL A   1      44.460  26.030  25.889  1.00  0.00     0.031 C 
ATOM     67  C   UNL A   1      45.614  28.184  26.302  1.00  0.00     0.031 A 
BRANCH  54  68
ATOM     68  C   UNL A   1      44.981  33.644  29.131  1.00  0.00    -0.014 A 
ATOM     69  C   UNL A   1      44.771  34.722  28.255  1.00  0.00     0.009 A 
ATOM     70  C   UNL A   1      45.724  33.858  30.303  1.00  0.00     0.009 A 
ATOM     71  C   UNL A   1      45.326  35.974  28.529  1.00  0.00     0.001 A 
ATOM     72  C   UNL A   1      46.248  35.120  30.591  1.00  0.00     0.001 A 
ATOM     73  C   UNL A   1      46.058  36.173  29.698  1.00  0.00     0.000 A 
ENDBRANCH  54  68
BRANCH  55  74
ATOM     74  C   UNL A   1      40.710  24.792  27.364  1.00  0.00    -0.014 A 
ATOM     75  C   UNL A   1      39.501  24.723  26.655  1.00  0.00     0.009 A 
ATOM     76  C   UNL A   1      41.302  23.598  27.809  1.00  0.00     0.009 A 
ATOM     77  C   UNL A   1      38.886  23.491  26.421  1.00  0.00     0.001 A 
ATOM     78  C   UNL A   1      40.701  22.365  27.544  1.00  0.00     0.001 A 
ATOM     79  C   UNL A   1      39.489  22.313  26.860  1.00  0.00     0.000 A 
ENDBRANCH  55  74
BRANCH  67  80
ATOM     80  C   UNL A   1      46.776  27.676  25.493  1.00  0.00    -0.014 A 
ATOM     81  C   UNL A   1      47.799  26.912  26.073  1.00  0.00     0.009 A 
ATOM     82  C   UNL A   1      46.816  27.926  24.111  1.00  0.00     0.009 A 
ATOM     83  C   UNL A   1      48.857  26.439  25.292  1.00  0.00     0.001 A 
ATOM     84  C   UNL A   1      47.855  27.423  23.327  1.00  0.00     0.001 A 
ATOM     85  C   UNL A   1      48.880  26.689  23.920  1.00  0.00     0.000 A 
ENDBRANCH  67  80
ENDBRANCH  41  42
ENDBRANCH  34  36
ENDBRANCH  33  34
ENDBRANCH  32  33
ENDBRANCH  31  32
ENDBRANCH  30  31
ENDBRANCH  29  30
ENDBRANCH  28  29
ENDBRANCH   1  28
TORSDOF 24
ENDMDL
MODEL 3
REMARK VINA RESULT:      -9.1      4.173      8.896
REMARK SMILES Nc1ccc([C@H]([NH3+])C(=O)OCCOCCOCCOCCOC(=O)c2ccc(-c3c4nc(c(-c5ccccc5)c5ccc([nH]5)c(-c5ccccc5)c5nc(c(-c6ccccc6)c6ccc3[nH]6)C=C5)C=C4)cc2)cc1C(F)(F)F
REMARK SMILES IDX 16 1 15 2 14 3 13 4 12 5 11 6 10 7 8 8 9 9 6 10 5 11 2 12
REMARK SMILES IDX 3 13 74 14 4 15 73 16 1 17 75 20 76 21 77 22 78 23 7 24
REMARK SMILES IDX 17 28 18 29 19 30 20 31 21 32 22 33 23 34 24 35 25 36 26 37
REMARK SMILES IDX 72 38 27 39 71 40 28 41 29 42 30 43 65 44 31 45 70 46 64 47
REMARK SMILES IDX 66 48 32 49 69 50 63 51 62 52 33 54 55 55 40 56 54 57 41 58
REMARK SMILES IDX 44 59 53 60 67 61 42 62 43 63 52 65 68 66 45 67 34 68 35 69
REMARK SMILES IDX 39 70 36 71 38 72 37 73 56 74 57 75 61 76 58 77 60 78 59 79
REMARK SMILES IDX 46 80 47 81 51 82 48 83 50 84 49 85
REMARK H PARENT 1 18 1 19 7 25 7 26 7 27 66 53 44 64
REMARK Flexibility Score: inf
ROOT
ATOM      1  O   UNL A   1      38.965  21.972  26.613  1.00  0.00    -0.377 OA
ENDROOT
BRANCH   1   2
ATOM      2  C   UNL A   1      38.830  23.342  26.290  1.00  0.00     0.188 C 
BRANCH   2   3
ATOM      3  C   UNL A   1      37.501  23.712  25.613  1.00  0.00     0.188 C 
BRANCH   3   4
ATOM      4  O   UNL A   1      36.729  22.746  24.907  1.00  0.00    -0.376 OA
BRANCH   4   5
ATOM      5  C   UNL A   1      35.332  22.896  24.703  1.00  0.00     0.202 C 
BRANCH   5   6
ATOM      6  C   UNL A   1      34.745  23.544  23.440  1.00  0.00     0.261 C 
BRANCH   6   7
ATOM      7  O   UNL A   1      34.019  24.761  23.629  1.00  0.00    -0.459 OA
BRANCH   7   8
ATOM      8  C   UNL A   1      33.236  25.135  22.580  1.00  0.00     0.369 C 
ATOM      9  O   UNL A   1      33.663  25.397  21.459  1.00  0.00    -0.245 OA
BRANCH   8  10
ATOM     10  C   UNL A   1      31.751  25.291  22.965  1.00  0.00     0.323 C 
BRANCH  10  11
ATOM     11  C   UNL A   1      31.648  25.973  24.299  1.00  0.00     0.021 A 
ATOM     12  C   UNL A   1      31.326  27.319  26.742  1.00  0.00     0.044 A 
ATOM     13  C   UNL A   1      30.843  26.013  26.560  1.00  0.00     0.026 A 
ATOM     14  C   UNL A   1      32.034  27.938  25.703  1.00  0.00     0.079 A 
ATOM     15  C   UNL A   1      30.990  25.346  25.349  1.00  0.00     0.013 A 
ATOM     16  C   UNL A   1      32.192  27.250  24.490  1.00  0.00     0.025 A 
BRANCH  12  17
ATOM     17  N   UNL A   1      31.169  27.900  27.989  1.00  0.00    -0.398 N 
ATOM     18  H   UNL A   1      30.288  27.892  28.429  1.00  0.00     0.156 HD
ATOM     19  H   UNL A   1      31.938  28.322  28.437  1.00  0.00     0.156 HD
ENDBRANCH  12  17
BRANCH  14  20
ATOM     20  C   UNL A   1      32.611  29.327  25.778  1.00  0.00     0.418 C 
ATOM     21  F   UNL A   1      33.954  29.320  26.024  1.00  0.00    -0.166 F 
ATOM     22  F   UNL A   1      32.465  30.007  24.603  1.00  0.00    -0.166 F 
ATOM     23  F   UNL A   1      32.064  30.131  26.733  1.00  0.00    -0.166 F 
ENDBRANCH  14  20
ENDBRANCH  10  11
BRANCH  10  24
ATOM     24  N   UNL A   1      30.949  24.056  22.985  1.00  0.00    -0.342 N 
ATOM     25  H   UNL A   1      30.595  23.896  23.928  1.00  0.00     0.345 HD
ATOM     26  H   UNL A   1      31.532  23.268  22.703  1.00  0.00     0.345 HD
ATOM     27  H   UNL A   1      30.166  24.147  22.338  1.00  0.00     0.345 HD
ENDBRANCH  10  24
ENDBRANCH   8  10
ENDBRANCH   7   8
ENDBRANCH   6   7
ENDBRANCH   5   6
ENDBRANCH   4   5
ENDBRANCH   3   4
ENDBRANCH   2   3
ENDBRANCH   1   2
BRANCH   1  28
ATOM     28  C   UNL A   1      39.782  21.213  25.732  1.00  0.00     0.188 C 
BRANCH  28  29
ATOM     29  C   UNL A   1      40.703  20.133  26.349  1.00  0.00     0.188 C 
BRANCH  29  30
ATOM     30  O   UNL A   1      41.980  20.600  26.758  1.00  0.00    -0.376 OA
BRANCH  30  31
ATOM     31  C   UNL A   1      43.068  20.557  25.845  1.00  0.00     0.202 C 
BRANCH  31  32
ATOM     32  C   UNL A   1      43.562  21.878  25.227  1.00  0.00     0.261 C 
BRANCH  32  33
ATOM     33  O   UNL A   1      43.999  22.892  26.142  1.00  0.00    -0.460 OA
BRANCH  33  34
ATOM     34  C   UNL A   1      44.206  24.131  25.653  1.00  0.00     0.338 C 
ATOM     35  O   UNL A   1      44.763  24.430  24.611  1.00  0.00    -0.246 OA
BRANCH  34  36
ATOM     36  C   UNL A   1      43.454  25.081  26.500  1.00  0.00     0.060 A 
ATOM     37  C   UNL A   1      43.861  26.421  26.538  1.00  0.00     0.016 A 
ATOM     38  C   UNL A   1      42.352  24.654  27.246  1.00  0.00     0.016 A 
ATOM     39  C   UNL A   1      43.195  27.331  27.358  1.00  0.00     0.010 A 
ATOM     40  C   UNL A   1      41.702  25.561  28.087  1.00  0.00     0.010 A 
ATOM     41  C   UNL A   1      42.147  26.892  28.177  1.00  0.00    -0.014 A 
BRANCH  41  42
ATOM     42  C   UNL A   1      41.669  27.759  29.279  1.00  0.00     0.031 A 
ATOM     43  C   UNL A   1      42.398  27.700  30.593  1.00  0.00     0.074 A 
ATOM     44  C   UNL A   1      40.632  28.597  29.117  1.00  0.00     0.049 A 
ATOM     45  N   UNL A   1      42.142  28.320  31.716  1.00  0.00    -0.248 NA
ATOM     46  C   UNL A   1      43.575  26.816  30.647  1.00  0.00     0.031 C 
ATOM     47  C   UNL A   1      39.880  28.791  27.879  1.00  0.00     0.029 A 
ATOM     48  N   UNL A   1      40.029  29.443  30.016  1.00  0.00    -0.354 N 
ATOM     49  C   UNL A   1      43.114  27.891  32.611  1.00  0.00     0.074 A 
ATOM     50  C   UNL A   1      43.946  26.938  31.912  1.00  0.00     0.031 C 
ATOM     51  C   UNL A   1      38.907  29.692  28.100  1.00  0.00     0.029 A 
ATOM     52  C   UNL A   1      38.943  30.108  29.501  1.00  0.00     0.049 A 
ATOM     53  H   UNL A   1      40.345  29.561  30.940  1.00  0.00     0.167 HD
ATOM     54  C   UNL A   1      43.301  28.261  33.900  1.00  0.00     0.031 A 
ATOM     55  C   UNL A   1      38.067  30.935  30.102  1.00  0.00     0.031 A 
ATOM     56  C   UNL A   1      42.461  29.194  34.600  1.00  0.00     0.049 A 
ATOM     57  C   UNL A   1      38.239  31.261  31.564  1.00  0.00     0.074 A 
ATOM     58  C   UNL A   1      42.573  29.645  35.903  1.00  0.00     0.029 A 
ATOM     59  N   UNL A   1      41.345  29.812  34.056  1.00  0.00    -0.354 N 
ATOM     60  N   UNL A   1      39.174  30.869  32.396  1.00  0.00    -0.248 NA
ATOM     61  C   UNL A   1      37.237  32.152  32.166  1.00  0.00     0.031 C 
ATOM     62  C   UNL A   1      41.484  30.481  36.169  1.00  0.00     0.029 A 
ATOM     63  C   UNL A   1      40.739  30.614  35.007  1.00  0.00     0.049 A 
ATOM     64  H   UNL A   1      41.031  29.698  33.129  1.00  0.00     0.167 HD
ATOM     65  C   UNL A   1      38.893  31.493  33.606  1.00  0.00     0.074 A 
ATOM     66  C   UNL A   1      37.707  32.296  33.397  1.00  0.00     0.031 C 
ATOM     67  C   UNL A   1      39.559  31.411  34.785  1.00  0.00     0.031 A 
BRANCH  54  68
ATOM     68  C   UNL A   1      44.432  27.610  34.647  1.00  0.00    -0.014 A 
ATOM     69  C   UNL A   1      44.250  26.418  35.368  1.00  0.00     0.009 A 
ATOM     70  C   UNL A   1      45.710  28.192  34.613  1.00  0.00     0.009 A 
ATOM     71  C   UNL A   1      45.313  25.846  36.070  1.00  0.00     0.001 A 
ATOM     72  C   UNL A   1      46.778  27.599  35.287  1.00  0.00     0.001 A 
ATOM     73  C   UNL A   1      46.576  26.434  36.024  1.00  0.00     0.000 A 
ENDBRANCH  54  68
BRANCH  55  74
ATOM     74  C   UNL A   1      36.926  31.500  29.331  1.00  0.00    -0.014 A 
ATOM     75  C   UNL A   1      35.725  30.787  29.199  1.00  0.00     0.009 A 
ATOM     76  C   UNL A   1      37.043  32.752  28.704  1.00  0.00     0.009 A 
ATOM     77  C   UNL A   1      34.675  31.304  28.435  1.00  0.00     0.001 A 
ATOM     78  C   UNL A   1      35.980  33.280  27.969  1.00  0.00     0.001 A 
ATOM     79  C   UNL A   1      34.802  32.552  27.826  1.00  0.00     0.000 A 
ENDBRANCH  55  74
BRANCH  67  80
ATOM     80  C   UNL A   1      39.056  32.249  35.929  1.00  0.00    -0.014 A 
ATOM     81  C   UNL A   1      39.501  33.563  36.131  1.00  0.00     0.009 A 
ATOM     82  C   UNL A   1      38.075  31.726  36.788  1.00  0.00     0.009 A 
ATOM     83  C   UNL A   1      39.002  34.323  37.192  1.00  0.00     0.001 A 
ATOM     84  C   UNL A   1      37.552  32.499  37.825  1.00  0.00     0.001 A 
ATOM     85  C   UNL A   1      38.024  33.794  38.032  1.00  0.00     0.000 A 
ENDBRANCH  67  80
ENDBRANCH  41  42
ENDBRANCH  34  36
ENDBRANCH  33  34
ENDBRANCH  32  33
ENDBRANCH  31  32
ENDBRANCH  30  31
ENDBRANCH  29  30
ENDBRANCH  28  29
ENDBRANCH   1  28
TORSDOF 24
ENDMDL
