MODEL 1
REMARK VINA RESULT:      -9.1      0.000      0.000
REMARK SMILES CC[C@](C)(NC(=O)N[C@@H]1C[C@@H]1C)C(=O)OCCOCCOCCOCCOC(=O)c1ccc(-c2c3nc(c(-c4ccccc4)c4ccc([nH]4)c(-c4ccccc4)c4nc(c(-c5ccccc5)c5ccc2[nH]5)C=C4)C=C3)cc1
REMARK SMILES IDX 21 1 20 2 19 3 18 4 17 5 16 6 15 7 13 8 14 9 3 10 4 11 2 12
REMARK SMILES IDX 1 13 5 14 6 15 7 17 8 18 9 20 10 21 11 22 12 23 22 24 23 25
REMARK SMILES IDX 24 26 25 27 26 28 27 29 28 30 29 31 30 32 31 33 77 34 32 35
REMARK SMILES IDX 76 36 33 37 34 38 35 39 70 40 36 41 75 42 69 43 71 44 37 45
REMARK SMILES IDX 74 46 68 47 67 48 38 50 60 51 45 52 59 53 46 54 49 55 58 56
REMARK SMILES IDX 72 57 47 58 48 59 57 61 73 62 50 63 39 64 40 65 44 66 41 67
REMARK SMILES IDX 43 68 42 69 61 70 62 71 66 72 63 73 65 74 64 75 51 76 52 77
REMARK SMILES IDX 56 78 53 79 55 80 54 81
REMARK H PARENT 5 16 8 19 71 49 49 60
REMARK Flexibility Score: inf
ROOT
ATOM      1  O   UNL A   1      40.349  21.233  27.651  1.00  0.00    -0.377 OA
ENDROOT
BRANCH   1   2
ATOM      2  C   UNL A   1      39.936  22.040  26.556  1.00  0.00     0.188 C 
BRANCH   2   3
ATOM      3  C   UNL A   1      39.376  23.471  26.823  1.00  0.00     0.188 C 
BRANCH   3   4
ATOM      4  O   UNL A   1      38.035  23.723  26.365  1.00  0.00    -0.376 OA
BRANCH   4   5
ATOM      5  C   UNL A   1      36.706  23.132  26.247  1.00  0.00     0.202 C 
BRANCH   5   6
ATOM      6  C   UNL A   1      35.257  23.567  25.408  1.00  0.00     0.261 C 
BRANCH   6   7
ATOM      7  O   UNL A   1      34.174  24.805  25.663  1.00  0.00    -0.462 OA
BRANCH   7   8
ATOM      8  C   UNL A   1      33.130  25.702  25.314  1.00  0.00     0.331 C 
ATOM      9  O   UNL A   1      33.327  26.468  24.358  1.00  0.00    -0.249 OA
BRANCH   8  10
ATOM     10  C   UNL A   1      31.660  25.830  26.040  1.00  0.00     0.136 C 
ATOM     11  C   UNL A   1      30.257  25.291  25.563  1.00  0.00     0.047 C 
BRANCH  10  12
ATOM     12  C   UNL A   1      31.465  27.342  26.428  1.00  0.00     0.037 C 
ATOM     13  C   UNL A   1      32.586  27.998  27.255  1.00  0.00     0.007 C 
ENDBRANCH  10  12
BRANCH  10  14
ATOM     14  N   UNL A   1      31.936  24.987  27.118  1.00  0.00    -0.322 N 
ATOM     15  C   UNL A   1      31.875  23.681  26.860  1.00  0.00     0.315 C 
ATOM     16  H   UNL A   1      32.163  25.334  28.011  1.00  0.00     0.166 HD
ATOM     17  O   UNL A   1      32.209  22.960  27.793  1.00  0.00    -0.249 OA
ATOM     18  N   UNL A   1      31.612  23.180  25.574  1.00  0.00    -0.335 N 
ATOM     19  H   UNL A   1      31.539  22.204  25.676  1.00  0.00     0.165 HD
BRANCH  18  20
ATOM     20  C   UNL A   1      31.391  23.462  24.103  1.00  0.00     0.087 C 
ATOM     21  C   UNL A   1      31.622  22.293  23.134  1.00  0.00     0.030 C 
ATOM     22  C   UNL A   1      32.179  23.587  22.718  1.00  0.00     0.010 C 
ATOM     23  C   UNL A   1      33.585  23.397  22.152  1.00  0.00     0.010 C 
ENDBRANCH  18  20
ENDBRANCH  10  14
ENDBRANCH   8  10
ENDBRANCH   7   8
ENDBRANCH   6   7
ENDBRANCH   5   6
ENDBRANCH   4   5
ENDBRANCH   3   4
ENDBRANCH   2   3
ENDBRANCH   1   2
BRANCH   1  24
ATOM     24  C   UNL A   1      41.269  20.181  27.414  1.00  0.00     0.188 C 
BRANCH  24  25
ATOM     25  C   UNL A   1      41.175  19.652  25.989  1.00  0.00     0.188 C 
BRANCH  25  26
ATOM     26  O   UNL A   1      41.904  18.450  25.742  1.00  0.00    -0.376 OA
BRANCH  26  27
ATOM     27  C   UNL A   1      43.281  18.463  26.099  1.00  0.00     0.202 C 
BRANCH  27  28
ATOM     28  C   UNL A   1      44.196  19.304  25.173  1.00  0.00     0.261 C 
BRANCH  28  29
ATOM     29  O   UNL A   1      44.558  20.633  25.604  1.00  0.00    -0.460 OA
BRANCH  29  30
ATOM     30  C   UNL A   1      44.372  21.652  24.728  1.00  0.00     0.338 C 
ATOM     31  O   UNL A   1      44.513  21.624  23.525  1.00  0.00    -0.246 OA
BRANCH  30  32
ATOM     32  C   UNL A   1      43.865  22.848  25.460  1.00  0.00     0.060 A 
ATOM     33  C   UNL A   1      43.698  24.060  24.771  1.00  0.00     0.016 A 
ATOM     34  C   UNL A   1      43.666  22.805  26.841  1.00  0.00     0.016 A 
ATOM     35  C   UNL A   1      43.421  25.244  25.470  1.00  0.00     0.010 A 
ATOM     36  C   UNL A   1      43.414  23.992  27.542  1.00  0.00     0.010 A 
ATOM     37  C   UNL A   1      43.349  25.228  26.868  1.00  0.00    -0.014 A 
BRANCH  37  38
ATOM     38  C   UNL A   1      43.474  26.496  27.641  1.00  0.00     0.031 A 
ATOM     39  C   UNL A   1      42.210  27.245  27.985  1.00  0.00     0.074 A 
ATOM     40  C   UNL A   1      44.661  26.989  28.041  1.00  0.00     0.049 A 
ATOM     41  N   UNL A   1      42.059  28.415  28.554  1.00  0.00    -0.248 NA
ATOM     42  C   UNL A   1      40.944  26.580  27.632  1.00  0.00     0.031 C 
ATOM     43  C   UNL A   1      45.957  26.347  27.841  1.00  0.00     0.029 A 
ATOM     44  N   UNL A   1      44.962  28.163  28.690  1.00  0.00    -0.354 N 
ATOM     45  C   UNL A   1      40.686  28.634  28.604  1.00  0.00     0.074 A 
ATOM     46  C   UNL A   1      40.052  27.489  27.991  1.00  0.00     0.031 C 
ATOM     47  C   UNL A   1      46.919  27.147  28.337  1.00  0.00     0.029 A 
ATOM     48  C   UNL A   1      46.311  28.375  28.850  1.00  0.00     0.049 A 
ATOM     49  H   UNL A   1      44.277  28.793  29.010  1.00  0.00     0.167 HD
ATOM     50  C   UNL A   1      40.009  29.694  29.110  1.00  0.00     0.031 A 
ATOM     51  C   UNL A   1      46.980  29.448  29.319  1.00  0.00     0.031 A 
ATOM     52  C   UNL A   1      40.635  30.843  29.707  1.00  0.00     0.049 A 
ATOM     53  C   UNL A   1      46.213  30.658  29.794  1.00  0.00     0.074 A 
ATOM     54  C   UNL A   1      40.034  31.960  30.263  1.00  0.00     0.029 A 
ATOM     55  N   UNL A   1      42.003  31.029  29.815  1.00  0.00    -0.354 N 
ATOM     56  N   UNL A   1      44.917  30.848  29.853  1.00  0.00    -0.248 NA
ATOM     57  C   UNL A   1      47.005  31.803  30.270  1.00  0.00     0.031 C 
ATOM     58  C   UNL A   1      41.040  32.853  30.643  1.00  0.00     0.029 A 
ATOM     59  C   UNL A   1      42.268  32.259  30.394  1.00  0.00     0.049 A 
ATOM     60  H   UNL A   1      42.687  30.384  29.523  1.00  0.00     0.167 HD
ATOM     61  C   UNL A   1      44.739  32.115  30.399  1.00  0.00     0.074 A 
ATOM     62  C   UNL A   1      46.060  32.644  30.667  1.00  0.00     0.031 C 
ATOM     63  C   UNL A   1      43.585  32.778  30.658  1.00  0.00     0.031 A 
BRANCH  50  64
ATOM     64  C   UNL A   1      38.509  29.681  28.984  1.00  0.00    -0.014 A 
ATOM     65  C   UNL A   1      37.679  29.365  30.072  1.00  0.00     0.009 A 
ATOM     66  C   UNL A   1      37.917  30.012  27.754  1.00  0.00     0.009 A 
ATOM     67  C   UNL A   1      36.291  29.336  29.917  1.00  0.00     0.001 A 
ATOM     68  C   UNL A   1      36.528  30.016  27.612  1.00  0.00     0.001 A 
ATOM     69  C   UNL A   1      35.717  29.666  28.690  1.00  0.00     0.000 A 
ENDBRANCH  50  64
BRANCH  51  70
ATOM     70  C   UNL A   1      48.469  29.453  29.325  1.00  0.00    -0.014 A 
ATOM     71  C   UNL A   1      49.195  29.887  28.205  1.00  0.00     0.009 A 
ATOM     72  C   UNL A   1      49.174  28.997  30.451  1.00  0.00     0.009 A 
ATOM     73  C   UNL A   1      50.592  29.846  28.206  1.00  0.00     0.001 A 
ATOM     74  C   UNL A   1      50.571  28.988  30.461  1.00  0.00     0.001 A 
ATOM     75  C   UNL A   1      51.279  29.403  29.336  1.00  0.00     0.000 A 
ENDBRANCH  51  70
BRANCH  63  76
ATOM     76  C   UNL A   1      43.686  34.133  31.306  1.00  0.00    -0.014 A 
ATOM     77  C   UNL A   1      43.737  35.310  30.544  1.00  0.00     0.009 A 
ATOM     78  C   UNL A   1      43.666  34.233  32.707  1.00  0.00     0.009 A 
ATOM     79  C   UNL A   1      43.795  36.557  31.173  1.00  0.00     0.001 A 
ATOM     80  C   UNL A   1      43.691  35.481  33.331  1.00  0.00     0.001 A 
ATOM     81  C   UNL A   1      43.765  36.642  32.564  1.00  0.00     0.000 A 
ENDBRANCH  63  76
ENDBRANCH  37  38
ENDBRANCH  30  32
ENDBRANCH  29  30
ENDBRANCH  28  29
ENDBRANCH  27  28
ENDBRANCH  26  27
ENDBRANCH  25  26
ENDBRANCH  24  25
ENDBRANCH   1  24
TORSDOF 23
ENDMDL
MODEL 2
REMARK VINA RESULT:      -9.1      1.095      2.189
REMARK SMILES CC[C@](C)(NC(=O)N[C@@H]1C[C@@H]1C)C(=O)OCCOCCOCCOCCOC(=O)c1ccc(-c2c3nc(c(-c4ccccc4)c4ccc([nH]4)c(-c4ccccc4)c4nc(c(-c5ccccc5)c5ccc2[nH]5)C=C4)C=C3)cc1
REMARK SMILES IDX 21 1 20 2 19 3 18 4 17 5 16 6 15 7 13 8 14 9 3 10 4 11 2 12
REMARK SMILES IDX 1 13 5 14 6 15 7 17 8 18 9 20 10 21 11 22 12 23 22 24 23 25
REMARK SMILES IDX 24 26 25 27 26 28 27 29 28 30 29 31 30 32 31 33 77 34 32 35
REMARK SMILES IDX 76 36 33 37 34 38 35 39 70 40 36 41 75 42 69 43 71 44 37 45
REMARK SMILES IDX 74 46 68 47 67 48 38 50 60 51 45 52 59 53 46 54 49 55 58 56
REMARK SMILES IDX 72 57 47 58 48 59 57 61 73 62 50 63 39 64 40 65 44 66 41 67
REMARK SMILES IDX 43 68 42 69 61 70 62 71 66 72 63 73 65 74 64 75 51 76 52 77
REMARK SMILES IDX 56 78 53 79 55 80 54 81
REMARK H PARENT 5 16 8 19 71 49 49 60
REMARK Flexibility Score: inf
ROOT
ATOM      1  O   UNL A   1      40.374  21.348  27.474  1.00  0.00    -0.377 OA
ENDROOT
BRANCH   1   2
ATOM      2  C   UNL A   1      40.070  22.105  26.310  1.00  0.00     0.188 C 
BRANCH   2   3
ATOM      3  C   UNL A   1      39.783  23.633  26.439  1.00  0.00     0.188 C 
BRANCH   3   4
ATOM      4  O   UNL A   1      38.447  24.057  26.110  1.00  0.00    -0.376 OA
BRANCH   4   5
ATOM      5  C   UNL A   1      37.073  23.590  25.958  1.00  0.00     0.202 C 
BRANCH   5   6
ATOM      6  C   UNL A   1      36.015  23.353  24.610  1.00  0.00     0.261 C 
BRANCH   6   7
ATOM      7  O   UNL A   1      34.894  24.363  23.908  1.00  0.00    -0.462 OA
BRANCH   7   8
ATOM      8  C   UNL A   1      33.821  24.699  23.040  1.00  0.00     0.331 C 
ATOM      9  O   UNL A   1      34.011  25.609  22.219  1.00  0.00    -0.249 OA
BRANCH   8  10
ATOM     10  C   UNL A   1      32.335  23.996  22.996  1.00  0.00     0.136 C 
ATOM     11  C   UNL A   1      31.201  23.981  24.091  1.00  0.00     0.047 C 
BRANCH  10  12
ATOM     12  C   UNL A   1      32.539  22.510  22.524  1.00  0.00     0.037 C 
ATOM     13  C   UNL A   1      32.474  21.420  23.611  1.00  0.00     0.007 C 
ENDBRANCH  10  12
BRANCH  10  14
ATOM     14  N   UNL A   1      31.784  24.840  22.029  1.00  0.00    -0.322 N 
ATOM     15  C   UNL A   1      31.381  26.033  22.467  1.00  0.00     0.315 C 
ATOM     16  H   UNL A   1      31.700  24.572  21.085  1.00  0.00     0.166 HD
ATOM     17  O   UNL A   1      30.985  26.792  21.588  1.00  0.00    -0.249 OA
ATOM     18  N   UNL A   1      31.555  26.443  23.799  1.00  0.00    -0.335 N 
ATOM     19  H   UNL A   1      31.101  27.314  23.872  1.00  0.00     0.165 HD
BRANCH  18  20
ATOM     20  C   UNL A   1      32.124  26.154  25.171  1.00  0.00     0.087 C 
ATOM     21  C   UNL A   1      31.547  26.962  26.342  1.00  0.00     0.030 C 
ATOM     22  C   UNL A   1      33.008  26.816  26.327  1.00  0.00     0.010 C 
ATOM     23  C   UNL A   1      33.673  28.148  26.672  1.00  0.00     0.010 C 
ENDBRANCH  18  20
ENDBRANCH  10  14
ENDBRANCH   8  10
ENDBRANCH   7   8
ENDBRANCH   6   7
ENDBRANCH   5   6
ENDBRANCH   4   5
ENDBRANCH   3   4
ENDBRANCH   2   3
ENDBRANCH   1   2
BRANCH   1  24
ATOM     24  C   UNL A   1      41.208  20.210  27.348  1.00  0.00     0.188 C 
BRANCH  24  25
ATOM     25  C   UNL A   1      41.168  19.625  25.943  1.00  0.00     0.188 C 
BRANCH  25  26
ATOM     26  O   UNL A   1      41.896  18.410  25.773  1.00  0.00    -0.376 OA
BRANCH  26  27
ATOM     27  C   UNL A   1      43.251  18.421  26.206  1.00  0.00     0.202 C 
BRANCH  27  28
ATOM     28  C   UNL A   1      44.232  19.195  25.290  1.00  0.00     0.261 C 
BRANCH  28  29
ATOM     29  O   UNL A   1      44.599  20.538  25.673  1.00  0.00    -0.460 OA
BRANCH  29  30
ATOM     30  C   UNL A   1      44.320  21.540  24.802  1.00  0.00     0.338 C 
ATOM     31  O   UNL A   1      44.344  21.493  23.592  1.00  0.00    -0.246 OA
BRANCH  30  32
ATOM     32  C   UNL A   1      43.872  22.744  25.561  1.00  0.00     0.060 A 
ATOM     33  C   UNL A   1      43.607  23.936  24.868  1.00  0.00     0.016 A 
ATOM     34  C   UNL A   1      43.829  22.730  26.955  1.00  0.00     0.016 A 
ATOM     35  C   UNL A   1      43.386  25.131  25.567  1.00  0.00     0.010 A 
ATOM     36  C   UNL A   1      43.633  23.930  27.654  1.00  0.00     0.010 A 
ATOM     37  C   UNL A   1      43.469  25.148  26.965  1.00  0.00    -0.014 A 
BRANCH  37  38
ATOM     38  C   UNL A   1      43.654  26.435  27.692  1.00  0.00     0.031 A 
ATOM     39  C   UNL A   1      42.421  27.211  28.086  1.00  0.00     0.074 A 
ATOM     40  C   UNL A   1      44.868  26.923  28.007  1.00  0.00     0.049 A 
ATOM     41  N   UNL A   1      42.317  28.399  28.628  1.00  0.00    -0.248 NA
ATOM     42  C   UNL A   1      41.129  26.553  27.828  1.00  0.00     0.031 C 
ATOM     43  C   UNL A   1      46.143  26.259  27.751  1.00  0.00     0.029 A 
ATOM     44  N   UNL A   1      45.221  28.112  28.603  1.00  0.00    -0.354 N 
ATOM     45  C   UNL A   1      40.953  28.638  28.752  1.00  0.00     0.074 A 
ATOM     46  C   UNL A   1      40.270  27.483  28.210  1.00  0.00     0.031 C 
ATOM     47  C   UNL A   1      47.141  27.060  28.167  1.00  0.00     0.029 A 
ATOM     48  C   UNL A   1      46.578  28.310  28.678  1.00  0.00     0.049 A 
ATOM     49  H   UNL A   1      44.562  28.760  28.944  1.00  0.00     0.167 HD
ATOM     50  C   UNL A   1      40.319  29.720  29.264  1.00  0.00     0.031 A 
ATOM     51  C   UNL A   1      47.286  29.387  29.075  1.00  0.00     0.031 A 
ATOM     52  C   UNL A   1      40.992  30.878  29.790  1.00  0.00     0.049 A 
ATOM     53  C   UNL A   1      46.563  30.621  29.558  1.00  0.00     0.074 A 
ATOM     54  C   UNL A   1      40.437  32.018  30.347  1.00  0.00     0.029 A 
ATOM     55  N   UNL A   1      42.366  31.049  29.813  1.00  0.00    -0.354 N 
ATOM     56  N   UNL A   1      45.275  30.829  29.687  1.00  0.00    -0.248 NA
ATOM     57  C   UNL A   1      47.395  31.768  29.953  1.00  0.00     0.031 C 
ATOM     58  C   UNL A   1      41.474  32.908  30.641  1.00  0.00     0.029 A 
ATOM     59  C   UNL A   1      42.678  32.290  30.339  1.00  0.00     0.049 A 
ATOM     60  H   UNL A   1      43.024  30.386  29.501  1.00  0.00     0.167 HD
ATOM     61  C   UNL A   1      45.144  32.114  30.204  1.00  0.00     0.074 A 
ATOM     62  C   UNL A   1      46.484  32.633  30.379  1.00  0.00     0.031 C 
ATOM     63  C   UNL A   1      44.015  32.799  30.511  1.00  0.00     0.031 A 
BRANCH  50  64
ATOM     64  C   UNL A   1      38.814  29.724  29.227  1.00  0.00    -0.014 A 
ATOM     65  C   UNL A   1      38.045  29.389  30.353  1.00  0.00     0.009 A 
ATOM     66  C   UNL A   1      38.154  30.090  28.042  1.00  0.00     0.009 A 
ATOM     67  C   UNL A   1      36.650  29.377  30.279  1.00  0.00     0.001 A 
ATOM     68  C   UNL A   1      36.760  30.110  27.982  1.00  0.00     0.001 A 
ATOM     69  C   UNL A   1      36.009  29.742  29.096  1.00  0.00     0.000 A 
ENDBRANCH  50  64
BRANCH  51  70
ATOM     70  C   UNL A   1      48.773  29.373  28.994  1.00  0.00    -0.014 A 
ATOM     71  C   UNL A   1      49.438  29.780  27.827  1.00  0.00     0.009 A 
ATOM     72  C   UNL A   1      49.537  28.925  30.085  1.00  0.00     0.009 A 
ATOM     73  C   UNL A   1      50.833  29.720  27.748  1.00  0.00     0.001 A 
ATOM     74  C   UNL A   1      50.932  28.897  30.014  1.00  0.00     0.001 A 
ATOM     75  C   UNL A   1      51.578  29.285  28.843  1.00  0.00     0.000 A 
ENDBRANCH  51  70
BRANCH  63  76
ATOM     76  C   UNL A   1      44.169  34.172  31.111  1.00  0.00    -0.014 A 
ATOM     77  C   UNL A   1      44.174  35.327  30.315  1.00  0.00     0.009 A 
ATOM     78  C   UNL A   1      44.248  34.310  32.507  1.00  0.00     0.009 A 
ATOM     79  C   UNL A   1      44.284  36.589  30.902  1.00  0.00     0.001 A 
ATOM     80  C   UNL A   1      44.325  35.575  33.092  1.00  0.00     0.001 A 
ATOM     81  C   UNL A   1      44.352  36.714  32.289  1.00  0.00     0.000 A 
ENDBRANCH  63  76
ENDBRANCH  37  38
ENDBRANCH  30  32
ENDBRANCH  29  30
ENDBRANCH  28  29
ENDBRANCH  27  28
ENDBRANCH  26  27
ENDBRANCH  25  26
ENDBRANCH  24  25
ENDBRANCH   1  24
TORSDOF 23
ENDMDL
MODEL 3
REMARK VINA RESULT:      -8.4      3.665      7.276
REMARK SMILES CC[C@](C)(NC(=O)N[C@@H]1C[C@@H]1C)C(=O)OCCOCCOCCOCCOC(=O)c1ccc(-c2c3nc(c(-c4ccccc4)c4ccc([nH]4)c(-c4ccccc4)c4nc(c(-c5ccccc5)c5ccc2[nH]5)C=C4)C=C3)cc1
REMARK SMILES IDX 21 1 20 2 19 3 18 4 17 5 16 6 15 7 13 8 14 9 3 10 4 11 2 12
REMARK SMILES IDX 1 13 5 14 6 15 7 17 8 18 9 20 10 21 11 22 12 23 22 24 23 25
REMARK SMILES IDX 24 26 25 27 26 28 27 29 28 30 29 31 30 32 31 33 77 34 32 35
REMARK SMILES IDX 76 36 33 37 34 38 35 39 70 40 36 41 75 42 69 43 71 44 37 45
REMARK SMILES IDX 74 46 68 47 67 48 38 50 60 51 45 52 59 53 46 54 49 55 58 56
REMARK SMILES IDX 72 57 47 58 48 59 57 61 73 62 50 63 39 64 40 65 44 66 41 67
REMARK SMILES IDX 43 68 42 69 61 70 62 71 66 72 63 73 65 74 64 75 51 76 52 77
REMARK SMILES IDX 56 78 53 79 55 80 54 81
REMARK H PARENT 5 16 8 19 71 49 49 60
REMARK Flexibility Score: inf
ROOT
ATOM      1  O   UNL A   1      43.956  17.959  25.101  1.00  0.00    -0.377 OA
ENDROOT
BRANCH   1   2
ATOM      2  C   UNL A   1      42.808  18.508  25.735  1.00  0.00     0.188 C 
BRANCH   2   3
ATOM      3  C   UNL A   1      42.848  18.820  27.263  1.00  0.00     0.188 C 
BRANCH   3   4
ATOM      4  O   UNL A   1      41.876  19.767  27.742  1.00  0.00    -0.376 OA
BRANCH   4   5
ATOM      5  C   UNL A   1      40.615  20.423  27.411  1.00  0.00     0.202 C 
BRANCH   5   6
ATOM      6  C   UNL A   1      40.058  21.374  26.077  1.00  0.00     0.261 C 
BRANCH   6   7
ATOM      7  O   UNL A   1      38.948  22.612  26.005  1.00  0.00    -0.462 OA
BRANCH   7   8
ATOM      8  C   UNL A   1      37.647  23.183  25.992  1.00  0.00     0.331 C 
ATOM      9  O   UNL A   1      37.551  24.396  26.234  1.00  0.00    -0.249 OA
BRANCH   8  10
ATOM     10  C   UNL A   1      36.234  22.404  25.674  1.00  0.00     0.136 C 
ATOM     11  C   UNL A   1      35.904  20.865  25.737  1.00  0.00     0.047 C 
BRANCH  10  12
ATOM     12  C   UNL A   1      35.718  22.930  24.284  1.00  0.00     0.037 C 
ATOM     13  C   UNL A   1      36.706  22.861  23.104  1.00  0.00     0.007 C 
ENDBRANCH  10  12
BRANCH  10  14
ATOM     14  N   UNL A   1      35.528  22.891  26.775  1.00  0.00    -0.322 N 
ATOM     15  C   UNL A   1      34.211  22.688  26.753  1.00  0.00     0.315 C 
ATOM     16  H   UNL A   1      35.974  23.355  27.521  1.00  0.00     0.166 HD
ATOM     17  O   UNL A   1      33.622  23.041  27.769  1.00  0.00    -0.249 OA
ATOM     18  N   UNL A   1      33.578  21.974  25.722  1.00  0.00    -0.335 N 
ATOM     19  H   UNL A   1      32.612  22.043  25.902  1.00  0.00     0.165 HD
BRANCH  18  20
ATOM     20  C   UNL A   1      33.707  21.148  24.461  1.00  0.00     0.087 C 
ATOM     21  C   UNL A   1      32.411  20.853  23.692  1.00  0.00     0.030 C 
ATOM     22  C   UNL A   1      33.330  19.718  23.854  1.00  0.00     0.010 C 
ATOM     23  C   UNL A   1      32.549  18.459  24.229  1.00  0.00     0.010 C 
ENDBRANCH  18  20
ENDBRANCH  10  14
ENDBRANCH   8  10
ENDBRANCH   7   8
ENDBRANCH   6   7
ENDBRANCH   5   6
ENDBRANCH   4   5
ENDBRANCH   3   4
ENDBRANCH   2   3
ENDBRANCH   1   2
BRANCH   1  24
ATOM     24  C   UNL A   1      45.178  18.673  25.167  1.00  0.00     0.188 C 
BRANCH  24  25
ATOM     25  C   UNL A   1      45.467  19.428  23.877  1.00  0.00     0.188 C 
BRANCH  25  26
ATOM     26  O   UNL A   1      44.598  20.529  23.614  1.00  0.00    -0.376 OA
BRANCH  26  27
ATOM     27  C   UNL A   1      45.153  21.827  23.787  1.00  0.00     0.202 C 
BRANCH  27  28
ATOM     28  C   UNL A   1      44.126  22.958  24.042  1.00  0.00     0.261 C 
BRANCH  28  29
ATOM     29  O   UNL A   1      43.619  23.122  25.384  1.00  0.00    -0.460 OA
BRANCH  29  30
ATOM     30  C   UNL A   1      44.362  23.852  26.253  1.00  0.00     0.338 C 
ATOM     31  O   UNL A   1      45.541  23.725  26.502  1.00  0.00    -0.246 OA
BRANCH  30  32
ATOM     32  C   UNL A   1      43.521  24.941  26.829  1.00  0.00     0.060 A 
ATOM     33  C   UNL A   1      44.011  26.257  26.841  1.00  0.00     0.016 A 
ATOM     34  C   UNL A   1      42.311  24.648  27.459  1.00  0.00     0.016 A 
ATOM     35  C   UNL A   1      43.338  27.260  27.554  1.00  0.00     0.010 A 
ATOM     36  C   UNL A   1      41.652  25.644  28.192  1.00  0.00     0.010 A 
ATOM     37  C   UNL A   1      42.192  26.942  28.293  1.00  0.00    -0.014 A 
BRANCH  37  38
ATOM     38  C   UNL A   1      41.712  27.857  29.366  1.00  0.00     0.031 A 
ATOM     39  C   UNL A   1      42.440  27.843  30.689  1.00  0.00     0.074 A 
ATOM     40  C   UNL A   1      40.667  28.688  29.199  1.00  0.00     0.049 A 
ATOM     41  N   UNL A   1      42.155  28.463  31.807  1.00  0.00    -0.248 NA
ATOM     42  C   UNL A   1      43.651  27.009  30.755  1.00  0.00     0.031 C 
ATOM     43  C   UNL A   1      39.910  28.860  27.962  1.00  0.00     0.029 A 
ATOM     44  N   UNL A   1      40.053  29.536  30.091  1.00  0.00    -0.354 N 
ATOM     45  C   UNL A   1      43.138  28.075  32.712  1.00  0.00     0.074 A 
ATOM     46  C   UNL A   1      44.010  27.153  32.021  1.00  0.00     0.031 C 
ATOM     47  C   UNL A   1      38.917  29.742  28.181  1.00  0.00     0.029 A 
ATOM     48  C   UNL A   1      38.942  30.163  29.581  1.00  0.00     0.049 A 
ATOM     49  H   UNL A   1      40.380  29.680  31.009  1.00  0.00     0.167 HD
ATOM     50  C   UNL A   1      43.301  28.447  34.005  1.00  0.00     0.031 A 
ATOM     51  C   UNL A   1      38.029  30.954  30.182  1.00  0.00     0.031 A 
ATOM     52  C   UNL A   1      42.428  29.352  34.703  1.00  0.00     0.049 A 
ATOM     53  C   UNL A   1      38.175  31.284  31.648  1.00  0.00     0.074 A 
ATOM     54  C   UNL A   1      42.520  29.803  36.009  1.00  0.00     0.029 A 
ATOM     55  N   UNL A   1      41.296  29.935  34.157  1.00  0.00    -0.354 N 
ATOM     56  N   UNL A   1      39.116  30.927  32.488  1.00  0.00    -0.248 NA
ATOM     57  C   UNL A   1      37.132  32.132  32.246  1.00  0.00     0.031 C 
ATOM     58  C   UNL A   1      41.404  30.602  36.274  1.00  0.00     0.029 A 
ATOM     59  C   UNL A   1      40.659  30.711  35.110  1.00  0.00     0.049 A 
ATOM     60  H   UNL A   1      40.990  29.815  33.230  1.00  0.00     0.167 HD
ATOM     61  C   UNL A   1      38.795  31.528  33.701  1.00  0.00     0.074 A 
ATOM     62  C   UNL A   1      37.580  32.285  33.484  1.00  0.00     0.031 C 
ATOM     63  C   UNL A   1      39.450  31.462  34.886  1.00  0.00     0.031 A 
BRANCH  50  64
ATOM     64  C   UNL A   1      44.441  27.824  34.766  1.00  0.00    -0.014 A 
ATOM     65  C   UNL A   1      44.305  26.591  35.425  1.00  0.00     0.009 A 
ATOM     66  C   UNL A   1      45.682  28.480  34.807  1.00  0.00     0.009 A 
ATOM     67  C   UNL A   1      45.374  26.052  36.144  1.00  0.00     0.001 A 
ATOM     68  C   UNL A   1      46.759  27.921  35.498  1.00  0.00     0.001 A 
ATOM     69  C   UNL A   1      46.600  26.715  36.176  1.00  0.00     0.000 A 
ENDBRANCH  50  64
BRANCH  51  70
ATOM     70  C   UNL A   1      36.860  31.460  29.412  1.00  0.00    -0.014 A 
ATOM     71  C   UNL A   1      36.599  32.836  29.313  1.00  0.00     0.009 A 
ATOM     72  C   UNL A   1      35.980  30.560  28.788  1.00  0.00     0.009 A 
ATOM     73  C   UNL A   1      35.474  33.297  28.624  1.00  0.00     0.001 A 
ATOM     74  C   UNL A   1      34.874  31.025  28.072  1.00  0.00     0.001 A 
ATOM     75  C   UNL A   1      34.616  32.392  27.999  1.00  0.00     0.000 A 
ENDBRANCH  51  70
BRANCH  63  76
ATOM     76  C   UNL A   1      38.901  32.263  36.037  1.00  0.00    -0.014 A 
ATOM     77  C   UNL A   1      38.060  31.685  37.000  1.00  0.00     0.009 A 
ATOM     78  C   UNL A   1      39.286  33.605  36.192  1.00  0.00     0.009 A 
ATOM     79  C   UNL A   1      37.592  32.443  38.076  1.00  0.00     0.001 A 
ATOM     80  C   UNL A   1      38.844  34.350  37.286  1.00  0.00     0.001 A 
ATOM     81  C   UNL A   1      37.990  33.772  38.223  1.00  0.00     0.000 A 
ENDBRANCH  63  76
ENDBRANCH  37  38
ENDBRANCH  30  32
ENDBRANCH  29  30
ENDBRANCH  28  29
ENDBRANCH  27  28
ENDBRANCH  26  27
ENDBRANCH  25  26
ENDBRANCH  24  25
ENDBRANCH   1  24
TORSDOF 23
ENDMDL
