MODEL 1
REMARK VINA RESULT:      -9.5      0.000      0.000
REMARK SMILES CN(C(=O)C[C@](C)(C(=O)OCCOCCOCCOCCOC(=O)c1ccc(-c2c3nc(c(-c4ccccc4)c4ccc([nH]4)c(-c4ccccc4)c4nc(c(-c5ccccc5)c5ccc2[nH]5)C=C4)C=C3)cc1)c1ccccc1)[C@@H]1CCSC1
REMARK SMILES IDX 15 1 14 2 13 3 12 4 11 5 10 6 8 7 9 8 6 9 7 10 5 11 3 12
REMARK SMILES IDX 4 13 2 14 1 15 79 16 80 17 83 18 81 19 82 20 73 21 74 22
REMARK SMILES IDX 78 23 75 24 77 25 76 26 16 27 17 28 18 29 19 30 20 31 21 32
REMARK SMILES IDX 22 33 23 34 24 35 25 36 26 37 72 38 27 39 71 40 28 41 29 42
REMARK SMILES IDX 30 43 65 44 31 45 70 46 64 47 66 48 32 49 69 50 63 51 62 52
REMARK SMILES IDX 33 54 55 55 40 56 54 57 41 58 44 59 53 60 67 61 42 62 43 63
REMARK SMILES IDX 52 65 68 66 45 67 34 68 35 69 39 70 36 71 38 72 37 73 56 74
REMARK SMILES IDX 57 75 61 76 58 77 60 78 59 79 46 80 47 81 51 82 48 83 50 84
REMARK SMILES IDX 49 85
REMARK H PARENT 66 53 44 64
REMARK Flexibility Score: inf
ROOT
ATOM      1  C   UNL A   1      38.112  22.304  25.619  1.00  0.00     0.188 C 
ENDROOT
BRANCH   1   2
ATOM      2  C   UNL A   1      37.041  21.888  24.599  1.00  0.00     0.188 C 
BRANCH   2   3
ATOM      3  O   UNL A   1      35.724  22.256  24.983  1.00  0.00    -0.376 OA
BRANCH   3   4
ATOM      4  C   UNL A   1      35.552  22.738  26.304  1.00  0.00     0.202 C 
BRANCH   4   5
ATOM      5  C   UNL A   1      34.118  22.851  26.861  1.00  0.00     0.261 C 
BRANCH   5   6
ATOM      6  O   UNL A   1      33.009  23.188  25.995  1.00  0.00    -0.463 OA
BRANCH   6   7
ATOM      7  C   UNL A   1      32.221  24.248  26.299  1.00  0.00     0.316 C 
ATOM      8  O   UNL A   1      31.399  24.206  27.205  1.00  0.00    -0.251 OA
BRANCH   7   9
ATOM      9  C   UNL A   1      32.401  25.448  25.332  1.00  0.00     0.099 C 
ATOM     10  C   UNL A   1      33.582  25.223  24.338  1.00  0.00     0.029 C 
BRANCH   9  11
ATOM     11  C   UNL A   1      31.104  25.458  24.474  1.00  0.00     0.123 C 
BRANCH  11  12
ATOM     12  C   UNL A   1      31.229  26.269  23.195  1.00  0.00     0.224 C 
ATOM     13  O   UNL A   1      31.312  25.657  22.126  1.00  0.00    -0.275 OA
BRANCH  12  14
ATOM     14  N   UNL A   1      31.274  27.661  23.252  1.00  0.00    -0.342 N 
ATOM     15  C   UNL A   1      32.371  28.479  22.731  1.00  0.00     0.147 C 
BRANCH  14  16
ATOM     16  C   UNL A   1      30.138  28.340  23.925  1.00  0.00     0.095 C 
ATOM     17  C   UNL A   1      28.755  28.040  23.324  1.00  0.00     0.037 C 
ATOM     18  C   UNL A   1      30.257  29.860  24.020  1.00  0.00     0.094 C 
ATOM     19  C   UNL A   1      28.470  29.007  22.189  1.00  0.00     0.072 C 
ATOM     20  S   UNL A   1      29.314  30.554  22.626  1.00  0.00    -0.160 SA
ENDBRANCH  14  16
ENDBRANCH  12  14
ENDBRANCH  11  12
ENDBRANCH   9  11
BRANCH   9  21
ATOM     21  C   UNL A   1      32.661  26.800  26.067  1.00  0.00    -0.030 A 
ATOM     22  C   UNL A   1      33.936  27.394  26.048  1.00  0.00     0.005 A 
ATOM     23  C   UNL A   1      31.674  27.483  26.803  1.00  0.00     0.005 A 
ATOM     24  C   UNL A   1      34.198  28.600  26.714  1.00  0.00     0.000 A 
ATOM     25  C   UNL A   1      31.931  28.680  27.479  1.00  0.00     0.000 A 
ATOM     26  C   UNL A   1      33.196  29.242  27.433  1.00  0.00     0.000 A 
ENDBRANCH   9  21
ENDBRANCH   7   9
ENDBRANCH   6   7
ENDBRANCH   5   6
ENDBRANCH   4   5
ENDBRANCH   3   4
ENDBRANCH   2   3
ENDBRANCH   1   2
BRANCH   1  27
ATOM     27  O   UNL A   1      39.032  21.288  25.984  1.00  0.00    -0.377 OA
BRANCH  27  28
ATOM     28  C   UNL A   1      40.253  21.671  26.616  1.00  0.00     0.188 C 
BRANCH  28  29
ATOM     29  C   UNL A   1      41.564  20.880  26.385  1.00  0.00     0.188 C 
BRANCH  29  30
ATOM     30  O   UNL A   1      41.534  19.532  26.813  1.00  0.00    -0.376 OA
BRANCH  30  31
ATOM     31  C   UNL A   1      42.621  18.671  26.538  1.00  0.00     0.202 C 
BRANCH  31  32
ATOM     32  C   UNL A   1      43.280  18.701  25.152  1.00  0.00     0.261 C 
BRANCH  32  33
ATOM     33  O   UNL A   1      44.698  18.512  25.094  1.00  0.00    -0.460 OA
BRANCH  33  34
ATOM     34  C   UNL A   1      45.428  19.306  24.276  1.00  0.00     0.338 C 
ATOM     35  O   UNL A   1      46.055  18.982  23.298  1.00  0.00    -0.246 OA
BRANCH  34  36
ATOM     36  C   UNL A   1      45.134  20.701  24.687  1.00  0.00     0.060 A 
ATOM     37  C   UNL A   1      44.619  21.611  23.750  1.00  0.00     0.016 A 
ATOM     38  C   UNL A   1      45.320  21.081  26.016  1.00  0.00     0.016 A 
ATOM     39  C   UNL A   1      44.324  22.920  24.135  1.00  0.00     0.010 A 
ATOM     40  C   UNL A   1      45.065  22.398  26.390  1.00  0.00     0.010 A 
ATOM     41  C   UNL A   1      44.607  23.330  25.442  1.00  0.00    -0.014 A 
BRANCH  41  42
ATOM     42  C   UNL A   1      44.735  24.769  25.759  1.00  0.00     0.031 A 
ATOM     43  C   UNL A   1      46.108  25.371  25.643  1.00  0.00     0.074 A 
ATOM     44  C   UNL A   1      43.695  25.507  26.179  1.00  0.00     0.049 A 
ATOM     45  N   UNL A   1      46.542  26.538  26.037  1.00  0.00    -0.248 NA
ATOM     46  C   UNL A   1      47.136  24.525  25.010  1.00  0.00     0.031 C 
ATOM     47  C   UNL A   1      42.308  25.058  26.262  1.00  0.00     0.029 A 
ATOM     48  N   UNL A   1      43.665  26.799  26.642  1.00  0.00    -0.354 N 
ATOM     49  C   UNL A   1      47.896  26.555  25.723  1.00  0.00     0.074 A 
ATOM     50  C   UNL A   1      48.217  25.280  25.126  1.00  0.00     0.031 C 
ATOM     51  C   UNL A   1      41.562  26.055  26.773  1.00  0.00     0.029 A 
ATOM     52  C   UNL A   1      42.430  27.186  27.100  1.00  0.00     0.049 A 
ATOM     53  H   UNL A   1      44.453  27.390  26.646  1.00  0.00     0.167 HD
ATOM     54  C   UNL A   1      48.794  27.545  25.921  1.00  0.00     0.031 A 
ATOM     55  C   UNL A   1      42.060  28.310  27.745  1.00  0.00     0.031 A 
ATOM     56  C   UNL A   1      48.473  28.801  26.538  1.00  0.00     0.049 A 
ATOM     57  C   UNL A   1      43.100  29.361  28.049  1.00  0.00     0.074 A 
ATOM     58  C   UNL A   1      49.306  29.874  26.791  1.00  0.00     0.029 A 
ATOM     59  N   UNL A   1      47.215  29.144  27.009  1.00  0.00    -0.354 N 
ATOM     60  N   UNL A   1      44.377  29.375  27.751  1.00  0.00    -0.248 NA
ATOM     61  C   UNL A   1      42.643  30.553  28.780  1.00  0.00     0.031 C 
ATOM     62  C   UNL A   1      48.565  30.845  27.470  1.00  0.00     0.029 A 
ATOM     63  C   UNL A   1      47.254  30.407  27.571  1.00  0.00     0.049 A 
ATOM     64  H   UNL A   1      46.414  28.575  26.950  1.00  0.00     0.167 HD
ATOM     65  C   UNL A   1      44.865  30.591  28.215  1.00  0.00     0.074 A 
ATOM     66  C   UNL A   1      43.746  31.288  28.815  1.00  0.00     0.031 C 
ATOM     67  C   UNL A   1      46.123  31.091  28.143  1.00  0.00     0.031 A 
BRANCH  54  68
ATOM     68  C   UNL A   1      50.215  27.278  25.515  1.00  0.00    -0.014 A 
ATOM     69  C   UNL A   1      51.130  26.675  26.393  1.00  0.00     0.009 A 
ATOM     70  C   UNL A   1      50.643  27.626  24.223  1.00  0.00     0.009 A 
ATOM     71  C   UNL A   1      52.452  26.461  25.998  1.00  0.00     0.001 A 
ATOM     72  C   UNL A   1      51.956  27.380  23.820  1.00  0.00     0.001 A 
ATOM     73  C   UNL A   1      52.862  26.808  24.711  1.00  0.00     0.000 A 
ENDBRANCH  54  68
BRANCH  55  74
ATOM     74  C   UNL A   1      40.650  28.495  28.180  1.00  0.00    -0.014 A 
ATOM     75  C   UNL A   1      40.212  27.990  29.415  1.00  0.00     0.009 A 
ATOM     76  C   UNL A   1      39.724  29.152  27.354  1.00  0.00     0.009 A 
ATOM     77  C   UNL A   1      38.874  28.114  29.799  1.00  0.00     0.001 A 
ATOM     78  C   UNL A   1      38.394  29.303  27.754  1.00  0.00     0.001 A 
ATOM     79  C   UNL A   1      37.968  28.775  28.970  1.00  0.00     0.000 A 
ENDBRANCH  55  74
BRANCH  67  80
ATOM     80  C   UNL A   1      46.355  32.487  28.653  1.00  0.00    -0.014 A 
ATOM     81  C   UNL A   1      46.179  33.612  27.836  1.00  0.00     0.009 A 
ATOM     82  C   UNL A   1      46.672  32.673  30.010  1.00  0.00     0.009 A 
ATOM     83  C   UNL A   1      46.336  34.896  28.364  1.00  0.00     0.001 A 
ATOM     84  C   UNL A   1      46.798  33.956  30.541  1.00  0.00     0.001 A 
ATOM     85  C   UNL A   1      46.636  35.067  29.716  1.00  0.00     0.000 A 
ENDBRANCH  67  80
ENDBRANCH  41  42
ENDBRANCH  34  36
ENDBRANCH  33  34
ENDBRANCH  32  33
ENDBRANCH  31  32
ENDBRANCH  30  31
ENDBRANCH  29  30
ENDBRANCH  28  29
ENDBRANCH  27  28
ENDBRANCH   1  27
TORSDOF 25
ENDMDL
MODEL 2
REMARK VINA RESULT:      -8.5      4.272      6.759
REMARK SMILES CN(C(=O)C[C@](C)(C(=O)OCCOCCOCCOCCOC(=O)c1ccc(-c2c3nc(c(-c4ccccc4)c4ccc([nH]4)c(-c4ccccc4)c4nc(c(-c5ccccc5)c5ccc2[nH]5)C=C4)C=C3)cc1)c1ccccc1)[C@@H]1CCSC1
REMARK SMILES IDX 15 1 14 2 13 3 12 4 11 5 10 6 8 7 9 8 6 9 7 10 5 11 3 12
REMARK SMILES IDX 4 13 2 14 1 15 79 16 80 17 83 18 81 19 82 20 73 21 74 22
REMARK SMILES IDX 78 23 75 24 77 25 76 26 16 27 17 28 18 29 19 30 20 31 21 32
REMARK SMILES IDX 22 33 23 34 24 35 25 36 26 37 72 38 27 39 71 40 28 41 29 42
REMARK SMILES IDX 30 43 65 44 31 45 70 46 64 47 66 48 32 49 69 50 63 51 62 52
REMARK SMILES IDX 33 54 55 55 40 56 54 57 41 58 44 59 53 60 67 61 42 62 43 63
REMARK SMILES IDX 52 65 68 66 45 67 34 68 35 69 39 70 36 71 38 72 37 73 56 74
REMARK SMILES IDX 57 75 61 76 58 77 60 78 59 79 46 80 47 81 51 82 48 83 50 84
REMARK SMILES IDX 49 85
REMARK H PARENT 66 53 44 64
REMARK Flexibility Score: inf
ROOT
ATOM      1  C   UNL A   1      39.799  19.983  26.161  1.00  0.00     0.188 C 
ENDROOT
BRANCH   1   2
ATOM      2  C   UNL A   1      39.087  21.090  25.372  1.00  0.00     0.188 C 
BRANCH   2   3
ATOM      3  O   UNL A   1      37.994  21.669  26.073  1.00  0.00    -0.376 OA
BRANCH   3   4
ATOM      4  C   UNL A   1      37.734  23.041  25.833  1.00  0.00     0.202 C 
BRANCH   4   5
ATOM      5  C   UNL A   1      36.381  23.429  25.201  1.00  0.00     0.261 C 
BRANCH   5   6
ATOM      6  O   UNL A   1      35.423  24.231  25.928  1.00  0.00    -0.463 OA
BRANCH   6   7
ATOM      7  C   UNL A   1      34.373  23.631  26.538  1.00  0.00     0.316 C 
ATOM      8  O   UNL A   1      34.523  22.862  27.479  1.00  0.00    -0.251 OA
BRANCH   7   9
ATOM      9  C   UNL A   1      33.009  23.938  25.864  1.00  0.00     0.099 C 
ATOM     10  C   UNL A   1      31.815  23.731  26.846  1.00  0.00     0.029 C 
BRANCH   9  11
ATOM     11  C   UNL A   1      33.060  25.462  25.554  1.00  0.00     0.123 C 
BRANCH  11  12
ATOM     12  C   UNL A   1      31.736  26.171  25.782  1.00  0.00     0.224 C 
ATOM     13  O   UNL A   1      31.429  26.469  26.940  1.00  0.00    -0.275 OA
BRANCH  12  14
ATOM     14  N   UNL A   1      30.896  26.446  24.704  1.00  0.00    -0.342 N 
ATOM     15  C   UNL A   1      29.949  25.490  24.125  1.00  0.00     0.147 C 
BRANCH  14  16
ATOM     16  C   UNL A   1      31.011  27.793  24.091  1.00  0.00     0.095 C 
ATOM     17  C   UNL A   1      31.403  27.798  22.605  1.00  0.00     0.037 C 
ATOM     18  C   UNL A   1      31.967  28.748  24.802  1.00  0.00     0.094 C 
ATOM     19  C   UNL A   1      32.915  27.770  22.475  1.00  0.00     0.072 C 
ATOM     20  S   UNL A   1      33.558  28.659  23.922  1.00  0.00    -0.160 SA
ENDBRANCH  14  16
ENDBRANCH  12  14
ENDBRANCH  11  12
ENDBRANCH   9  11
BRANCH   9  21
ATOM     21  C   UNL A   1      32.733  23.064  24.601  1.00  0.00    -0.030 A 
ATOM     22  C   UNL A   1      32.419  21.699  24.728  1.00  0.00     0.005 A 
ATOM     23  C   UNL A   1      32.807  23.560  23.286  1.00  0.00     0.005 A 
ATOM     24  C   UNL A   1      32.183  20.888  23.608  1.00  0.00     0.000 A 
ATOM     25  C   UNL A   1      32.583  22.755  22.164  1.00  0.00     0.000 A 
ATOM     26  C   UNL A   1      32.269  21.416  22.325  1.00  0.00     0.000 A 
ENDBRANCH   9  21
ENDBRANCH   7   9
ENDBRANCH   6   7
ENDBRANCH   5   6
ENDBRANCH   4   5
ENDBRANCH   3   4
ENDBRANCH   2   3
ENDBRANCH   1   2
BRANCH   1  27
ATOM     27  O   UNL A   1      40.503  20.413  27.315  1.00  0.00    -0.377 OA
BRANCH  27  28
ATOM     28  C   UNL A   1      41.920  20.555  27.235  1.00  0.00     0.188 C 
BRANCH  28  29
ATOM     29  C   UNL A   1      42.578  21.520  26.218  1.00  0.00     0.188 C 
BRANCH  29  30
ATOM     30  O   UNL A   1      43.378  20.897  25.232  1.00  0.00    -0.376 OA
BRANCH  30  31
ATOM     31  C   UNL A   1      44.347  21.643  24.522  1.00  0.00     0.202 C 
BRANCH  31  32
ATOM     32  C   UNL A   1      44.157  23.154  24.341  1.00  0.00     0.261 C 
BRANCH  32  33
ATOM     33  O   UNL A   1      45.104  24.018  24.980  1.00  0.00    -0.460 OA
BRANCH  33  34
ATOM     34  C   UNL A   1      45.325  23.873  26.307  1.00  0.00     0.338 C 
ATOM     35  O   UNL A   1      46.171  23.203  26.847  1.00  0.00    -0.246 OA
BRANCH  34  36
ATOM     36  C   UNL A   1      44.461  24.874  26.980  1.00  0.00     0.060 A 
ATOM     37  C   UNL A   1      44.627  26.240  26.702  1.00  0.00     0.016 A 
ATOM     38  C   UNL A   1      43.453  24.444  27.843  1.00  0.00     0.016 A 
ATOM     39  C   UNL A   1      43.806  27.185  27.318  1.00  0.00     0.010 A 
ATOM     40  C   UNL A   1      42.660  25.390  28.490  1.00  0.00     0.010 A 
ATOM     41  C   UNL A   1      42.864  26.762  28.261  1.00  0.00    -0.014 A 
BRANCH  41  42
ATOM     42  C   UNL A   1      42.306  27.722  29.239  1.00  0.00     0.031 A 
ATOM     43  C   UNL A   1      43.047  27.875  30.539  1.00  0.00     0.074 A 
ATOM     44  C   UNL A   1      41.167  28.397  29.015  1.00  0.00     0.049 A 
ATOM     45  N   UNL A   1      42.688  28.489  31.634  1.00  0.00    -0.248 NA
ATOM     46  C   UNL A   1      44.369  27.228  30.613  1.00  0.00     0.031 C 
ATOM     47  C   UNL A   1      40.402  28.388  27.771  1.00  0.00     0.029 A 
ATOM     48  N   UNL A   1      40.447  29.207  29.855  1.00  0.00    -0.354 N 
ATOM     49  C   UNL A   1      43.728  28.279  32.533  1.00  0.00     0.074 A 
ATOM     50  C   UNL A   1      44.718  27.467  31.866  1.00  0.00     0.031 C 
ATOM     51  C   UNL A   1      39.298  29.140  27.938  1.00  0.00     0.029 A 
ATOM     52  C   UNL A   1      39.259  29.636  29.314  1.00  0.00     0.049 A 
ATOM     53  H   UNL A   1      40.751  29.457  30.757  1.00  0.00     0.167 HD
ATOM     54  C   UNL A   1      43.842  28.718  33.807  1.00  0.00     0.031 A 
ATOM     55  C   UNL A   1      38.243  30.314  29.885  1.00  0.00     0.031 A 
ATOM     56  C   UNL A   1      42.840  29.503  34.472  1.00  0.00     0.049 A 
ATOM     57  C   UNL A   1      38.345  30.707  31.339  1.00  0.00     0.074 A 
ATOM     58  C   UNL A   1      42.852  30.000  35.761  1.00  0.00     0.029 A 
ATOM     59  N   UNL A   1      41.642  29.895  33.896  1.00  0.00    -0.354 N 
ATOM     60  N   UNL A   1      39.327  30.507  32.185  1.00  0.00    -0.248 NA
ATOM     61  C   UNL A   1      37.196  31.420  31.915  1.00  0.00     0.031 C 
ATOM     62  C   UNL A   1      41.632  30.643  35.987  1.00  0.00     0.029 A 
ATOM     63  C   UNL A   1      40.895  30.612  34.813  1.00  0.00     0.049 A 
ATOM     64  H   UNL A   1      41.365  29.695  32.973  1.00  0.00     0.167 HD
ATOM     65  C   UNL A   1      38.936  31.109  33.375  1.00  0.00     0.074 A 
ATOM     66  C   UNL A   1      37.625  31.680  33.142  1.00  0.00     0.031 C 
ATOM     67  C   UNL A   1      39.602  31.190  34.552  1.00  0.00     0.031 A 
BRANCH  54  68
ATOM     68  C   UNL A   1      45.068  28.307  34.570  1.00  0.00    -0.014 A 
ATOM     69  C   UNL A   1      45.243  26.991  35.027  1.00  0.00     0.009 A 
ATOM     70  C   UNL A   1      46.074  29.254  34.826  1.00  0.00     0.009 A 
ATOM     71  C   UNL A   1      46.382  26.642  35.756  1.00  0.00     0.001 A 
ATOM     72  C   UNL A   1      47.226  28.893  35.526  1.00  0.00     0.001 A 
ATOM     73  C   UNL A   1      47.374  27.592  35.999  1.00  0.00     0.000 A 
ENDBRANCH  54  68
BRANCH  55  74
ATOM     74  C   UNL A   1      37.024  30.640  29.099  1.00  0.00    -0.014 A 
ATOM     75  C   UNL A   1      36.079  29.646  28.801  1.00  0.00     0.009 A 
ATOM     76  C   UNL A   1      36.809  31.941  28.614  1.00  0.00     0.009 A 
ATOM     77  C   UNL A   1      34.962  29.939  28.014  1.00  0.00     0.001 A 
ATOM     78  C   UNL A   1      35.676  32.239  27.855  1.00  0.00     0.001 A 
ATOM     79  C   UNL A   1      34.760  31.237  27.547  1.00  0.00     0.000 A 
ENDBRANCH  55  74
BRANCH  67  80
ATOM     80  C   UNL A   1      38.973  31.986  35.663  1.00  0.00    -0.014 A 
ATOM     81  C   UNL A   1      38.155  31.386  36.631  1.00  0.00     0.009 A 
ATOM     82  C   UNL A   1      39.282  33.352  35.784  1.00  0.00     0.009 A 
ATOM     83  C   UNL A   1      37.644  32.144  37.688  1.00  0.00     0.001 A 
ATOM     84  C   UNL A   1      38.796  34.098  36.857  1.00  0.00     0.001 A 
ATOM     85  C   UNL A   1      37.971  33.495  37.805  1.00  0.00     0.000 A 
ENDBRANCH  67  80
ENDBRANCH  41  42
ENDBRANCH  34  36
ENDBRANCH  33  34
ENDBRANCH  32  33
ENDBRANCH  31  32
ENDBRANCH  30  31
ENDBRANCH  29  30
ENDBRANCH  28  29
ENDBRANCH  27  28
ENDBRANCH   1  27
TORSDOF 25
ENDMDL
MODEL 3
REMARK VINA RESULT:      -8.0      2.775      4.619
REMARK SMILES CN(C(=O)C[C@](C)(C(=O)OCCOCCOCCOCCOC(=O)c1ccc(-c2c3nc(c(-c4ccccc4)c4ccc([nH]4)c(-c4ccccc4)c4nc(c(-c5ccccc5)c5ccc2[nH]5)C=C4)C=C3)cc1)c1ccccc1)[C@@H]1CCSC1
REMARK SMILES IDX 15 1 14 2 13 3 12 4 11 5 10 6 8 7 9 8 6 9 7 10 5 11 3 12
REMARK SMILES IDX 4 13 2 14 1 15 79 16 80 17 83 18 81 19 82 20 73 21 74 22
REMARK SMILES IDX 78 23 75 24 77 25 76 26 16 27 17 28 18 29 19 30 20 31 21 32
REMARK SMILES IDX 22 33 23 34 24 35 25 36 26 37 72 38 27 39 71 40 28 41 29 42
REMARK SMILES IDX 30 43 65 44 31 45 70 46 64 47 66 48 32 49 69 50 63 51 62 52
REMARK SMILES IDX 33 54 55 55 40 56 54 57 41 58 44 59 53 60 67 61 42 62 43 63
REMARK SMILES IDX 52 65 68 66 45 67 34 68 35 69 39 70 36 71 38 72 37 73 56 74
REMARK SMILES IDX 57 75 61 76 58 77 60 78 59 79 46 80 47 81 51 82 48 83 50 84
REMARK SMILES IDX 49 85
REMARK H PARENT 66 53 44 64
REMARK Flexibility Score: inf
ROOT
ATOM      1  C   UNL A   1      36.526  23.061  25.660  1.00  0.00     0.188 C 
ENDROOT
BRANCH   1   2
ATOM      2  C   UNL A   1      35.312  23.839  25.130  1.00  0.00     0.188 C 
BRANCH   2   3
ATOM      3  O   UNL A   1      34.143  23.041  25.003  1.00  0.00    -0.376 OA
BRANCH   3   4
ATOM      4  C   UNL A   1      33.991  22.316  23.795  1.00  0.00     0.202 C 
BRANCH   4   5
ATOM      5  C   UNL A   1      33.851  23.110  22.479  1.00  0.00     0.261 C 
BRANCH   5   6
ATOM      6  O   UNL A   1      34.171  24.519  22.422  1.00  0.00    -0.463 OA
BRANCH   6   7
ATOM      7  C   UNL A   1      33.284  25.385  21.877  1.00  0.00     0.316 C 
ATOM      8  O   UNL A   1      33.074  25.425  20.672  1.00  0.00    -0.251 OA
BRANCH   7   9
ATOM      9  C   UNL A   1      32.658  26.361  22.909  1.00  0.00     0.099 C 
ATOM     10  C   UNL A   1      33.710  27.365  23.472  1.00  0.00     0.029 C 
BRANCH   9  11
ATOM     11  C   UNL A   1      31.643  27.205  22.087  1.00  0.00     0.123 C 
BRANCH  11  12
ATOM     12  C   UNL A   1      31.629  28.675  22.468  1.00  0.00     0.224 C 
ATOM     13  O   UNL A   1      32.597  29.368  22.144  1.00  0.00    -0.275 OA
BRANCH  12  14
ATOM     14  N   UNL A   1      30.554  29.200  23.184  1.00  0.00    -0.342 N 
ATOM     15  C   UNL A   1      30.601  29.568  24.600  1.00  0.00     0.147 C 
BRANCH  14  16
ATOM     16  C   UNL A   1      29.271  29.354  22.451  1.00  0.00     0.095 C 
ATOM     17  C   UNL A   1      29.245  30.496  21.423  1.00  0.00     0.037 C 
ATOM     18  C   UNL A   1      28.038  29.527  23.335  1.00  0.00     0.094 C 
ATOM     19  C   UNL A   1      28.840  31.789  22.107  1.00  0.00     0.072 C 
ATOM     20  S   UNL A   1      27.715  31.315  23.451  1.00  0.00    -0.160 SA
ENDBRANCH  14  16
ENDBRANCH  12  14
ENDBRANCH  11  12
ENDBRANCH   9  11
BRANCH   9  21
ATOM     21  C   UNL A   1      32.007  25.636  24.128  1.00  0.00    -0.030 A 
ATOM     22  C   UNL A   1      31.057  24.615  23.933  1.00  0.00     0.005 A 
ATOM     23  C   UNL A   1      32.292  25.963  25.467  1.00  0.00     0.005 A 
ATOM     24  C   UNL A   1      30.445  23.960  25.011  1.00  0.00     0.000 A 
ATOM     25  C   UNL A   1      31.677  25.322  26.548  1.00  0.00     0.000 A 
ATOM     26  C   UNL A   1      30.753  24.316  26.320  1.00  0.00     0.000 A 
ENDBRANCH   9  21
ENDBRANCH   7   9
ENDBRANCH   6   7
ENDBRANCH   5   6
ENDBRANCH   4   5
ENDBRANCH   3   4
ENDBRANCH   2   3
ENDBRANCH   1   2
BRANCH   1  27
ATOM     27  O   UNL A   1      37.232  22.302  24.692  1.00  0.00    -0.377 OA
BRANCH  27  28
ATOM     28  C   UNL A   1      37.370  20.897  24.896  1.00  0.00     0.188 C 
BRANCH  28  29
ATOM     29  C   UNL A   1      38.648  20.296  25.531  1.00  0.00     0.188 C 
BRANCH  29  30
ATOM     30  O   UNL A   1      39.560  21.243  26.055  1.00  0.00    -0.376 OA
BRANCH  30  31
ATOM     31  C   UNL A   1      40.632  20.824  26.875  1.00  0.00     0.202 C 
BRANCH  31  32
ATOM     32  C   UNL A   1      41.236  21.804  27.890  1.00  0.00     0.261 C 
BRANCH  32  33
ATOM     33  O   UNL A   1      41.984  22.910  27.372  1.00  0.00    -0.460 OA
BRANCH  33  34
ATOM     34  C   UNL A   1      41.617  24.164  27.721  1.00  0.00     0.338 C 
ATOM     35  O   UNL A   1      40.618  24.507  28.306  1.00  0.00    -0.246 OA
BRANCH  34  36
ATOM     36  C   UNL A   1      42.788  25.030  27.438  1.00  0.00     0.060 A 
ATOM     37  C   UNL A   1      43.538  25.559  28.500  1.00  0.00     0.016 A 
ATOM     38  C   UNL A   1      43.165  25.267  26.116  1.00  0.00     0.016 A 
ATOM     39  C   UNL A   1      44.651  26.360  28.240  1.00  0.00     0.010 A 
ATOM     40  C   UNL A   1      44.251  26.100  25.857  1.00  0.00     0.010 A 
ATOM     41  C   UNL A   1      44.969  26.682  26.917  1.00  0.00    -0.014 A 
BRANCH  41  42
ATOM     42  C   UNL A   1      45.828  27.849  26.620  1.00  0.00     0.031 A 
ATOM     43  C   UNL A   1      47.283  27.574  26.361  1.00  0.00     0.074 A 
ATOM     44  C   UNL A   1      45.358  29.107  26.625  1.00  0.00     0.049 A 
ATOM     45  N   UNL A   1      48.285  28.406  26.266  1.00  0.00    -0.248 NA
ATOM     46  C   UNL A   1      47.658  26.156  26.205  1.00  0.00     0.031 C 
ATOM     47  C   UNL A   1      43.960  29.494  26.790  1.00  0.00     0.029 A 
ATOM     48  N   UNL A   1      46.032  30.297  26.511  1.00  0.00    -0.354 N 
ATOM     49  C   UNL A   1      49.408  27.613  26.067  1.00  0.00     0.074 A 
ATOM     50  C   UNL A   1      48.972  26.237  26.074  1.00  0.00     0.031 C 
ATOM     51  C   UNL A   1      43.881  30.838  26.792  1.00  0.00     0.029 A 
ATOM     52  C   UNL A   1      45.229  31.398  26.681  1.00  0.00     0.049 A 
ATOM     53  H   UNL A   1      46.997  30.356  26.324  1.00  0.00     0.167 HD
ATOM     54  C   UNL A   1      50.693  27.999  25.900  1.00  0.00     0.031 A 
ATOM     55  C   UNL A   1      45.556  32.701  26.778  1.00  0.00     0.031 A 
ATOM     56  C   UNL A   1      51.123  29.369  25.921  1.00  0.00     0.049 A 
ATOM     57  C   UNL A   1      47.009  33.103  26.693  1.00  0.00     0.074 A 
ATOM     58  C   UNL A   1      52.401  29.872  25.764  1.00  0.00     0.029 A 
ATOM     59  N   UNL A   1      50.281  30.451  26.120  1.00  0.00    -0.354 N 
ATOM     60  N   UNL A   1      48.068  32.352  26.504  1.00  0.00    -0.248 NA
ATOM     61  C   UNL A   1      47.310  34.536  26.833  1.00  0.00     0.031 C 
ATOM     62  C   UNL A   1      52.341  31.259  25.930  1.00  0.00     0.029 A 
ATOM     63  C   UNL A   1      51.015  31.623  26.112  1.00  0.00     0.049 A 
ATOM     64  H   UNL A   1      49.306  30.395  26.247  1.00  0.00     0.167 HD
ATOM     65  C   UNL A   1      49.151  33.223  26.456  1.00  0.00     0.074 A 
ATOM     66  C   UNL A   1      48.621  34.558  26.637  1.00  0.00     0.031 C 
ATOM     67  C   UNL A   1      50.464  32.944  26.271  1.00  0.00     0.031 A 
BRANCH  54  68
ATOM     68  C   UNL A   1      51.722  26.917  25.739  1.00  0.00    -0.014 A 
ATOM     69  C   UNL A   1      52.267  26.250  26.848  1.00  0.00     0.009 A 
ATOM     70  C   UNL A   1      52.145  26.550  24.451  1.00  0.00     0.009 A 
ATOM     71  C   UNL A   1      53.242  25.265  26.671  1.00  0.00     0.001 A 
ATOM     72  C   UNL A   1      53.094  25.542  24.276  1.00  0.00     0.001 A 
ATOM     73  C   UNL A   1      53.649  24.908  25.386  1.00  0.00     0.000 A 
ENDBRANCH  54  68
BRANCH  55  74
ATOM     74  C   UNL A   1      44.502  33.725  27.000  1.00  0.00    -0.014 A 
ATOM     75  C   UNL A   1      44.033  33.999  28.295  1.00  0.00     0.009 A 
ATOM     76  C   UNL A   1      43.934  34.417  25.918  1.00  0.00     0.009 A 
ATOM     77  C   UNL A   1      43.003  34.920  28.498  1.00  0.00     0.001 A 
ATOM     78  C   UNL A   1      42.926  35.362  26.127  1.00  0.00     0.001 A 
ATOM     79  C   UNL A   1      42.454  35.604  27.414  1.00  0.00     0.000 A 
ENDBRANCH  55  74
BRANCH  67  80
ATOM     80  C   UNL A   1      51.421  34.100  26.175  1.00  0.00    -0.014 A 
ATOM     81  C   UNL A   1      51.743  34.694  24.946  1.00  0.00     0.009 A 
ATOM     82  C   UNL A   1      51.941  34.656  27.357  1.00  0.00     0.009 A 
ATOM     83  C   UNL A   1      52.582  35.811  24.903  1.00  0.00     0.001 A 
ATOM     84  C   UNL A   1      52.752  35.789  27.312  1.00  0.00     0.001 A 
ATOM     85  C   UNL A   1      53.078  36.362  26.084  1.00  0.00     0.000 A 
ENDBRANCH  67  80
ENDBRANCH  41  42
ENDBRANCH  34  36
ENDBRANCH  33  34
ENDBRANCH  32  33
ENDBRANCH  31  32
ENDBRANCH  30  31
ENDBRANCH  29  30
ENDBRANCH  28  29
ENDBRANCH  27  28
ENDBRANCH   1  27
TORSDOF 25
ENDMDL
