MODEL 1
REMARK VINA RESULT:      -9.4      0.000      0.000
REMARK SMILES CN(Cc1ccncc1)C(=O)c1cccn1CC(=O)OCCOCCOCCOCCOC(=O)c1ccc(-c2c3nc(c(-c4ccccc4)c4ccc([nH]4)c(-c4ccccc4)c4nc(c(-c5ccccc5)c5ccc2[nH]5)C=C4)C=C3)cc1
REMARK SMILES IDX 24 1 23 2 22 3 21 4 20 5 18 6 19 7 17 8 16 9 12 10 13 11
REMARK SMILES IDX 14 12 15 13 10 14 11 15 2 16 1 17 3 18 4 19 5 20 9 21 6 22
REMARK SMILES IDX 8 23 7 24 25 25 26 26 27 27 28 28 29 29 30 30 31 31 32 32
REMARK SMILES IDX 33 33 34 34 35 35 36 36 82 37 37 38 81 39 38 40 39 41 40 42
REMARK SMILES IDX 75 43 41 44 80 45 74 46 76 47 42 48 79 49 73 50 72 51 43 53
REMARK SMILES IDX 65 54 50 55 64 56 51 57 54 58 63 59 77 60 52 61 53 62 62 64
REMARK SMILES IDX 78 65 55 66 44 67 45 68 49 69 46 70 48 71 47 72 66 73 67 74
REMARK SMILES IDX 71 75 68 76 70 77 69 78 56 79 57 80 61 81 58 82 60 83 59 84
REMARK H PARENT 76 52 54 63
REMARK Flexibility Score: inf
ROOT
ATOM      1  C   UNL A   1      38.525  22.934  26.153  1.00  0.00     0.188 C 
ENDROOT
BRANCH   1   2
ATOM      2  O   UNL A   1      38.315  21.725  25.435  1.00  0.00    -0.376 OA
BRANCH   2   3
ATOM      3  C   UNL A   1      37.278  21.667  24.475  1.00  0.00     0.202 C 
BRANCH   3   4
ATOM      4  C   UNL A   1      36.790  22.991  23.859  1.00  0.00     0.261 C 
BRANCH   4   5
ATOM      5  O   UNL A   1      35.435  23.000  23.357  1.00  0.00    -0.462 OA
BRANCH   5   6
ATOM      6  C   UNL A   1      34.626  23.967  23.858  1.00  0.00     0.326 C 
ATOM      7  O   UNL A   1      34.302  24.970  23.226  1.00  0.00    -0.250 OA
BRANCH   6   8
ATOM      8  C   UNL A   1      34.116  23.744  25.263  1.00  0.00     0.244 C 
BRANCH   8   9
ATOM      9  N   UNL A   1      32.679  23.557  25.508  1.00  0.00    -0.332 N 
ATOM     10  C   UNL A   1      31.861  22.574  24.961  1.00  0.00     0.107 A 
ATOM     11  C   UNL A   1      30.721  22.538  25.756  1.00  0.00     0.033 A 
ATOM     12  C   UNL A   1      30.784  23.570  26.711  1.00  0.00     0.020 A 
ATOM     13  C   UNL A   1      32.018  24.151  26.570  1.00  0.00     0.087 A 
BRANCH  10  14
ATOM     14  C   UNL A   1      32.246  21.643  23.910  1.00  0.00     0.270 C 
ATOM     15  O   UNL A   1      32.172  21.974  22.727  1.00  0.00    -0.267 OA
BRANCH  14  16
ATOM     16  N   UNL A   1      32.711  20.363  24.248  1.00  0.00    -0.336 N 
ATOM     17  C   UNL A   1      33.830  20.318  25.174  1.00  0.00     0.147 C 
BRANCH  16  18
ATOM     18  C   UNL A   1      32.397  19.134  23.516  1.00  0.00     0.155 C 
BRANCH  18  19
ATOM     19  C   UNL A   1      32.947  17.870  24.136  1.00  0.00    -0.026 A 
ATOM     20  C   UNL A   1      34.026  17.215  23.525  1.00  0.00     0.025 A 
ATOM     21  C   UNL A   1      32.400  17.299  25.289  1.00  0.00     0.025 A 
ATOM     22  C   UNL A   1      34.451  16.001  24.039  1.00  0.00     0.111 A 
ATOM     23  C   UNL A   1      32.902  16.083  25.732  1.00  0.00     0.111 A 
ATOM     24  N   UNL A   1      33.910  15.418  25.128  1.00  0.00    -0.265 NA
ENDBRANCH  18  19
ENDBRANCH  16  18
ENDBRANCH  14  16
ENDBRANCH  10  14
ENDBRANCH   8   9
ENDBRANCH   6   8
ENDBRANCH   5   6
ENDBRANCH   4   5
ENDBRANCH   3   4
ENDBRANCH   2   3
ENDBRANCH   1   2
BRANCH   1  25
ATOM     25  C   UNL A   1      39.826  23.175  26.966  1.00  0.00     0.188 C 
BRANCH  25  26
ATOM     26  O   UNL A   1      40.351  22.037  27.637  1.00  0.00    -0.377 OA
BRANCH  26  27
ATOM     27  C   UNL A   1      41.764  21.900  27.603  1.00  0.00     0.188 C 
BRANCH  27  28
ATOM     28  C   UNL A   1      42.357  21.477  26.249  1.00  0.00     0.188 C 
BRANCH  28  29
ATOM     29  O   UNL A   1      43.479  22.254  25.845  1.00  0.00    -0.376 OA
BRANCH  29  30
ATOM     30  C   UNL A   1      43.406  23.086  24.701  1.00  0.00     0.202 C 
BRANCH  30  31
ATOM     31  C   UNL A   1      43.488  24.587  25.000  1.00  0.00     0.261 C 
BRANCH  31  32
ATOM     32  O   UNL A   1      43.326  24.939  26.369  1.00  0.00    -0.460 OA
BRANCH  32  33
ATOM     33  C   UNL A   1      44.450  25.410  26.941  1.00  0.00     0.338 C 
ATOM     34  O   UNL A   1      45.602  25.066  26.768  1.00  0.00    -0.246 OA
BRANCH  33  35
ATOM     35  C   UNL A   1      44.106  26.355  27.982  1.00  0.00     0.060 A 
ATOM     36  C   UNL A   1      43.285  25.870  29.002  1.00  0.00     0.016 A 
ATOM     37  C   UNL A   1      44.202  27.705  27.633  1.00  0.00     0.016 A 
ATOM     38  C   UNL A   1      42.399  26.745  29.573  1.00  0.00     0.010 A 
ATOM     39  C   UNL A   1      43.279  28.566  28.167  1.00  0.00     0.010 A 
ATOM     40  C   UNL A   1      42.363  28.063  29.099  1.00  0.00    -0.014 A 
BRANCH  40  41
ATOM     41  C   UNL A   1      41.422  28.972  29.739  1.00  0.00     0.031 A 
ATOM     42  C   UNL A   1      41.963  29.389  31.100  1.00  0.00     0.074 A 
ATOM     43  C   UNL A   1      40.256  29.196  29.064  1.00  0.00     0.049 A 
ATOM     44  N   UNL A   1      41.310  29.745  32.158  1.00  0.00    -0.248 NA
ATOM     45  C   UNL A   1      43.431  29.329  31.368  1.00  0.00     0.031 C 
ATOM     46  C   UNL A   1      39.942  28.682  27.708  1.00  0.00     0.029 A 
ATOM     47  N   UNL A   1      39.100  29.879  29.368  1.00  0.00    -0.354 N 
ATOM     48  C   UNL A   1      42.257  30.126  33.124  1.00  0.00     0.074 A 
ATOM     49  C   UNL A   1      43.539  29.734  32.632  1.00  0.00     0.031 C 
ATOM     50  C   UNL A   1      38.676  28.998  27.352  1.00  0.00     0.029 A 
ATOM     51  C   UNL A   1      38.054  29.760  28.417  1.00  0.00     0.049 A 
ATOM     52  H   UNL A   1      39.006  30.414  30.188  1.00  0.00     0.167 HD
ATOM     53  C   UNL A   1      41.935  30.901  34.194  1.00  0.00     0.031 A 
ATOM     54  C   UNL A   1      36.767  30.212  28.505  1.00  0.00     0.031 A 
ATOM     55  C   UNL A   1      40.526  31.111  34.243  1.00  0.00     0.049 A 
ATOM     56  C   UNL A   1      36.711  31.025  29.726  1.00  0.00     0.074 A 
ATOM     57  C   UNL A   1      39.478  30.258  34.469  1.00  0.00     0.029 A 
ATOM     58  N   UNL A   1      40.065  32.234  33.596  1.00  0.00    -0.354 N 
ATOM     59  N   UNL A   1      37.228  32.208  29.853  1.00  0.00    -0.248 NA
ATOM     60  C   UNL A   1      36.071  30.467  30.924  1.00  0.00     0.031 C 
ATOM     61  C   UNL A   1      38.520  30.665  33.516  1.00  0.00     0.029 A 
ATOM     62  C   UNL A   1      38.927  31.868  32.927  1.00  0.00     0.049 A 
ATOM     63  H   UNL A   1      40.476  33.129  33.611  1.00  0.00     0.167 HD
ATOM     64  C   UNL A   1      37.340  32.323  31.214  1.00  0.00     0.074 A 
ATOM     65  C   UNL A   1      36.339  31.446  31.785  1.00  0.00     0.031 C 
ATOM     66  C   UNL A   1      38.554  32.619  31.752  1.00  0.00     0.031 A 
BRANCH  53  67
ATOM     67  C   UNL A   1      42.812  31.760  35.049  1.00  0.00    -0.014 A 
ATOM     68  C   UNL A   1      42.243  32.282  36.231  1.00  0.00     0.009 A 
ATOM     69  C   UNL A   1      44.003  32.338  34.593  1.00  0.00     0.009 A 
ATOM     70  C   UNL A   1      42.768  33.412  36.858  1.00  0.00     0.001 A 
ATOM     71  C   UNL A   1      44.553  33.447  35.245  1.00  0.00     0.001 A 
ATOM     72  C   UNL A   1      43.916  34.005  36.351  1.00  0.00     0.000 A 
ENDBRANCH  53  67
BRANCH  54  73
ATOM     73  C   UNL A   1      35.455  30.073  27.776  1.00  0.00    -0.014 A 
ATOM     74  C   UNL A   1      34.925  28.898  27.241  1.00  0.00     0.009 A 
ATOM     75  C   UNL A   1      34.614  31.220  27.689  1.00  0.00     0.009 A 
ATOM     76  C   UNL A   1      33.604  28.864  26.738  1.00  0.00     0.001 A 
ATOM     77  C   UNL A   1      33.292  31.181  27.242  1.00  0.00     0.001 A 
ATOM     78  C   UNL A   1      32.780  29.989  26.774  1.00  0.00     0.000 A 
ENDBRANCH  54  73
BRANCH  66  79
ATOM     79  C   UNL A   1      39.519  33.335  30.812  1.00  0.00    -0.014 A 
ATOM     80  C   UNL A   1      40.807  32.817  30.595  1.00  0.00     0.009 A 
ATOM     81  C   UNL A   1      39.236  34.587  30.240  1.00  0.00     0.009 A 
ATOM     82  C   UNL A   1      41.775  33.532  29.876  1.00  0.00     0.001 A 
ATOM     83  C   UNL A   1      40.202  35.309  29.519  1.00  0.00     0.001 A 
ATOM     84  C   UNL A   1      41.477  34.781  29.342  1.00  0.00     0.000 A 
ENDBRANCH  66  79
ENDBRANCH  40  41
ENDBRANCH  33  35
ENDBRANCH  32  33
ENDBRANCH  31  32
ENDBRANCH  30  31
ENDBRANCH  29  30
ENDBRANCH  28  29
ENDBRANCH  27  28
ENDBRANCH  26  27
ENDBRANCH  25  26
ENDBRANCH   1  25
TORSDOF 25
ENDMDL
MODEL 2
REMARK VINA RESULT:      -9.1      2.986      5.706
REMARK SMILES CN(Cc1ccncc1)C(=O)c1cccn1CC(=O)OCCOCCOCCOCCOC(=O)c1ccc(-c2c3nc(c(-c4ccccc4)c4ccc([nH]4)c(-c4ccccc4)c4nc(c(-c5ccccc5)c5ccc2[nH]5)C=C4)C=C3)cc1
REMARK SMILES IDX 24 1 23 2 22 3 21 4 20 5 18 6 19 7 17 8 16 9 12 10 13 11
REMARK SMILES IDX 14 12 15 13 10 14 11 15 2 16 1 17 3 18 4 19 5 20 9 21 6 22
REMARK SMILES IDX 8 23 7 24 25 25 26 26 27 27 28 28 29 29 30 30 31 31 32 32
REMARK SMILES IDX 33 33 34 34 35 35 36 36 82 37 37 38 81 39 38 40 39 41 40 42
REMARK SMILES IDX 75 43 41 44 80 45 74 46 76 47 42 48 79 49 73 50 72 51 43 53
REMARK SMILES IDX 65 54 50 55 64 56 51 57 54 58 63 59 77 60 52 61 53 62 62 64
REMARK SMILES IDX 78 65 55 66 44 67 45 68 49 69 46 70 48 71 47 72 66 73 67 74
REMARK SMILES IDX 71 75 68 76 70 77 69 78 56 79 57 80 61 81 58 82 60 83 59 84
REMARK H PARENT 76 52 54 63
REMARK Flexibility Score: inf
ROOT
ATOM      1  C   UNL A   1      39.610  22.094  26.626  1.00  0.00     0.188 C 
ENDROOT
BRANCH   1   2
ATOM      2  O   UNL A   1      38.932  21.209  25.743  1.00  0.00    -0.376 OA
BRANCH   2   3
ATOM      3  C   UNL A   1      37.734  21.638  25.127  1.00  0.00     0.202 C 
BRANCH   3   4
ATOM      4  C   UNL A   1      37.189  23.030  25.497  1.00  0.00     0.261 C 
BRANCH   4   5
ATOM      5  O   UNL A   1      36.137  23.548  24.653  1.00  0.00    -0.462 OA
BRANCH   5   6
ATOM      6  C   UNL A   1      35.087  24.114  25.300  1.00  0.00     0.326 C 
ATOM      7  O   UNL A   1      35.017  25.315  25.551  1.00  0.00    -0.250 OA
BRANCH   6   8
ATOM      8  C   UNL A   1      33.969  23.178  25.696  1.00  0.00     0.244 C 
BRANCH   8   9
ATOM      9  N   UNL A   1      32.814  22.985  24.806  1.00  0.00    -0.332 N 
ATOM     10  C   UNL A   1      31.665  23.767  24.751  1.00  0.00     0.107 A 
ATOM     11  C   UNL A   1      31.056  23.467  23.537  1.00  0.00     0.033 A 
ATOM     12  C   UNL A   1      31.760  22.425  22.906  1.00  0.00     0.020 A 
ATOM     13  C   UNL A   1      32.864  22.179  23.681  1.00  0.00     0.087 A 
BRANCH  10  14
ATOM     14  C   UNL A   1      31.319  24.829  25.684  1.00  0.00     0.270 C 
ATOM     15  O   UNL A   1      30.552  24.610  26.621  1.00  0.00    -0.267 OA
BRANCH  14  16
ATOM     16  N   UNL A   1      31.871  26.108  25.519  1.00  0.00    -0.336 N 
ATOM     17  C   UNL A   1      32.012  26.900  26.730  1.00  0.00     0.147 C 
BRANCH  16  18
ATOM     18  C   UNL A   1      31.995  26.812  24.240  1.00  0.00     0.155 C 
BRANCH  18  19
ATOM     19  C   UNL A   1      30.856  27.751  23.921  1.00  0.00    -0.026 A 
ATOM     20  C   UNL A   1      29.645  27.229  23.444  1.00  0.00     0.025 A 
ATOM     21  C   UNL A   1      30.966  29.139  24.050  1.00  0.00     0.025 A 
ATOM     22  C   UNL A   1      28.645  28.105  23.053  1.00  0.00     0.111 A 
ATOM     23  C   UNL A   1      29.905  29.933  23.639  1.00  0.00     0.111 A 
ATOM     24  N   UNL A   1      28.750  29.446  23.136  1.00  0.00    -0.265 NA
ENDBRANCH  18  19
ENDBRANCH  16  18
ENDBRANCH  14  16
ENDBRANCH  10  14
ENDBRANCH   8   9
ENDBRANCH   6   8
ENDBRANCH   5   6
ENDBRANCH   4   5
ENDBRANCH   3   4
ENDBRANCH   2   3
ENDBRANCH   1   2
BRANCH   1  25
ATOM     25  C   UNL A   1      40.729  21.587  27.576  1.00  0.00     0.188 C 
BRANCH  25  26
ATOM     26  O   UNL A   1      40.818  20.176  27.722  1.00  0.00    -0.377 OA
BRANCH  26  27
ATOM     27  C   UNL A   1      42.062  19.596  27.353  1.00  0.00     0.188 C 
BRANCH  27  28
ATOM     28  C   UNL A   1      42.475  19.793  25.885  1.00  0.00     0.188 C 
BRANCH  28  29
ATOM     29  O   UNL A   1      43.784  19.322  25.588  1.00  0.00    -0.376 OA
BRANCH  29  30
ATOM     30  C   UNL A   1      44.684  20.118  24.838  1.00  0.00     0.202 C 
BRANCH  30  31
ATOM     31  C   UNL A   1      45.439  21.169  25.657  1.00  0.00     0.261 C 
BRANCH  31  32
ATOM     32  O   UNL A   1      45.700  22.392  24.977  1.00  0.00    -0.460 OA
BRANCH  32  33
ATOM     33  C   UNL A   1      44.690  22.792  24.182  1.00  0.00     0.338 C 
ATOM     34  O   UNL A   1      44.381  22.397  23.076  1.00  0.00    -0.246 OA
BRANCH  33  35
ATOM     35  C   UNL A   1      44.038  23.943  24.767  1.00  0.00     0.060 A 
ATOM     36  C   UNL A   1      44.808  25.106  24.853  1.00  0.00     0.016 A 
ATOM     37  C   UNL A   1      42.947  23.667  25.597  1.00  0.00     0.016 A 
ATOM     38  C   UNL A   1      44.586  25.936  25.919  1.00  0.00     0.010 A 
ATOM     39  C   UNL A   1      42.763  24.470  26.692  1.00  0.00     0.010 A 
ATOM     40  C   UNL A   1      43.612  25.571  26.859  1.00  0.00    -0.014 A 
BRANCH  40  41
ATOM     41  C   UNL A   1      43.389  26.484  27.972  1.00  0.00     0.031 A 
ATOM     42  C   UNL A   1      44.401  26.201  29.074  1.00  0.00     0.074 A 
ATOM     43  C   UNL A   1      42.315  27.319  27.852  1.00  0.00     0.049 A 
ATOM     44  N   UNL A   1      44.287  26.388  30.347  1.00  0.00    -0.248 NA
ATOM     45  C   UNL A   1      45.698  25.538  28.741  1.00  0.00     0.031 C 
ATOM     46  C   UNL A   1      41.454  27.435  26.649  1.00  0.00     0.029 A 
ATOM     47  N   UNL A   1      41.717  28.224  28.700  1.00  0.00    -0.354 N 
ATOM     48  C   UNL A   1      45.523  26.062  30.930  1.00  0.00     0.074 A 
ATOM     49  C   UNL A   1      46.309  25.430  29.919  1.00  0.00     0.031 C 
ATOM     50  C   UNL A   1      40.421  28.279  26.873  1.00  0.00     0.029 A 
ATOM     51  C   UNL A   1      40.518  28.809  28.219  1.00  0.00     0.049 A 
ATOM     52  H   UNL A   1      42.096  28.449  29.579  1.00  0.00     0.167 HD
ATOM     53  C   UNL A   1      45.883  26.495  32.168  1.00  0.00     0.031 A 
ATOM     54  C   UNL A   1      39.646  29.631  28.878  1.00  0.00     0.031 A 
ATOM     55  C   UNL A   1      44.789  27.162  32.793  1.00  0.00     0.049 A 
ATOM     56  C   UNL A   1      40.290  29.951  30.158  1.00  0.00     0.074 A 
ATOM     57  C   UNL A   1      43.572  26.713  33.237  1.00  0.00     0.029 A 
ATOM     58  N   UNL A   1      44.728  28.522  32.599  1.00  0.00    -0.354 N 
ATOM     59  N   UNL A   1      41.296  30.758  30.300  1.00  0.00    -0.248 NA
ATOM     60  C   UNL A   1      39.814  29.290  31.380  1.00  0.00     0.031 C 
ATOM     61  C   UNL A   1      42.684  27.727  32.820  1.00  0.00     0.029 A 
ATOM     62  C   UNL A   1      43.413  28.830  32.361  1.00  0.00     0.049 A 
ATOM     63  H   UNL A   1      45.483  29.153  32.625  1.00  0.00     0.167 HD
ATOM     64  C   UNL A   1      41.807  30.363  31.509  1.00  0.00     0.074 A 
ATOM     65  C   UNL A   1      40.712  29.761  32.242  1.00  0.00     0.031 C 
ATOM     66  C   UNL A   1      43.118  30.011  31.586  1.00  0.00     0.031 A 
BRANCH  53  67
ATOM     67  C   UNL A   1      47.245  26.648  32.768  1.00  0.00    -0.014 A 
ATOM     68  C   UNL A   1      48.066  27.671  32.243  1.00  0.00     0.009 A 
ATOM     69  C   UNL A   1      47.859  25.659  33.545  1.00  0.00     0.009 A 
ATOM     70  C   UNL A   1      49.453  27.636  32.379  1.00  0.00     0.001 A 
ATOM     71  C   UNL A   1      49.248  25.647  33.718  1.00  0.00     0.001 A 
ATOM     72  C   UNL A   1      50.045  26.610  33.104  1.00  0.00     0.000 A 
ENDBRANCH  53  67
BRANCH  54  73
ATOM     73  C   UNL A   1      38.271  30.218  28.696  1.00  0.00    -0.014 A 
ATOM     74  C   UNL A   1      37.900  31.545  28.914  1.00  0.00     0.009 A 
ATOM     75  C   UNL A   1      37.250  29.377  28.166  1.00  0.00     0.009 A 
ATOM     76  C   UNL A   1      36.620  32.011  28.537  1.00  0.00     0.001 A 
ATOM     77  C   UNL A   1      36.003  29.841  27.744  1.00  0.00     0.001 A 
ATOM     78  C   UNL A   1      35.691  31.173  27.920  1.00  0.00     0.000 A 
ENDBRANCH  54  73
BRANCH  66  79
ATOM     79  C   UNL A   1      44.011  30.608  30.503  1.00  0.00    -0.014 A 
ATOM     80  C   UNL A   1      44.592  29.777  29.530  1.00  0.00     0.009 A 
ATOM     81  C   UNL A   1      44.406  31.958  30.499  1.00  0.00     0.009 A 
ATOM     82  C   UNL A   1      45.549  30.261  28.626  1.00  0.00     0.001 A 
ATOM     83  C   UNL A   1      45.364  32.449  29.597  1.00  0.00     0.001 A 
ATOM     84  C   UNL A   1      45.940  31.596  28.661  1.00  0.00     0.000 A 
ENDBRANCH  66  79
ENDBRANCH  40  41
ENDBRANCH  33  35
ENDBRANCH  32  33
ENDBRANCH  31  32
ENDBRANCH  30  31
ENDBRANCH  29  30
ENDBRANCH  28  29
ENDBRANCH  27  28
ENDBRANCH  26  27
ENDBRANCH  25  26
ENDBRANCH   1  25
TORSDOF 25
ENDMDL
MODEL 3
REMARK VINA RESULT:      -9.1      2.932      4.838
REMARK SMILES CN(Cc1ccncc1)C(=O)c1cccn1CC(=O)OCCOCCOCCOCCOC(=O)c1ccc(-c2c3nc(c(-c4ccccc4)c4ccc([nH]4)c(-c4ccccc4)c4nc(c(-c5ccccc5)c5ccc2[nH]5)C=C4)C=C3)cc1
REMARK SMILES IDX 24 1 23 2 22 3 21 4 20 5 18 6 19 7 17 8 16 9 12 10 13 11
REMARK SMILES IDX 14 12 15 13 10 14 11 15 2 16 1 17 3 18 4 19 5 20 9 21 6 22
REMARK SMILES IDX 8 23 7 24 25 25 26 26 27 27 28 28 29 29 30 30 31 31 32 32
REMARK SMILES IDX 33 33 34 34 35 35 36 36 82 37 37 38 81 39 38 40 39 41 40 42
REMARK SMILES IDX 75 43 41 44 80 45 74 46 76 47 42 48 79 49 73 50 72 51 43 53
REMARK SMILES IDX 65 54 50 55 64 56 51 57 54 58 63 59 77 60 52 61 53 62 62 64
REMARK SMILES IDX 78 65 55 66 44 67 45 68 49 69 46 70 48 71 47 72 66 73 67 74
REMARK SMILES IDX 71 75 68 76 70 77 69 78 56 79 57 80 61 81 58 82 60 83 59 84
REMARK H PARENT 76 52 54 63
REMARK Flexibility Score: inf
ROOT
ATOM      1  C   UNL A   1      39.610  22.191  26.635  1.00  0.00     0.188 C 
ENDROOT
BRANCH   1   2
ATOM      2  O   UNL A   1      38.850  21.799  25.499  1.00  0.00    -0.376 OA
BRANCH   2   3
ATOM      3  C   UNL A   1      37.476  22.131  25.443  1.00  0.00     0.202 C 
BRANCH   3   4
ATOM      4  C   UNL A   1      36.878  22.505  24.075  1.00  0.00     0.261 C 
BRANCH   4   5
ATOM      5  O   UNL A   1      35.440  22.412  23.961  1.00  0.00    -0.462 OA
BRANCH   5   6
ATOM      6  C   UNL A   1      34.787  23.583  23.755  1.00  0.00     0.326 C 
ATOM      7  O   UNL A   1      34.331  23.918  22.664  1.00  0.00    -0.250 OA
BRANCH   6   8
ATOM      8  C   UNL A   1      34.628  24.476  24.963  1.00  0.00     0.244 C 
BRANCH   8   9
ATOM      9  N   UNL A   1      33.288  24.878  25.415  1.00  0.00    -0.332 N 
ATOM     10  C   UNL A   1      32.504  25.902  24.893  1.00  0.00     0.107 A 
ATOM     11  C   UNL A   1      31.211  25.662  25.343  1.00  0.00     0.033 A 
ATOM     12  C   UNL A   1      31.220  24.569  26.230  1.00  0.00     0.020 A 
ATOM     13  C   UNL A   1      32.498  24.074  26.220  1.00  0.00     0.087 A 
BRANCH  10  14
ATOM     14  C   UNL A   1      32.939  26.877  23.904  1.00  0.00     0.270 C 
ATOM     15  O   UNL A   1      34.064  27.373  23.970  1.00  0.00    -0.267 OA
BRANCH  14  16
ATOM     16  N   UNL A   1      32.073  27.249  22.865  1.00  0.00    -0.336 N 
ATOM     17  C   UNL A   1      31.884  26.265  21.812  1.00  0.00     0.147 C 
BRANCH  16  18
ATOM     18  C   UNL A   1      31.629  28.618  22.590  1.00  0.00     0.155 C 
BRANCH  18  19
ATOM     19  C   UNL A   1      30.134  28.826  22.669  1.00  0.00    -0.026 A 
ATOM     20  C   UNL A   1      29.345  27.902  23.369  1.00  0.00     0.025 A 
ATOM     21  C   UNL A   1      29.489  29.896  22.040  1.00  0.00     0.025 A 
ATOM     22  C   UNL A   1      27.968  28.042  23.344  1.00  0.00     0.111 A 
ATOM     23  C   UNL A   1      28.103  29.954  22.079  1.00  0.00     0.111 A 
ATOM     24  N   UNL A   1      27.328  29.046  22.711  1.00  0.00    -0.265 NA
ENDBRANCH  18  19
ENDBRANCH  16  18
ENDBRANCH  14  16
ENDBRANCH  10  14
ENDBRANCH   8   9
ENDBRANCH   6   8
ENDBRANCH   5   6
ENDBRANCH   4   5
ENDBRANCH   3   4
ENDBRANCH   2   3
ENDBRANCH   1   2
BRANCH   1  25
ATOM     25  C   UNL A   1      40.788  21.325  27.156  1.00  0.00     0.188 C 
BRANCH  25  26
ATOM     26  O   UNL A   1      41.037  20.126  26.434  1.00  0.00    -0.377 OA
BRANCH  26  27
ATOM     27  C   UNL A   1      42.403  19.766  26.291  1.00  0.00     0.188 C 
BRANCH  27  28
ATOM     28  C   UNL A   1      43.276  20.770  25.520  1.00  0.00     0.188 C 
BRANCH  28  29
ATOM     29  O   UNL A   1      44.659  20.436  25.504  1.00  0.00    -0.376 OA
BRANCH  29  30
ATOM     30  C   UNL A   1      45.645  21.448  25.402  1.00  0.00     0.202 C 
BRANCH  30  31
ATOM     31  C   UNL A   1      45.569  22.522  26.492  1.00  0.00     0.261 C 
BRANCH  31  32
ATOM     32  O   UNL A   1      45.605  23.864  26.020  1.00  0.00    -0.460 OA
BRANCH  32  33
ATOM     33  C   UNL A   1      44.708  24.119  25.050  1.00  0.00     0.338 C 
ATOM     34  O   UNL A   1      44.683  23.720  23.903  1.00  0.00    -0.246 OA
BRANCH  33  35
ATOM     35  C   UNL A   1      43.768  25.120  25.507  1.00  0.00     0.060 A 
ATOM     36  C   UNL A   1      44.269  26.417  25.635  1.00  0.00     0.016 A 
ATOM     37  C   UNL A   1      42.663  24.638  26.215  1.00  0.00     0.016 A 
ATOM     38  C   UNL A   1      43.754  27.201  26.633  1.00  0.00     0.010 A 
ATOM     39  C   UNL A   1      42.187  25.403  27.247  1.00  0.00     0.010 A 
ATOM     40  C   UNL A   1      42.768  26.657  27.467  1.00  0.00    -0.014 A 
BRANCH  40  41
ATOM     41  C   UNL A   1      42.229  27.523  28.508  1.00  0.00     0.031 A 
ATOM     42  C   UNL A   1      43.026  27.333  29.791  1.00  0.00     0.074 A 
ATOM     43  C   UNL A   1      41.115  28.238  28.171  1.00  0.00     0.049 A 
ATOM     44  N   UNL A   1      42.641  27.486  31.015  1.00  0.00    -0.248 NA
ATOM     45  C   UNL A   1      44.428  26.820  29.727  1.00  0.00     0.031 C 
ATOM     46  C   UNL A   1      40.503  28.280  26.820  1.00  0.00     0.029 A 
ATOM     47  N   UNL A   1      40.265  29.059  28.877  1.00  0.00    -0.354 N 
ATOM     48  C   UNL A   1      43.765  27.286  31.835  1.00  0.00     0.074 A 
ATOM     49  C   UNL A   1      44.801  26.759  31.005  1.00  0.00     0.031 C 
ATOM     50  C   UNL A   1      39.361  29.004  26.828  1.00  0.00     0.029 A 
ATOM     51  C   UNL A   1      39.129  29.518  28.164  1.00  0.00     0.049 A 
ATOM     52  H   UNL A   1      40.435  29.309  29.814  1.00  0.00     0.167 HD
ATOM     53  C   UNL A   1      43.821  27.735  33.118  1.00  0.00     0.031 A 
ATOM     54  C   UNL A   1      38.059  30.230  28.631  1.00  0.00     0.031 A 
ATOM     55  C   UNL A   1      42.559  28.269  33.507  1.00  0.00     0.049 A 
ATOM     56  C   UNL A   1      38.396  30.597  30.012  1.00  0.00     0.074 A 
ATOM     57  C   UNL A   1      41.334  27.683  33.702  1.00  0.00     0.029 A 
ATOM     58  N   UNL A   1      42.388  29.617  33.298  1.00  0.00    -0.354 N 
ATOM     59  N   UNL A   1      39.259  31.506  30.347  1.00  0.00    -0.248 NA
ATOM     60  C   UNL A   1      37.762  29.869  31.118  1.00  0.00     0.031 C 
ATOM     61  C   UNL A   1      40.441  28.602  33.111  1.00  0.00     0.029 A 
ATOM     62  C   UNL A   1      41.122  29.785  32.801  1.00  0.00     0.049 A 
ATOM     63  H   UNL A   1      43.050  30.326  33.471  1.00  0.00     0.167 HD
ATOM     64  C   UNL A   1      39.560  31.149  31.636  1.00  0.00     0.074 A 
ATOM     65  C   UNL A   1      38.414  30.420  32.139  1.00  0.00     0.031 C 
ATOM     66  C   UNL A   1      40.860  30.939  31.976  1.00  0.00     0.031 A 
BRANCH  53  67
ATOM     67  C   UNL A   1      45.011  28.024  33.976  1.00  0.00    -0.014 A 
ATOM     68  C   UNL A   1      44.999  27.501  35.288  1.00  0.00     0.009 A 
ATOM     69  C   UNL A   1      45.942  29.030  33.688  1.00  0.00     0.009 A 
ATOM     70  C   UNL A   1      45.788  28.047  36.300  1.00  0.00     0.001 A 
ATOM     71  C   UNL A   1      46.764  29.550  34.694  1.00  0.00     0.001 A 
ATOM     72  C   UNL A   1      46.660  29.086  36.003  1.00  0.00     0.000 A 
ENDBRANCH  53  67
BRANCH  54  73
ATOM     73  C   UNL A   1      36.691  30.668  28.175  1.00  0.00    -0.014 A 
ATOM     74  C   UNL A   1      35.665  29.840  27.718  1.00  0.00     0.009 A 
ATOM     75  C   UNL A   1      36.356  32.048  28.296  1.00  0.00     0.009 A 
ATOM     76  C   UNL A   1      34.368  30.354  27.489  1.00  0.00     0.001 A 
ATOM     77  C   UNL A   1      35.067  32.552  28.122  1.00  0.00     0.001 A 
ATOM     78  C   UNL A   1      34.062  31.694  27.726  1.00  0.00     0.000 A 
ENDBRANCH  54  73
BRANCH  66  79
ATOM     79  C   UNL A   1      41.880  31.648  31.089  1.00  0.00    -0.014 A 
ATOM     80  C   UNL A   1      41.915  33.052  31.038  1.00  0.00     0.009 A 
ATOM     81  C   UNL A   1      42.719  30.961  30.194  1.00  0.00     0.009 A 
ATOM     82  C   UNL A   1      42.719  33.734  30.113  1.00  0.00     0.001 A 
ATOM     83  C   UNL A   1      43.526  31.638  29.265  1.00  0.00     0.001 A 
ATOM     84  C   UNL A   1      43.521  33.028  29.222  1.00  0.00     0.000 A 
ENDBRANCH  66  79
ENDBRANCH  40  41
ENDBRANCH  33  35
ENDBRANCH  32  33
ENDBRANCH  31  32
ENDBRANCH  30  31
ENDBRANCH  29  30
ENDBRANCH  28  29
ENDBRANCH  27  28
ENDBRANCH  26  27
ENDBRANCH  25  26
ENDBRANCH   1  25
TORSDOF 25
ENDMDL
