MODEL 1
REMARK VINA RESULT:     -11.9      0.000      0.000
REMARK SMILES Cc1ccccc1OCCN1C(=O)CC[C@H](C(=O)OCCOCCOCCOCCOC(=O)c2ccc(-c3c4nc(c(-c5ccccc5)c5ccc([nH]5)c(-c5ccccc5)c5nc(c(-c6ccccc6)c6ccc3[nH]6)C=C5)C=C4)cc2)[C@@H]1c1ccco1
REMARK SMILES IDX 24 1 23 2 22 3 21 4 20 5 19 6 17 7 18 8 16 9 11 10 12 11
REMARK SMILES IDX 82 12 13 13 14 14 15 15 10 16 9 17 8 18 7 19 1 20 2 21 3 22
REMARK SMILES IDX 4 23 6 24 5 25 83 26 84 27 87 28 85 29 86 30 25 31 26 32
REMARK SMILES IDX 27 33 28 34 29 35 30 36 31 37 32 38 33 39 34 40 35 41 81 42
REMARK SMILES IDX 36 43 80 44 37 45 38 46 39 47 74 48 40 49 79 50 73 51 75 52
REMARK SMILES IDX 41 53 78 54 72 55 71 56 42 58 64 59 49 60 63 61 50 62 53 63
REMARK SMILES IDX 62 64 76 65 51 66 52 67 61 69 77 70 54 71 43 72 44 73 48 74
REMARK SMILES IDX 45 75 47 76 46 77 65 78 66 79 70 80 67 81 69 82 68 83 55 84
REMARK SMILES IDX 56 85 60 86 57 87 59 88 58 89
REMARK H PARENT 75 57 53 68
REMARK Flexibility Score: inf
ROOT
ATOM      1  C   UNL A   1      34.681  32.884  30.423  1.00  0.00     0.188 C 
ENDROOT
BRANCH   1   2
ATOM      2  C   UNL A   1      35.319  32.823  28.774  1.00  0.00     0.188 C 
BRANCH   2   3
ATOM      3  O   UNL A   1      34.887  32.060  27.620  1.00  0.00    -0.376 OA
BRANCH   3   4
ATOM      4  C   UNL A   1      34.660  30.641  27.391  1.00  0.00     0.202 C 
BRANCH   4   5
ATOM      5  C   UNL A   1      33.764  30.184  26.303  1.00  0.00     0.261 C 
BRANCH   5   6
ATOM      6  O   UNL A   1      33.425  28.848  26.383  1.00  0.00    -0.463 OA
BRANCH   6   7
ATOM      7  C   UNL A   1      32.099  28.654  26.393  1.00  0.00     0.311 C 
ATOM      8  O   UNL A   1      31.344  29.310  27.104  1.00  0.00    -0.252 OA
BRANCH   7   9
ATOM      9  C   UNL A   1      31.689  27.399  25.684  1.00  0.00     0.130 C 
ATOM     10  N   UNL A   1      31.611  26.467  23.488  1.00  0.00    -0.328 N 
ATOM     11  C   UNL A   1      30.800  25.387  23.764  1.00  0.00     0.223 C 
ATOM     12  C   UNL A   1      31.571  27.710  24.229  1.00  0.00     0.166 C 
ATOM     13  O   UNL A   1      30.539  24.510  22.943  1.00  0.00    -0.275 OA
ATOM     14  C   UNL A   1      30.255  25.285  25.154  1.00  0.00     0.101 C 
ATOM     15  C   UNL A   1      30.840  26.247  26.162  1.00  0.00     0.028 C 
BRANCH  10  16
ATOM     16  C   UNL A   1      32.488  26.419  22.351  1.00  0.00     0.162 C 
BRANCH  16  17
ATOM     17  C   UNL A   1      33.909  25.972  22.724  1.00  0.00     0.251 C 
BRANCH  17  18
ATOM     18  O   UNL A   1      34.119  24.562  22.823  1.00  0.00    -0.491 OA
BRANCH  18  19
ATOM     19  C   UNL A   1      33.823  23.829  23.939  1.00  0.00     0.122 A 
ATOM     20  C   UNL A   1      32.698  21.769  22.877  1.00  0.00     0.048 C 
ATOM     21  C   UNL A   1      33.220  22.566  24.040  1.00  0.00    -0.009 A 
ATOM     22  C   UNL A   1      33.037  22.007  25.333  1.00  0.00     0.007 A 
ATOM     23  C   UNL A   1      33.405  22.689  26.495  1.00  0.00     0.001 A 
ATOM     24  C   UNL A   1      34.139  24.521  25.126  1.00  0.00     0.047 A 
ATOM     25  C   UNL A   1      33.940  23.961  26.391  1.00  0.00     0.004 A 
ENDBRANCH  18  19
ENDBRANCH  17  18
ENDBRANCH  16  17
ENDBRANCH  10  16
BRANCH  12  26
ATOM     26  C   UNL A   1      30.412  28.545  23.743  1.00  0.00     0.127 A 
ATOM     27  C   UNL A   1      29.155  28.217  23.261  1.00  0.00     0.048 A 
ATOM     28  O   UNL A   1      30.490  29.901  23.883  1.00  0.00    -0.467 OA
ATOM     29  C   UNL A   1      28.440  29.421  23.099  1.00  0.00     0.042 A 
ATOM     30  C   UNL A   1      29.284  30.413  23.527  1.00  0.00     0.195 A 
ENDBRANCH  12  26
ENDBRANCH   7   9
ENDBRANCH   6   7
ENDBRANCH   5   6
ENDBRANCH   4   5
ENDBRANCH   3   4
ENDBRANCH   2   3
ENDBRANCH   1   2
BRANCH   1  31
ATOM     31  O   UNL A   1      35.116  31.933  31.952  1.00  0.00    -0.377 OA
BRANCH  31  32
ATOM     32  C   UNL A   1      36.271  32.543  33.503  1.00  0.00     0.188 C 
BRANCH  32  33
ATOM     33  C   UNL A   1      37.607  33.793  33.049  1.00  0.00     0.188 C 
BRANCH  33  34
ATOM     34  O   UNL A   1      37.421  34.780  32.043  1.00  0.00    -0.376 OA
BRANCH  34  35
ATOM     35  C   UNL A   1      38.067  34.299  30.894  1.00  0.00     0.202 C 
BRANCH  35  36
ATOM     36  C   UNL A   1      39.218  33.237  31.205  1.00  0.00     0.261 C 
BRANCH  36  37
ATOM     37  O   UNL A   1      39.343  31.686  30.493  1.00  0.00    -0.460 OA
BRANCH  37  38
ATOM     38  C   UNL A   1      38.608  30.623  29.777  1.00  0.00     0.338 C 
ATOM     39  O   UNL A   1      37.378  30.680  29.870  1.00  0.00    -0.246 OA
BRANCH  38  40
ATOM     40  C   UNL A   1      39.155  29.266  28.924  1.00  0.00     0.060 A 
ATOM     41  C   UNL A   1      38.855  27.937  29.348  1.00  0.00     0.016 A 
ATOM     42  C   UNL A   1      40.155  29.260  27.941  1.00  0.00     0.016 A 
ATOM     43  C   UNL A   1      39.747  26.768  29.100  1.00  0.00     0.010 A 
ATOM     44  C   UNL A   1      41.140  28.165  27.875  1.00  0.00     0.010 A 
ATOM     45  C   UNL A   1      41.063  26.957  28.626  1.00  0.00    -0.014 A 
BRANCH  45  46
ATOM     46  C   UNL A   1      42.502  26.217  29.176  1.00  0.00     0.031 A 
ATOM     47  C   UNL A   1      43.151  27.149  30.424  1.00  0.00     0.074 A 
ATOM     48  C   UNL A   1      42.991  24.917  28.663  1.00  0.00     0.049 A 
ATOM     49  N   UNL A   1      44.136  26.843  31.224  1.00  0.00    -0.248 NA
ATOM     50  C   UNL A   1      42.872  28.573  30.655  1.00  0.00     0.031 C 
ATOM     51  C   UNL A   1      43.756  23.426  28.933  1.00  0.00     0.029 A 
ATOM     52  N   UNL A   1      42.677  24.370  27.486  1.00  0.00    -0.354 N 
ATOM     53  C   UNL A   1      44.933  27.922  31.522  1.00  0.00     0.074 A 
ATOM     54  C   UNL A   1      43.938  28.982  31.387  1.00  0.00     0.031 C 
ATOM     55  C   UNL A   1      43.805  22.465  27.977  1.00  0.00     0.029 A 
ATOM     56  C   UNL A   1      43.161  23.177  26.973  1.00  0.00     0.049 A 
ATOM     57  H   UNL A   1      42.038  24.864  26.924  1.00  0.00     0.167 HD
ATOM     58  C   UNL A   1      46.339  27.993  31.466  1.00  0.00     0.031 A 
ATOM     59  C   UNL A   1      42.661  22.822  25.824  1.00  0.00     0.031 A 
ATOM     60  C   UNL A   1      47.225  27.048  30.573  1.00  0.00     0.049 A 
ATOM     61  C   UNL A   1      44.329  23.729  25.669  1.00  0.00     0.074 A 
ATOM     62  C   UNL A   1      48.133  26.017  30.858  1.00  0.00     0.029 A 
ATOM     63  N   UNL A   1      47.237  27.061  29.135  1.00  0.00    -0.354 N 
ATOM     64  N   UNL A   1      45.152  24.403  26.575  1.00  0.00    -0.248 NA
ATOM     65  C   UNL A   1      45.149  23.681  24.440  1.00  0.00     0.031 C 
ATOM     66  C   UNL A   1      48.586  25.376  29.625  1.00  0.00     0.029 A 
ATOM     67  C   UNL A   1      47.830  25.878  28.530  1.00  0.00     0.049 A 
ATOM     68  H   UNL A   1      46.875  27.808  28.604  1.00  0.00     0.167 HD
ATOM     69  C   UNL A   1      46.487  24.772  26.182  1.00  0.00     0.074 A 
ATOM     70  C   UNL A   1      46.335  24.286  24.766  1.00  0.00     0.031 C 
ATOM     71  C   UNL A   1      47.621  25.430  26.924  1.00  0.00     0.031 A 
BRANCH  58  72
ATOM     72  C   UNL A   1      47.022  28.716  32.675  1.00  0.00    -0.014 A 
ATOM     73  C   UNL A   1      46.337  28.882  33.905  1.00  0.00     0.009 A 
ATOM     74  C   UNL A   1      48.299  29.302  32.650  1.00  0.00     0.009 A 
ATOM     75  C   UNL A   1      46.866  29.574  35.010  1.00  0.00     0.001 A 
ATOM     76  C   UNL A   1      48.844  29.994  33.755  1.00  0.00     0.001 A 
ATOM     77  C   UNL A   1      48.127  30.134  34.935  1.00  0.00     0.000 A 
ENDBRANCH  58  72
BRANCH  59  78
ATOM     78  C   UNL A   1      40.979  22.754  26.705  1.00  0.00    -0.014 A 
ATOM     79  C   UNL A   1      39.934  24.152  26.609  1.00  0.00     0.009 A 
ATOM     80  C   UNL A   1      40.044  21.241  26.598  1.00  0.00     0.009 A 
ATOM     81  C   UNL A   1      38.208  24.161  26.126  1.00  0.00     0.001 A 
ATOM     82  C   UNL A   1      38.444  21.087  25.691  1.00  0.00     0.001 A 
ATOM     83  C   UNL A   1      37.375  22.637  25.663  1.00  0.00     0.000 A 
ENDBRANCH  59  78
BRANCH  71  84
ATOM     84  C   UNL A   1      48.901  25.931  26.217  1.00  0.00    -0.014 A 
ATOM     85  C   UNL A   1      48.985  26.942  25.274  1.00  0.00     0.009 A 
ATOM     86  C   UNL A   1      50.151  25.341  26.579  1.00  0.00     0.009 A 
ATOM     87  C   UNL A   1      50.228  27.464  24.879  1.00  0.00     0.001 A 
ATOM     88  C   UNL A   1      51.387  25.810  26.153  1.00  0.00     0.001 A 
ATOM     89  C   UNL A   1      51.424  26.914  25.334  1.00  0.00     0.000 A 
ENDBRANCH  71  84
ENDBRANCH  45  46
ENDBRANCH  38  40
ENDBRANCH  37  38
ENDBRANCH  36  37
ENDBRANCH  35  36
ENDBRANCH  34  35
ENDBRANCH  33  34
ENDBRANCH  32  33
ENDBRANCH  31  32
ENDBRANCH   1  31
TORSDOF 25
ENDMDL
MODEL 2
REMARK VINA RESULT:     -11.4      2.990      6.901
REMARK SMILES Cc1ccccc1OCCN1C(=O)CC[C@H](C(=O)OCCOCCOCCOCCOC(=O)c2ccc(-c3c4nc(c(-c5ccccc5)c5ccc([nH]5)c(-c5ccccc5)c5nc(c(-c6ccccc6)c6ccc3[nH]6)C=C5)C=C4)cc2)[C@@H]1c1ccco1
REMARK SMILES IDX 24 1 23 2 22 3 21 4 20 5 19 6 17 7 18 8 16 9 11 10 12 11
REMARK SMILES IDX 82 12 13 13 14 14 15 15 10 16 9 17 8 18 7 19 1 20 2 21 3 22
REMARK SMILES IDX 4 23 6 24 5 25 83 26 84 27 87 28 85 29 86 30 25 31 26 32
REMARK SMILES IDX 27 33 28 34 29 35 30 36 31 37 32 38 33 39 34 40 35 41 81 42
REMARK SMILES IDX 36 43 80 44 37 45 38 46 39 47 74 48 40 49 79 50 73 51 75 52
REMARK SMILES IDX 41 53 78 54 72 55 71 56 42 58 64 59 49 60 63 61 50 62 53 63
REMARK SMILES IDX 62 64 76 65 51 66 52 67 61 69 77 70 54 71 43 72 44 73 48 74
REMARK SMILES IDX 45 75 47 76 46 77 65 78 66 79 70 80 67 81 69 82 68 83 55 84
REMARK SMILES IDX 56 85 60 86 57 87 59 88 58 89
REMARK H PARENT 75 57 53 68
REMARK Flexibility Score: inf
ROOT
ATOM      1  C   UNL A   1      33.646  34.451  29.273  1.00  0.00     0.188 C 
ENDROOT
BRANCH   1   2
ATOM      2  C   UNL A   1      34.447  32.886  29.475  1.00  0.00     0.188 C 
BRANCH   2   3
ATOM      3  O   UNL A   1      34.781  31.862  28.504  1.00  0.00    -0.376 OA
BRANCH   3   4
ATOM      4  C   UNL A   1      34.006  31.155  27.495  1.00  0.00     0.202 C 
BRANCH   4   5
ATOM      5  C   UNL A   1      34.190  29.700  27.284  1.00  0.00     0.261 C 
BRANCH   5   6
ATOM      6  O   UNL A   1      33.019  28.972  27.367  1.00  0.00    -0.463 OA
BRANCH   6   7
ATOM      7  C   UNL A   1      32.621  28.504  26.176  1.00  0.00     0.311 C 
ATOM      8  O   UNL A   1      32.652  29.187  25.157  1.00  0.00    -0.252 OA
BRANCH   7   9
ATOM      9  C   UNL A   1      31.887  27.202  26.279  1.00  0.00     0.130 C 
ATOM     10  N   UNL A   1      32.280  24.851  26.136  1.00  0.00    -0.328 N 
ATOM     11  C   UNL A   1      30.966  24.439  26.060  1.00  0.00     0.223 C 
ATOM     12  C   UNL A   1      32.743  26.141  25.671  1.00  0.00     0.166 C 
ATOM     13  O   UNL A   1      30.626  23.258  26.073  1.00  0.00    -0.275 OA
ATOM     14  C   UNL A   1      29.922  25.509  25.995  1.00  0.00     0.101 C 
ATOM     15  C   UNL A   1      30.406  26.917  26.255  1.00  0.00     0.028 C 
BRANCH  10  16
ATOM     16  C   UNL A   1      33.280  23.937  26.614  1.00  0.00     0.162 C 
BRANCH  16  17
ATOM     17  C   UNL A   1      34.365  23.653  25.565  1.00  0.00     0.251 C 
BRANCH  17  18
ATOM     18  O   UNL A   1      34.124  22.549  24.692  1.00  0.00    -0.491 OA
BRANCH  18  19
ATOM     19  C   UNL A   1      34.844  21.386  24.725  1.00  0.00     0.122 A 
ATOM     20  C   UNL A   1      37.249  22.308  24.658  1.00  0.00     0.048 C 
ATOM     21  C   UNL A   1      36.234  21.201  24.744  1.00  0.00    -0.009 A 
ATOM     22  C   UNL A   1      36.739  19.874  24.796  1.00  0.00     0.007 A 
ATOM     23  C   UNL A   1      35.896  18.760  24.794  1.00  0.00     0.001 A 
ATOM     24  C   UNL A   1      34.014  20.248  24.671  1.00  0.00     0.047 A 
ATOM     25  C   UNL A   1      34.527  18.949  24.711  1.00  0.00     0.004 A 
ENDBRANCH  18  19
ENDBRANCH  17  18
ENDBRANCH  16  17
ENDBRANCH  10  16
BRANCH  12  26
ATOM     26  C   UNL A   1      32.918  26.100  24.173  1.00  0.00     0.127 A 
ATOM     27  C   UNL A   1      33.753  26.784  23.305  1.00  0.00     0.048 A 
ATOM     28  O   UNL A   1      32.243  25.142  23.470  1.00  0.00    -0.467 OA
ATOM     29  C   UNL A   1      33.578  26.225  22.024  1.00  0.00     0.042 A 
ATOM     30  C   UNL A   1      32.677  25.204  22.186  1.00  0.00     0.195 A 
ENDBRANCH  12  26
ENDBRANCH   7   9
ENDBRANCH   6   7
ENDBRANCH   5   6
ENDBRANCH   4   5
ENDBRANCH   3   4
ENDBRANCH   2   3
ENDBRANCH   1   2
BRANCH   1  31
ATOM     31  O   UNL A   1      33.117  35.735  30.499  1.00  0.00    -0.377 OA
BRANCH  31  32
ATOM     32  C   UNL A   1      33.843  36.036  32.368  1.00  0.00     0.188 C 
BRANCH  32  33
ATOM     33  C   UNL A   1      34.057  34.468  33.394  1.00  0.00     0.188 C 
BRANCH  33  34
ATOM     34  O   UNL A   1      34.750  33.326  32.909  1.00  0.00    -0.376 OA
BRANCH  34  35
ATOM     35  C   UNL A   1      36.093  33.494  33.278  1.00  0.00     0.202 C 
BRANCH  35  36
ATOM     36  C   UNL A   1      36.954  34.306  32.206  1.00  0.00     0.261 C 
BRANCH  36  37
ATOM     37  O   UNL A   1      38.015  33.604  31.062  1.00  0.00    -0.460 OA
BRANCH  37  38
ATOM     38  C   UNL A   1      38.098  32.862  29.788  1.00  0.00     0.338 C 
ATOM     39  O   UNL A   1      38.202  33.564  28.777  1.00  0.00    -0.246 OA
BRANCH  38  40
ATOM     40  C   UNL A   1      37.976  31.207  29.447  1.00  0.00     0.060 A 
ATOM     41  C   UNL A   1      38.116  30.215  30.463  1.00  0.00     0.016 A 
ATOM     42  C   UNL A   1      38.026  30.624  28.173  1.00  0.00     0.016 A 
ATOM     43  C   UNL A   1      38.650  28.845  30.214  1.00  0.00     0.010 A 
ATOM     44  C   UNL A   1      38.750  29.358  27.952  1.00  0.00     0.010 A 
ATOM     45  C   UNL A   1      39.270  28.529  28.986  1.00  0.00    -0.014 A 
BRANCH  45  46
ATOM     46  C   UNL A   1      40.728  27.676  28.726  1.00  0.00     0.031 A 
ATOM     47  C   UNL A   1      40.374  26.213  27.964  1.00  0.00     0.074 A 
ATOM     48  C   UNL A   1      42.060  28.232  29.055  1.00  0.00     0.049 A 
ATOM     49  N   UNL A   1      41.211  25.361  27.437  1.00  0.00    -0.248 NA
ATOM     50  C   UNL A   1      39.071  25.535  27.988  1.00  0.00     0.031 C 
ATOM     51  C   UNL A   1      43.709  28.403  28.691  1.00  0.00     0.029 A 
ATOM     52  N   UNL A   1      42.310  29.204  29.935  1.00  0.00    -0.354 N 
ATOM     53  C   UNL A   1      40.833  24.054  27.634  1.00  0.00     0.074 A 
ATOM     54  C   UNL A   1      39.388  24.246  27.708  1.00  0.00     0.031 C 
ATOM     55  C   UNL A   1      44.507  29.258  29.378  1.00  0.00     0.029 A 
ATOM     56  C   UNL A   1      43.554  29.704  30.285  1.00  0.00     0.049 A 
ATOM     57  H   UNL A   1      41.531  29.606  30.383  1.00  0.00     0.167 HD
ATOM     58  C   UNL A   1      41.628  22.993  28.110  1.00  0.00     0.031 A 
ATOM     59  C   UNL A   1      43.538  30.696  31.129  1.00  0.00     0.031 A 
ATOM     60  C   UNL A   1      42.919  23.195  28.986  1.00  0.00     0.049 A 
ATOM     61  C   UNL A   1      43.826  29.007  31.961  1.00  0.00     0.074 A 
ATOM     62  C   UNL A   1      44.289  22.996  28.753  1.00  0.00     0.029 A 
ATOM     63  N   UNL A   1      42.921  23.706  30.330  1.00  0.00    -0.354 N 
ATOM     64  N   UNL A   1      43.784  27.685  31.509  1.00  0.00    -0.248 NA
ATOM     65  C   UNL A   1      44.364  28.877  33.331  1.00  0.00     0.031 C 
ATOM     66  C   UNL A   1      45.077  23.473  29.887  1.00  0.00     0.029 A 
ATOM     67  C   UNL A   1      44.223  24.154  30.799  1.00  0.00     0.049 A 
ATOM     68  H   UNL A   1      42.109  23.750  30.886  1.00  0.00     0.167 HD
ATOM     69  C   UNL A   1      44.300  26.633  32.344  1.00  0.00     0.074 A 
ATOM     70  C   UNL A   1      44.599  27.538  33.508  1.00  0.00     0.031 C 
ATOM     71  C   UNL A   1      44.459  25.150  32.131  1.00  0.00     0.031 A 
BRANCH  58  72
ATOM     72  C   UNL A   1      41.461  21.637  27.346  1.00  0.00    -0.014 A 
ATOM     73  C   UNL A   1      42.554  20.748  27.194  1.00  0.00     0.009 A 
ATOM     74  C   UNL A   1      40.284  21.208  26.708  1.00  0.00     0.009 A 
ATOM     75  C   UNL A   1      42.492  19.544  26.467  1.00  0.00     0.001 A 
ATOM     76  C   UNL A   1      40.207  19.998  25.981  1.00  0.00     0.001 A 
ATOM     77  C   UNL A   1      41.311  19.166  25.857  1.00  0.00     0.000 A 
ENDBRANCH  58  72
BRANCH  59  78
ATOM     78  C   UNL A   1      42.571  31.657  29.805  1.00  0.00    -0.014 A 
ATOM     79  C   UNL A   1      41.385  32.828  30.330  1.00  0.00     0.009 A 
ATOM     80  C   UNL A   1      43.468  32.241  28.380  1.00  0.00     0.009 A 
ATOM     81  C   UNL A   1      41.258  34.532  29.789  1.00  0.00     0.001 A 
ATOM     82  C   UNL A   1      43.769  34.026  28.019  1.00  0.00     0.001 A 
ATOM     83  C   UNL A   1      42.424  35.209  28.600  1.00  0.00     0.000 A 
ENDBRANCH  59  78
BRANCH  71  84
ATOM     84  C   UNL A   1      44.837  24.179  33.273  1.00  0.00    -0.014 A 
ATOM     85  C   UNL A   1      46.114  23.771  33.626  1.00  0.00     0.009 A 
ATOM     86  C   UNL A   1      43.792  23.661  34.097  1.00  0.00     0.009 A 
ATOM     87  C   UNL A   1      46.348  23.075  34.823  1.00  0.00     0.001 A 
ATOM     88  C   UNL A   1      44.004  22.923  35.255  1.00  0.00     0.001 A 
ATOM     89  C   UNL A   1      45.298  22.671  35.646  1.00  0.00     0.000 A 
ENDBRANCH  71  84
ENDBRANCH  45  46
ENDBRANCH  38  40
ENDBRANCH  37  38
ENDBRANCH  36  37
ENDBRANCH  35  36
ENDBRANCH  34  35
ENDBRANCH  33  34
ENDBRANCH  32  33
ENDBRANCH  31  32
ENDBRANCH   1  31
TORSDOF 25
ENDMDL
MODEL 3
REMARK VINA RESULT:     -11.3      2.272      6.258
REMARK SMILES Cc1ccccc1OCCN1C(=O)CC[C@H](C(=O)OCCOCCOCCOCCOC(=O)c2ccc(-c3c4nc(c(-c5ccccc5)c5ccc([nH]5)c(-c5ccccc5)c5nc(c(-c6ccccc6)c6ccc3[nH]6)C=C5)C=C4)cc2)[C@@H]1c1ccco1
REMARK SMILES IDX 24 1 23 2 22 3 21 4 20 5 19 6 17 7 18 8 16 9 11 10 12 11
REMARK SMILES IDX 82 12 13 13 14 14 15 15 10 16 9 17 8 18 7 19 1 20 2 21 3 22
REMARK SMILES IDX 4 23 6 24 5 25 83 26 84 27 87 28 85 29 86 30 25 31 26 32
REMARK SMILES IDX 27 33 28 34 29 35 30 36 31 37 32 38 33 39 34 40 35 41 81 42
REMARK SMILES IDX 36 43 80 44 37 45 38 46 39 47 74 48 40 49 79 50 73 51 75 52
REMARK SMILES IDX 41 53 78 54 72 55 71 56 42 58 64 59 49 60 63 61 50 62 53 63
REMARK SMILES IDX 62 64 76 65 51 66 52 67 61 69 77 70 54 71 43 72 44 73 48 74
REMARK SMILES IDX 45 75 47 76 46 77 65 78 66 79 70 80 67 81 69 82 68 83 55 84
REMARK SMILES IDX 56 85 60 86 57 87 59 88 58 89
REMARK H PARENT 75 57 53 68
REMARK Flexibility Score: inf
ROOT
ATOM      1  C   UNL A   1      33.615  34.350  29.229  1.00  0.00     0.188 C 
ENDROOT
BRANCH   1   2
ATOM      2  C   UNL A   1      34.547  32.847  29.258  1.00  0.00     0.188 C 
BRANCH   2   3
ATOM      3  O   UNL A   1      34.784  31.861  28.222  1.00  0.00    -0.376 OA
BRANCH   3   4
ATOM      4  C   UNL A   1      33.908  30.979  27.465  1.00  0.00     0.202 C 
BRANCH   4   5
ATOM      5  C   UNL A   1      34.414  29.699  26.917  1.00  0.00     0.261 C 
BRANCH   5   6
ATOM      6  O   UNL A   1      33.569  28.628  27.132  1.00  0.00    -0.463 OA
BRANCH   6   7
ATOM      7  C   UNL A   1      32.899  28.274  26.026  1.00  0.00     0.311 C 
ATOM      8  O   UNL A   1      32.742  29.037  25.079  1.00  0.00    -0.252 OA
BRANCH   7   9
ATOM      9  C   UNL A   1      32.142  26.991  26.191  1.00  0.00     0.130 C 
ATOM     10  N   UNL A   1      32.433  24.636  25.930  1.00  0.00    -0.328 N 
ATOM     11  C   UNL A   1      31.108  24.265  26.021  1.00  0.00     0.223 C 
ATOM     12  C   UNL A   1      32.873  25.925  25.444  1.00  0.00     0.166 C 
ATOM     13  O   UNL A   1      30.733  23.095  26.047  1.00  0.00    -0.275 OA
ATOM     14  C   UNL A   1      30.101  25.367  26.127  1.00  0.00     0.101 C 
ATOM     15  C   UNL A   1      30.662  26.751  26.359  1.00  0.00     0.028 C 
BRANCH  10  16
ATOM     16  C   UNL A   1      33.456  23.677  26.243  1.00  0.00     0.162 C 
BRANCH  16  17
ATOM     17  C   UNL A   1      34.522  23.576  25.142  1.00  0.00     0.251 C 
BRANCH  17  18
ATOM     18  O   UNL A   1      34.214  22.714  24.045  1.00  0.00    -0.491 OA
BRANCH  18  19
ATOM     19  C   UNL A   1      33.982  21.372  24.178  1.00  0.00     0.122 A 
ATOM     20  C   UNL A   1      36.238  20.588  25.145  1.00  0.00     0.048 C 
ATOM     21  C   UNL A   1      34.822  20.371  24.687  1.00  0.00    -0.009 A 
ATOM     22  C   UNL A   1      34.332  19.038  24.735  1.00  0.00     0.007 A 
ATOM     23  C   UNL A   1      33.063  18.698  24.261  1.00  0.00     0.001 A 
ATOM     24  C   UNL A   1      32.727  20.998  23.658  1.00  0.00     0.047 A 
ATOM     25  C   UNL A   1      32.265  19.681  23.700  1.00  0.00     0.004 A 
ENDBRANCH  18  19
ENDBRANCH  17  18
ENDBRANCH  16  17
ENDBRANCH  10  16
BRANCH  12  26
ATOM     26  C   UNL A   1      32.844  25.927  23.935  1.00  0.00     0.127 A 
ATOM     27  C   UNL A   1      33.666  26.502  22.980  1.00  0.00     0.048 A 
ATOM     28  O   UNL A   1      31.928  25.132  23.306  1.00  0.00    -0.467 OA
ATOM     29  C   UNL A   1      33.234  26.042  21.720  1.00  0.00     0.042 A 
ATOM     30  C   UNL A   1      32.198  25.182  21.977  1.00  0.00     0.195 A 
ENDBRANCH  12  26
ENDBRANCH   7   9
ENDBRANCH   6   7
ENDBRANCH   5   6
ENDBRANCH   4   5
ENDBRANCH   3   4
ENDBRANCH   2   3
ENDBRANCH   1   2
BRANCH   1  31
ATOM     31  O   UNL A   1      33.007  35.453  30.586  1.00  0.00    -0.377 OA
BRANCH  31  32
ATOM     32  C   UNL A   1      33.673  35.546  32.499  1.00  0.00     0.188 C 
BRANCH  32  33
ATOM     33  C   UNL A   1      33.980  33.872  33.310  1.00  0.00     0.188 C 
BRANCH  33  34
ATOM     34  O   UNL A   1      34.695  32.828  32.662  1.00  0.00    -0.376 OA
BRANCH  34  35
ATOM     35  C   UNL A   1      36.024  32.929  33.104  1.00  0.00     0.202 C 
BRANCH  35  36
ATOM     36  C   UNL A   1      36.964  33.762  32.119  1.00  0.00     0.261 C 
BRANCH  36  37
ATOM     37  O   UNL A   1      38.162  33.087  31.100  1.00  0.00    -0.460 OA
BRANCH  37  38
ATOM     38  C   UNL A   1      38.406  32.198  29.946  1.00  0.00     0.338 C 
ATOM     39  O   UNL A   1      38.183  32.699  28.840  1.00  0.00    -0.246 OA
BRANCH  38  40
ATOM     40  C   UNL A   1      38.846  30.564  29.867  1.00  0.00     0.060 A 
ATOM     41  C   UNL A   1      39.691  29.962  30.846  1.00  0.00     0.016 A 
ATOM     42  C   UNL A   1      38.704  29.727  28.751  1.00  0.00     0.016 A 
ATOM     43  C   UNL A   1      40.611  28.824  30.558  1.00  0.00     0.010 A 
ATOM     44  C   UNL A   1      39.754  28.753  28.401  1.00  0.00     0.010 A 
ATOM     45  C   UNL A   1      40.868  28.427  29.229  1.00  0.00    -0.014 A 
BRANCH  45  46
ATOM     46  C   UNL A   1      42.371  28.058  28.506  1.00  0.00     0.031 A 
ATOM     47  C   UNL A   1      42.256  26.556  27.746  1.00  0.00     0.074 A 
ATOM     48  C   UNL A   1      43.519  28.994  28.504  1.00  0.00     0.049 A 
ATOM     49  N   UNL A   1      43.118  25.999  26.939  1.00  0.00    -0.248 NA
ATOM     50  C   UNL A   1      41.272  25.514  28.068  1.00  0.00     0.031 C 
ATOM     51  C   UNL A   1      44.869  29.658  27.718  1.00  0.00     0.029 A 
ATOM     52  N   UNL A   1      43.717  29.996  29.363  1.00  0.00    -0.354 N 
ATOM     53  C   UNL A   1      43.211  24.640  27.118  1.00  0.00     0.074 A 
ATOM     54  C   UNL A   1      41.857  24.383  27.602  1.00  0.00     0.031 C 
ATOM     55  C   UNL A   1      45.545  30.716  28.232  1.00  0.00     0.029 A 
ATOM     56  C   UNL A   1      44.806  30.852  29.400  1.00  0.00     0.049 A 
ATOM     57  H   UNL A   1      43.018  30.143  30.040  1.00  0.00     0.167 HD
ATOM     58  C   UNL A   1      44.382  23.870  27.264  1.00  0.00     0.031 A 
ATOM     59  C   UNL A   1      44.745  31.792  30.299  1.00  0.00     0.031 A 
ATOM     60  C   UNL A   1      45.753  24.457  27.767  1.00  0.00     0.049 A 
ATOM     61  C   UNL A   1      45.739  30.272  30.871  1.00  0.00     0.074 A 
ATOM     62  C   UNL A   1      46.993  24.684  27.151  1.00  0.00     0.029 A 
ATOM     63  N   UNL A   1      45.991  24.946  29.098  1.00  0.00    -0.354 N 
ATOM     64  N   UNL A   1      45.956  29.000  30.335  1.00  0.00    -0.248 NA
ATOM     65  C   UNL A   1      46.662  30.313  32.025  1.00  0.00     0.031 C 
ATOM     66  C   UNL A   1      47.899  25.379  28.062  1.00  0.00     0.029 A 
ATOM     67  C   UNL A   1      47.184  25.769  29.229  1.00  0.00     0.049 A 
ATOM     68  H   UNL A   1      45.398  24.741  29.857  1.00  0.00     0.167 HD
ATOM     69  C   UNL A   1      46.974  28.155  30.903  1.00  0.00     0.074 A 
ATOM     70  C   UNL A   1      47.317  29.110  32.014  1.00  0.00     0.031 C 
ATOM     71  C   UNL A   1      47.491  26.791  30.526  1.00  0.00     0.031 A 
BRANCH  58  72
ATOM     72  C   UNL A   1      44.406  22.527  26.460  1.00  0.00    -0.014 A 
ATOM     73  C   UNL A   1      43.251  21.711  26.372  1.00  0.00     0.009 A 
ATOM     74  C   UNL A   1      45.537  21.986  25.825  1.00  0.00     0.009 A 
ATOM     75  C   UNL A   1      43.219  20.464  25.720  1.00  0.00     0.001 A 
ATOM     76  C   UNL A   1      45.516  20.738  25.162  1.00  0.00     0.001 A 
ATOM     77  C   UNL A   1      44.358  19.974  25.110  1.00  0.00     0.000 A 
ENDBRANCH  58  72
BRANCH  59  78
ATOM     78  C   UNL A   1      43.202  32.413  29.379  1.00  0.00    -0.014 A 
ATOM     79  C   UNL A   1      41.865  33.029  30.322  1.00  0.00     0.009 A 
ATOM     80  C   UNL A   1      43.446  33.375  27.899  1.00  0.00     0.009 A 
ATOM     81  C   UNL A   1      41.030  34.598  30.086  1.00  0.00     0.001 A 
ATOM     82  C   UNL A   1      43.017  35.164  27.757  1.00  0.00     0.001 A 
ATOM     83  C   UNL A   1      41.548  35.730  28.790  1.00  0.00     0.000 A 
ENDBRANCH  59  78
BRANCH  71  84
ATOM     84  C   UNL A   1      48.448  25.982  31.433  1.00  0.00    -0.014 A 
ATOM     85  C   UNL A   1      48.168  25.480  32.694  1.00  0.00     0.009 A 
ATOM     86  C   UNL A   1      49.749  25.666  30.935  1.00  0.00     0.009 A 
ATOM     87  C   UNL A   1      49.032  24.564  33.317  1.00  0.00     0.001 A 
ATOM     88  C   UNL A   1      50.638  24.806  31.567  1.00  0.00     0.001 A 
ATOM     89  C   UNL A   1      50.253  24.213  32.746  1.00  0.00     0.000 A 
ENDBRANCH  71  84
ENDBRANCH  45  46
ENDBRANCH  38  40
ENDBRANCH  37  38
ENDBRANCH  36  37
ENDBRANCH  35  36
ENDBRANCH  34  35
ENDBRANCH  33  34
ENDBRANCH  32  33
ENDBRANCH  31  32
ENDBRANCH   1  31
TORSDOF 25
ENDMDL
