MODEL 1
REMARK VINA RESULT:     -13.1      0.000      0.000
REMARK SMILES Cc1ccc(C(=O)NC2(CC(=O)OCCOCCOCCOCCOC(=O)c3ccc(-c4c5nc(c(-c6ccccc6)c6ccc([nH]6)c(-c6ccccc6)c6nc(c(-c7ccccc7)c7ccc4[nH]7)C=C6)C=C5)cc3)CCC2)cc1
REMARK SMILES IDX 18 1 17 2 16 3 15 4 14 5 13 6 11 7 12 8 10 9 9 10 76 11
REMARK SMILES IDX 78 12 77 13 8 14 6 15 7 16 5 18 1 19 2 20 3 21 80 22 4 23
REMARK SMILES IDX 79 24 19 25 20 26 21 27 22 28 23 29 24 30 25 31 26 32 27 33
REMARK SMILES IDX 28 34 29 35 75 36 30 37 74 38 31 39 32 40 33 41 68 42 34 43
REMARK SMILES IDX 73 44 67 45 69 46 35 47 72 48 66 49 65 50 36 52 58 53 43 54
REMARK SMILES IDX 57 55 44 56 47 57 56 58 70 59 45 60 46 61 55 63 71 64 48 65
REMARK SMILES IDX 37 66 38 67 42 68 39 69 41 70 40 71 59 72 60 73 64 74 61 75
REMARK SMILES IDX 63 76 62 77 49 78 50 79 54 80 51 81 53 82 52 83
REMARK H PARENT 8 17 69 51 47 62
REMARK Flexibility Score: inf
ROOT
ATOM      1  C   UNL A   1      41.867  20.288  25.994  1.00  0.00     0.188 C 
ENDROOT
BRANCH   1   2
ATOM      2  C   UNL A   1      40.173  20.158  26.344  1.00  0.00     0.188 C 
BRANCH   2   3
ATOM      3  O   UNL A   1      38.742  21.146  25.870  1.00  0.00    -0.376 OA
BRANCH   3   4
ATOM      4  C   UNL A   1      38.311  22.911  25.985  1.00  0.00     0.202 C 
BRANCH   4   5
ATOM      5  C   UNL A   1      36.590  23.830  25.757  1.00  0.00     0.261 C 
BRANCH   5   6
ATOM      6  O   UNL A   1      34.556  24.140  26.101  1.00  0.00    -0.463 OA
BRANCH   6   7
ATOM      7  C   UNL A   1      33.079  23.280  26.404  1.00  0.00     0.308 C 
ATOM      8  O   UNL A   1      32.794  22.896  27.557  1.00  0.00    -0.252 OA
BRANCH   7   9
ATOM      9  C   UNL A   1      31.629  23.349  25.530  1.00  0.00     0.151 C 
BRANCH   9  10
ATOM     10  C   UNL A   1      31.530  23.872  24.023  1.00  0.00     0.051 C 
ATOM     11  C   UNL A   1      31.667  22.710  22.912  1.00  0.00     0.029 C 
ATOM     12  C   UNL A   1      32.652  24.527  23.028  1.00  0.00     0.029 C 
ATOM     13  C   UNL A   1      33.143  23.121  22.755  1.00  0.00     0.005 C 
BRANCH  10  14
ATOM     14  N   UNL A   1      30.313  24.605  23.789  1.00  0.00    -0.346 N 
ATOM     15  C   UNL A   1      29.955  25.826  24.213  1.00  0.00     0.251 C 
ATOM     16  O   UNL A   1      28.790  26.127  23.962  1.00  0.00    -0.269 OA
ATOM     17  H   UNL A   1      29.645  24.141  23.235  1.00  0.00     0.164 HD
BRANCH  15  18
ATOM     18  C   UNL A   1      30.865  26.739  24.985  1.00  0.00     0.039 A 
ATOM     19  C   UNL A   1      33.028  30.884  27.248  1.00  0.00     0.044 C 
ATOM     20  C   UNL A   1      32.289  29.742  26.641  1.00  0.00    -0.051 A 
ATOM     21  C   UNL A   1      31.596  29.752  25.048  1.00  0.00     0.004 A 
ATOM     22  C   UNL A   1      32.395  28.211  27.382  1.00  0.00     0.004 A 
ATOM     23  C   UNL A   1      30.721  28.296  24.347  1.00  0.00     0.014 A 
ATOM     24  C   UNL A   1      31.613  26.734  26.599  1.00  0.00     0.014 A 
ENDBRANCH  15  18
ENDBRANCH  10  14
ENDBRANCH   9  10
ENDBRANCH   7   9
ENDBRANCH   6   7
ENDBRANCH   5   6
ENDBRANCH   4   5
ENDBRANCH   3   4
ENDBRANCH   2   3
ENDBRANCH   1   2
BRANCH   1  25
ATOM     25  O   UNL A   1      42.756  19.523  25.116  1.00  0.00    -0.377 OA
BRANCH  25  26
ATOM     26  C   UNL A   1      44.116  19.106  25.289  1.00  0.00     0.188 C 
BRANCH  26  27
ATOM     27  C   UNL A   1      44.924  19.242  24.054  1.00  0.00     0.188 C 
BRANCH  27  28
ATOM     28  O   UNL A   1      44.630  20.550  23.629  1.00  0.00    -0.376 OA
BRANCH  28  29
ATOM     29  C   UNL A   1      45.261  21.503  24.453  1.00  0.00     0.202 C 
BRANCH  29  30
ATOM     30  C   UNL A   1      44.745  22.840  23.932  1.00  0.00     0.261 C 
BRANCH  30  31
ATOM     31  O   UNL A   1      43.500  23.152  24.647  1.00  0.00    -0.460 OA
BRANCH  31  32
ATOM     32  C   UNL A   1      43.369  24.444  25.105  1.00  0.00     0.338 C 
ATOM     33  O   UNL A   1      44.288  25.251  25.160  1.00  0.00    -0.246 OA
BRANCH  32  34
ATOM     34  C   UNL A   1      42.078  24.654  25.868  1.00  0.00     0.060 A 
ATOM     35  C   UNL A   1      41.286  25.784  25.660  1.00  0.00     0.016 A 
ATOM     36  C   UNL A   1      41.788  23.969  27.014  1.00  0.00     0.016 A 
ATOM     37  C   UNL A   1      40.681  26.464  26.772  1.00  0.00     0.010 A 
ATOM     38  C   UNL A   1      41.051  24.633  28.031  1.00  0.00     0.010 A 
ATOM     39  C   UNL A   1      40.867  26.071  28.107  1.00  0.00    -0.014 A 
BRANCH  39  40
ATOM     40  C   UNL A   1      41.074  27.245  29.544  1.00  0.00     0.031 A 
ATOM     41  C   UNL A   1      39.619  28.381  30.395  1.00  0.00     0.074 A 
ATOM     42  C   UNL A   1      42.515  27.204  29.717  1.00  0.00     0.049 A 
ATOM     43  N   UNL A   1      39.083  29.619  29.866  1.00  0.00    -0.248 NA
ATOM     44  C   UNL A   1      38.312  28.198  31.293  1.00  0.00     0.031 C 
ATOM     45  C   UNL A   1      43.397  27.139  30.928  1.00  0.00     0.029 A 
ATOM     46  N   UNL A   1      43.604  27.487  28.708  1.00  0.00    -0.354 N 
ATOM     47  C   UNL A   1      38.177  30.448  30.622  1.00  0.00     0.074 A 
ATOM     48  C   UNL A   1      37.530  29.328  31.281  1.00  0.00     0.031 C 
ATOM     49  C   UNL A   1      44.698  27.411  30.632  1.00  0.00     0.029 A 
ATOM     50  C   UNL A   1      44.852  27.969  29.301  1.00  0.00     0.049 A 
ATOM     51  H   UNL A   1      43.486  27.358  27.740  1.00  0.00     0.167 HD
ATOM     52  C   UNL A   1      38.157  31.909  30.968  1.00  0.00     0.031 A 
ATOM     53  C   UNL A   1      45.698  29.104  29.050  1.00  0.00     0.031 A 
ATOM     54  C   UNL A   1      39.474  33.014  31.168  1.00  0.00     0.049 A 
ATOM     55  C   UNL A   1      45.580  30.918  29.355  1.00  0.00     0.074 A 
ATOM     56  C   UNL A   1      40.079  33.569  32.319  1.00  0.00     0.029 A 
ATOM     57  N   UNL A   1      40.420  33.677  30.225  1.00  0.00    -0.354 N 
ATOM     58  N   UNL A   1      44.805  31.674  30.196  1.00  0.00    -0.248 NA
ATOM     59  C   UNL A   1      46.162  31.861  28.395  1.00  0.00     0.031 C 
ATOM     60  C   UNL A   1      41.430  34.152  32.036  1.00  0.00     0.029 A 
ATOM     61  C   UNL A   1      41.844  33.782  30.743  1.00  0.00     0.049 A 
ATOM     62  H   UNL A   1      40.145  34.017  29.344  1.00  0.00     0.167 HD
ATOM     63  C   UNL A   1      44.414  33.001  29.648  1.00  0.00     0.074 A 
ATOM     64  C   UNL A   1      45.488  33.022  28.603  1.00  0.00     0.031 C 
ATOM     65  C   UNL A   1      43.235  33.931  29.823  1.00  0.00     0.031 A 
BRANCH  52  66
ATOM     66  C   UNL A   1      36.840  32.354  31.633  1.00  0.00    -0.014 A 
ATOM     67  C   UNL A   1      35.674  32.619  30.894  1.00  0.00     0.009 A 
ATOM     68  C   UNL A   1      36.717  32.470  33.032  1.00  0.00     0.009 A 
ATOM     69  C   UNL A   1      34.490  33.074  31.492  1.00  0.00     0.001 A 
ATOM     70  C   UNL A   1      35.542  32.949  33.637  1.00  0.00     0.001 A 
ATOM     71  C   UNL A   1      34.431  33.264  32.863  1.00  0.00     0.000 A 
ENDBRANCH  52  66
BRANCH  53  72
ATOM     72  C   UNL A   1      46.644  28.413  28.041  1.00  0.00    -0.014 A 
ATOM     73  C   UNL A   1      47.942  28.247  28.609  1.00  0.00     0.009 A 
ATOM     74  C   UNL A   1      46.116  27.287  27.356  1.00  0.00     0.009 A 
ATOM     75  C   UNL A   1      48.445  26.954  28.871  1.00  0.00     0.001 A 
ATOM     76  C   UNL A   1      46.662  25.999  27.572  1.00  0.00     0.001 A 
ATOM     77  C   UNL A   1      47.775  25.830  28.398  1.00  0.00     0.000 A 
ENDBRANCH  53  72
BRANCH  65  78
ATOM     78  C   UNL A   1      43.063  35.225  28.918  1.00  0.00    -0.014 A 
ATOM     79  C   UNL A   1      42.432  35.323  27.677  1.00  0.00     0.009 A 
ATOM     80  C   UNL A   1      43.547  36.476  29.385  1.00  0.00     0.009 A 
ATOM     81  C   UNL A   1      42.052  36.556  27.110  1.00  0.00     0.001 A 
ATOM     82  C   UNL A   1      43.183  37.713  28.843  1.00  0.00     0.001 A 
ATOM     83  C   UNL A   1      42.380  37.753  27.725  1.00  0.00     0.000 A 
ENDBRANCH  65  78
ENDBRANCH  39  40
ENDBRANCH  32  34
ENDBRANCH  31  32
ENDBRANCH  30  31
ENDBRANCH  29  30
ENDBRANCH  28  29
ENDBRANCH  27  28
ENDBRANCH  26  27
ENDBRANCH  25  26
ENDBRANCH   1  25
TORSDOF 23
ENDMDL
MODEL 2
REMARK VINA RESULT:     -12.6      1.077      2.737
REMARK SMILES Cc1ccc(C(=O)NC2(CC(=O)OCCOCCOCCOCCOC(=O)c3ccc(-c4c5nc(c(-c6ccccc6)c6ccc([nH]6)c(-c6ccccc6)c6nc(c(-c7ccccc7)c7ccc4[nH]7)C=C6)C=C5)cc3)CCC2)cc1
REMARK SMILES IDX 18 1 17 2 16 3 15 4 14 5 13 6 11 7 12 8 10 9 9 10 76 11
REMARK SMILES IDX 78 12 77 13 8 14 6 15 7 16 5 18 1 19 2 20 3 21 80 22 4 23
REMARK SMILES IDX 79 24 19 25 20 26 21 27 22 28 23 29 24 30 25 31 26 32 27 33
REMARK SMILES IDX 28 34 29 35 75 36 30 37 74 38 31 39 32 40 33 41 68 42 34 43
REMARK SMILES IDX 73 44 67 45 69 46 35 47 72 48 66 49 65 50 36 52 58 53 43 54
REMARK SMILES IDX 57 55 44 56 47 57 56 58 70 59 45 60 46 61 55 63 71 64 48 65
REMARK SMILES IDX 37 66 38 67 42 68 39 69 41 70 40 71 59 72 60 73 64 74 61 75
REMARK SMILES IDX 63 76 62 77 49 78 50 79 54 80 51 81 53 82 52 83
REMARK H PARENT 8 17 69 51 47 62
REMARK Flexibility Score: inf
ROOT
ATOM      1  C   UNL A   1      40.618  20.235  25.857  1.00  0.00     0.188 C 
ENDROOT
BRANCH   1   2
ATOM      2  C   UNL A   1      38.925  20.057  25.522  1.00  0.00     0.188 C 
BRANCH   2   3
ATOM      3  O   UNL A   1      37.594  21.245  25.265  1.00  0.00    -0.376 OA
BRANCH   3   4
ATOM      4  C   UNL A   1      37.413  23.039  25.518  1.00  0.00     0.202 C 
BRANCH   4   5
ATOM      5  C   UNL A   1      35.816  24.184  25.501  1.00  0.00     0.261 C 
BRANCH   5   6
ATOM      6  O   UNL A   1      34.189  25.139  24.612  1.00  0.00    -0.463 OA
BRANCH   6   7
ATOM      7  C   UNL A   1      33.768  26.127  23.249  1.00  0.00     0.308 C 
ATOM      8  O   UNL A   1      33.966  25.720  22.086  1.00  0.00    -0.252 OA
BRANCH   7   9
ATOM      9  C   UNL A   1      32.585  27.336  23.159  1.00  0.00     0.151 C 
BRANCH   9  10
ATOM     10  C   UNL A   1      31.716  27.818  24.411  1.00  0.00     0.051 C 
ATOM     11  C   UNL A   1      31.932  29.367  24.806  1.00  0.00     0.029 C 
ATOM     12  C   UNL A   1      31.976  27.692  26.022  1.00  0.00     0.029 C 
ATOM     13  C   UNL A   1      32.899  28.886  25.905  1.00  0.00     0.005 C 
BRANCH  10  14
ATOM     14  N   UNL A   1      30.310  27.575  24.214  1.00  0.00    -0.346 N 
ATOM     15  C   UNL A   1      29.628  26.421  24.247  1.00  0.00     0.251 C 
ATOM     16  O   UNL A   1      28.452  26.518  23.903  1.00  0.00    -0.269 OA
ATOM     17  H   UNL A   1      29.770  28.376  24.027  1.00  0.00     0.164 HD
BRANCH  15  18
ATOM     18  C   UNL A   1      30.246  25.100  24.613  1.00  0.00     0.039 A 
ATOM     19  C   UNL A   1      33.097  20.759  24.636  1.00  0.00     0.044 C 
ATOM     20  C   UNL A   1      32.390  22.068  24.587  1.00  0.00    -0.051 A 
ATOM     21  C   UNL A   1      31.609  22.715  23.176  1.00  0.00     0.004 A 
ATOM     22  C   UNL A   1      32.012  22.852  26.053  1.00  0.00     0.004 A 
ATOM     23  C   UNL A   1      30.726  24.327  23.191  1.00  0.00     0.014 A 
ATOM     24  C   UNL A   1      31.018  24.406  26.058  1.00  0.00     0.014 A 
ENDBRANCH  15  18
ENDBRANCH  10  14
ENDBRANCH   9  10
ENDBRANCH   7   9
ENDBRANCH   6   7
ENDBRANCH   5   6
ENDBRANCH   4   5
ENDBRANCH   3   4
ENDBRANCH   2   3
ENDBRANCH   1   2
BRANCH   1  25
ATOM     25  O   UNL A   1      41.797  19.490  25.410  1.00  0.00    -0.377 OA
BRANCH  25  26
ATOM     26  C   UNL A   1      43.127  19.429  25.941  1.00  0.00     0.188 C 
BRANCH  26  27
ATOM     27  C   UNL A   1      44.145  19.103  24.914  1.00  0.00     0.188 C 
BRANCH  27  28
ATOM     28  O   UNL A   1      44.150  20.252  24.101  1.00  0.00    -0.376 OA
BRANCH  28  29
ATOM     29  C   UNL A   1      44.803  21.323  24.742  1.00  0.00     0.202 C 
BRANCH  29  30
ATOM     30  C   UNL A   1      44.288  22.559  24.014  1.00  0.00     0.261 C 
BRANCH  30  31
ATOM     31  O   UNL A   1      43.062  23.002  24.691  1.00  0.00    -0.460 OA
BRANCH  31  32
ATOM     32  C   UNL A   1      43.164  24.152  25.443  1.00  0.00     0.338 C 
ATOM     33  O   UNL A   1      44.220  24.617  25.848  1.00  0.00    -0.246 OA
BRANCH  32  34
ATOM     34  C   UNL A   1      41.831  24.579  26.021  1.00  0.00     0.060 A 
ATOM     35  C   UNL A   1      41.262  25.813  25.704  1.00  0.00     0.016 A 
ATOM     36  C   UNL A   1      41.284  23.974  27.118  1.00  0.00     0.016 A 
ATOM     37  C   UNL A   1      40.628  26.605  26.722  1.00  0.00     0.010 A 
ATOM     38  C   UNL A   1      40.531  24.769  28.023  1.00  0.00     0.010 A 
ATOM     39  C   UNL A   1      40.568  26.220  28.070  1.00  0.00    -0.014 A 
BRANCH  39  40
ATOM     40  C   UNL A   1      40.762  27.381  29.519  1.00  0.00     0.031 A 
ATOM     41  C   UNL A   1      39.321  28.575  30.311  1.00  0.00     0.074 A 
ATOM     42  C   UNL A   1      42.191  27.278  29.754  1.00  0.00     0.049 A 
ATOM     43  N   UNL A   1      38.861  29.836  29.764  1.00  0.00    -0.248 NA
ATOM     44  C   UNL A   1      37.970  28.446  31.151  1.00  0.00     0.031 C 
ATOM     45  C   UNL A   1      43.016  27.174  31.002  1.00  0.00     0.029 A 
ATOM     46  N   UNL A   1      43.334  27.517  28.795  1.00  0.00    -0.354 N 
ATOM     47  C   UNL A   1      37.959  30.701  30.484  1.00  0.00     0.074 A 
ATOM     48  C   UNL A   1      37.237  29.609  31.110  1.00  0.00     0.031 C 
ATOM     49  C   UNL A   1      44.339  27.391  30.764  1.00  0.00     0.029 A 
ATOM     50  C   UNL A   1      44.574  27.945  29.442  1.00  0.00     0.049 A 
ATOM     51  H   UNL A   1      43.252  27.396  27.822  1.00  0.00     0.167 HD
ATOM     52  C   UNL A   1      37.986  32.162  30.835  1.00  0.00     0.031 A 
ATOM     53  C   UNL A   1      45.477  29.043  29.233  1.00  0.00     0.031 A 
ATOM     54  C   UNL A   1      39.338  33.209  31.096  1.00  0.00     0.049 A 
ATOM     55  C   UNL A   1      45.423  30.860  29.539  1.00  0.00     0.074 A 
ATOM     56  C   UNL A   1      39.916  33.735  32.274  1.00  0.00     0.029 A 
ATOM     57  N   UNL A   1      40.351  33.833  30.198  1.00  0.00    -0.354 N 
ATOM     58  N   UNL A   1      44.645  31.647  30.350  1.00  0.00    -0.248 NA
ATOM     59  C   UNL A   1      46.086  31.780  28.610  1.00  0.00     0.031 C 
ATOM     60  C   UNL A   1      41.302  34.261  32.052  1.00  0.00     0.029 A 
ATOM     61  C   UNL A   1      41.755  33.877  30.777  1.00  0.00     0.049 A 
ATOM     62  H   UNL A   1      40.129  34.187  29.307  1.00  0.00     0.167 HD
ATOM     63  C   UNL A   1      44.335  32.990  29.791  1.00  0.00     0.074 A 
ATOM     64  C   UNL A   1      45.453  32.968  28.793  1.00  0.00     0.031 C 
ATOM     65  C   UNL A   1      43.189  33.969  29.918  1.00  0.00     0.031 A 
BRANCH  52  66
ATOM     66  C   UNL A   1      36.661  32.660  31.444  1.00  0.00    -0.014 A 
ATOM     67  C   UNL A   1      36.401  32.613  32.825  1.00  0.00     0.009 A 
ATOM     68  C   UNL A   1      35.652  33.242  30.651  1.00  0.00     0.009 A 
ATOM     69  C   UNL A   1      35.177  33.018  33.375  1.00  0.00     0.001 A 
ATOM     70  C   UNL A   1      34.413  33.628  31.191  1.00  0.00     0.001 A 
ATOM     71  C   UNL A   1      34.170  33.502  32.554  1.00  0.00     0.000 A 
ENDBRANCH  52  66
BRANCH  53  72
ATOM     72  C   UNL A   1      46.436  28.315  28.262  1.00  0.00    -0.014 A 
ATOM     73  C   UNL A   1      46.260  28.800  26.932  1.00  0.00     0.009 A 
ATOM     74  C   UNL A   1      47.779  28.170  28.698  1.00  0.00     0.009 A 
ATOM     75  C   UNL A   1      47.298  29.508  26.289  1.00  0.00     0.001 A 
ATOM     76  C   UNL A   1      48.827  28.830  28.015  1.00  0.00     0.001 A 
ATOM     77  C   UNL A   1      48.566  29.567  26.858  1.00  0.00     0.000 A 
ENDBRANCH  53  72
BRANCH  65  78
ATOM     78  C   UNL A   1      43.112  35.271  29.012  1.00  0.00    -0.014 A 
ATOM     79  C   UNL A   1      42.270  35.506  27.924  1.00  0.00     0.009 A 
ATOM     80  C   UNL A   1      43.939  36.385  29.315  1.00  0.00     0.009 A 
ATOM     81  C   UNL A   1      42.052  36.794  27.393  1.00  0.00     0.001 A 
ATOM     82  C   UNL A   1      43.742  37.673  28.805  1.00  0.00     0.001 A 
ATOM     83  C   UNL A   1      42.749  37.890  27.875  1.00  0.00     0.000 A 
ENDBRANCH  65  78
ENDBRANCH  39  40
ENDBRANCH  32  34
ENDBRANCH  31  32
ENDBRANCH  30  31
ENDBRANCH  29  30
ENDBRANCH  28  29
ENDBRANCH  27  28
ENDBRANCH  26  27
ENDBRANCH  25  26
ENDBRANCH   1  25
TORSDOF 23
ENDMDL
MODEL 3
REMARK VINA RESULT:     -11.7      1.599      5.539
REMARK SMILES Cc1ccc(C(=O)NC2(CC(=O)OCCOCCOCCOCCOC(=O)c3ccc(-c4c5nc(c(-c6ccccc6)c6ccc([nH]6)c(-c6ccccc6)c6nc(c(-c7ccccc7)c7ccc4[nH]7)C=C6)C=C5)cc3)CCC2)cc1
REMARK SMILES IDX 18 1 17 2 16 3 15 4 14 5 13 6 11 7 12 8 10 9 9 10 76 11
REMARK SMILES IDX 78 12 77 13 8 14 6 15 7 16 5 18 1 19 2 20 3 21 80 22 4 23
REMARK SMILES IDX 79 24 19 25 20 26 21 27 22 28 23 29 24 30 25 31 26 32 27 33
REMARK SMILES IDX 28 34 29 35 75 36 30 37 74 38 31 39 32 40 33 41 68 42 34 43
REMARK SMILES IDX 73 44 67 45 69 46 35 47 72 48 66 49 65 50 36 52 58 53 43 54
REMARK SMILES IDX 57 55 44 56 47 57 56 58 70 59 45 60 46 61 55 63 71 64 48 65
REMARK SMILES IDX 37 66 38 67 42 68 39 69 41 70 40 71 59 72 60 73 64 74 61 75
REMARK SMILES IDX 63 76 62 77 49 78 50 79 54 80 51 81 53 82 52 83
REMARK H PARENT 8 17 69 51 47 62
REMARK Flexibility Score: inf
ROOT
ATOM      1  C   UNL A   1      42.050  18.943  26.101  1.00  0.00     0.188 C 
ENDROOT
BRANCH   1   2
ATOM      2  C   UNL A   1      40.493  19.635  26.425  1.00  0.00     0.188 C 
BRANCH   2   3
ATOM      3  O   UNL A   1      39.404  20.708  25.471  1.00  0.00    -0.376 OA
BRANCH   3   4
ATOM      4  C   UNL A   1      37.845  21.583  25.817  1.00  0.00     0.202 C 
BRANCH   4   5
ATOM      5  C   UNL A   1      35.984  21.096  25.421  1.00  0.00     0.261 C 
BRANCH   5   6
ATOM      6  O   UNL A   1      33.915  21.358  25.462  1.00  0.00    -0.463 OA
BRANCH   6   7
ATOM      7  C   UNL A   1      32.694  22.483  25.967  1.00  0.00     0.308 C 
ATOM      8  O   UNL A   1      32.290  22.491  27.148  1.00  0.00    -0.252 OA
BRANCH   7   9
ATOM      9  C   UNL A   1      32.329  23.998  25.305  1.00  0.00     0.151 C 
BRANCH   9  10
ATOM     10  C   UNL A   1      31.985  24.229  23.762  1.00  0.00     0.051 C 
ATOM     11  C   UNL A   1      32.150  22.911  22.846  1.00  0.00     0.029 C 
ATOM     12  C   UNL A   1      32.885  24.821  22.529  1.00  0.00     0.029 C 
ATOM     13  C   UNL A   1      33.528  23.455  22.424  1.00  0.00     0.005 C 
BRANCH  10  14
ATOM     14  N   UNL A   1      30.661  24.764  23.581  1.00  0.00    -0.346 N 
ATOM     15  C   UNL A   1      30.110  25.876  24.091  1.00  0.00     0.251 C 
ATOM     16  O   UNL A   1      28.908  25.995  23.862  1.00  0.00    -0.269 OA
ATOM     17  H   UNL A   1      30.072  24.235  22.997  1.00  0.00     0.164 HD
BRANCH  15  18
ATOM     18  C   UNL A   1      30.866  26.872  24.924  1.00  0.00     0.039 A 
ATOM     19  C   UNL A   1      32.514  31.230  27.221  1.00  0.00     0.044 C 
ATOM     20  C   UNL A   1      31.916  30.023  26.586  1.00  0.00    -0.051 A 
ATOM     21  C   UNL A   1      31.443  29.919  24.918  1.00  0.00     0.004 A 
ATOM     22  C   UNL A   1      31.992  28.536  27.417  1.00  0.00     0.004 A 
ATOM     23  C   UNL A   1      30.737  28.386  24.188  1.00  0.00     0.014 A 
ATOM     24  C   UNL A   1      31.390  26.984  26.620  1.00  0.00     0.014 A 
ENDBRANCH  15  18
ENDBRANCH  10  14
ENDBRANCH   9  10
ENDBRANCH   7   9
ENDBRANCH   6   7
ENDBRANCH   5   6
ENDBRANCH   4   5
ENDBRANCH   3   4
ENDBRANCH   2   3
ENDBRANCH   1   2
BRANCH   1  25
ATOM     25  O   UNL A   1      43.364  19.539  25.852  1.00  0.00    -0.377 OA
BRANCH  25  26
ATOM     26  C   UNL A   1      43.738  20.878  25.501  1.00  0.00     0.188 C 
BRANCH  26  27
ATOM     27  C   UNL A   1      45.087  20.962  24.892  1.00  0.00     0.188 C 
BRANCH  27  28
ATOM     28  O   UNL A   1      44.854  21.697  23.716  1.00  0.00    -0.376 OA
BRANCH  28  29
ATOM     29  C   UNL A   1      45.443  22.975  23.793  1.00  0.00     0.202 C 
BRANCH  29  30
ATOM     30  C   UNL A   1      46.022  23.030  25.202  1.00  0.00     0.261 C 
BRANCH  30  31
ATOM     31  O   UNL A   1      46.341  24.433  25.502  1.00  0.00    -0.460 OA
BRANCH  31  32
ATOM     32  C   UNL A   1      46.543  24.740  26.830  1.00  0.00     0.338 C 
ATOM     33  O   UNL A   1      46.249  24.000  27.759  1.00  0.00    -0.246 OA
BRANCH  32  34
ATOM     34  C   UNL A   1      46.820  26.214  27.041  1.00  0.00     0.060 A 
ATOM     35  C   UNL A   1      46.508  26.848  28.244  1.00  0.00     0.016 A 
ATOM     36  C   UNL A   1      47.054  27.068  26.001  1.00  0.00     0.016 A 
ATOM     37  C   UNL A   1      45.922  28.160  28.244  1.00  0.00     0.010 A 
ATOM     38  C   UNL A   1      46.591  28.407  26.108  1.00  0.00     0.010 A 
ATOM     39  C   UNL A   1      45.603  28.860  27.070  1.00  0.00    -0.014 A 
BRANCH  39  40
ATOM     40  C   UNL A   1      44.076  29.910  26.838  1.00  0.00     0.031 A 
ATOM     41  C   UNL A   1      43.959  31.930  27.034  1.00  0.00     0.074 A 
ATOM     42  C   UNL A   1      43.069  28.880  26.657  1.00  0.00     0.049 A 
ATOM     43  N   UNL A   1      43.892  32.664  28.281  1.00  0.00    -0.248 NA
ATOM     44  C   UNL A   1      44.452  33.249  26.283  1.00  0.00     0.031 C 
ATOM     45  C   UNL A   1      41.906  28.742  25.721  1.00  0.00     0.029 A 
ATOM     46  N   UNL A   1      42.718  27.722  27.562  1.00  0.00    -0.354 N 
ATOM     47  C   UNL A   1      43.635  34.083  28.323  1.00  0.00     0.074 A 
ATOM     48  C   UNL A   1      44.341  34.358  27.086  1.00  0.00     0.031 C 
ATOM     49  C   UNL A   1      41.057  27.747  26.098  1.00  0.00     0.029 A 
ATOM     50  C   UNL A   1      41.331  27.274  27.443  1.00  0.00     0.049 A 
ATOM     51  H   UNL A   1      43.365  27.306  28.176  1.00  0.00     0.167 HD
ATOM     52  C   UNL A   1      42.657  34.934  29.083  1.00  0.00     0.031 A 
ATOM     53  C   UNL A   1      40.276  27.044  28.392  1.00  0.00     0.031 A 
ATOM     54  C   UNL A   1      41.080  34.541  29.676  1.00  0.00     0.049 A 
ATOM     55  C   UNL A   1      39.188  28.113  29.426  1.00  0.00     0.074 A 
ATOM     56  C   UNL A   1      39.785  34.871  29.215  1.00  0.00     0.029 A 
ATOM     57  N   UNL A   1      40.578  33.697  30.798  1.00  0.00    -0.354 N 
ATOM     58  N   UNL A   1      38.841  29.438  29.354  1.00  0.00    -0.248 NA
ATOM     59  C   UNL A   1      38.776  27.666  30.761  1.00  0.00     0.031 C 
ATOM     60  C   UNL A   1      38.723  33.988  29.797  1.00  0.00     0.029 A 
ATOM     61  C   UNL A   1      39.323  32.907  30.469  1.00  0.00     0.049 A 
ATOM     62  H   UNL A   1      41.022  33.656  31.675  1.00  0.00     0.167 HD
ATOM     63  C   UNL A   1      38.641  30.095  30.674  1.00  0.00     0.074 A 
ATOM     64  C   UNL A   1      38.464  28.810  31.424  1.00  0.00     0.031 C 
ATOM     65  C   UNL A   1      38.804  31.499  31.212  1.00  0.00     0.031 A 
BRANCH  52  66
ATOM     66  C   UNL A   1      42.929  36.444  28.933  1.00  0.00    -0.014 A 
ATOM     67  C   UNL A   1      42.102  37.287  28.171  1.00  0.00     0.009 A 
ATOM     68  C   UNL A   1      43.999  37.074  29.599  1.00  0.00     0.009 A 
ATOM     69  C   UNL A   1      42.377  38.650  27.992  1.00  0.00     0.001 A 
ATOM     70  C   UNL A   1      44.296  38.435  29.405  1.00  0.00     0.001 A 
ATOM     71  C   UNL A   1      43.491  39.221  28.588  1.00  0.00     0.000 A 
ENDBRANCH  52  66
BRANCH  53  72
ATOM     72  C   UNL A   1      40.561  25.542  28.628  1.00  0.00    -0.014 A 
ATOM     73  C   UNL A   1      40.037  24.762  27.554  1.00  0.00     0.009 A 
ATOM     74  C   UNL A   1      41.874  25.212  29.052  1.00  0.00     0.009 A 
ATOM     75  C   UNL A   1      40.907  24.057  26.695  1.00  0.00     0.001 A 
ATOM     76  C   UNL A   1      42.726  24.451  28.216  1.00  0.00     0.001 A 
ATOM     77  C   UNL A   1      42.260  23.948  27.000  1.00  0.00     0.000 A 
ENDBRANCH  53  72
BRANCH  65  78
ATOM     78  C   UNL A   1      38.662  31.810  32.763  1.00  0.00    -0.014 A 
ATOM     79  C   UNL A   1      37.489  32.026  33.487  1.00  0.00     0.009 A 
ATOM     80  C   UNL A   1      39.822  31.842  33.580  1.00  0.00     0.009 A 
ATOM     81  C   UNL A   1      37.441  31.974  34.895  1.00  0.00     0.001 A 
ATOM     82  C   UNL A   1      39.803  31.787  34.978  1.00  0.00     0.001 A 
ATOM     83  C   UNL A   1      38.595  31.797  35.640  1.00  0.00     0.000 A 
ENDBRANCH  65  78
ENDBRANCH  39  40
ENDBRANCH  32  34
ENDBRANCH  31  32
ENDBRANCH  30  31
ENDBRANCH  29  30
ENDBRANCH  28  29
ENDBRANCH  27  28
ENDBRANCH  26  27
ENDBRANCH  25  26
ENDBRANCH   1  25
TORSDOF 23
ENDMDL
