MODEL 1
REMARK VINA RESULT:      -9.6      0.000      0.000
REMARK SMILES Cc1ncccc1C(=O)N1CC[C@@H](C(=O)OCCOCCOCCOCCOC(=O)c2ccc(-c3c4nc(c(-c5ccccc5)c5ccc([nH]5)c(-c5ccccc5)c5nc(c(-c6ccccc6)c6ccc3[nH]6)C=C5)C=C4)cc2)C1
REMARK SMILES IDX 22 1 21 2 20 3 19 4 18 5 17 6 16 7 14 8 15 9 13 10 10 11
REMARK SMILES IDX 11 12 79 13 12 14 8 15 9 16 7 17 1 18 2 19 3 20 4 21 6 22
REMARK SMILES IDX 5 23 23 24 24 25 25 26 26 27 27 28 28 29 29 30 30 31 31 32
REMARK SMILES IDX 32 33 78 34 33 35 77 36 34 37 35 38 36 39 71 40 37 41 76 42
REMARK SMILES IDX 70 43 72 44 38 45 75 46 69 47 68 48 39 50 61 51 46 52 60 53
REMARK SMILES IDX 47 54 50 55 59 56 73 57 48 58 49 59 58 61 74 62 51 63 40 64
REMARK SMILES IDX 41 65 45 66 42 67 44 68 43 69 62 70 63 71 67 72 64 73 66 74
REMARK SMILES IDX 65 75 52 76 53 77 57 78 54 79 56 80 55 81
REMARK H PARENT 72 49 50 60
REMARK Flexibility Score: inf
ROOT
ATOM      1  O   UNL A   1      40.757  21.396  27.839  1.00  0.00    -0.377 OA
ENDROOT
BRANCH   1   2
ATOM      2  C   UNL A   1      40.110  22.485  27.206  1.00  0.00     0.188 C 
BRANCH   2   3
ATOM      3  C   UNL A   1      39.081  22.075  26.135  1.00  0.00     0.188 C 
BRANCH   3   4
ATOM      4  O   UNL A   1      38.059  22.976  25.737  1.00  0.00    -0.376 OA
BRANCH   4   5
ATOM      5  C   UNL A   1      36.691  22.709  25.999  1.00  0.00     0.202 C 
BRANCH   5   6
ATOM      6  C   UNL A   1      35.943  21.477  25.465  1.00  0.00     0.261 C 
BRANCH   6   7
ATOM      7  O   UNL A   1      35.197  21.620  24.254  1.00  0.00    -0.463 OA
BRANCH   7   8
ATOM      8  C   UNL A   1      33.848  21.617  24.367  1.00  0.00     0.310 C 
ATOM      9  O   UNL A   1      33.148  20.612  24.367  1.00  0.00    -0.252 OA
BRANCH   8  10
ATOM     10  C   UNL A   1      33.282  23.008  24.515  1.00  0.00     0.120 C 
ATOM     11  N   UNL A   1      32.828  24.808  23.062  1.00  0.00    -0.338 N 
ATOM     12  C   UNL A   1      31.588  24.061  23.103  1.00  0.00     0.121 C 
ATOM     13  C   UNL A   1      33.934  24.024  23.581  1.00  0.00     0.135 C 
ATOM     14  C   UNL A   1      31.760  23.138  24.299  1.00  0.00     0.039 C 
BRANCH  11  15
ATOM     15  C   UNL A   1      33.048  26.013  22.436  1.00  0.00     0.255 C 
ATOM     16  O   UNL A   1      33.494  26.075  21.292  1.00  0.00    -0.269 OA
BRANCH  15  17
ATOM     17  C   UNL A   1      32.879  27.276  23.211  1.00  0.00     0.061 A 
ATOM     18  C   UNL A   1      30.432  27.683  22.534  1.00  0.00     0.067 C 
ATOM     19  C   UNL A   1      31.682  28.003  23.293  1.00  0.00     0.050 A 
ATOM     20  N   UNL A   1      31.538  29.081  24.115  1.00  0.00    -0.261 NA
ATOM     21  C   UNL A   1      32.561  29.400  24.932  1.00  0.00     0.111 A 
ATOM     22  C   UNL A   1      33.919  27.643  24.078  1.00  0.00     0.017 A 
ATOM     23  C   UNL A   1      33.757  28.714  24.956  1.00  0.00     0.021 A 
ENDBRANCH  15  17
ENDBRANCH  11  15
ENDBRANCH   8  10
ENDBRANCH   7   8
ENDBRANCH   6   7
ENDBRANCH   5   6
ENDBRANCH   4   5
ENDBRANCH   3   4
ENDBRANCH   2   3
ENDBRANCH   1   2
BRANCH   1  24
ATOM     24  C   UNL A   1      40.958  20.240  27.037  1.00  0.00     0.188 C 
BRANCH  24  25
ATOM     25  C   UNL A   1      42.386  19.918  26.544  1.00  0.00     0.188 C 
BRANCH  25  26
ATOM     26  O   UNL A   1      42.790  20.655  25.398  1.00  0.00    -0.376 OA
BRANCH  26  27
ATOM     27  C   UNL A   1      43.987  21.414  25.459  1.00  0.00     0.202 C 
BRANCH  27  28
ATOM     28  C   UNL A   1      44.158  22.528  24.415  1.00  0.00     0.261 C 
BRANCH  28  29
ATOM     29  O   UNL A   1      43.581  23.797  24.755  1.00  0.00    -0.460 OA
BRANCH  29  30
ATOM     30  C   UNL A   1      44.425  24.772  25.166  1.00  0.00     0.338 C 
ATOM     31  O   UNL A   1      45.462  25.115  24.646  1.00  0.00    -0.246 OA
BRANCH  30  32
ATOM     32  C   UNL A   1      43.751  25.492  26.271  1.00  0.00     0.060 A 
ATOM     33  C   UNL A   1      44.069  26.838  26.495  1.00  0.00     0.016 A 
ATOM     34  C   UNL A   1      42.782  24.855  27.049  1.00  0.00     0.016 A 
ATOM     35  C   UNL A   1      43.419  27.551  27.503  1.00  0.00     0.010 A 
ATOM     36  C   UNL A   1      42.155  25.561  28.078  1.00  0.00     0.010 A 
ATOM     37  C   UNL A   1      42.482  26.908  28.321  1.00  0.00    -0.014 A 
BRANCH  37  38
ATOM     38  C   UNL A   1      41.952  27.590  29.524  1.00  0.00     0.031 A 
ATOM     39  C   UNL A   1      40.665  28.358  29.407  1.00  0.00     0.074 A 
ATOM     40  C   UNL A   1      42.601  27.535  30.700  1.00  0.00     0.049 A 
ATOM     41  N   UNL A   1      40.053  29.091  30.299  1.00  0.00    -0.248 NA
ATOM     42  C   UNL A   1      39.981  28.287  28.106  1.00  0.00     0.031 C 
ATOM     43  C   UNL A   1      43.828  26.783  30.958  1.00  0.00     0.029 A 
ATOM     44  N   UNL A   1      42.317  28.140  31.900  1.00  0.00    -0.354 N 
ATOM     45  C   UNL A   1      38.916  29.579  29.667  1.00  0.00     0.074 A 
ATOM     46  C   UNL A   1      38.937  29.077  28.310  1.00  0.00     0.031 C 
ATOM     47  C   UNL A   1      44.202  26.987  32.234  1.00  0.00     0.029 A 
ATOM     48  C   UNL A   1      43.265  27.913  32.867  1.00  0.00     0.049 A 
ATOM     49  H   UNL A   1      41.511  28.685  32.051  1.00  0.00     0.167 HD
ATOM     50  C   UNL A   1      37.945  30.375  30.169  1.00  0.00     0.031 A 
ATOM     51  C   UNL A   1      43.381  28.422  34.110  1.00  0.00     0.031 A 
ATOM     52  C   UNL A   1      37.939  30.895  31.511  1.00  0.00     0.049 A 
ATOM     53  C   UNL A   1      42.339  29.389  34.613  1.00  0.00     0.074 A 
ATOM     54  C   UNL A   1      36.988  31.695  32.119  1.00  0.00     0.029 A 
ATOM     55  N   UNL A   1      38.940  30.680  32.445  1.00  0.00    -0.354 N 
ATOM     56  N   UNL A   1      41.251  29.817  34.020  1.00  0.00    -0.248 NA
ATOM     57  C   UNL A   1      42.544  29.942  35.960  1.00  0.00     0.031 C 
ATOM     58  C   UNL A   1      37.450  32.025  33.398  1.00  0.00     0.029 A 
ATOM     59  C   UNL A   1      38.653  31.369  33.611  1.00  0.00     0.049 A 
ATOM     60  H   UNL A   1      39.737  30.121  32.300  1.00  0.00     0.167 HD
ATOM     61  C   UNL A   1      40.631  30.668  34.927  1.00  0.00     0.074 A 
ATOM     62  C   UNL A   1      41.454  30.679  36.119  1.00  0.00     0.031 C 
ATOM     63  C   UNL A   1      39.485  31.379  34.786  1.00  0.00     0.031 A 
BRANCH  50  64
ATOM     64  C   UNL A   1      36.830  30.777  29.243  1.00  0.00    -0.014 A 
ATOM     65  C   UNL A   1      35.829  29.869  28.860  1.00  0.00     0.009 A 
ATOM     66  C   UNL A   1      36.764  32.096  28.769  1.00  0.00     0.009 A 
ATOM     67  C   UNL A   1      34.807  30.267  27.996  1.00  0.00     0.001 A 
ATOM     68  C   UNL A   1      35.725  32.499  27.931  1.00  0.00     0.001 A 
ATOM     69  C   UNL A   1      34.753  31.582  27.537  1.00  0.00     0.000 A 
ENDBRANCH  50  64
BRANCH  51  70
ATOM     70  C   UNL A   1      44.551  28.066  34.957  1.00  0.00    -0.014 A 
ATOM     71  C   UNL A   1      45.734  28.817  34.902  1.00  0.00     0.009 A 
ATOM     72  C   UNL A   1      44.497  26.950  35.808  1.00  0.00     0.009 A 
ATOM     73  C   UNL A   1      46.846  28.445  35.663  1.00  0.00     0.001 A 
ATOM     74  C   UNL A   1      45.599  26.600  36.592  1.00  0.00     0.001 A 
ATOM     75  C   UNL A   1      46.775  27.341  36.511  1.00  0.00     0.000 A 
ENDBRANCH  51  70
BRANCH  63  76
ATOM     76  C   UNL A   1      39.036  32.211  35.958  1.00  0.00    -0.014 A 
ATOM     77  C   UNL A   1      39.444  33.544  36.107  1.00  0.00     0.009 A 
ATOM     78  C   UNL A   1      38.147  31.664  36.899  1.00  0.00     0.009 A 
ATOM     79  C   UNL A   1      38.999  34.304  37.191  1.00  0.00     0.001 A 
ATOM     80  C   UNL A   1      37.677  32.435  37.963  1.00  0.00     0.001 A 
ATOM     81  C   UNL A   1      38.111  33.752  38.114  1.00  0.00     0.000 A 
ENDBRANCH  63  76
ENDBRANCH  37  38
ENDBRANCH  30  32
ENDBRANCH  29  30
ENDBRANCH  28  29
ENDBRANCH  27  28
ENDBRANCH  26  27
ENDBRANCH  25  26
ENDBRANCH  24  25
ENDBRANCH   1  24
TORSDOF 22
ENDMDL
MODEL 2
REMARK VINA RESULT:      -9.0      1.448      2.303
REMARK SMILES Cc1ncccc1C(=O)N1CC[C@@H](C(=O)OCCOCCOCCOCCOC(=O)c2ccc(-c3c4nc(c(-c5ccccc5)c5ccc([nH]5)c(-c5ccccc5)c5nc(c(-c6ccccc6)c6ccc3[nH]6)C=C5)C=C4)cc2)C1
REMARK SMILES IDX 22 1 21 2 20 3 19 4 18 5 17 6 16 7 14 8 15 9 13 10 10 11
REMARK SMILES IDX 11 12 79 13 12 14 8 15 9 16 7 17 1 18 2 19 3 20 4 21 6 22
REMARK SMILES IDX 5 23 23 24 24 25 25 26 26 27 27 28 28 29 29 30 30 31 31 32
REMARK SMILES IDX 32 33 78 34 33 35 77 36 34 37 35 38 36 39 71 40 37 41 76 42
REMARK SMILES IDX 70 43 72 44 38 45 75 46 69 47 68 48 39 50 61 51 46 52 60 53
REMARK SMILES IDX 47 54 50 55 59 56 73 57 48 58 49 59 58 61 74 62 51 63 40 64
REMARK SMILES IDX 41 65 45 66 42 67 44 68 43 69 62 70 63 71 67 72 64 73 66 74
REMARK SMILES IDX 65 75 52 76 53 77 57 78 54 79 56 80 55 81
REMARK H PARENT 72 49 50 60
REMARK Flexibility Score: inf
ROOT
ATOM      1  O   UNL A   1      38.498  22.470  26.083  1.00  0.00    -0.377 OA
ENDROOT
BRANCH   1   2
ATOM      2  C   UNL A   1      37.601  22.126  25.043  1.00  0.00     0.188 C 
BRANCH   2   3
ATOM      3  C   UNL A   1      36.351  21.356  25.514  1.00  0.00     0.188 C 
BRANCH   3   4
ATOM      4  O   UNL A   1      35.271  21.125  24.623  1.00  0.00    -0.376 OA
BRANCH   4   5
ATOM      5  C   UNL A   1      34.231  22.074  24.453  1.00  0.00     0.202 C 
BRANCH   5   6
ATOM      6  C   UNL A   1      33.437  22.689  25.617  1.00  0.00     0.261 C 
BRANCH   6   7
ATOM      7  O   UNL A   1      32.520  23.743  25.317  1.00  0.00    -0.463 OA
BRANCH   7   8
ATOM      8  C   UNL A   1      31.746  24.184  26.336  1.00  0.00     0.310 C 
ATOM      9  O   UNL A   1      31.568  23.587  27.390  1.00  0.00    -0.252 OA
BRANCH   8  10
ATOM     10  C   UNL A   1      31.124  25.528  26.042  1.00  0.00     0.120 C 
ATOM     11  N   UNL A   1      30.287  26.617  24.127  1.00  0.00    -0.338 N 
ATOM     12  C   UNL A   1      29.129  25.958  24.698  1.00  0.00     0.121 C 
ATOM     13  C   UNL A   1      31.520  26.088  24.681  1.00  0.00     0.135 C 
ATOM     14  C   UNL A   1      29.583  25.577  26.098  1.00  0.00     0.039 C 
BRANCH  11  15
ATOM     15  C   UNL A   1      30.304  27.477  23.054  1.00  0.00     0.255 C 
ATOM     16  O   UNL A   1      30.975  27.244  22.051  1.00  0.00    -0.269 OA
BRANCH  15  17
ATOM     17  C   UNL A   1      29.609  28.792  23.165  1.00  0.00     0.061 A 
ATOM     18  C   UNL A   1      31.306  29.859  24.776  1.00  0.00     0.067 C 
ATOM     19  C   UNL A   1      30.088  29.884  23.905  1.00  0.00     0.050 A 
ATOM     20  N   UNL A   1      29.485  31.106  23.875  1.00  0.00    -0.261 NA
ATOM     21  C   UNL A   1      28.442  31.282  23.040  1.00  0.00     0.111 A 
ATOM     22  C   UNL A   1      28.520  29.019  22.310  1.00  0.00     0.017 A 
ATOM     23  C   UNL A   1      27.933  30.281  22.239  1.00  0.00     0.021 A 
ENDBRANCH  15  17
ENDBRANCH  11  15
ENDBRANCH   8  10
ENDBRANCH   7   8
ENDBRANCH   6   7
ENDBRANCH   5   6
ENDBRANCH   4   5
ENDBRANCH   3   4
ENDBRANCH   2   3
ENDBRANCH   1   2
BRANCH   1  24
ATOM     24  C   UNL A   1      39.492  21.502  26.392  1.00  0.00     0.188 C 
BRANCH  24  25
ATOM     25  C   UNL A   1      40.957  21.966  26.552  1.00  0.00     0.188 C 
BRANCH  25  26
ATOM     26  O   UNL A   1      41.820  21.549  25.503  1.00  0.00    -0.376 OA
BRANCH  26  27
ATOM     27  C   UNL A   1      43.216  21.479  25.753  1.00  0.00     0.202 C 
BRANCH  27  28
ATOM     28  C   UNL A   1      44.076  22.634  25.218  1.00  0.00     0.261 C 
BRANCH  28  29
ATOM     29  O   UNL A   1      43.403  23.890  25.056  1.00  0.00    -0.460 OA
BRANCH  29  30
ATOM     30  C   UNL A   1      44.122  25.014  25.285  1.00  0.00     0.338 C 
ATOM     31  O   UNL A   1      45.034  25.452  24.622  1.00  0.00    -0.246 OA
BRANCH  30  32
ATOM     32  C   UNL A   1      43.462  25.732  26.399  1.00  0.00     0.060 A 
ATOM     33  C   UNL A   1      43.851  27.048  26.680  1.00  0.00     0.016 A 
ATOM     34  C   UNL A   1      42.438  25.126  27.129  1.00  0.00     0.016 A 
ATOM     35  C   UNL A   1      43.217  27.762  27.697  1.00  0.00     0.010 A 
ATOM     36  C   UNL A   1      41.825  25.831  28.167  1.00  0.00     0.010 A 
ATOM     37  C   UNL A   1      42.223  27.147  28.467  1.00  0.00    -0.014 A 
BRANCH  37  38
ATOM     38  C   UNL A   1      41.700  27.816  29.682  1.00  0.00     0.031 A 
ATOM     39  C   UNL A   1      40.462  28.657  29.562  1.00  0.00     0.074 A 
ATOM     40  C   UNL A   1      42.315  27.684  30.870  1.00  0.00     0.049 A 
ATOM     41  N   UNL A   1      39.868  29.393  30.466  1.00  0.00    -0.248 NA
ATOM     42  C   UNL A   1      39.807  28.670  28.244  1.00  0.00     0.031 C 
ATOM     43  C   UNL A   1      43.493  26.857  31.129  1.00  0.00     0.029 A 
ATOM     44  N   UNL A   1      42.036  28.262  32.084  1.00  0.00    -0.354 N 
ATOM     45  C   UNL A   1      38.777  29.965  29.825  1.00  0.00     0.074 A 
ATOM     46  C   UNL A   1      38.804  29.510  28.451  1.00  0.00     0.031 C 
ATOM     47  C   UNL A   1      43.845  26.995  32.420  1.00  0.00     0.029 A 
ATOM     48  C   UNL A   1      42.945  27.950  33.064  1.00  0.00     0.049 A 
ATOM     49  H   UNL A   1      41.257  28.846  32.236  1.00  0.00     0.167 HD
ATOM     50  C   UNL A   1      37.838  30.797  30.333  1.00  0.00     0.031 A 
ATOM     51  C   UNL A   1      43.057  28.409  34.326  1.00  0.00     0.031 A 
ATOM     52  C   UNL A   1      37.827  31.270  31.691  1.00  0.00     0.049 A 
ATOM     53  C   UNL A   1      42.058  29.414  34.840  1.00  0.00     0.074 A 
ATOM     54  C   UNL A   1      36.906  32.100  32.306  1.00  0.00     0.029 A 
ATOM     55  N   UNL A   1      38.791  30.967  32.640  1.00  0.00    -0.354 N 
ATOM     56  N   UNL A   1      41.010  29.923  34.237  1.00  0.00    -0.248 NA
ATOM     57  C   UNL A   1      42.259  29.909  36.210  1.00  0.00     0.031 C 
ATOM     58  C   UNL A   1      37.354  32.359  33.606  1.00  0.00     0.029 A 
ATOM     59  C   UNL A   1      38.513  31.631  33.823  1.00  0.00     0.049 A 
ATOM     60  H   UNL A   1      39.560  30.370  32.494  1.00  0.00     0.167 HD
ATOM     61  C   UNL A   1      40.416  30.775  35.159  1.00  0.00     0.074 A 
ATOM     62  C   UNL A   1      41.208  30.699  36.370  1.00  0.00     0.031 C 
ATOM     63  C   UNL A   1      39.314  31.553  35.017  1.00  0.00     0.031 A 
BRANCH  50  64
ATOM     64  C   UNL A   1      36.770  31.292  29.396  1.00  0.00    -0.014 A 
ATOM     65  C   UNL A   1      36.755  32.618  28.934  1.00  0.00     0.009 A 
ATOM     66  C   UNL A   1      35.781  30.406  28.943  1.00  0.00     0.009 A 
ATOM     67  C   UNL A   1      35.750  33.053  28.067  1.00  0.00     0.001 A 
ATOM     68  C   UNL A   1      34.797  30.834  28.052  1.00  0.00     0.001 A 
ATOM     69  C   UNL A   1      34.776  32.159  27.622  1.00  0.00     0.000 A 
ENDBRANCH  50  64
BRANCH  51  70
ATOM     70  C   UNL A   1      44.184  27.959  35.187  1.00  0.00    -0.014 A 
ATOM     71  C   UNL A   1      44.001  26.948  36.142  1.00  0.00     0.009 A 
ATOM     72  C   UNL A   1      45.448  28.561  35.074  1.00  0.00     0.009 A 
ATOM     73  C   UNL A   1      45.051  26.567  36.982  1.00  0.00     0.001 A 
ATOM     74  C   UNL A   1      46.505  28.155  35.892  1.00  0.00     0.001 A 
ATOM     75  C   UNL A   1      46.304  27.167  36.852  1.00  0.00     0.000 A 
ENDBRANCH  51  70
BRANCH  63  76
ATOM     76  C   UNL A   1      38.882  32.369  36.207  1.00  0.00    -0.014 A 
ATOM     77  C   UNL A   1      37.859  31.930  37.061  1.00  0.00     0.009 A 
ATOM     78  C   UNL A   1      39.547  33.569  36.507  1.00  0.00     0.009 A 
ATOM     79  C   UNL A   1      37.488  32.692  38.171  1.00  0.00     0.001 A 
ATOM     80  C   UNL A   1      39.198  34.312  37.635  1.00  0.00     0.001 A 
ATOM     81  C   UNL A   1      38.161  33.879  38.461  1.00  0.00     0.000 A 
ENDBRANCH  63  76
ENDBRANCH  37  38
ENDBRANCH  30  32
ENDBRANCH  29  30
ENDBRANCH  28  29
ENDBRANCH  27  28
ENDBRANCH  26  27
ENDBRANCH  25  26
ENDBRANCH  24  25
ENDBRANCH   1  24
TORSDOF 22
ENDMDL
MODEL 3
REMARK VINA RESULT:      -7.6      4.470     10.205
REMARK SMILES Cc1ncccc1C(=O)N1CC[C@@H](C(=O)OCCOCCOCCOCCOC(=O)c2ccc(-c3c4nc(c(-c5ccccc5)c5ccc([nH]5)c(-c5ccccc5)c5nc(c(-c6ccccc6)c6ccc3[nH]6)C=C5)C=C4)cc2)C1
REMARK SMILES IDX 22 1 21 2 20 3 19 4 18 5 17 6 16 7 14 8 15 9 13 10 10 11
REMARK SMILES IDX 11 12 79 13 12 14 8 15 9 16 7 17 1 18 2 19 3 20 4 21 6 22
REMARK SMILES IDX 5 23 23 24 24 25 25 26 26 27 27 28 28 29 29 30 30 31 31 32
REMARK SMILES IDX 32 33 78 34 33 35 77 36 34 37 35 38 36 39 71 40 37 41 76 42
REMARK SMILES IDX 70 43 72 44 38 45 75 46 69 47 68 48 39 50 61 51 46 52 60 53
REMARK SMILES IDX 47 54 50 55 59 56 73 57 48 58 49 59 58 61 74 62 51 63 40 64
REMARK SMILES IDX 41 65 45 66 42 67 44 68 43 69 62 70 63 71 67 72 64 73 66 74
REMARK SMILES IDX 65 75 52 76 53 77 57 78 54 79 56 80 55 81
REMARK H PARENT 72 49 50 60
REMARK Flexibility Score: inf
ROOT
ATOM      1  O   UNL A   1      50.963  25.412  33.662  1.00  0.00    -0.377 OA
ENDROOT
BRANCH   1   2
ATOM      2  C   UNL A   1      50.362  25.124  32.413  1.00  0.00     0.188 C 
BRANCH   2   3
ATOM      3  C   UNL A   1      49.945  26.371  31.608  1.00  0.00     0.188 C 
BRANCH   3   4
ATOM      4  O   UNL A   1      48.594  26.552  31.211  1.00  0.00    -0.376 OA
BRANCH   4   5
ATOM      5  C   UNL A   1      47.970  25.682  30.282  1.00  0.00     0.202 C 
BRANCH   5   6
ATOM      6  C   UNL A   1      48.109  25.817  28.758  1.00  0.00     0.261 C 
BRANCH   6   7
ATOM      7  O   UNL A   1      47.228  26.718  28.083  1.00  0.00    -0.463 OA
BRANCH   7   8
ATOM      8  C   UNL A   1      46.018  26.926  28.653  1.00  0.00     0.310 C 
ATOM      9  O   UNL A   1      45.819  27.621  29.641  1.00  0.00    -0.252 OA
BRANCH   8  10
ATOM     10  C   UNL A   1      44.909  26.210  27.920  1.00  0.00     0.120 C 
ATOM     11  N   UNL A   1      44.755  24.310  26.534  1.00  0.00    -0.338 N 
ATOM     12  C   UNL A   1      44.501  23.801  27.866  1.00  0.00     0.121 C 
ATOM     13  C   UNL A   1      45.351  25.632  26.579  1.00  0.00     0.135 C 
ATOM     14  C   UNL A   1      44.237  25.053  28.688  1.00  0.00     0.039 C 
BRANCH  11  15
ATOM     15  C   UNL A   1      44.671  23.611  25.351  1.00  0.00     0.255 C 
ATOM     16  O   UNL A   1      44.351  24.161  24.299  1.00  0.00    -0.269 OA
BRANCH  15  17
ATOM     17  C   UNL A   1      44.829  22.129  25.369  1.00  0.00     0.061 A 
ATOM     18  C   UNL A   1      42.362  21.599  25.863  1.00  0.00     0.067 C 
ATOM     19  C   UNL A   1      43.776  21.219  25.553  1.00  0.00     0.050 A 
ATOM     20  N   UNL A   1      43.947  19.872  25.435  1.00  0.00    -0.261 NA
ATOM     21  C   UNL A   1      45.154  19.415  25.049  1.00  0.00     0.111 A 
ATOM     22  C   UNL A   1      46.069  21.609  24.970  1.00  0.00     0.017 A 
ATOM     23  C   UNL A   1      46.234  20.236  24.799  1.00  0.00     0.021 A 
ENDBRANCH  15  17
ENDBRANCH  11  15
ENDBRANCH   8  10
ENDBRANCH   7   8
ENDBRANCH   6   7
ENDBRANCH   5   6
ENDBRANCH   4   5
ENDBRANCH   3   4
ENDBRANCH   2   3
ENDBRANCH   1   2
BRANCH   1  24
ATOM     24  C   UNL A   1      50.151  26.107  34.599  1.00  0.00     0.188 C 
BRANCH  24  25
ATOM     25  C   UNL A   1      49.456  25.302  35.719  1.00  0.00     0.188 C 
BRANCH  25  26
ATOM     26  O   UNL A   1      48.798  24.124  35.272  1.00  0.00    -0.376 OA
BRANCH  26  27
ATOM     27  C   UNL A   1      47.878  23.482  36.141  1.00  0.00     0.202 C 
BRANCH  27  28
ATOM     28  C   UNL A   1      47.398  24.284  37.360  1.00  0.00     0.261 C 
BRANCH  28  29
ATOM     29  O   UNL A   1      46.175  25.013  37.186  1.00  0.00    -0.460 OA
BRANCH  29  30
ATOM     30  C   UNL A   1      46.217  26.352  37.382  1.00  0.00     0.338 C 
ATOM     31  O   UNL A   1      46.991  26.971  38.076  1.00  0.00    -0.246 OA
BRANCH  30  32
ATOM     32  C   UNL A   1      45.259  26.960  36.431  1.00  0.00     0.060 A 
ATOM     33  C   UNL A   1      45.663  28.071  35.680  1.00  0.00     0.016 A 
ATOM     34  C   UNL A   1      43.988  26.410  36.252  1.00  0.00     0.016 A 
ATOM     35  C   UNL A   1      44.794  28.638  34.747  1.00  0.00     0.010 A 
ATOM     36  C   UNL A   1      43.107  26.998  35.340  1.00  0.00     0.010 A 
ATOM     37  C   UNL A   1      43.500  28.125  34.596  1.00  0.00    -0.014 A 
BRANCH  37  38
ATOM     38  C   UNL A   1      42.503  28.849  33.773  1.00  0.00     0.031 A 
ATOM     39  C   UNL A   1      41.715  29.957  34.411  1.00  0.00     0.074 A 
ATOM     40  C   UNL A   1      42.297  28.528  32.484  1.00  0.00     0.049 A 
ATOM     41  N   UNL A   1      40.743  30.677  33.913  1.00  0.00    -0.248 NA
ATOM     42  C   UNL A   1      42.072  30.297  35.798  1.00  0.00     0.031 C 
ATOM     43  C   UNL A   1      43.031  27.509  31.735  1.00  0.00     0.029 A 
ATOM     44  N   UNL A   1      41.391  29.024  31.580  1.00  0.00    -0.354 N 
ATOM     45  C   UNL A   1      40.364  31.547  34.927  1.00  0.00     0.074 A 
ATOM     46  C   UNL A   1      41.195  31.250  36.074  1.00  0.00     0.031 C 
ATOM     47  C   UNL A   1      42.533  27.445  30.488  1.00  0.00     0.029 A 
ATOM     48  C   UNL A   1      41.420  28.386  30.365  1.00  0.00     0.049 A 
ATOM     49  H   UNL A   1      40.777  29.767  31.784  1.00  0.00     0.167 HD
ATOM     50  C   UNL A   1      39.408  32.505  34.906  1.00  0.00     0.031 A 
ATOM     51  C   UNL A   1      40.620  28.521  29.289  1.00  0.00     0.031 A 
ATOM     52  C   UNL A   1      38.565  32.781  33.774  1.00  0.00     0.049 A 
ATOM     53  C   UNL A   1      39.496  29.526  29.326  1.00  0.00     0.074 A 
ATOM     54  C   UNL A   1      37.580  33.745  33.650  1.00  0.00     0.029 A 
ATOM     55  N   UNL A   1      38.595  32.082  32.578  1.00  0.00    -0.354 N 
ATOM     56  N   UNL A   1      39.167  30.367  30.276  1.00  0.00    -0.248 NA
ATOM     57  C   UNL A   1      38.631  29.596  28.138  1.00  0.00     0.031 C 
ATOM     58  C   UNL A   1      36.965  33.580  32.404  1.00  0.00     0.029 A 
ATOM     59  C   UNL A   1      37.616  32.562  31.726  1.00  0.00     0.049 A 
ATOM     60  H   UNL A   1      39.220  31.351  32.367  1.00  0.00     0.167 HD
ATOM     61  C   UNL A   1      38.078  31.082  29.793  1.00  0.00     0.074 A 
ATOM     62  C   UNL A   1      37.814  30.589  28.457  1.00  0.00     0.031 C 
ATOM     63  C   UNL A   1      37.358  32.057  30.402  1.00  0.00     0.031 A 
BRANCH  50  64
ATOM     64  C   UNL A   1      39.189  33.292  36.169  1.00  0.00    -0.014 A 
ATOM     65  C   UNL A   1      39.788  34.547  36.366  1.00  0.00     0.009 A 
ATOM     66  C   UNL A   1      38.343  32.781  37.166  1.00  0.00     0.009 A 
ATOM     67  C   UNL A   1      39.571  35.255  37.550  1.00  0.00     0.001 A 
ATOM     68  C   UNL A   1      38.103  33.505  38.334  1.00  0.00     0.001 A 
ATOM     69  C   UNL A   1      38.724  34.737  38.529  1.00  0.00     0.000 A 
ENDBRANCH  50  64
BRANCH  51  70
ATOM     70  C   UNL A   1      40.819  27.656  28.096  1.00  0.00    -0.014 A 
ATOM     71  C   UNL A   1      40.195  26.403  28.004  1.00  0.00     0.009 A 
ATOM     72  C   UNL A   1      41.661  28.071  27.050  1.00  0.00     0.009 A 
ATOM     73  C   UNL A   1      40.428  25.574  26.902  1.00  0.00     0.001 A 
ATOM     74  C   UNL A   1      41.866  27.254  25.936  1.00  0.00     0.001 A 
ATOM     75  C   UNL A   1      41.259  26.003  25.867  1.00  0.00     0.000 A 
ENDBRANCH  51  70
BRANCH  63  76
ATOM     76  C   UNL A   1      36.230  32.677  29.621  1.00  0.00    -0.014 A 
ATOM     77  C   UNL A   1      36.397  33.886  28.929  1.00  0.00     0.009 A 
ATOM     78  C   UNL A   1      34.996  32.011  29.534  1.00  0.00     0.009 A 
ATOM     79  C   UNL A   1      35.343  34.432  28.194  1.00  0.00     0.001 A 
ATOM     80  C   UNL A   1      33.954  32.542  28.772  1.00  0.00     0.001 A 
ATOM     81  C   UNL A   1      34.125  33.758  28.111  1.00  0.00     0.000 A 
ENDBRANCH  63  76
ENDBRANCH  37  38
ENDBRANCH  30  32
ENDBRANCH  29  30
ENDBRANCH  28  29
ENDBRANCH  27  28
ENDBRANCH  26  27
ENDBRANCH  25  26
ENDBRANCH  24  25
ENDBRANCH   1  24
TORSDOF 22
ENDMDL
