MODEL 1
REMARK VINA RESULT:      -9.8      0.000      0.000
REMARK SMILES CCCc1cc(OC(F)(F)F)cc2c1O[C@H](C(F)(F)F)C(C(=O)OCCOCCOCCOCCOC(=O)c1ccc(-c3c4nc(c(-c5ccccc5)c5ccc([nH]5)c(-c5ccccc5)c5nc(c(-c6ccccc6)c6ccc3[nH]6)C=C5)C=C4)cc1)=C2
REMARK SMILES IDX 30 1 29 2 28 3 27 4 26 5 25 6 24 7 22 8 23 9 21 10 4 11 5 12
REMARK SMILES IDX 14 13 6 14 13 15 15 16 12 17 87 18 16 19 3 20 2 21 1 22 7 23
REMARK SMILES IDX 8 24 9 25 10 26 11 27 17 28 18 29 19 30 20 31 31 32 32 33
REMARK SMILES IDX 33 34 34 35 35 36 36 37 37 38 38 39 39 40 40 41 86 42 41 43
REMARK SMILES IDX 85 44 42 45 43 46 44 47 79 48 45 49 84 50 78 51 80 52 46 53
REMARK SMILES IDX 83 54 77 55 76 56 47 58 69 59 54 60 68 61 55 62 58 63 67 64
REMARK SMILES IDX 81 65 56 66 57 67 66 69 82 70 59 71 48 72 49 73 53 74 50 75
REMARK SMILES IDX 52 76 51 77 70 78 71 79 75 80 72 81 74 82 73 83 60 84 61 85
REMARK SMILES IDX 65 86 62 87 64 88 63 89
REMARK H PARENT 80 57 58 68
REMARK Flexibility Score: inf
ROOT
ATOM      1  O   UNL A   1      37.605  21.681  25.398  1.00  0.00    -0.377 OA
ENDROOT
BRANCH   1   2
ATOM      2  C   UNL A   1      36.246  21.870  25.760  1.00  0.00     0.188 C 
BRANCH   2   3
ATOM      3  C   UNL A   1      35.135  21.151  24.960  1.00  0.00     0.188 C 
BRANCH   3   4
ATOM      4  O   UNL A   1      34.058  20.708  25.762  1.00  0.00    -0.376 OA
BRANCH   4   5
ATOM      5  C   UNL A   1      33.015  21.609  26.070  1.00  0.00     0.202 C 
BRANCH   5   6
ATOM      6  C   UNL A   1      32.909  22.201  27.484  1.00  0.00     0.261 C 
BRANCH   6   7
ATOM      7  O   UNL A   1      32.333  23.508  27.612  1.00  0.00    -0.460 OA
BRANCH   7   8
ATOM      8  C   UNL A   1      31.231  23.778  26.882  1.00  0.00     0.338 C 
ATOM      9  O   UNL A   1      30.140  23.246  27.005  1.00  0.00    -0.246 OA
BRANCH   8  10
ATOM     10  C   UNL A   1      31.479  24.924  25.983  1.00  0.00     0.087 C 
ATOM     11  C   UNL A   1      32.043  28.765  24.516  1.00  0.00    -0.002 A 
ATOM     12  C   UNL A   1      31.154  29.268  23.556  1.00  0.00     0.054 A 
ATOM     13  C   UNL A   1      31.822  27.481  25.015  1.00  0.00     0.131 A 
ATOM     14  C   UNL A   1      30.099  28.491  23.066  1.00  0.00     0.130 A 
ATOM     15  C   UNL A   1      30.757  26.691  24.550  1.00  0.00     0.021 A 
ATOM     16  O   UNL A   1      32.648  27.050  26.025  1.00  0.00    -0.475 OA
ATOM     17  C   UNL A   1      29.914  27.195  23.558  1.00  0.00     0.058 A 
ATOM     18  C   UNL A   1      30.498  25.408  25.201  1.00  0.00     0.027 C 
ATOM     19  C   UNL A   1      32.820  25.615  26.061  1.00  0.00     0.316 C 
BRANCH  11  20
ATOM     20  C   UNL A   1      33.225  29.595  24.962  1.00  0.00     0.039 C 
BRANCH  20  21
ATOM     21  C   UNL A   1      33.157  30.017  26.435  1.00  0.00     0.001 C 
ATOM     22  C   UNL A   1      31.777  30.489  26.874  1.00  0.00     0.004 C 
ENDBRANCH  20  21
ENDBRANCH  11  20
BRANCH  14  23
ATOM     23  O   UNL A   1      29.189  28.885  22.125  1.00  0.00    -0.406 OA
BRANCH  23  24
ATOM     24  C   UNL A   1      28.502  30.106  22.356  1.00  0.00     0.573 C 
ATOM     25  F   UNL A   1      27.777  30.049  23.495  1.00  0.00    -0.132 F 
ATOM     26  F   UNL A   1      29.362  31.144  22.420  1.00  0.00    -0.132 F 
ATOM     27  F   UNL A   1      27.652  30.328  21.329  1.00  0.00    -0.132 F 
ENDBRANCH  23  24
ENDBRANCH  14  23
BRANCH  19  28
ATOM     28  C   UNL A   1      33.848  25.201  24.980  1.00  0.00     0.430 C 
ATOM     29  F   UNL A   1      33.395  24.225  24.158  1.00  0.00    -0.167 F 
ATOM     30  F   UNL A   1      34.193  26.250  24.194  1.00  0.00    -0.167 F 
ATOM     31  F   UNL A   1      34.998  24.748  25.532  1.00  0.00    -0.167 F 
ENDBRANCH  19  28
ENDBRANCH   8  10
ENDBRANCH   7   8
ENDBRANCH   6   7
ENDBRANCH   5   6
ENDBRANCH   4   5
ENDBRANCH   3   4
ENDBRANCH   2   3
ENDBRANCH   1   2
BRANCH   1  32
ATOM     32  C   UNL A   1      38.626  22.341  26.137  1.00  0.00     0.188 C 
BRANCH  32  33
ATOM     33  C   UNL A   1      40.075  21.797  26.162  1.00  0.00     0.188 C 
BRANCH  33  34
ATOM     34  O   UNL A   1      40.645  21.680  27.453  1.00  0.00    -0.376 OA
BRANCH  34  35
ATOM     35  C   UNL A   1      42.019  21.366  27.560  1.00  0.00     0.202 C 
BRANCH  35  36
ATOM     36  C   UNL A   1      42.982  22.058  26.585  1.00  0.00     0.261 C 
BRANCH  36  37
ATOM     37  O   UNL A   1      43.377  23.393  26.929  1.00  0.00    -0.460 OA
BRANCH  37  38
ATOM     38  C   UNL A   1      42.847  24.399  26.205  1.00  0.00     0.338 C 
ATOM     39  O   UNL A   1      42.648  24.423  25.001  1.00  0.00    -0.246 OA
BRANCH  38  40
ATOM     40  C   UNL A   1      42.366  25.420  27.156  1.00  0.00     0.060 A 
ATOM     41  C   UNL A   1      43.039  26.647  27.242  1.00  0.00     0.016 A 
ATOM     42  C   UNL A   1      41.237  25.172  27.939  1.00  0.00     0.016 A 
ATOM     43  C   UNL A   1      42.600  27.619  28.139  1.00  0.00     0.010 A 
ATOM     44  C   UNL A   1      40.815  26.137  28.856  1.00  0.00     0.010 A 
ATOM     45  C   UNL A   1      41.516  27.348  28.984  1.00  0.00    -0.014 A 
BRANCH  45  46
ATOM     46  C   UNL A   1      41.253  28.236  30.140  1.00  0.00     0.031 A 
ATOM     47  C   UNL A   1      40.121  29.221  30.031  1.00  0.00     0.074 A 
ATOM     48  C   UNL A   1      41.978  28.156  31.269  1.00  0.00     0.049 A 
ATOM     49  N   UNL A   1      39.714  30.117  30.891  1.00  0.00    -0.248 NA
ATOM     50  C   UNL A   1      39.345  29.188  28.779  1.00  0.00     0.031 C 
ATOM     51  C   UNL A   1      43.065  27.212  31.515  1.00  0.00     0.029 A 
ATOM     52  N   UNL A   1      41.901  28.894  32.423  1.00  0.00    -0.354 N 
ATOM     53  C   UNL A   1      38.643  30.760  30.282  1.00  0.00     0.074 A 
ATOM     54  C   UNL A   1      38.484  30.175  28.969  1.00  0.00     0.031 C 
ATOM     55  C   UNL A   1      43.560  27.432  32.747  1.00  0.00     0.029 A 
ATOM     56  C   UNL A   1      42.848  28.552  33.357  1.00  0.00     0.049 A 
ATOM     57  H   UNL A   1      41.230  29.600  32.568  1.00  0.00     0.167 HD
ATOM     58  C   UNL A   1      37.856  31.745  30.774  1.00  0.00     0.031 A 
ATOM     59  C   UNL A   1      43.118  29.099  34.559  1.00  0.00     0.031 A 
ATOM     60  C   UNL A   1      38.029  32.340  32.071  1.00  0.00     0.049 A 
ATOM     61  C   UNL A   1      42.284  30.256  35.049  1.00  0.00     0.074 A 
ATOM     62  C   UNL A   1      37.280  33.341  32.665  1.00  0.00     0.029 A 
ATOM     63  N   UNL A   1      39.026  31.996  32.970  1.00  0.00    -0.354 N 
ATOM     64  N   UNL A   1      41.257  30.840  34.477  1.00  0.00    -0.248 NA
ATOM     65  C   UNL A   1      42.640  30.820  36.358  1.00  0.00     0.031 C 
ATOM     66  C   UNL A   1      37.864  33.648  33.899  1.00  0.00     0.029 A 
ATOM     67  C   UNL A   1      38.928  32.784  34.104  1.00  0.00     0.049 A 
ATOM     68  H   UNL A   1      39.701  31.296  32.824  1.00  0.00     0.167 HD
ATOM     69  C   UNL A   1      40.822  31.810  35.373  1.00  0.00     0.074 A 
ATOM     70  C   UNL A   1      41.689  31.727  36.531  1.00  0.00     0.031 C 
ATOM     71  C   UNL A   1      39.794  32.686  35.252  1.00  0.00     0.031 A 
BRANCH  58  72
ATOM     72  C   UNL A   1      36.763  32.267  29.883  1.00  0.00    -0.014 A 
ATOM     73  C   UNL A   1      37.041  33.130  28.810  1.00  0.00     0.009 A 
ATOM     74  C   UNL A   1      35.437  31.869  30.106  1.00  0.00     0.009 A 
ATOM     75  C   UNL A   1      36.009  33.608  28.001  1.00  0.00     0.001 A 
ATOM     76  C   UNL A   1      34.410  32.322  29.275  1.00  0.00     0.001 A 
ATOM     77  C   UNL A   1      34.696  33.199  28.231  1.00  0.00     0.000 A 
ENDBRANCH  58  72
BRANCH  59  78
ATOM     78  C   UNL A   1      44.241  28.578  35.386  1.00  0.00    -0.014 A 
ATOM     79  C   UNL A   1      44.040  27.521  36.287  1.00  0.00     0.009 A 
ATOM     80  C   UNL A   1      45.515  29.162  35.302  1.00  0.00     0.009 A 
ATOM     81  C   UNL A   1      45.081  27.082  37.109  1.00  0.00     0.001 A 
ATOM     82  C   UNL A   1      46.563  28.699  36.101  1.00  0.00     0.001 A 
ATOM     83  C   UNL A   1      46.342  27.668  37.012  1.00  0.00     0.000 A 
ENDBRANCH  59  78
BRANCH  71  84
ATOM     84  C   UNL A   1      39.508  33.586  36.424  1.00  0.00    -0.014 A 
ATOM     85  C   UNL A   1      40.005  34.897  36.489  1.00  0.00     0.009 A 
ATOM     86  C   UNL A   1      38.687  33.121  37.464  1.00  0.00     0.009 A 
ATOM     87  C   UNL A   1      39.720  35.706  37.591  1.00  0.00     0.001 A 
ATOM     88  C   UNL A   1      38.373  33.944  38.546  1.00  0.00     0.001 A 
ATOM     89  C   UNL A   1      38.900  35.231  38.615  1.00  0.00     0.000 A 
ENDBRANCH  71  84
ENDBRANCH  45  46
ENDBRANCH  38  40
ENDBRANCH  37  38
ENDBRANCH  36  37
ENDBRANCH  35  36
ENDBRANCH  34  35
ENDBRANCH  33  34
ENDBRANCH  32  33
ENDBRANCH   1  32
TORSDOF 25
ENDMDL
MODEL 2
REMARK VINA RESULT:      -9.4      3.615      6.610
REMARK SMILES CCCc1cc(OC(F)(F)F)cc2c1O[C@H](C(F)(F)F)C(C(=O)OCCOCCOCCOCCOC(=O)c1ccc(-c3c4nc(c(-c5ccccc5)c5ccc([nH]5)c(-c5ccccc5)c5nc(c(-c6ccccc6)c6ccc3[nH]6)C=C5)C=C4)cc1)=C2
REMARK SMILES IDX 30 1 29 2 28 3 27 4 26 5 25 6 24 7 22 8 23 9 21 10 4 11 5 12
REMARK SMILES IDX 14 13 6 14 13 15 15 16 12 17 87 18 16 19 3 20 2 21 1 22 7 23
REMARK SMILES IDX 8 24 9 25 10 26 11 27 17 28 18 29 19 30 20 31 31 32 32 33
REMARK SMILES IDX 33 34 34 35 35 36 36 37 37 38 38 39 39 40 40 41 86 42 41 43
REMARK SMILES IDX 85 44 42 45 43 46 44 47 79 48 45 49 84 50 78 51 80 52 46 53
REMARK SMILES IDX 83 54 77 55 76 56 47 58 69 59 54 60 68 61 55 62 58 63 67 64
REMARK SMILES IDX 81 65 56 66 57 67 66 69 82 70 59 71 48 72 49 73 53 74 50 75
REMARK SMILES IDX 52 76 51 77 70 78 71 79 75 80 72 81 74 82 73 83 60 84 61 85
REMARK SMILES IDX 65 86 62 87 64 88 63 89
REMARK H PARENT 80 57 58 68
REMARK Flexibility Score: inf
ROOT
ATOM      1  O   UNL A   1      35.956  20.065  24.964  1.00  0.00    -0.377 OA
ENDROOT
BRANCH   1   2
ATOM      2  C   UNL A   1      34.596  20.394  25.203  1.00  0.00     0.188 C 
BRANCH   2   3
ATOM      3  C   UNL A   1      33.511  19.299  25.078  1.00  0.00     0.188 C 
BRANCH   3   4
ATOM      4  O   UNL A   1      32.234  19.806  24.744  1.00  0.00    -0.376 OA
BRANCH   4   5
ATOM      5  C   UNL A   1      32.133  21.095  24.176  1.00  0.00     0.202 C 
BRANCH   5   6
ATOM      6  C   UNL A   1      31.144  22.114  24.763  1.00  0.00     0.261 C 
BRANCH   6   7
ATOM      7  O   UNL A   1      31.418  22.621  26.076  1.00  0.00    -0.460 OA
BRANCH   7   8
ATOM      8  C   UNL A   1      30.697  23.681  26.498  1.00  0.00     0.338 C 
ATOM      9  O   UNL A   1      29.961  23.707  27.470  1.00  0.00    -0.246 OA
BRANCH   8  10
ATOM     10  C   UNL A   1      31.023  24.877  25.694  1.00  0.00     0.087 C 
ATOM     11  C   UNL A   1      31.764  28.790  24.526  1.00  0.00    -0.002 A 
ATOM     12  C   UNL A   1      30.942  29.381  23.557  1.00  0.00     0.054 A 
ATOM     13  C   UNL A   1      31.484  27.483  24.923  1.00  0.00     0.131 A 
ATOM     14  C   UNL A   1      29.897  28.670  22.959  1.00  0.00     0.130 A 
ATOM     15  C   UNL A   1      30.426  26.756  24.349  1.00  0.00     0.021 A 
ATOM     16  O   UNL A   1      32.241  26.961  25.944  1.00  0.00    -0.475 OA
ATOM     17  C   UNL A   1      29.652  27.349  23.350  1.00  0.00     0.058 A 
ATOM     18  C   UNL A   1      30.100  25.440  24.896  1.00  0.00     0.027 C 
ATOM     19  C   UNL A   1      32.375  25.523  25.891  1.00  0.00     0.316 C 
BRANCH  11  20
ATOM     20  C   UNL A   1      32.940  29.554  25.090  1.00  0.00     0.039 C 
BRANCH  20  21
ATOM     21  C   UNL A   1      32.572  30.463  26.269  1.00  0.00     0.001 C 
ATOM     22  C   UNL A   1      33.173  30.020  27.597  1.00  0.00     0.004 C 
ENDBRANCH  20  21
ENDBRANCH  11  20
BRANCH  14  23
ATOM     23  O   UNL A   1      29.050  29.152  22.000  1.00  0.00    -0.406 OA
BRANCH  23  24
ATOM     24  C   UNL A   1      27.951  29.936  22.437  1.00  0.00     0.573 C 
ATOM     25  F   UNL A   1      26.960  29.157  22.924  1.00  0.00    -0.132 F 
ATOM     26  F   UNL A   1      28.330  30.825  23.380  1.00  0.00    -0.132 F 
ATOM     27  F   UNL A   1      27.461  30.625  21.383  1.00  0.00    -0.132 F 
ENDBRANCH  23  24
ENDBRANCH  14  23
BRANCH  19  28
ATOM     28  C   UNL A   1      33.451  25.152  24.841  1.00  0.00     0.430 C 
ATOM     29  F   UNL A   1      32.930  24.842  23.630  1.00  0.00    -0.167 F 
ATOM     30  F   UNL A   1      34.326  26.170  24.645  1.00  0.00    -0.167 F 
ATOM     31  F   UNL A   1      34.190  24.090  25.237  1.00  0.00    -0.167 F 
ENDBRANCH  19  28
ENDBRANCH   8  10
ENDBRANCH   7   8
ENDBRANCH   6   7
ENDBRANCH   5   6
ENDBRANCH   4   5
ENDBRANCH   3   4
ENDBRANCH   2   3
ENDBRANCH   1   2
BRANCH   1  32
ATOM     32  C   UNL A   1      36.924  21.103  24.872  1.00  0.00     0.188 C 
BRANCH  32  33
ATOM     33  C   UNL A   1      38.388  20.872  25.317  1.00  0.00     0.188 C 
BRANCH  33  34
ATOM     34  O   UNL A   1      38.907  21.856  26.193  1.00  0.00    -0.376 OA
BRANCH  34  35
ATOM     35  C   UNL A   1      40.304  21.905  26.406  1.00  0.00     0.202 C 
BRANCH  35  36
ATOM     36  C   UNL A   1      41.075  20.579  26.351  1.00  0.00     0.261 C 
BRANCH  36  37
ATOM     37  O   UNL A   1      42.459  20.636  26.722  1.00  0.00    -0.460 OA
BRANCH  37  38
ATOM     38  C   UNL A   1      43.308  21.216  25.851  1.00  0.00     0.338 C 
ATOM     39  O   UNL A   1      43.696  20.769  24.783  1.00  0.00    -0.246 OA
BRANCH  38  40
ATOM     40  C   UNL A   1      43.555  22.592  26.324  1.00  0.00     0.060 A 
ATOM     41  C   UNL A   1      43.779  22.817  27.689  1.00  0.00     0.016 A 
ATOM     42  C   UNL A   1      43.589  23.650  25.414  1.00  0.00     0.016 A 
ATOM     43  C   UNL A   1      44.009  24.111  28.152  1.00  0.00     0.010 A 
ATOM     44  C   UNL A   1      43.791  24.950  25.883  1.00  0.00     0.010 A 
ATOM     45  C   UNL A   1      43.966  25.188  27.258  1.00  0.00    -0.014 A 
BRANCH  45  46
ATOM     46  C   UNL A   1      43.889  26.570  27.783  1.00  0.00     0.031 A 
ATOM     47  C   UNL A   1      45.177  27.319  27.992  1.00  0.00     0.074 A 
ATOM     48  C   UNL A   1      42.710  27.160  28.044  1.00  0.00     0.049 A 
ATOM     49  N   UNL A   1      45.371  28.523  28.464  1.00  0.00    -0.248 NA
ATOM     50  C   UNL A   1      46.413  26.611  27.616  1.00  0.00     0.031 C 
ATOM     51  C   UNL A   1      41.395  26.559  27.837  1.00  0.00     0.029 A 
ATOM     52  N   UNL A   1      42.437  28.407  28.547  1.00  0.00    -0.354 N 
ATOM     53  C   UNL A   1      46.748  28.712  28.452  1.00  0.00     0.074 A 
ATOM     54  C   UNL A   1      47.343  27.490  27.957  1.00  0.00     0.031 C 
ATOM     55  C   UNL A   1      40.451  27.439  28.216  1.00  0.00     0.029 A 
ATOM     56  C   UNL A   1      41.097  28.647  28.724  1.00  0.00     0.049 A 
ATOM     57  H   UNL A   1      43.136  29.068  28.760  1.00  0.00     0.167 HD
ATOM     58  C   UNL A   1      47.455  29.807  28.812  1.00  0.00     0.031 A 
ATOM     59  C   UNL A   1      40.469  29.715  29.254  1.00  0.00     0.031 A 
ATOM     60  C   UNL A   1      46.865  31.014  29.324  1.00  0.00     0.049 A 
ATOM     61  C   UNL A   1      41.285  30.889  29.732  1.00  0.00     0.074 A 
ATOM     62  C   UNL A   1      47.495  32.183  29.713  1.00  0.00     0.029 A 
ATOM     63  N   UNL A   1      45.507  31.202  29.528  1.00  0.00    -0.354 N 
ATOM     64  N   UNL A   1      42.584  31.069  29.693  1.00  0.00    -0.248 NA
ATOM     65  C   UNL A   1      40.543  32.015  30.318  1.00  0.00     0.031 C 
ATOM     66  C   UNL A   1      46.523  33.056  30.213  1.00  0.00     0.029 A 
ATOM     67  C   UNL A   1      45.281  32.458  30.062  1.00  0.00     0.049 A 
ATOM     68  H   UNL A   1      44.808  30.540  29.323  1.00  0.00     0.167 HD
ATOM     69  C   UNL A   1      42.809  32.340  30.209  1.00  0.00     0.074 A 
ATOM     70  C   UNL A   1      41.512  32.891  30.544  1.00  0.00     0.031 C 
ATOM     71  C   UNL A   1      43.983  32.996  30.385  1.00  0.00     0.031 A 
BRANCH  58  72
ATOM     72  C   UNL A   1      48.953  29.730  28.705  1.00  0.00    -0.014 A 
ATOM     73  C   UNL A   1      49.741  29.252  29.764  1.00  0.00     0.009 A 
ATOM     74  C   UNL A   1      49.584  30.119  27.513  1.00  0.00     0.009 A 
ATOM     75  C   UNL A   1      51.131  29.197  29.643  1.00  0.00     0.001 A 
ATOM     76  C   UNL A   1      50.971  30.031  27.382  1.00  0.00     0.001 A 
ATOM     77  C   UNL A   1      51.744  29.580  28.451  1.00  0.00     0.000 A 
ENDBRANCH  58  72
BRANCH  59  78
ATOM     78  C   UNL A   1      38.986  29.726  29.384  1.00  0.00    -0.014 A 
ATOM     79  C   UNL A   1      38.177  30.197  28.338  1.00  0.00     0.009 A 
ATOM     80  C   UNL A   1      38.373  29.297  30.572  1.00  0.00     0.009 A 
ATOM     81  C   UNL A   1      36.790  30.269  28.492  1.00  0.00     0.001 A 
ATOM     82  C   UNL A   1      36.984  29.339  30.711  1.00  0.00     0.001 A 
ATOM     83  C   UNL A   1      36.195  29.835  29.675  1.00  0.00     0.000 A 
ENDBRANCH  59  78
BRANCH  71  84
ATOM     84  C   UNL A   1      43.919  34.406  30.907  1.00  0.00    -0.014 A 
ATOM     85  C   UNL A   1      43.533  34.689  32.227  1.00  0.00     0.009 A 
ATOM     86  C   UNL A   1      44.295  35.468  30.069  1.00  0.00     0.009 A 
ATOM     87  C   UNL A   1      43.485  36.009  32.680  1.00  0.00     0.001 A 
ATOM     88  C   UNL A   1      44.281  36.783  30.535  1.00  0.00     0.001 A 
ATOM     89  C   UNL A   1      43.864  37.054  31.836  1.00  0.00     0.000 A 
ENDBRANCH  71  84
ENDBRANCH  45  46
ENDBRANCH  38  40
ENDBRANCH  37  38
ENDBRANCH  36  37
ENDBRANCH  35  36
ENDBRANCH  34  35
ENDBRANCH  33  34
ENDBRANCH  32  33
ENDBRANCH   1  32
TORSDOF 25
ENDMDL
MODEL 3
REMARK VINA RESULT:      -9.0      6.209     12.621
REMARK SMILES CCCc1cc(OC(F)(F)F)cc2c1O[C@H](C(F)(F)F)C(C(=O)OCCOCCOCCOCCOC(=O)c1ccc(-c3c4nc(c(-c5ccccc5)c5ccc([nH]5)c(-c5ccccc5)c5nc(c(-c6ccccc6)c6ccc3[nH]6)C=C5)C=C4)cc1)=C2
REMARK SMILES IDX 30 1 29 2 28 3 27 4 26 5 25 6 24 7 22 8 23 9 21 10 4 11 5 12
REMARK SMILES IDX 14 13 6 14 13 15 15 16 12 17 87 18 16 19 3 20 2 21 1 22 7 23
REMARK SMILES IDX 8 24 9 25 10 26 11 27 17 28 18 29 19 30 20 31 31 32 32 33
REMARK SMILES IDX 33 34 34 35 35 36 36 37 37 38 38 39 39 40 40 41 86 42 41 43
REMARK SMILES IDX 85 44 42 45 43 46 44 47 79 48 45 49 84 50 78 51 80 52 46 53
REMARK SMILES IDX 83 54 77 55 76 56 47 58 69 59 54 60 68 61 55 62 58 63 67 64
REMARK SMILES IDX 81 65 56 66 57 67 66 69 82 70 59 71 48 72 49 73 53 74 50 75
REMARK SMILES IDX 52 76 51 77 70 78 71 79 75 80 72 81 74 82 73 83 60 84 61 85
REMARK SMILES IDX 65 86 62 87 64 88 63 89
REMARK H PARENT 80 57 58 68
REMARK Flexibility Score: inf
ROOT
ATOM      1  O   UNL A   1      36.444  33.077  35.269  1.00  0.00    -0.377 OA
ENDROOT
BRANCH   1   2
ATOM      2  C   UNL A   1      37.420  32.449  34.453  1.00  0.00     0.188 C 
BRANCH   2   3
ATOM      3  C   UNL A   1      38.170  31.203  34.980  1.00  0.00     0.188 C 
BRANCH   3   4
ATOM      4  O   UNL A   1      39.468  31.488  35.462  1.00  0.00    -0.376 OA
BRANCH   4   5
ATOM      5  C   UNL A   1      40.559  30.724  34.993  1.00  0.00     0.202 C 
BRANCH   5   6
ATOM      6  C   UNL A   1      41.383  29.882  35.978  1.00  0.00     0.261 C 
BRANCH   6   7
ATOM      7  O   UNL A   1      42.668  29.420  35.540  1.00  0.00    -0.460 OA
BRANCH   7   8
ATOM      8  C   UNL A   1      43.479  28.863  36.464  1.00  0.00     0.338 C 
ATOM      9  O   UNL A   1      43.818  29.370  37.521  1.00  0.00    -0.246 OA
BRANCH   8  10
ATOM     10  C   UNL A   1      43.806  27.472  36.088  1.00  0.00     0.087 C 
ATOM     11  C   UNL A   1      45.809  24.087  34.761  1.00  0.00    -0.002 A 
ATOM     12  C   UNL A   1      45.320  23.400  33.642  1.00  0.00     0.054 A 
ATOM     13  C   UNL A   1      45.136  25.237  35.176  1.00  0.00     0.131 A 
ATOM     14  C   UNL A   1      44.159  23.816  32.982  1.00  0.00     0.130 A 
ATOM     15  C   UNL A   1      43.978  25.684  34.517  1.00  0.00     0.021 A 
ATOM     16  O   UNL A   1      45.691  25.948  36.213  1.00  0.00    -0.475 OA
ATOM     17  C   UNL A   1      43.482  24.954  33.435  1.00  0.00     0.058 A 
ATOM     18  C   UNL A   1      43.392  26.962  34.916  1.00  0.00     0.027 C 
ATOM     19  C   UNL A   1      44.723  26.684  36.995  1.00  0.00     0.316 C 
BRANCH  11  20
ATOM     20  C   UNL A   1      47.015  23.564  35.505  1.00  0.00     0.039 C 
BRANCH  20  21
ATOM     21  C   UNL A   1      48.284  23.496  34.646  1.00  0.00     0.001 C 
ATOM     22  C   UNL A   1      49.029  24.821  34.548  1.00  0.00     0.004 C 
ENDBRANCH  20  21
ENDBRANCH  11  20
BRANCH  14  23
ATOM     23  O   UNL A   1      43.598  23.208  31.894  1.00  0.00    -0.406 OA
BRANCH  23  24
ATOM     24  C   UNL A   1      44.132  23.534  30.620  1.00  0.00     0.573 C 
ATOM     25  F   UNL A   1      44.750  22.468  30.064  1.00  0.00    -0.132 F 
ATOM     26  F   UNL A   1      43.168  23.982  29.787  1.00  0.00    -0.132 F 
ATOM     27  F   UNL A   1      45.047  24.517  30.770  1.00  0.00    -0.132 F 
ENDBRANCH  23  24
ENDBRANCH  14  23
BRANCH  19  28
ATOM     28  C   UNL A   1      44.019  25.714  37.975  1.00  0.00     0.430 C 
ATOM     29  F   UNL A   1      42.762  25.388  37.594  1.00  0.00    -0.167 F 
ATOM     30  F   UNL A   1      44.706  24.551  38.103  1.00  0.00    -0.167 F 
ATOM     31  F   UNL A   1      43.931  26.238  39.220  1.00  0.00    -0.167 F 
ENDBRANCH  19  28
ENDBRANCH   8  10
ENDBRANCH   7   8
ENDBRANCH   6   7
ENDBRANCH   5   6
ENDBRANCH   4   5
ENDBRANCH   3   4
ENDBRANCH   2   3
ENDBRANCH   1   2
BRANCH   1  32
ATOM     32  C   UNL A   1      35.568  34.042  34.698  1.00  0.00     0.188 C 
BRANCH  32  33
ATOM     33  C   UNL A   1      34.605  33.667  33.547  1.00  0.00     0.188 C 
BRANCH  33  34
ATOM     34  O   UNL A   1      33.571  34.605  33.306  1.00  0.00    -0.376 OA
BRANCH  34  35
ATOM     35  C   UNL A   1      33.900  35.827  32.676  1.00  0.00     0.202 C 
BRANCH  35  36
ATOM     36  C   UNL A   1      33.471  36.007  31.212  1.00  0.00     0.261 C 
BRANCH  36  37
ATOM     37  O   UNL A   1      32.784  34.898  30.615  1.00  0.00    -0.460 OA
BRANCH  37  38
ATOM     38  C   UNL A   1      33.182  34.518  29.384  1.00  0.00     0.338 C 
ATOM     39  O   UNL A   1      32.650  34.783  28.317  1.00  0.00    -0.246 OA
BRANCH  38  40
ATOM     40  C   UNL A   1      34.497  33.866  29.527  1.00  0.00     0.060 A 
ATOM     41  C   UNL A   1      34.622  32.751  30.369  1.00  0.00     0.016 A 
ATOM     42  C   UNL A   1      35.597  34.342  28.810  1.00  0.00     0.016 A 
ATOM     43  C   UNL A   1      35.859  32.128  30.519  1.00  0.00     0.010 A 
ATOM     44  C   UNL A   1      36.842  33.733  28.983  1.00  0.00     0.010 A 
ATOM     45  C   UNL A   1      36.984  32.647  29.865  1.00  0.00    -0.014 A 
BRANCH  45  46
ATOM     46  C   UNL A   1      38.335  32.194  30.267  1.00  0.00     0.031 A 
ATOM     47  C   UNL A   1      38.832  30.884  29.720  1.00  0.00     0.074 A 
ATOM     48  C   UNL A   1      39.115  32.934  31.073  1.00  0.00     0.049 A 
ATOM     49  N   UNL A   1      39.962  30.264  29.945  1.00  0.00    -0.248 NA
ATOM     50  C   UNL A   1      37.930  30.178  28.794  1.00  0.00     0.031 C 
ATOM     51  C   UNL A   1      38.768  34.240  31.626  1.00  0.00     0.029 A 
ATOM     52  N   UNL A   1      40.370  32.679  31.567  1.00  0.00    -0.354 N 
ATOM     53  C   UNL A   1      39.901  29.094  29.198  1.00  0.00     0.074 A 
ATOM     54  C   UNL A   1      38.614  29.073  28.540  1.00  0.00     0.031 C 
ATOM     55  C   UNL A   1      39.788  34.673  32.390  1.00  0.00     0.029 A 
ATOM     56  C   UNL A   1      40.839  33.658  32.407  1.00  0.00     0.049 A 
ATOM     57  H   UNL A   1      40.886  31.871  31.339  1.00  0.00     0.167 HD
ATOM     58  C   UNL A   1      40.837  28.126  29.065  1.00  0.00     0.031 A 
ATOM     59  C   UNL A   1      41.980  33.715  33.123  1.00  0.00     0.031 A 
ATOM     60  C   UNL A   1      42.108  28.137  29.736  1.00  0.00     0.049 A 
ATOM     61  C   UNL A   1      42.969  32.581  33.027  1.00  0.00     0.074 A 
ATOM     62  C   UNL A   1      43.129  27.205  29.663  1.00  0.00     0.029 A 
ATOM     63  N   UNL A   1      42.527  29.126  30.612  1.00  0.00    -0.354 N 
ATOM     64  N   UNL A   1      42.914  31.491  32.298  1.00  0.00    -0.248 NA
ATOM     65  C   UNL A   1      44.184  32.693  33.845  1.00  0.00     0.031 C 
ATOM     66  C   UNL A   1      44.140  27.598  30.546  1.00  0.00     0.029 A 
ATOM     67  C   UNL A   1      43.782  28.813  31.108  1.00  0.00     0.049 A 
ATOM     68  H   UNL A   1      42.011  29.930  30.846  1.00  0.00     0.167 HD
ATOM     69  C   UNL A   1      44.102  30.811  32.540  1.00  0.00     0.074 A 
ATOM     70  C   UNL A   1      44.863  31.617  33.473  1.00  0.00     0.031 C 
ATOM     71  C   UNL A   1      44.529  29.629  32.031  1.00  0.00     0.031 A 
BRANCH  58  72
ATOM     72  C   UNL A   1      40.497  26.951  28.190  1.00  0.00    -0.014 A 
ATOM     73  C   UNL A   1      39.703  25.892  28.659  1.00  0.00     0.009 A 
ATOM     74  C   UNL A   1      40.958  26.917  26.865  1.00  0.00     0.009 A 
ATOM     75  C   UNL A   1      39.408  24.808  27.830  1.00  0.00     0.001 A 
ATOM     76  C   UNL A   1      40.633  25.848  26.027  1.00  0.00     0.001 A 
ATOM     77  C   UNL A   1      39.867  24.790  26.514  1.00  0.00     0.000 A 
ENDBRANCH  58  72
BRANCH  59  78
ATOM     78  C   UNL A   1      42.251  34.877  34.012  1.00  0.00    -0.014 A 
ATOM     79  C   UNL A   1      41.869  34.854  35.363  1.00  0.00     0.009 A 
ATOM     80  C   UNL A   1      42.865  36.033  33.503  1.00  0.00     0.009 A 
ATOM     81  C   UNL A   1      42.065  35.974  36.174  1.00  0.00     0.001 A 
ATOM     82  C   UNL A   1      43.090  37.139  34.326  1.00  0.00     0.001 A 
ATOM     83  C   UNL A   1      42.679  37.113  35.657  1.00  0.00     0.000 A 
ENDBRANCH  59  78
BRANCH  71  84
ATOM     84  C   UNL A   1      45.906  29.162  32.422  1.00  0.00    -0.014 A 
ATOM     85  C   UNL A   1      46.138  28.459  33.615  1.00  0.00     0.009 A 
ATOM     86  C   UNL A   1      46.985  29.396  31.553  1.00  0.00     0.009 A 
ATOM     87  C   UNL A   1      47.428  28.039  33.947  1.00  0.00     0.001 A 
ATOM     88  C   UNL A   1      48.265  28.943  31.870  1.00  0.00     0.001 A 
ATOM     89  C   UNL A   1      48.489  28.276  33.073  1.00  0.00     0.000 A 
ENDBRANCH  71  84
ENDBRANCH  45  46
ENDBRANCH  38  40
ENDBRANCH  37  38
ENDBRANCH  36  37
ENDBRANCH  35  36
ENDBRANCH  34  35
ENDBRANCH  33  34
ENDBRANCH  32  33
ENDBRANCH   1  32
TORSDOF 25
ENDMDL
