MODEL 1
REMARK VINA RESULT:      -9.5      0.000      0.000
REMARK SMILES CCC[NH2+][C@]1(C(=O)OCCOCCOCCOCCOC(=O)c2ccc(-c3c4nc(c(-c5ccccc5)c5ccc([nH]5)c(-c5ccccc5)c5nc(c(-c6ccccc6)c6ccc3[nH]6)C=C5)C=C4)cc2)CC[C@H]([N@@H+]2CCC[C@H]3CCC[C@@H]32)C1
REMARK SMILES IDX 13 1 12 2 11 3 10 4 9 5 8 6 6 7 7 8 5 9 71 10 83 11 72 12
REMARK SMILES IDX 73 13 4 14 3 17 2 18 1 19 74 20 75 21 82 22 76 24 78 25
REMARK SMILES IDX 81 26 77 27 79 28 80 29 14 30 15 31 16 32 17 33 18 34 19 35
REMARK SMILES IDX 20 36 21 37 22 38 23 39 24 40 70 41 25 42 69 43 26 44 27 45
REMARK SMILES IDX 28 46 63 47 29 48 68 49 62 50 64 51 30 52 67 53 61 54 60 55
REMARK SMILES IDX 31 57 53 58 38 59 52 60 39 61 42 62 51 63 65 64 40 65 41 66
REMARK SMILES IDX 50 68 66 69 43 70 32 71 33 72 37 73 34 74 36 75 35 76 54 77
REMARK SMILES IDX 55 78 59 79 56 80 58 81 57 82 44 83 45 84 49 85 46 86 48 87
REMARK SMILES IDX 47 88
REMARK H PARENT 4 15 4 16 74 23 64 56 42 67
REMARK Flexibility Score: inf
ROOT
ATOM      1  C   UNL A   1      33.216  34.935  29.071  1.00  0.00     0.188 C 
ENDROOT
BRANCH   1   2
ATOM      2  C   UNL A   1      34.140  33.810  28.516  1.00  0.00     0.188 C 
BRANCH   2   3
ATOM      3  O   UNL A   1      33.601  32.500  28.592  1.00  0.00    -0.376 OA
BRANCH   3   4
ATOM      4  C   UNL A   1      33.947  31.584  27.563  1.00  0.00     0.202 C 
BRANCH   4   5
ATOM      5  C   UNL A   1      32.796  30.751  26.968  1.00  0.00     0.261 C 
BRANCH   5   6
ATOM      6  O   UNL A   1      33.148  29.997  25.779  1.00  0.00    -0.459 OA
BRANCH   6   7
ATOM      7  C   UNL A   1      32.200  29.143  25.316  1.00  0.00     0.368 C 
ATOM      8  O   UNL A   1      31.069  29.537  25.051  1.00  0.00    -0.245 OA
BRANCH   7   9
ATOM      9  C   UNL A   1      32.728  27.667  25.077  1.00  0.00     0.200 C 
ATOM     10  C   UNL A   1      34.132  27.430  25.636  1.00  0.00     0.087 C 
ATOM     11  C   UNL A   1      31.919  26.564  25.786  1.00  0.00     0.146 C 
ATOM     12  C   UNL A   1      34.293  25.944  25.908  1.00  0.00     0.072 C 
ATOM     13  C   UNL A   1      32.878  25.338  25.930  1.00  0.00     0.191 C 
BRANCH   9  14
ATOM     14  N   UNL A   1      32.621  27.313  23.646  1.00  0.00    -0.332 N 
ATOM     15  H   UNL A   1      32.732  28.172  23.106  1.00  0.00     0.347 HD
ATOM     16  H   UNL A   1      33.346  26.613  23.488  1.00  0.00     0.347 HD
BRANCH  14  17
ATOM     17  C   UNL A   1      31.378  26.680  23.220  1.00  0.00     0.261 C 
BRANCH  17  18
ATOM     18  C   UNL A   1      31.686  25.562  22.216  1.00  0.00     0.058 C 
ATOM     19  C   UNL A   1      32.430  26.027  20.964  1.00  0.00     0.010 C 
ENDBRANCH  17  18
ENDBRANCH  14  17
ENDBRANCH   9  14
BRANCH  13  20
ATOM     20  N   UNL A   1      32.469  23.997  25.369  1.00  0.00    -0.330 N 
ATOM     21  C   UNL A   1      31.362  23.475  26.218  1.00  0.00     0.262 C 
ATOM     22  C   UNL A   1      33.348  22.801  25.260  1.00  0.00     0.187 C 
ATOM     23  H   UNL A   1      32.335  24.294  24.401  1.00  0.00     0.348 HD
ATOM     24  C   UNL A   1      31.843  22.919  27.578  1.00  0.00     0.062 C 
ATOM     25  C   UNL A   1      34.203  22.539  26.478  1.00  0.00     0.048 C 
ATOM     26  C   UNL A   1      34.229  22.384  24.085  1.00  0.00     0.065 C 
ATOM     27  C   UNL A   1      33.316  22.424  27.721  1.00  0.00     0.015 C 
ATOM     28  C   UNL A   1      35.120  21.361  26.141  1.00  0.00     0.010 C 
ATOM     29  C   UNL A   1      34.907  21.108  24.648  1.00  0.00     0.007 C 
ENDBRANCH  13  20
ENDBRANCH   7   9
ENDBRANCH   6   7
ENDBRANCH   5   6
ENDBRANCH   4   5
ENDBRANCH   3   4
ENDBRANCH   2   3
ENDBRANCH   1   2
BRANCH   1  30
ATOM     30  O   UNL A   1      33.637  35.841  30.080  1.00  0.00    -0.377 OA
BRANCH  30  31
ATOM     31  C   UNL A   1      33.005  35.750  31.342  1.00  0.00     0.188 C 
BRANCH  31  32
ATOM     32  C   UNL A   1      33.625  36.692  32.390  1.00  0.00     0.188 C 
BRANCH  32  33
ATOM     33  O   UNL A   1      34.006  36.031  33.582  1.00  0.00    -0.376 OA
BRANCH  33  34
ATOM     34  C   UNL A   1      35.184  35.247  33.643  1.00  0.00     0.202 C 
BRANCH  34  35
ATOM     35  C   UNL A   1      35.246  33.778  34.111  1.00  0.00     0.261 C 
BRANCH  35  36
ATOM     36  O   UNL A   1      36.021  32.847  33.354  1.00  0.00    -0.460 OA
BRANCH  36  37
ATOM     37  C   UNL A   1      35.422  32.223  32.328  1.00  0.00     0.338 C 
ATOM     38  O   UNL A   1      34.280  32.392  31.924  1.00  0.00    -0.246 OA
BRANCH  37  39
ATOM     39  C   UNL A   1      36.458  31.451  31.612  1.00  0.00     0.060 A 
ATOM     40  C   UNL A   1      37.404  30.748  32.373  1.00  0.00     0.016 A 
ATOM     41  C   UNL A   1      36.478  31.379  30.215  1.00  0.00     0.016 A 
ATOM     42  C   UNL A   1      38.399  30.011  31.743  1.00  0.00     0.010 A 
ATOM     43  C   UNL A   1      37.507  30.677  29.580  1.00  0.00     0.010 A 
ATOM     44  C   UNL A   1      38.497  30.036  30.346  1.00  0.00    -0.014 A 
BRANCH  44  45
ATOM     45  C   UNL A   1      39.794  29.658  29.744  1.00  0.00     0.031 A 
ATOM     46  C   UNL A   1      39.871  28.324  29.051  1.00  0.00     0.074 A 
ATOM     47  C   UNL A   1      40.836  30.505  29.716  1.00  0.00     0.049 A 
ATOM     48  N   UNL A   1      40.860  27.786  28.387  1.00  0.00    -0.248 NA
ATOM     49  C   UNL A   1      38.659  27.487  29.108  1.00  0.00     0.031 C 
ATOM     50  C   UNL A   1      40.859  31.846  30.296  1.00  0.00     0.029 A 
ATOM     51  N   UNL A   1      42.079  30.355  29.156  1.00  0.00    -0.354 N 
ATOM     52  C   UNL A   1      40.391  26.553  27.952  1.00  0.00     0.074 A 
ATOM     53  C   UNL A   1      39.046  26.402  28.456  1.00  0.00     0.031 C 
ATOM     54  C   UNL A   1      42.061  32.400  30.058  1.00  0.00     0.029 A 
ATOM     55  C   UNL A   1      42.897  31.443  29.336  1.00  0.00     0.049 A 
ATOM     56  H   UNL A   1      42.358  29.544  28.672  1.00  0.00     0.167 HD
ATOM     57  C   UNL A   1      41.019  25.628  27.191  1.00  0.00     0.031 A 
ATOM     58  C   UNL A   1      44.177  31.632  28.964  1.00  0.00     0.031 A 
ATOM     59  C   UNL A   1      42.365  25.770  26.706  1.00  0.00     0.049 A 
ATOM     60  C   UNL A   1      44.889  30.547  28.196  1.00  0.00     0.074 A 
ATOM     61  C   UNL A   1      43.096  24.893  25.927  1.00  0.00     0.029 A 
ATOM     62  N   UNL A   1      43.183  26.857  26.968  1.00  0.00    -0.354 N 
ATOM     63  N   UNL A   1      44.429  29.394  27.769  1.00  0.00    -0.248 NA
ATOM     64  C   UNL A   1      46.294  30.799  27.847  1.00  0.00     0.031 C 
ATOM     65  C   UNL A   1      44.383  25.420  25.773  1.00  0.00     0.029 A 
ATOM     66  C   UNL A   1      44.427  26.659  26.392  1.00  0.00     0.049 A 
ATOM     67  H   UNL A   1      42.921  27.652  27.487  1.00  0.00     0.167 HD
ATOM     68  C   UNL A   1      45.477  28.799  27.076  1.00  0.00     0.074 A 
ATOM     69  C   UNL A   1      46.587  29.729  27.121  1.00  0.00     0.031 C 
ATOM     70  C   UNL A   1      45.522  27.593  26.456  1.00  0.00     0.031 A 
BRANCH  57  71
ATOM     71  C   UNL A   1      40.266  24.365  26.882  1.00  0.00    -0.014 A 
ATOM     72  C   UNL A   1      39.036  24.387  26.207  1.00  0.00     0.009 A 
ATOM     73  C   UNL A   1      40.807  23.127  27.264  1.00  0.00     0.009 A 
ATOM     74  C   UNL A   1      38.344  23.200  25.955  1.00  0.00     0.001 A 
ATOM     75  C   UNL A   1      40.130  21.939  26.981  1.00  0.00     0.001 A 
ATOM     76  C   UNL A   1      38.895  21.978  26.336  1.00  0.00     0.000 A 
ENDBRANCH  57  71
BRANCH  58  77
ATOM     77  C   UNL A   1      44.886  32.888  29.328  1.00  0.00    -0.014 A 
ATOM     78  C   UNL A   1      44.908  33.985  28.452  1.00  0.00     0.009 A 
ATOM     79  C   UNL A   1      45.577  32.984  30.546  1.00  0.00     0.009 A 
ATOM     80  C   UNL A   1      45.632  35.135  28.773  1.00  0.00     0.001 A 
ATOM     81  C   UNL A   1      46.274  34.147  30.880  1.00  0.00     0.001 A 
ATOM     82  C   UNL A   1      46.311  35.217  29.989  1.00  0.00     0.000 A 
ENDBRANCH  58  77
BRANCH  70  83
ATOM     83  C   UNL A   1      46.798  27.232  25.745  1.00  0.00    -0.014 A 
ATOM     84  C   UNL A   1      47.027  27.602  24.411  1.00  0.00     0.009 A 
ATOM     85  C   UNL A   1      47.800  26.530  26.435  1.00  0.00     0.009 A 
ATOM     86  C   UNL A   1      48.210  27.232  23.768  1.00  0.00     0.001 A 
ATOM     87  C   UNL A   1      48.997  26.194  25.802  1.00  0.00     0.001 A 
ATOM     88  C   UNL A   1      49.195  26.533  24.465  1.00  0.00     0.000 A 
ENDBRANCH  70  83
ENDBRANCH  44  45
ENDBRANCH  37  39
ENDBRANCH  36  37
ENDBRANCH  35  36
ENDBRANCH  34  35
ENDBRANCH  33  34
ENDBRANCH  32  33
ENDBRANCH  31  32
ENDBRANCH  30  31
ENDBRANCH   1  30
TORSDOF 24
ENDMDL
MODEL 2
REMARK VINA RESULT:      -9.4      4.798     10.430
REMARK SMILES CCC[NH2+][C@]1(C(=O)OCCOCCOCCOCCOC(=O)c2ccc(-c3c4nc(c(-c5ccccc5)c5ccc([nH]5)c(-c5ccccc5)c5nc(c(-c6ccccc6)c6ccc3[nH]6)C=C5)C=C4)cc2)CC[C@H]([N@@H+]2CCC[C@H]3CCC[C@@H]32)C1
REMARK SMILES IDX 13 1 12 2 11 3 10 4 9 5 8 6 6 7 7 8 5 9 71 10 83 11 72 12
REMARK SMILES IDX 73 13 4 14 3 17 2 18 1 19 74 20 75 21 82 22 76 24 78 25
REMARK SMILES IDX 81 26 77 27 79 28 80 29 14 30 15 31 16 32 17 33 18 34 19 35
REMARK SMILES IDX 20 36 21 37 22 38 23 39 24 40 70 41 25 42 69 43 26 44 27 45
REMARK SMILES IDX 28 46 63 47 29 48 68 49 62 50 64 51 30 52 67 53 61 54 60 55
REMARK SMILES IDX 31 57 53 58 38 59 52 60 39 61 42 62 51 63 65 64 40 65 41 66
REMARK SMILES IDX 50 68 66 69 43 70 32 71 33 72 37 73 34 74 36 75 35 76 54 77
REMARK SMILES IDX 55 78 59 79 56 80 58 81 57 82 44 83 45 84 49 85 46 86 48 87
REMARK SMILES IDX 47 88
REMARK H PARENT 4 15 4 16 74 23 64 56 42 67
REMARK Flexibility Score: inf
ROOT
ATOM      1  C   UNL A   1      41.406  20.694  26.056  1.00  0.00     0.188 C 
ENDROOT
BRANCH   1   2
ATOM      2  C   UNL A   1      40.274  21.452  26.811  1.00  0.00     0.188 C 
BRANCH   2   3
ATOM      3  O   UNL A   1      39.263  22.001  25.980  1.00  0.00    -0.376 OA
BRANCH   3   4
ATOM      4  C   UNL A   1      38.122  21.199  25.713  1.00  0.00     0.202 C 
BRANCH   4   5
ATOM      5  C   UNL A   1      37.261  21.609  24.504  1.00  0.00     0.261 C 
BRANCH   5   6
ATOM      6  O   UNL A   1      36.477  22.814  24.702  1.00  0.00    -0.459 OA
BRANCH   6   7
ATOM      7  C   UNL A   1      35.386  22.688  25.501  1.00  0.00     0.368 C 
ATOM      8  O   UNL A   1      35.415  21.982  26.503  1.00  0.00    -0.245 OA
BRANCH   7   9
ATOM      9  C   UNL A   1      34.161  23.593  25.062  1.00  0.00     0.200 C 
ATOM     10  C   UNL A   1      33.433  24.237  26.243  1.00  0.00     0.087 C 
ATOM     11  C   UNL A   1      34.532  24.825  24.214  1.00  0.00     0.146 C 
ATOM     12  C   UNL A   1      32.729  25.489  25.745  1.00  0.00     0.072 C 
ATOM     13  C   UNL A   1      33.364  25.850  24.390  1.00  0.00     0.191 C 
BRANCH   9  14
ATOM     14  N   UNL A   1      33.250  22.828  24.185  1.00  0.00    -0.332 N 
ATOM     15  H   UNL A   1      32.299  22.975  24.525  1.00  0.00     0.347 HD
ATOM     16  H   UNL A   1      33.426  23.179  23.244  1.00  0.00     0.347 HD
BRANCH  14  17
ATOM     17  C   UNL A   1      33.473  21.389  24.106  1.00  0.00     0.261 C 
BRANCH  17  18
ATOM     18  C   UNL A   1      32.528  20.665  25.072  1.00  0.00     0.058 C 
ATOM     19  C   UNL A   1      32.837  19.180  25.261  1.00  0.00     0.010 C 
ENDBRANCH  17  18
ENDBRANCH  14  17
ENDBRANCH   9  14
BRANCH  13  20
ATOM     20  N   UNL A   1      32.641  26.376  23.174  1.00  0.00    -0.330 N 
ATOM     21  C   UNL A   1      33.646  27.066  22.319  1.00  0.00     0.262 C 
ATOM     22  C   UNL A   1      31.534  27.372  23.191  1.00  0.00     0.187 C 
ATOM     23  H   UNL A   1      32.184  25.505  22.904  1.00  0.00     0.348 HD
ATOM     24  C   UNL A   1      34.057  28.457  22.855  1.00  0.00     0.062 C 
ATOM     25  C   UNL A   1      31.755  28.538  24.127  1.00  0.00     0.048 C 
ATOM     26  C   UNL A   1      30.032  27.109  23.265  1.00  0.00     0.065 C 
ATOM     27  C   UNL A   1      33.077  29.233  23.789  1.00  0.00     0.015 C 
ATOM     28  C   UNL A   1      30.478  29.381  24.106  1.00  0.00     0.010 C 
ATOM     29  C   UNL A   1      29.470  28.554  23.307  1.00  0.00     0.007 C 
ENDBRANCH  13  20
ENDBRANCH   7   9
ENDBRANCH   6   7
ENDBRANCH   5   6
ENDBRANCH   4   5
ENDBRANCH   3   4
ENDBRANCH   2   3
ENDBRANCH   1   2
BRANCH   1  30
ATOM     30  O   UNL A   1      42.205  19.698  26.677  1.00  0.00    -0.377 OA
BRANCH  30  31
ATOM     31  C   UNL A   1      42.741  18.683  25.851  1.00  0.00     0.188 C 
BRANCH  31  32
ATOM     32  C   UNL A   1      44.205  18.946  25.455  1.00  0.00     0.188 C 
BRANCH  32  33
ATOM     33  O   UNL A   1      44.340  19.863  24.385  1.00  0.00    -0.376 OA
BRANCH  33  34
ATOM     34  C   UNL A   1      44.867  21.161  24.592  1.00  0.00     0.202 C 
BRANCH  34  35
ATOM     35  C   UNL A   1      44.218  22.469  24.092  1.00  0.00     0.261 C 
BRANCH  35  36
ATOM     36  O   UNL A   1      43.698  23.390  25.052  1.00  0.00    -0.460 OA
BRANCH  36  37
ATOM     37  C   UNL A   1      44.348  24.551  25.222  1.00  0.00     0.338 C 
ATOM     38  O   UNL A   1      45.309  24.961  24.586  1.00  0.00    -0.246 OA
BRANCH  37  39
ATOM     39  C   UNL A   1      43.559  25.367  26.168  1.00  0.00     0.060 A 
ATOM     40  C   UNL A   1      43.849  26.736  26.263  1.00  0.00     0.016 A 
ATOM     41  C   UNL A   1      42.520  24.809  26.920  1.00  0.00     0.016 A 
ATOM     42  C   UNL A   1      43.136  27.541  27.143  1.00  0.00     0.010 A 
ATOM     43  C   UNL A   1      41.834  25.608  27.840  1.00  0.00     0.010 A 
ATOM     44  C   UNL A   1      42.179  26.964  27.986  1.00  0.00    -0.014 A 
BRANCH  44  45
ATOM     45  C   UNL A   1      41.792  27.717  29.199  1.00  0.00     0.031 A 
ATOM     46  C   UNL A   1      40.513  28.508  29.142  1.00  0.00     0.074 A 
ATOM     47  C   UNL A   1      42.486  27.621  30.345  1.00  0.00     0.049 A 
ATOM     48  N   UNL A   1      39.916  29.195  30.081  1.00  0.00    -0.248 NA
ATOM     49  C   UNL A   1      39.807  28.517  27.848  1.00  0.00     0.031 C 
ATOM     50  C   UNL A   1      43.703  26.835  30.539  1.00  0.00     0.029 A 
ATOM     51  N   UNL A   1      42.249  28.188  31.570  1.00  0.00    -0.354 N 
ATOM     52  C   UNL A   1      38.771  29.716  29.490  1.00  0.00     0.074 A 
ATOM     53  C   UNL A   1      38.773  29.301  28.107  1.00  0.00     0.031 C 
ATOM     54  C   UNL A   1      44.104  26.967  31.816  1.00  0.00     0.029 A 
ATOM     55  C   UNL A   1      43.190  27.868  32.516  1.00  0.00     0.049 A 
ATOM     56  H   UNL A   1      41.476  28.770  31.754  1.00  0.00     0.167 HD
ATOM     57  C   UNL A   1      37.795  30.467  30.051  1.00  0.00     0.031 A 
ATOM     58  C   UNL A   1      43.300  28.269  33.797  1.00  0.00     0.031 A 
ATOM     59  C   UNL A   1      37.804  30.896  31.423  1.00  0.00     0.049 A 
ATOM     60  C   UNL A   1      42.249  29.182  34.375  1.00  0.00     0.074 A 
ATOM     61  C   UNL A   1      36.865  31.659  32.092  1.00  0.00     0.029 A 
ATOM     62  N   UNL A   1      38.811  30.607  32.330  1.00  0.00    -0.354 N 
ATOM     63  N   UNL A   1      41.158  29.651  33.816  1.00  0.00    -0.248 NA
ATOM     64  C   UNL A   1      42.441  29.610  35.767  1.00  0.00     0.031 C 
ATOM     65  C   UNL A   1      37.338  31.888  33.389  1.00  0.00     0.029 A 
ATOM     66  C   UNL A   1      38.533  31.205  33.548  1.00  0.00     0.049 A 
ATOM     67  H   UNL A   1      39.607  30.059  32.138  1.00  0.00     0.167 HD
ATOM     68  C   UNL A   1      40.519  30.400  34.797  1.00  0.00     0.074 A 
ATOM     69  C   UNL A   1      41.334  30.305  35.991  1.00  0.00     0.031 C 
ATOM     70  C   UNL A   1      39.362  31.105  34.721  1.00  0.00     0.031 A 
BRANCH  57  71
ATOM     71  C   UNL A   1      36.667  30.906  29.161  1.00  0.00    -0.014 A 
ATOM     72  C   UNL A   1      35.662  30.015  28.752  1.00  0.00     0.009 A 
ATOM     73  C   UNL A   1      36.604  32.242  28.734  1.00  0.00     0.009 A 
ATOM     74  C   UNL A   1      34.639  30.444  27.903  1.00  0.00     0.001 A 
ATOM     75  C   UNL A   1      35.562  32.675  27.913  1.00  0.00     0.001 A 
ATOM     76  C   UNL A   1      34.587  31.774  27.490  1.00  0.00     0.000 A 
ENDBRANCH  57  71
BRANCH  58  77
ATOM     77  C   UNL A   1      44.457  27.831  34.623  1.00  0.00    -0.014 A 
ATOM     78  C   UNL A   1      45.610  28.625  34.731  1.00  0.00     0.009 A 
ATOM     79  C   UNL A   1      44.428  26.592  35.282  1.00  0.00     0.009 A 
ATOM     80  C   UNL A   1      46.717  28.174  35.453  1.00  0.00     0.001 A 
ATOM     81  C   UNL A   1      45.523  26.157  36.032  1.00  0.00     0.001 A 
ATOM     82  C   UNL A   1      46.670  26.943  36.107  1.00  0.00     0.000 A 
ENDBRANCH  58  77
BRANCH  70  83
ATOM     83  C   UNL A   1      38.893  31.794  35.975  1.00  0.00    -0.014 A 
ATOM     84  C   UNL A   1      37.994  31.180  36.859  1.00  0.00     0.009 A 
ATOM     85  C   UNL A   1      39.384  33.072  36.288  1.00  0.00     0.009 A 
ATOM     86  C   UNL A   1      37.556  31.851  38.002  1.00  0.00     0.001 A 
ATOM     87  C   UNL A   1      38.974  33.725  37.450  1.00  0.00     0.001 A 
ATOM     88  C   UNL A   1      38.050  33.121  38.299  1.00  0.00     0.000 A 
ENDBRANCH  70  83
ENDBRANCH  44  45
ENDBRANCH  37  39
ENDBRANCH  36  37
ENDBRANCH  35  36
ENDBRANCH  34  35
ENDBRANCH  33  34
ENDBRANCH  32  33
ENDBRANCH  31  32
ENDBRANCH  30  31
ENDBRANCH   1  30
TORSDOF 24
ENDMDL
MODEL 3
REMARK VINA RESULT:      -9.2      1.132      5.791
REMARK SMILES CCC[NH2+][C@]1(C(=O)OCCOCCOCCOCCOC(=O)c2ccc(-c3c4nc(c(-c5ccccc5)c5ccc([nH]5)c(-c5ccccc5)c5nc(c(-c6ccccc6)c6ccc3[nH]6)C=C5)C=C4)cc2)CC[C@H]([N@@H+]2CCC[C@H]3CCC[C@@H]32)C1
REMARK SMILES IDX 13 1 12 2 11 3 10 4 9 5 8 6 6 7 7 8 5 9 71 10 83 11 72 12
REMARK SMILES IDX 73 13 4 14 3 17 2 18 1 19 74 20 75 21 82 22 76 24 78 25
REMARK SMILES IDX 81 26 77 27 79 28 80 29 14 30 15 31 16 32 17 33 18 34 19 35
REMARK SMILES IDX 20 36 21 37 22 38 23 39 24 40 70 41 25 42 69 43 26 44 27 45
REMARK SMILES IDX 28 46 63 47 29 48 68 49 62 50 64 51 30 52 67 53 61 54 60 55
REMARK SMILES IDX 31 57 53 58 38 59 52 60 39 61 42 62 51 63 65 64 40 65 41 66
REMARK SMILES IDX 50 68 66 69 43 70 32 71 33 72 37 73 34 74 36 75 35 76 54 77
REMARK SMILES IDX 55 78 59 79 56 80 58 81 57 82 44 83 45 84 49 85 46 86 48 87
REMARK SMILES IDX 47 88
REMARK H PARENT 4 15 4 16 74 23 64 56 42 67
REMARK Flexibility Score: inf
ROOT
ATOM      1  C   UNL A   1      33.961  33.316  28.917  1.00  0.00     0.188 C 
ENDROOT
BRANCH   1   2
ATOM      2  C   UNL A   1      33.816  32.368  27.690  1.00  0.00     0.188 C 
BRANCH   2   3
ATOM      3  O   UNL A   1      32.541  31.764  27.547  1.00  0.00    -0.376 OA
BRANCH   3   4
ATOM      4  C   UNL A   1      32.495  30.424  27.079  1.00  0.00     0.202 C 
BRANCH   4   5
ATOM      5  C   UNL A   1      31.946  30.211  25.656  1.00  0.00     0.261 C 
BRANCH   5   6
ATOM      6  O   UNL A   1      31.252  28.952  25.458  1.00  0.00    -0.459 OA
BRANCH   6   7
ATOM      7  C   UNL A   1      31.295  28.441  24.201  1.00  0.00     0.368 C 
ATOM      8  O   UNL A   1      30.822  29.057  23.251  1.00  0.00    -0.245 OA
BRANCH   7   9
ATOM      9  C   UNL A   1      32.079  27.068  24.093  1.00  0.00     0.200 C 
ATOM     10  C   UNL A   1      33.576  27.203  24.377  1.00  0.00     0.087 C 
ATOM     11  C   UNL A   1      31.662  25.998  25.121  1.00  0.00     0.146 C 
ATOM     12  C   UNL A   1      34.098  25.853  24.841  1.00  0.00     0.072 C 
ATOM     13  C   UNL A   1      32.873  25.018  25.254  1.00  0.00     0.191 C 
BRANCH   9  14
ATOM     14  N   UNL A   1      31.805  26.425  22.791  1.00  0.00    -0.332 N 
ATOM     15  H   UNL A   1      31.544  25.456  22.974  1.00  0.00     0.347 HD
ATOM     16  H   UNL A   1      31.074  26.991  22.361  1.00  0.00     0.347 HD
BRANCH  14  17
ATOM     17  C   UNL A   1      32.898  26.412  21.825  1.00  0.00     0.261 C 
BRANCH  17  18
ATOM     18  C   UNL A   1      32.702  25.257  20.837  1.00  0.00     0.058 C 
ATOM     19  C   UNL A   1      32.998  23.874  21.417  1.00  0.00     0.010 C 
ENDBRANCH  17  18
ENDBRANCH  14  17
ENDBRANCH   9  14
BRANCH  13  20
ATOM     20  N   UNL A   1      32.671  23.542  25.010  1.00  0.00    -0.330 N 
ATOM     21  C   UNL A   1      31.679  23.054  26.009  1.00  0.00     0.262 C 
ATOM     22  C   UNL A   1      33.728  22.498  25.109  1.00  0.00     0.187 C 
ATOM     23  H   UNL A   1      32.473  23.599  24.010  1.00  0.00     0.348 HD
ATOM     24  C   UNL A   1      32.270  22.886  27.427  1.00  0.00     0.062 C 
ATOM     25  C   UNL A   1      34.638  22.638  26.307  1.00  0.00     0.048 C 
ATOM     26  C   UNL A   1      34.641  21.975  24.002  1.00  0.00     0.065 C 
ATOM     27  C   UNL A   1      33.805  22.661  27.592  1.00  0.00     0.015 C 
ATOM     28  C   UNL A   1      35.723  21.567  26.177  1.00  0.00     0.010 C 
ATOM     29  C   UNL A   1      35.524  20.968  24.784  1.00  0.00     0.007 C 
ENDBRANCH  13  20
ENDBRANCH   7   9
ENDBRANCH   6   7
ENDBRANCH   5   6
ENDBRANCH   4   5
ENDBRANCH   3   4
ENDBRANCH   2   3
ENDBRANCH   1   2
BRANCH   1  30
ATOM     30  O   UNL A   1      34.940  33.116  29.927  1.00  0.00    -0.377 OA
BRANCH  30  31
ATOM     31  C   UNL A   1      35.234  34.209  30.775  1.00  0.00     0.188 C 
BRANCH  31  32
ATOM     32  C   UNL A   1      33.984  34.779  31.470  1.00  0.00     0.188 C 
BRANCH  32  33
ATOM     33  O   UNL A   1      33.459  33.924  32.469  1.00  0.00    -0.376 OA
BRANCH  33  34
ATOM     34  C   UNL A   1      34.275  33.431  33.516  1.00  0.00     0.202 C 
BRANCH  34  35
ATOM     35  C   UNL A   1      35.407  34.223  34.204  1.00  0.00     0.261 C 
BRANCH  35  36
ATOM     36  O   UNL A   1      36.762  33.895  33.896  1.00  0.00    -0.460 OA
BRANCH  36  37
ATOM     37  C   UNL A   1      37.276  32.782  34.443  1.00  0.00     0.338 C 
ATOM     38  O   UNL A   1      37.087  32.358  35.575  1.00  0.00    -0.246 OA
BRANCH  37  39
ATOM     39  C   UNL A   1      37.939  32.022  33.363  1.00  0.00     0.060 A 
ATOM     40  C   UNL A   1      38.834  31.004  33.723  1.00  0.00     0.016 A 
ATOM     41  C   UNL A   1      37.653  32.272  32.016  1.00  0.00     0.016 A 
ATOM     42  C   UNL A   1      39.482  30.266  32.740  1.00  0.00     0.010 A 
ATOM     43  C   UNL A   1      38.342  31.563  31.027  1.00  0.00     0.010 A 
ATOM     44  C   UNL A   1      39.294  30.594  31.392  1.00  0.00    -0.014 A 
BRANCH  44  45
ATOM     45  C   UNL A   1      40.319  30.138  30.428  1.00  0.00     0.031 A 
ATOM     46  C   UNL A   1      41.516  31.027  30.220  1.00  0.00     0.074 A 
ATOM     47  C   UNL A   1      40.251  28.934  29.837  1.00  0.00     0.049 A 
ATOM     48  N   UNL A   1      42.582  30.831  29.490  1.00  0.00    -0.248 NA
ATOM     49  C   UNL A   1      41.511  32.310  30.946  1.00  0.00     0.031 C 
ATOM     50  C   UNL A   1      39.174  27.961  30.011  1.00  0.00     0.029 A 
ATOM     51  N   UNL A   1      41.125  28.323  28.975  1.00  0.00    -0.354 N 
ATOM     52  C   UNL A   1      43.369  31.963  29.667  1.00  0.00     0.074 A 
ATOM     53  C   UNL A   1      42.645  32.857  30.540  1.00  0.00     0.031 C 
ATOM     54  C   UNL A   1      39.456  26.869  29.277  1.00  0.00     0.029 A 
ATOM     55  C   UNL A   1      40.714  27.080  28.564  1.00  0.00     0.049 A 
ATOM     56  H   UNL A   1      41.968  28.738  28.679  1.00  0.00     0.167 HD
ATOM     57  C   UNL A   1      44.592  32.232  29.156  1.00  0.00     0.031 A 
ATOM     58  C   UNL A   1      41.289  26.221  27.702  1.00  0.00     0.031 A 
ATOM     59  C   UNL A   1      45.302  31.351  28.271  1.00  0.00     0.049 A 
ATOM     60  C   UNL A   1      42.610  26.584  27.072  1.00  0.00     0.074 A 
ATOM     61  C   UNL A   1      46.548  31.527  27.697  1.00  0.00     0.029 A 
ATOM     62  N   UNL A   1      44.821  30.130  27.825  1.00  0.00    -0.354 N 
ATOM     63  N   UNL A   1      43.357  27.646  27.263  1.00  0.00    -0.248 NA
ATOM     64  C   UNL A   1      43.172  25.620  26.116  1.00  0.00     0.031 C 
ATOM     65  C   UNL A   1      46.791  30.442  26.848  1.00  0.00     0.029 A 
ATOM     66  C   UNL A   1      45.731  29.555  26.954  1.00  0.00     0.049 A 
ATOM     67  H   UNL A   1      43.960  29.731  28.087  1.00  0.00     0.167 HD
ATOM     68  C   UNL A   1      44.489  27.462  26.478  1.00  0.00     0.074 A 
ATOM     69  C   UNL A   1      44.339  26.177  25.826  1.00  0.00     0.031 C 
ATOM     70  C   UNL A   1      45.559  28.279  26.308  1.00  0.00     0.031 A 
BRANCH  57  71
ATOM     71  C   UNL A   1      45.209  33.557  29.510  1.00  0.00    -0.014 A 
ATOM     72  C   UNL A   1      46.035  33.707  30.634  1.00  0.00     0.009 A 
ATOM     73  C   UNL A   1      44.966  34.672  28.692  1.00  0.00     0.009 A 
ATOM     74  C   UNL A   1      46.574  34.956  30.954  1.00  0.00     0.001 A 
ATOM     75  C   UNL A   1      45.534  35.911  28.996  1.00  0.00     0.001 A 
ATOM     76  C   UNL A   1      46.328  36.053  30.131  1.00  0.00     0.000 A 
ENDBRANCH  57  71
BRANCH  58  77
ATOM     77  C   UNL A   1      40.617  24.938  27.361  1.00  0.00    -0.014 A 
ATOM     78  C   UNL A   1      39.468  24.916  26.555  1.00  0.00     0.009 A 
ATOM     79  C   UNL A   1      41.105  23.725  27.874  1.00  0.00     0.009 A 
ATOM     80  C   UNL A   1      38.806  23.714  26.297  1.00  0.00     0.001 A 
ATOM     81  C   UNL A   1      40.460  22.520  27.587  1.00  0.00     0.001 A 
ATOM     82  C   UNL A   1      39.305  22.517  26.809  1.00  0.00     0.000 A 
ENDBRANCH  58  77
BRANCH  70  83
ATOM     83  C   UNL A   1      46.665  27.788  25.413  1.00  0.00    -0.014 A 
ATOM     84  C   UNL A   1      46.662  28.044  24.033  1.00  0.00     0.009 A 
ATOM     85  C   UNL A   1      47.742  27.079  25.968  1.00  0.00     0.009 A 
ATOM     86  C   UNL A   1      47.688  27.557  23.222  1.00  0.00     0.001 A 
ATOM     87  C   UNL A   1      48.785  26.625  25.161  1.00  0.00     0.001 A 
ATOM     88  C   UNL A   1      48.750  26.851  23.787  1.00  0.00     0.000 A 
ENDBRANCH  70  83
ENDBRANCH  44  45
ENDBRANCH  37  39
ENDBRANCH  36  37
ENDBRANCH  35  36
ENDBRANCH  34  35
ENDBRANCH  33  34
ENDBRANCH  32  33
ENDBRANCH  31  32
ENDBRANCH  30  31
ENDBRANCH   1  30
TORSDOF 24
ENDMDL
