MODEL 1
REMARK VINA RESULT:      -8.6      0.000      0.000
REMARK SMILES Cc1cc(OCC(=O)OCCOCCOCCOCCOC(=O)c2ccc(-c3c4nc(c(-c5ccccc5)c5ccc([nH]5)c(-c5ccccc5)c5nc(c(-c6ccccc6)c6ccc3[nH]6)C=C5)C=C4)cc2)ccc1NC(=O)c1ccc(N2C(=O)[C@@H]3[C@H](C2=O)[C@H]2C=C[C@@H]3C2)cc1
REMARK SMILES IDX 13 1 12 2 11 3 10 4 9 5 7 6 8 7 6 8 5 9 4 10 1 11 2 12 3 13
REMARK SMILES IDX 74 14 73 15 72 16 75 17 76 18 77 20 78 21 79 22 95 23 80 24
REMARK SMILES IDX 94 25 81 26 82 27 83 28 87 29 84 30 85 31 86 32 88 33 92 34
REMARK SMILES IDX 89 35 91 36 93 37 90 38 14 39 15 40 16 41 17 42 18 43 19 44
REMARK SMILES IDX 20 45 21 46 22 47 23 48 24 49 25 50 71 51 26 52 70 53 27 54
REMARK SMILES IDX 28 55 29 56 64 57 30 58 69 59 63 60 65 61 31 62 68 63 62 64
REMARK SMILES IDX 61 65 32 67 54 68 39 69 53 70 40 71 43 72 52 73 66 74 41 75
REMARK SMILES IDX 42 76 51 78 67 79 44 80 33 81 34 82 38 83 35 84 37 85 36 86
REMARK SMILES IDX 55 87 56 88 60 89 57 90 59 91 58 92 45 93 46 94 50 95 47 96
REMARK SMILES IDX 49 97 48 98
REMARK H PARENT 75 19 65 66 43 77
REMARK Flexibility Score: inf
ROOT
ATOM      1  C   UNL A   1      35.296  35.255  32.881  1.00  0.00     0.188 C 
ENDROOT
BRANCH   1   2
ATOM      2  O   UNL A   1      36.371  35.005  33.763  1.00  0.00    -0.376 OA
BRANCH   2   3
ATOM      3  C   UNL A   1      36.037  34.127  34.802  1.00  0.00     0.202 C 
BRANCH   3   4
ATOM      4  C   UNL A   1      37.000  33.064  35.273  1.00  0.00     0.261 C 
BRANCH   4   5
ATOM      5  O   UNL A   1      36.934  32.979  36.697  1.00  0.00    -0.461 OA
BRANCH   5   6
ATOM      6  C   UNL A   1      37.486  31.856  37.239  1.00  0.00     0.344 C 
ATOM      7  O   UNL A   1      37.283  31.448  38.355  1.00  0.00    -0.248 OA
BRANCH   6   8
ATOM      8  C   UNL A   1      38.406  31.175  36.203  1.00  0.00     0.351 C 
BRANCH   8   9
ATOM      9  O   UNL A   1      39.810  30.965  36.264  1.00  0.00    -0.482 OA
BRANCH   9  10
ATOM     10  C   UNL A   1      40.751  31.912  35.996  1.00  0.00     0.120 A 
ATOM     11  C   UNL A   1      44.488  31.773  36.592  1.00  0.00     0.047 C 
ATOM     12  C   UNL A   1      43.164  32.402  36.234  1.00  0.00    -0.024 A 
ATOM     13  C   UNL A   1      42.070  31.491  36.184  1.00  0.00     0.052 A 
ATOM     14  C   UNL A   1      42.924  33.793  36.082  1.00  0.00     0.044 A 
ATOM     15  C   UNL A   1      41.626  34.176  35.709  1.00  0.00     0.030 A 
ATOM     16  C   UNL A   1      40.554  33.238  35.636  1.00  0.00     0.048 A 
BRANCH  14  17
ATOM     17  N   UNL A   1      43.973  34.747  36.326  1.00  0.00    -0.322 N 
ATOM     18  C   UNL A   1      45.044  35.118  35.508  1.00  0.00     0.255 C 
ATOM     19  H   UNL A   1      43.929  35.208  37.195  1.00  0.00     0.170 HD
ATOM     20  O   UNL A   1      46.175  34.698  35.745  1.00  0.00    -0.269 OA
BRANCH  18  21
ATOM     21  C   UNL A   1      44.929  36.296  34.568  1.00  0.00     0.040 A 
ATOM     22  C   UNL A   1      43.813  36.458  33.757  1.00  0.00     0.016 A 
ATOM     23  C   UNL A   1      46.011  37.143  34.287  1.00  0.00     0.016 A 
ATOM     24  C   UNL A   1      43.697  37.574  32.880  1.00  0.00     0.027 A 
ATOM     25  C   UNL A   1      45.887  38.267  33.406  1.00  0.00     0.027 A 
ATOM     26  C   UNL A   1      44.677  38.583  32.769  1.00  0.00     0.052 A 
BRANCH  26  27
ATOM     27  N   UNL A   1      44.420  39.850  32.075  1.00  0.00    -0.250 N 
ATOM     28  C   UNL A   1      43.401  40.716  32.431  1.00  0.00     0.238 C 
ATOM     29  C   UNL A   1      45.231  40.446  31.110  1.00  0.00     0.238 C 
ATOM     30  O   UNL A   1      42.648  40.665  33.396  1.00  0.00    -0.274 OA
ATOM     31  C   UNL A   1      43.342  41.879  31.475  1.00  0.00     0.099 C 
ATOM     32  C   UNL A   1      44.598  41.746  30.607  1.00  0.00     0.099 C 
ATOM     33  O   UNL A   1      46.306  40.054  30.674  1.00  0.00    -0.274 OA
ATOM     34  C   UNL A   1      43.521  43.246  32.168  1.00  0.00     0.025 C 
ATOM     35  C   UNL A   1      45.337  43.095  30.858  1.00  0.00     0.025 C 
ATOM     36  C   UNL A   1      43.393  44.326  31.123  1.00  0.00    -0.027 C 
ATOM     37  C   UNL A   1      45.042  43.326  32.328  1.00  0.00     0.017 C 
ATOM     38  C   UNL A   1      44.485  44.245  30.343  1.00  0.00    -0.027 C 
ENDBRANCH  26  27
ENDBRANCH  18  21
ENDBRANCH  14  17
ENDBRANCH   9  10
ENDBRANCH   8   9
ENDBRANCH   6   8
ENDBRANCH   5   6
ENDBRANCH   4   5
ENDBRANCH   3   4
ENDBRANCH   2   3
ENDBRANCH   1   2
BRANCH   1  39
ATOM     39  C   UNL A   1      34.063  34.327  32.728  1.00  0.00     0.188 C 
BRANCH  39  40
ATOM     40  O   UNL A   1      33.012  34.741  31.872  1.00  0.00    -0.377 OA
BRANCH  40  41
ATOM     41  C   UNL A   1      33.372  35.754  30.930  1.00  0.00     0.188 C 
BRANCH  41  42
ATOM     42  C   UNL A   1      33.140  35.195  29.548  1.00  0.00     0.188 C 
BRANCH  42  43
ATOM     43  O   UNL A   1      34.389  34.787  29.031  1.00  0.00    -0.376 OA
BRANCH  43  44
ATOM     44  C   UNL A   1      34.377  33.721  28.114  1.00  0.00     0.202 C 
BRANCH  44  45
ATOM     45  C   UNL A   1      34.556  32.362  28.787  1.00  0.00     0.261 C 
BRANCH  45  46
ATOM     46  O   UNL A   1      35.501  31.564  28.039  1.00  0.00    -0.460 OA
BRANCH  46  47
ATOM     47  C   UNL A   1      36.776  31.537  28.530  1.00  0.00     0.338 C 
ATOM     48  O   UNL A   1      37.440  32.535  28.763  1.00  0.00    -0.246 OA
BRANCH  47  49
ATOM     49  C   UNL A   1      37.346  30.148  28.481  1.00  0.00     0.060 A 
ATOM     50  C   UNL A   1      37.287  29.301  29.594  1.00  0.00     0.016 A 
ATOM     51  C   UNL A   1      38.285  29.874  27.503  1.00  0.00     0.016 A 
ATOM     52  C   UNL A   1      38.278  28.310  29.787  1.00  0.00     0.010 A 
ATOM     53  C   UNL A   1      39.323  29.006  27.760  1.00  0.00     0.010 A 
ATOM     54  C   UNL A   1      39.355  28.208  28.896  1.00  0.00    -0.014 A 
BRANCH  54  55
ATOM     55  C   UNL A   1      40.640  27.520  29.148  1.00  0.00     0.031 A 
ATOM     56  C   UNL A   1      41.014  26.238  28.452  1.00  0.00     0.074 A 
ATOM     57  C   UNL A   1      41.639  28.281  29.667  1.00  0.00     0.049 A 
ATOM     58  N   UNL A   1      41.874  25.369  28.885  1.00  0.00    -0.248 NA
ATOM     59  C   UNL A   1      40.553  25.899  27.098  1.00  0.00     0.031 C 
ATOM     60  C   UNL A   1      43.085  28.045  29.640  1.00  0.00     0.029 A 
ATOM     61  N   UNL A   1      41.556  29.568  30.209  1.00  0.00    -0.354 N 
ATOM     62  C   UNL A   1      42.246  24.581  27.801  1.00  0.00     0.074 A 
ATOM     63  C   UNL A   1      41.291  24.844  26.765  1.00  0.00     0.031 C 
ATOM     64  C   UNL A   1      43.739  29.052  30.251  1.00  0.00     0.029 A 
ATOM     65  C   UNL A   1      42.734  29.836  30.940  1.00  0.00     0.049 A 
ATOM     66  H   UNL A   1      40.799  30.188  30.098  1.00  0.00     0.167 HD
ATOM     67  C   UNL A   1      43.475  23.994  27.692  1.00  0.00     0.031 A 
ATOM     68  C   UNL A   1      42.657  29.941  32.300  1.00  0.00     0.031 A 
ATOM     69  C   UNL A   1      44.398  24.513  28.707  1.00  0.00     0.049 A 
ATOM     70  C   UNL A   1      43.190  28.647  32.905  1.00  0.00     0.074 A 
ATOM     71  C   UNL A   1      45.581  25.234  28.646  1.00  0.00     0.029 A 
ATOM     72  N   UNL A   1      43.985  24.585  30.036  1.00  0.00    -0.354 N 
ATOM     73  N   UNL A   1      43.243  27.525  32.226  1.00  0.00    -0.248 NA
ATOM     74  C   UNL A   1      43.878  28.521  34.187  1.00  0.00     0.031 C 
ATOM     75  C   UNL A   1      45.788  25.854  29.916  1.00  0.00     0.029 A 
ATOM     76  C   UNL A   1      44.776  25.446  30.775  1.00  0.00     0.049 A 
ATOM     77  H   UNL A   1      43.223  24.083  30.405  1.00  0.00     0.167 HD
ATOM     78  C   UNL A   1      44.102  26.656  32.817  1.00  0.00     0.074 A 
ATOM     79  C   UNL A   1      44.388  27.274  34.101  1.00  0.00     0.031 C 
ATOM     80  C   UNL A   1      44.591  25.529  32.221  1.00  0.00     0.031 A 
BRANCH  67  81
ATOM     81  C   UNL A   1      43.886  23.183  26.462  1.00  0.00    -0.014 A 
ATOM     82  C   UNL A   1      43.545  21.825  26.332  1.00  0.00     0.009 A 
ATOM     83  C   UNL A   1      44.573  23.734  25.354  1.00  0.00     0.009 A 
ATOM     84  C   UNL A   1      43.935  21.053  25.222  1.00  0.00     0.001 A 
ATOM     85  C   UNL A   1      45.007  22.960  24.264  1.00  0.00     0.001 A 
ATOM     86  C   UNL A   1      44.688  21.614  24.198  1.00  0.00     0.000 A 
ENDBRANCH  67  81
BRANCH  68  87
ATOM     87  C   UNL A   1      41.545  30.873  32.684  1.00  0.00    -0.014 A 
ATOM     88  C   UNL A   1      41.731  32.235  32.327  1.00  0.00     0.009 A 
ATOM     89  C   UNL A   1      40.223  30.425  32.823  1.00  0.00     0.009 A 
ATOM     90  C   UNL A   1      40.655  33.050  31.942  1.00  0.00     0.001 A 
ATOM     91  C   UNL A   1      39.147  31.250  32.440  1.00  0.00     0.001 A 
ATOM     92  C   UNL A   1      39.364  32.538  31.949  1.00  0.00     0.000 A 
ENDBRANCH  68  87
BRANCH  80  93
ATOM     93  C   UNL A   1      44.887  24.282  32.998  1.00  0.00    -0.014 A 
ATOM     94  C   UNL A   1      46.092  24.119  33.689  1.00  0.00     0.009 A 
ATOM     95  C   UNL A   1      43.831  23.393  33.303  1.00  0.00     0.009 A 
ATOM     96  C   UNL A   1      46.240  23.103  34.633  1.00  0.00     0.001 A 
ATOM     97  C   UNL A   1      43.957  22.421  34.289  1.00  0.00     0.001 A 
ATOM     98  C   UNL A   1      45.169  22.270  34.946  1.00  0.00     0.000 A 
ENDBRANCH  80  93
ENDBRANCH  54  55
ENDBRANCH  47  49
ENDBRANCH  46  47
ENDBRANCH  45  46
ENDBRANCH  44  45
ENDBRANCH  43  44
ENDBRANCH  42  43
ENDBRANCH  41  42
ENDBRANCH  40  41
ENDBRANCH  39  40
ENDBRANCH   1  39
TORSDOF 25
ENDMDL
MODEL 2
REMARK VINA RESULT:      -8.5      3.587      8.567
REMARK SMILES Cc1cc(OCC(=O)OCCOCCOCCOCCOC(=O)c2ccc(-c3c4nc(c(-c5ccccc5)c5ccc([nH]5)c(-c5ccccc5)c5nc(c(-c6ccccc6)c6ccc3[nH]6)C=C5)C=C4)cc2)ccc1NC(=O)c1ccc(N2C(=O)[C@@H]3[C@H](C2=O)[C@H]2C=C[C@@H]3C2)cc1
REMARK SMILES IDX 13 1 12 2 11 3 10 4 9 5 7 6 8 7 6 8 5 9 4 10 1 11 2 12 3 13
REMARK SMILES IDX 74 14 73 15 72 16 75 17 76 18 77 20 78 21 79 22 95 23 80 24
REMARK SMILES IDX 94 25 81 26 82 27 83 28 87 29 84 30 85 31 86 32 88 33 92 34
REMARK SMILES IDX 89 35 91 36 93 37 90 38 14 39 15 40 16 41 17 42 18 43 19 44
REMARK SMILES IDX 20 45 21 46 22 47 23 48 24 49 25 50 71 51 26 52 70 53 27 54
REMARK SMILES IDX 28 55 29 56 64 57 30 58 69 59 63 60 65 61 31 62 68 63 62 64
REMARK SMILES IDX 61 65 32 67 54 68 39 69 53 70 40 71 43 72 52 73 66 74 41 75
REMARK SMILES IDX 42 76 51 78 67 79 44 80 33 81 34 82 38 83 35 84 37 85 36 86
REMARK SMILES IDX 55 87 56 88 60 89 57 90 59 91 58 92 45 93 46 94 50 95 47 96
REMARK SMILES IDX 49 97 48 98
REMARK H PARENT 75 19 65 66 43 77
REMARK Flexibility Score: inf
ROOT
ATOM      1  C   UNL A   1      35.309  35.265  32.877  1.00  0.00     0.188 C 
ENDROOT
BRANCH   1   2
ATOM      2  O   UNL A   1      36.375  35.050  33.778  1.00  0.00    -0.376 OA
BRANCH   2   3
ATOM      3  C   UNL A   1      36.042  34.181  34.825  1.00  0.00     0.202 C 
BRANCH   3   4
ATOM      4  C   UNL A   1      36.811  32.904  35.062  1.00  0.00     0.261 C 
BRANCH   4   5
ATOM      5  O   UNL A   1      37.301  32.902  36.404  1.00  0.00    -0.461 OA
BRANCH   5   6
ATOM      6  C   UNL A   1      37.681  31.682  36.882  1.00  0.00     0.344 C 
ATOM      7  O   UNL A   1      37.414  31.248  37.975  1.00  0.00    -0.248 OA
BRANCH   6   8
ATOM      8  C   UNL A   1      38.499  30.932  35.809  1.00  0.00     0.351 C 
BRANCH   8   9
ATOM      9  O   UNL A   1      39.466  29.907  35.985  1.00  0.00    -0.482 OA
BRANCH   9  10
ATOM     10  C   UNL A   1      40.811  30.074  35.848  1.00  0.00     0.120 A 
ATOM     11  C   UNL A   1      43.492  27.435  35.417  1.00  0.00     0.047 C 
ATOM     12  C   UNL A   1      42.931  28.818  35.643  1.00  0.00    -0.024 A 
ATOM     13  C   UNL A   1      41.513  28.905  35.543  1.00  0.00     0.052 A 
ATOM     14  C   UNL A   1      43.675  29.954  36.058  1.00  0.00     0.044 A 
ATOM     15  C   UNL A   1      42.973  31.163  36.177  1.00  0.00     0.030 A 
ATOM     16  C   UNL A   1      41.555  31.229  36.042  1.00  0.00     0.048 A 
BRANCH  14  17
ATOM     17  N   UNL A   1      45.078  29.840  36.359  1.00  0.00    -0.322 N 
ATOM     18  C   UNL A   1      45.704  29.515  37.565  1.00  0.00     0.255 C 
ATOM     19  H   UNL A   1      45.685  30.015  35.604  1.00  0.00     0.170 HD
ATOM     20  O   UNL A   1      46.232  30.395  38.243  1.00  0.00    -0.269 OA
BRANCH  18  21
ATOM     21  C   UNL A   1      46.072  28.084  37.887  1.00  0.00     0.040 A 
ATOM     22  C   UNL A   1      45.694  27.502  39.089  1.00  0.00     0.016 A 
ATOM     23  C   UNL A   1      46.992  27.354  37.121  1.00  0.00     0.016 A 
ATOM     24  C   UNL A   1      46.028  26.150  39.389  1.00  0.00     0.027 A 
ATOM     25  C   UNL A   1      47.322  25.993  37.426  1.00  0.00     0.027 A 
ATOM     26  C   UNL A   1      46.746  25.312  38.510  1.00  0.00     0.052 A 
BRANCH  26  27
ATOM     27  N   UNL A   1      46.841  23.862  38.713  1.00  0.00    -0.250 N 
ATOM     28  C   UNL A   1      45.960  22.959  38.146  1.00  0.00     0.238 C 
ATOM     29  C   UNL A   1      47.888  23.178  39.330  1.00  0.00     0.238 C 
ATOM     30  O   UNL A   1      45.071  23.158  37.327  1.00  0.00    -0.274 OA
ATOM     31  C   UNL A   1      46.267  21.560  38.616  1.00  0.00     0.099 C 
ATOM     32  C   UNL A   1      47.594  21.676  39.373  1.00  0.00     0.099 C 
ATOM     33  O   UNL A   1      48.925  23.635  39.795  1.00  0.00    -0.274 OA
ATOM     34  C   UNL A   1      46.590  20.588  37.462  1.00  0.00     0.025 C 
ATOM     35  C   UNL A   1      48.525  20.700  38.593  1.00  0.00     0.025 C 
ATOM     36  C   UNL A   1      46.829  19.220  38.050  1.00  0.00    -0.027 C 
ATOM     37  C   UNL A   1      48.056  20.918  37.167  1.00  0.00     0.017 C 
ATOM     38  C   UNL A   1      47.993  19.280  38.719  1.00  0.00    -0.027 C 
ENDBRANCH  26  27
ENDBRANCH  18  21
ENDBRANCH  14  17
ENDBRANCH   9  10
ENDBRANCH   8   9
ENDBRANCH   6   8
ENDBRANCH   5   6
ENDBRANCH   4   5
ENDBRANCH   3   4
ENDBRANCH   2   3
ENDBRANCH   1   2
BRANCH   1  39
ATOM     39  C   UNL A   1      34.180  34.238  32.602  1.00  0.00     0.188 C 
BRANCH  39  40
ATOM     40  O   UNL A   1      33.098  34.633  31.777  1.00  0.00    -0.377 OA
BRANCH  40  41
ATOM     41  C   UNL A   1      33.365  35.760  30.939  1.00  0.00     0.188 C 
BRANCH  41  42
ATOM     42  C   UNL A   1      33.010  35.372  29.525  1.00  0.00     0.188 C 
BRANCH  42  43
ATOM     43  O   UNL A   1      34.210  35.288  28.785  1.00  0.00    -0.376 OA
BRANCH  43  44
ATOM     44  C   UNL A   1      34.278  34.285  27.801  1.00  0.00     0.202 C 
BRANCH  44  45
ATOM     45  C   UNL A   1      34.330  32.879  28.395  1.00  0.00     0.261 C 
BRANCH  45  46
ATOM     46  O   UNL A   1      35.381  32.116  27.761  1.00  0.00    -0.460 OA
BRANCH  46  47
ATOM     47  C   UNL A   1      36.599  32.151  28.382  1.00  0.00     0.338 C 
ATOM     48  O   UNL A   1      37.264  33.165  28.525  1.00  0.00    -0.246 OA
BRANCH  47  49
ATOM     49  C   UNL A   1      37.130  30.764  28.609  1.00  0.00     0.060 A 
ATOM     50  C   UNL A   1      37.337  30.272  29.903  1.00  0.00     0.016 A 
ATOM     51  C   UNL A   1      37.802  30.155  27.564  1.00  0.00     0.016 A 
ATOM     52  C   UNL A   1      38.339  29.302  30.142  1.00  0.00     0.010 A 
ATOM     53  C   UNL A   1      38.865  29.317  27.817  1.00  0.00     0.010 A 
ATOM     54  C   UNL A   1      39.167  28.870  29.097  1.00  0.00    -0.014 A 
BRANCH  54  55
ATOM     55  C   UNL A   1      40.470  28.185  29.235  1.00  0.00     0.031 A 
ATOM     56  C   UNL A   1      40.636  26.714  28.960  1.00  0.00     0.074 A 
ATOM     57  C   UNL A   1      41.575  28.975  29.182  1.00  0.00     0.049 A 
ATOM     58  N   UNL A   1      41.579  25.961  29.433  1.00  0.00    -0.248 NA
ATOM     59  C   UNL A   1      39.820  25.987  27.976  1.00  0.00     0.031 C 
ATOM     60  C   UNL A   1      42.958  28.603  28.870  1.00  0.00     0.029 A 
ATOM     61  N   UNL A   1      41.647  30.370  29.243  1.00  0.00    -0.354 N 
ATOM     62  C   UNL A   1      41.638  24.822  28.637  1.00  0.00     0.074 A 
ATOM     63  C   UNL A   1      40.437  24.815  27.854  1.00  0.00     0.031 C 
ATOM     64  C   UNL A   1      43.756  29.687  28.902  1.00  0.00     0.029 A 
ATOM     65  C   UNL A   1      42.980  30.751  29.507  1.00  0.00     0.049 A 
ATOM     66  H   UNL A   1      40.890  30.988  29.120  1.00  0.00     0.167 HD
ATOM     67  C   UNL A   1      42.789  24.115  28.429  1.00  0.00     0.031 A 
ATOM     68  C   UNL A   1      43.279  31.312  30.716  1.00  0.00     0.031 A 
ATOM     69  C   UNL A   1      43.956  24.851  28.926  1.00  0.00     0.049 A 
ATOM     70  C   UNL A   1      43.954  30.251  31.576  1.00  0.00     0.074 A 
ATOM     71  C   UNL A   1      45.079  25.391  28.317  1.00  0.00     0.029 A 
ATOM     72  N   UNL A   1      43.923  25.405  30.205  1.00  0.00    -0.354 N 
ATOM     73  N   UNL A   1      43.816  28.966  31.343  1.00  0.00    -0.248 NA
ATOM     74  C   UNL A   1      44.967  30.495  32.600  1.00  0.00     0.031 C 
ATOM     75  C   UNL A   1      45.628  26.377  29.192  1.00  0.00     0.029 A 
ATOM     76  C   UNL A   1      44.888  26.382  30.368  1.00  0.00     0.049 A 
ATOM     77  H   UNL A   1      43.289  25.133  30.907  1.00  0.00     0.167 HD
ATOM     78  C   UNL A   1      44.802  28.265  31.958  1.00  0.00     0.074 A 
ATOM     79  C   UNL A   1      45.431  29.247  32.827  1.00  0.00     0.031 C 
ATOM     80  C   UNL A   1      45.106  26.962  31.690  1.00  0.00     0.031 A 
BRANCH  67  81
ATOM     81  C   UNL A   1      42.845  22.903  27.497  1.00  0.00    -0.014 A 
ATOM     82  C   UNL A   1      43.562  22.940  26.289  1.00  0.00     0.009 A 
ATOM     83  C   UNL A   1      42.244  21.657  27.797  1.00  0.00     0.009 A 
ATOM     84  C   UNL A   1      43.606  21.846  25.405  1.00  0.00     0.001 A 
ATOM     85  C   UNL A   1      42.243  20.575  26.899  1.00  0.00     0.001 A 
ATOM     86  C   UNL A   1      42.925  20.671  25.697  1.00  0.00     0.000 A 
ENDBRANCH  67  81
BRANCH  68  87
ATOM     87  C   UNL A   1      42.318  32.423  31.020  1.00  0.00    -0.014 A 
ATOM     88  C   UNL A   1      41.461  32.210  32.133  1.00  0.00     0.009 A 
ATOM     89  C   UNL A   1      42.597  33.754  30.677  1.00  0.00     0.009 A 
ATOM     90  C   UNL A   1      41.064  33.264  32.970  1.00  0.00     0.001 A 
ATOM     91  C   UNL A   1      42.190  34.808  31.519  1.00  0.00     0.001 A 
ATOM     92  C   UNL A   1      41.474  34.561  32.690  1.00  0.00     0.000 A 
ENDBRANCH  68  87
BRANCH  80  93
ATOM     93  C   UNL A   1      45.601  26.026  32.750  1.00  0.00    -0.014 A 
ATOM     94  C   UNL A   1      44.785  25.021  33.279  1.00  0.00     0.009 A 
ATOM     95  C   UNL A   1      46.989  25.943  33.003  1.00  0.00     0.009 A 
ATOM     96  C   UNL A   1      45.329  23.986  34.038  1.00  0.00     0.001 A 
ATOM     97  C   UNL A   1      47.541  24.877  33.706  1.00  0.00     0.001 A 
ATOM     98  C   UNL A   1      46.706  23.903  34.234  1.00  0.00     0.000 A 
ENDBRANCH  80  93
ENDBRANCH  54  55
ENDBRANCH  47  49
ENDBRANCH  46  47
ENDBRANCH  45  46
ENDBRANCH  44  45
ENDBRANCH  43  44
ENDBRANCH  42  43
ENDBRANCH  41  42
ENDBRANCH  40  41
ENDBRANCH  39  40
ENDBRANCH   1  39
TORSDOF 25
ENDMDL
MODEL 3
REMARK VINA RESULT:      -8.4      6.068     14.377
REMARK SMILES Cc1cc(OCC(=O)OCCOCCOCCOCCOC(=O)c2ccc(-c3c4nc(c(-c5ccccc5)c5ccc([nH]5)c(-c5ccccc5)c5nc(c(-c6ccccc6)c6ccc3[nH]6)C=C5)C=C4)cc2)ccc1NC(=O)c1ccc(N2C(=O)[C@@H]3[C@H](C2=O)[C@H]2C=C[C@@H]3C2)cc1
REMARK SMILES IDX 13 1 12 2 11 3 10 4 9 5 7 6 8 7 6 8 5 9 4 10 1 11 2 12 3 13
REMARK SMILES IDX 74 14 73 15 72 16 75 17 76 18 77 20 78 21 79 22 95 23 80 24
REMARK SMILES IDX 94 25 81 26 82 27 83 28 87 29 84 30 85 31 86 32 88 33 92 34
REMARK SMILES IDX 89 35 91 36 93 37 90 38 14 39 15 40 16 41 17 42 18 43 19 44
REMARK SMILES IDX 20 45 21 46 22 47 23 48 24 49 25 50 71 51 26 52 70 53 27 54
REMARK SMILES IDX 28 55 29 56 64 57 30 58 69 59 63 60 65 61 31 62 68 63 62 64
REMARK SMILES IDX 61 65 32 67 54 68 39 69 53 70 40 71 43 72 52 73 66 74 41 75
REMARK SMILES IDX 42 76 51 78 67 79 44 80 33 81 34 82 38 83 35 84 37 85 36 86
REMARK SMILES IDX 55 87 56 88 60 89 57 90 59 91 58 92 45 93 46 94 50 95 47 96
REMARK SMILES IDX 49 97 48 98
REMARK H PARENT 75 19 65 66 43 77
REMARK Flexibility Score: inf
ROOT
ATOM      1  C   UNL A   1      40.928  27.851  27.160  1.00  0.00     0.188 C 
ENDROOT
BRANCH   1   2
ATOM      2  O   UNL A   1      39.536  28.010  27.341  1.00  0.00    -0.376 OA
BRANCH   2   3
ATOM      3  C   UNL A   1      39.157  29.342  27.545  1.00  0.00     0.202 C 
BRANCH   3   4
ATOM      4  C   UNL A   1      38.635  29.815  28.881  1.00  0.00     0.261 C 
BRANCH   4   5
ATOM      5  O   UNL A   1      37.590  30.764  28.659  1.00  0.00    -0.461 OA
BRANCH   5   6
ATOM      6  C   UNL A   1      36.328  30.302  28.887  1.00  0.00     0.344 C 
ATOM      7  O   UNL A   1      35.833  30.132  29.972  1.00  0.00    -0.248 OA
BRANCH   6   8
ATOM      8  C   UNL A   1      35.619  30.035  27.541  1.00  0.00     0.351 C 
BRANCH   8   9
ATOM      9  O   UNL A   1      34.408  30.591  27.049  1.00  0.00    -0.482 OA
BRANCH   9  10
ATOM     10  C   UNL A   1      33.350  29.867  26.589  1.00  0.00     0.120 A 
ATOM     11  C   UNL A   1      32.900  26.108  26.527  1.00  0.00     0.047 C 
ATOM     12  C   UNL A   1      32.573  27.549  26.220  1.00  0.00    -0.024 A 
ATOM     13  C   UNL A   1      33.422  28.498  26.857  1.00  0.00     0.052 A 
ATOM     14  C   UNL A   1      31.606  27.994  25.279  1.00  0.00     0.044 A 
ATOM     15  C   UNL A   1      31.424  29.381  25.165  1.00  0.00     0.030 A 
ATOM     16  C   UNL A   1      32.270  30.311  25.839  1.00  0.00     0.048 A 
BRANCH  14  17
ATOM     17  N   UNL A   1      30.876  27.049  24.477  1.00  0.00    -0.322 N 
ATOM     18  C   UNL A   1      31.310  26.284  23.390  1.00  0.00     0.255 C 
ATOM     19  H   UNL A   1      29.933  26.921  24.731  1.00  0.00     0.170 HD
ATOM     20  O   UNL A   1      30.996  26.606  22.245  1.00  0.00    -0.269 OA
BRANCH  18  21
ATOM     21  C   UNL A   1      31.841  24.883  23.591  1.00  0.00     0.040 A 
ATOM     22  C   UNL A   1      31.105  23.933  24.287  1.00  0.00     0.016 A 
ATOM     23  C   UNL A   1      33.169  24.534  23.307  1.00  0.00     0.016 A 
ATOM     24  C   UNL A   1      31.598  22.609  24.467  1.00  0.00     0.027 A 
ATOM     25  C   UNL A   1      33.658  23.199  23.487  1.00  0.00     0.027 A 
ATOM     26  C   UNL A   1      32.838  22.164  23.962  1.00  0.00     0.052 A 
BRANCH  26  27
ATOM     27  N   UNL A   1      33.201  20.742  23.919  1.00  0.00    -0.250 N 
ATOM     28  C   UNL A   1      34.052  20.150  24.834  1.00  0.00     0.238 C 
ATOM     29  C   UNL A   1      32.634  19.767  23.100  1.00  0.00     0.238 C 
ATOM     30  O   UNL A   1      34.537  20.623  25.856  1.00  0.00    -0.274 OA
ATOM     31  C   UNL A   1      34.296  18.709  24.468  1.00  0.00     0.099 C 
ATOM     32  C   UNL A   1      33.310  18.413  23.333  1.00  0.00     0.099 C 
ATOM     33  O   UNL A   1      31.726  19.890  22.287  1.00  0.00    -0.274 OA
ATOM     34  C   UNL A   1      33.880  17.720  25.578  1.00  0.00     0.025 C 
ATOM     35  C   UNL A   1      32.467  17.234  23.904  1.00  0.00     0.025 C 
ATOM     36  C   UNL A   1      34.217  16.324  25.117  1.00  0.00    -0.027 C 
ATOM     37  C   UNL A   1      32.366  17.622  25.367  1.00  0.00     0.017 C 
ATOM     38  C   UNL A   1      33.365  16.025  24.122  1.00  0.00    -0.027 C 
ENDBRANCH  26  27
ENDBRANCH  18  21
ENDBRANCH  14  17
ENDBRANCH   9  10
ENDBRANCH   8   9
ENDBRANCH   6   8
ENDBRANCH   5   6
ENDBRANCH   4   5
ENDBRANCH   3   4
ENDBRANCH   2   3
ENDBRANCH   1   2
BRANCH   1  39
ATOM     39  C   UNL A   1      41.713  26.568  27.539  1.00  0.00     0.188 C 
BRANCH  39  40
ATOM     40  O   UNL A   1      41.088  25.312  27.337  1.00  0.00    -0.377 OA
BRANCH  40  41
ATOM     41  C   UNL A   1      41.782  24.435  26.446  1.00  0.00     0.188 C 
BRANCH  41  42
ATOM     42  C   UNL A   1      43.172  24.234  26.994  1.00  0.00     0.188 C 
BRANCH  42  43
ATOM     43  O   UNL A   1      43.895  23.453  26.066  1.00  0.00    -0.376 OA
BRANCH  43  44
ATOM     44  C   UNL A   1      45.185  23.045  26.451  1.00  0.00     0.202 C 
BRANCH  44  45
ATOM     45  C   UNL A   1      46.210  23.196  25.329  1.00  0.00     0.261 C 
BRANCH  45  46
ATOM     46  O   UNL A   1      45.879  24.341  24.511  1.00  0.00    -0.460 OA
BRANCH  46  47
ATOM     47  C   UNL A   1      46.879  25.256  24.335  1.00  0.00     0.338 C 
ATOM     48  O   UNL A   1      47.899  25.040  23.700  1.00  0.00    -0.246 OA
BRANCH  47  49
ATOM     49  C   UNL A   1      46.693  26.440  25.240  1.00  0.00     0.060 A 
ATOM     50  C   UNL A   1      47.649  26.767  26.209  1.00  0.00     0.016 A 
ATOM     51  C   UNL A   1      45.410  26.933  25.398  1.00  0.00     0.016 A 
ATOM     52  C   UNL A   1      47.259  27.430  27.397  1.00  0.00     0.010 A 
ATOM     53  C   UNL A   1      45.009  27.451  26.609  1.00  0.00     0.010 A 
ATOM     54  C   UNL A   1      45.907  27.711  27.636  1.00  0.00    -0.014 A 
BRANCH  54  55
ATOM     55  C   UNL A   1      45.294  28.029  28.944  1.00  0.00     0.031 A 
ATOM     56  C   UNL A   1      44.900  26.959  29.926  1.00  0.00     0.074 A 
ATOM     57  C   UNL A   1      45.499  29.287  29.416  1.00  0.00     0.049 A 
ATOM     58  N   UNL A   1      44.015  27.086  30.866  1.00  0.00    -0.248 NA
ATOM     59  C   UNL A   1      45.605  25.673  30.033  1.00  0.00     0.031 C 
ATOM     60  C   UNL A   1      45.408  29.780  30.793  1.00  0.00     0.029 A 
ATOM     61  N   UNL A   1      46.016  30.395  28.736  1.00  0.00    -0.354 N 
ATOM     62  C   UNL A   1      44.244  26.073  31.790  1.00  0.00     0.074 A 
ATOM     63  C   UNL A   1      45.129  25.140  31.155  1.00  0.00     0.031 C 
ATOM     64  C   UNL A   1      45.708  31.092  30.846  1.00  0.00     0.029 A 
ATOM     65  C   UNL A   1      45.731  31.563  29.475  1.00  0.00     0.049 A 
ATOM     66  H   UNL A   1      46.502  30.365  27.880  1.00  0.00     0.167 HD
ATOM     67  C   UNL A   1      43.956  26.196  33.120  1.00  0.00     0.031 A 
ATOM     68  C   UNL A   1      44.836  32.462  28.969  1.00  0.00     0.031 A 
ATOM     69  C   UNL A   1      43.636  27.587  33.462  1.00  0.00     0.049 A 
ATOM     70  C   UNL A   1      43.518  32.288  29.713  1.00  0.00     0.074 A 
ATOM     71  C   UNL A   1      44.232  28.532  34.283  1.00  0.00     0.029 A 
ATOM     72  N   UNL A   1      42.728  28.294  32.677  1.00  0.00    -0.354 N 
ATOM     73  N   UNL A   1      43.212  31.182  30.350  1.00  0.00    -0.248 NA
ATOM     74  C   UNL A   1      42.545  33.342  29.991  1.00  0.00     0.031 C 
ATOM     75  C   UNL A   1      43.774  29.823  33.878  1.00  0.00     0.029 A 
ATOM     76  C   UNL A   1      42.839  29.659  32.864  1.00  0.00     0.049 A 
ATOM     77  H   UNL A   1      42.084  27.872  32.063  1.00  0.00     0.167 HD
ATOM     78  C   UNL A   1      42.215  31.410  31.242  1.00  0.00     0.074 A 
ATOM     79  C   UNL A   1      41.749  32.745  30.903  1.00  0.00     0.031 C 
ATOM     80  C   UNL A   1      41.864  30.551  32.243  1.00  0.00     0.031 A 
BRANCH  67  81
ATOM     81  C   UNL A   1      44.275  25.093  34.130  1.00  0.00    -0.014 A 
ATOM     82  C   UNL A   1      45.341  25.216  35.038  1.00  0.00     0.009 A 
ATOM     83  C   UNL A   1      43.505  23.913  34.271  1.00  0.00     0.009 A 
ATOM     84  C   UNL A   1      45.669  24.203  35.958  1.00  0.00     0.001 A 
ATOM     85  C   UNL A   1      43.853  22.876  35.153  1.00  0.00     0.001 A 
ATOM     86  C   UNL A   1      44.940  23.021  35.999  1.00  0.00     0.000 A 
ENDBRANCH  67  81
BRANCH  68  87
ATOM     87  C   UNL A   1      45.177  32.782  27.543  1.00  0.00    -0.014 A 
ATOM     88  C   UNL A   1      44.240  32.342  26.571  1.00  0.00     0.009 A 
ATOM     89  C   UNL A   1      45.975  33.885  27.205  1.00  0.00     0.009 A 
ATOM     90  C   UNL A   1      43.981  33.083  25.408  1.00  0.00     0.001 A 
ATOM     91  C   UNL A   1      45.714  34.622  26.033  1.00  0.00     0.001 A 
ATOM     92  C   UNL A   1      44.685  34.255  25.165  1.00  0.00     0.000 A 
ENDBRANCH  68  87
BRANCH  80  93
ATOM     93  C   UNL A   1      40.446  30.409  32.710  1.00  0.00    -0.014 A 
ATOM     94  C   UNL A   1      39.689  31.518  33.099  1.00  0.00     0.009 A 
ATOM     95  C   UNL A   1      39.759  29.199  32.464  1.00  0.00     0.009 A 
ATOM     96  C   UNL A   1      38.306  31.420  33.250  1.00  0.00     0.001 A 
ATOM     97  C   UNL A   1      38.373  29.116  32.552  1.00  0.00     0.001 A 
ATOM     98  C   UNL A   1      37.648  30.227  32.957  1.00  0.00     0.000 A 
ENDBRANCH  80  93
ENDBRANCH  54  55
ENDBRANCH  47  49
ENDBRANCH  46  47
ENDBRANCH  45  46
ENDBRANCH  44  45
ENDBRANCH  43  44
ENDBRANCH  42  43
ENDBRANCH  41  42
ENDBRANCH  40  41
ENDBRANCH  39  40
ENDBRANCH   1  39
TORSDOF 25
ENDMDL
