MODEL 1
REMARK VINA RESULT:      -6.6      0.000      0.000
REMARK SMILES C=C(C)C(=O)OCC[C@@H](C(C)=O)C(=O)OCCOCCOCCOCCOC(=O)c1ccc(-c2c3nc(c(-c4ccccc4)c4ccc([nH]4)c(-c4ccccc4)c4nc(c(-c5ccccc5)c5ccc2[nH]5)C=C4)C=C3)cc1
REMARK SMILES IDX 19 1 18 2 17 3 16 4 15 5 13 6 14 7 9 8 8 9 7 10 6 11 4 12
REMARK SMILES IDX 5 13 2 14 1 15 3 16 10 17 11 18 12 19 20 20 21 21 22 22
REMARK SMILES IDX 23 23 24 24 25 25 26 26 27 27 28 28 29 29 30 30 31 31 77 32
REMARK SMILES IDX 32 33 76 34 33 35 34 36 35 37 70 38 36 39 75 40 69 41 71 42
REMARK SMILES IDX 37 43 74 44 68 45 67 46 38 48 60 49 45 50 59 51 46 52 49 53
REMARK SMILES IDX 58 54 72 55 47 56 48 57 57 59 73 60 50 61 39 62 40 63 44 64
REMARK SMILES IDX 41 65 43 66 42 67 61 68 62 69 66 70 63 71 65 72 64 73 51 74
REMARK SMILES IDX 52 75 56 76 53 77 55 78 54 79
REMARK H PARENT 71 47 49 58
REMARK Flexibility Score: inf
ROOT
ATOM      1  C   UNL A   1      38.268  30.679  28.698  1.00  0.00     0.188 C 
ENDROOT
BRANCH   1   2
ATOM      2  O   UNL A   1      39.115  29.895  29.514  1.00  0.00    -0.376 OA
BRANCH   2   3
ATOM      3  C   UNL A   1      38.964  28.493  29.654  1.00  0.00     0.202 C 
BRANCH   3   4
ATOM      4  C   UNL A   1      39.860  27.427  28.997  1.00  0.00     0.261 C 
BRANCH   4   5
ATOM      5  O   UNL A   1      39.807  27.246  27.572  1.00  0.00    -0.463 OA
BRANCH   5   6
ATOM      6  C   UNL A   1      40.603  28.080  26.862  1.00  0.00     0.316 C 
ATOM      7  O   UNL A   1      40.200  29.105  26.318  1.00  0.00    -0.251 OA
BRANCH   6   8
ATOM      8  C   UNL A   1      42.012  27.582  26.634  1.00  0.00     0.169 C 
BRANCH   8   9
ATOM      9  C   UNL A   1      42.281  26.635  25.450  1.00  0.00     0.065 C 
BRANCH   9  10
ATOM     10  C   UNL A   1      42.919  25.300  25.876  1.00  0.00     0.234 C 
BRANCH  10  11
ATOM     11  O   UNL A   1      44.106  24.984  25.120  1.00  0.00    -0.462 OA
BRANCH  11  12
ATOM     12  C   UNL A   1      44.282  23.673  24.802  1.00  0.00     0.333 C 
ATOM     13  O   UNL A   1      43.448  22.928  24.314  1.00  0.00    -0.247 OA
BRANCH  12  14
ATOM     14  C   UNL A   1      45.675  23.259  25.085  1.00  0.00     0.027 C 
ATOM     15  C   UNL A   1      46.165  22.216  24.397  1.00  0.00     0.020 C 
ATOM     16  C   UNL A   1      46.398  23.946  26.194  1.00  0.00     0.051 C 
ENDBRANCH  12  14
ENDBRANCH  11  12
ENDBRANCH  10  11
ENDBRANCH   9  10
ENDBRANCH   8   9
BRANCH   8  17
ATOM     17  C   UNL A   1      43.034  28.702  26.613  1.00  0.00     0.144 C 
ATOM     18  C   UNL A   1      43.065  29.701  27.737  1.00  0.00     0.088 C 
ATOM     19  O   UNL A   1      43.884  28.767  25.719  1.00  0.00    -0.299 OA
ENDBRANCH   8  17
ENDBRANCH   6   8
ENDBRANCH   5   6
ENDBRANCH   4   5
ENDBRANCH   3   4
ENDBRANCH   2   3
ENDBRANCH   1   2
BRANCH   1  20
ATOM     20  C   UNL A   1      37.190  31.573  29.318  1.00  0.00     0.188 C 
BRANCH  20  21
ATOM     21  O   UNL A   1      36.945  32.785  28.633  1.00  0.00    -0.377 OA
BRANCH  21  22
ATOM     22  C   UNL A   1      35.890  33.625  29.093  1.00  0.00     0.188 C 
BRANCH  22  23
ATOM     23  C   UNL A   1      34.473  33.044  29.288  1.00  0.00     0.188 C 
BRANCH  23  24
ATOM     24  O   UNL A   1      33.445  34.019  29.346  1.00  0.00    -0.376 OA
BRANCH  24  25
ATOM     25  C   UNL A   1      33.656  35.196  30.112  1.00  0.00     0.202 C 
BRANCH  25  26
ATOM     26  C   UNL A   1      33.055  35.254  31.527  1.00  0.00     0.261 C 
BRANCH  26  27
ATOM     27  O   UNL A   1      33.719  34.483  32.541  1.00  0.00    -0.460 OA
BRANCH  27  28
ATOM     28  C   UNL A   1      34.624  35.102  33.322  1.00  0.00     0.338 C 
ATOM     29  O   UNL A   1      34.448  36.095  34.012  1.00  0.00    -0.246 OA
BRANCH  28  30
ATOM     30  C   UNL A   1      35.838  34.265  33.369  1.00  0.00     0.060 A 
ATOM     31  C   UNL A   1      36.942  34.712  34.109  1.00  0.00     0.016 A 
ATOM     32  C   UNL A   1      35.901  33.063  32.660  1.00  0.00     0.016 A 
ATOM     33  C   UNL A   1      38.135  33.993  34.085  1.00  0.00     0.010 A 
ATOM     34  C   UNL A   1      37.105  32.354  32.621  1.00  0.00     0.010 A 
ATOM     35  C   UNL A   1      38.240  32.845  33.290  1.00  0.00    -0.014 A 
BRANCH  35  36
ATOM     36  C   UNL A   1      39.585  32.319  32.950  1.00  0.00     0.031 A 
ATOM     37  C   UNL A   1      40.372  33.033  31.883  1.00  0.00     0.074 A 
ATOM     38  C   UNL A   1      40.117  31.264  33.592  1.00  0.00     0.049 A 
ATOM     39  N   UNL A   1      41.547  32.749  31.385  1.00  0.00    -0.248 NA
ATOM     40  C   UNL A   1      39.743  34.230  31.298  1.00  0.00     0.031 C 
ATOM     41  C   UNL A   1      39.485  30.526  34.682  1.00  0.00     0.029 A 
ATOM     42  N   UNL A   1      41.321  30.634  33.407  1.00  0.00    -0.354 N 
ATOM     43  C   UNL A   1      41.791  33.721  30.421  1.00  0.00     0.074 A 
ATOM     44  C   UNL A   1      40.629  34.581  30.381  1.00  0.00     0.031 C 
ATOM     45  C   UNL A   1      40.308  29.534  35.068  1.00  0.00     0.029 A 
ATOM     46  C   UNL A   1      41.505  29.547  34.227  1.00  0.00     0.049 A 
ATOM     47  H   UNL A   1      41.991  30.932  32.750  1.00  0.00     0.167 HD
ATOM     48  C   UNL A   1      42.884  33.889  29.641  1.00  0.00     0.031 A 
ATOM     49  C   UNL A   1      42.514  28.656  34.275  1.00  0.00     0.031 A 
ATOM     50  C   UNL A   1      44.033  33.025  29.669  1.00  0.00     0.049 A 
ATOM     51  C   UNL A   1      43.684  28.813  33.337  1.00  0.00     0.074 A 
ATOM     52  C   UNL A   1      45.195  33.109  28.923  1.00  0.00     0.029 A 
ATOM     53  N   UNL A   1      44.160  31.911  30.485  1.00  0.00    -0.354 N 
ATOM     54  N   UNL A   1      43.910  29.742  32.438  1.00  0.00    -0.248 NA
ATOM     55  C   UNL A   1      44.747  27.801  33.432  1.00  0.00     0.031 C 
ATOM     56  C   UNL A   1      45.998  32.010  29.240  1.00  0.00     0.029 A 
ATOM     57  C   UNL A   1      45.371  31.286  30.242  1.00  0.00     0.049 A 
ATOM     58  H   UNL A   1      43.489  31.609  31.139  1.00  0.00     0.167 HD
ATOM     59  C   UNL A   1      45.157  29.451  31.895  1.00  0.00     0.074 A 
ATOM     60  C   UNL A   1      45.640  28.266  32.571  1.00  0.00     0.031 C 
ATOM     61  C   UNL A   1      45.844  30.110  30.929  1.00  0.00     0.031 A 
BRANCH  48  62
ATOM     62  C   UNL A   1      42.865  35.028  28.660  1.00  0.00    -0.014 A 
ATOM     63  C   UNL A   1      43.039  36.359  29.073  1.00  0.00     0.009 A 
ATOM     64  C   UNL A   1      42.683  34.762  27.293  1.00  0.00     0.009 A 
ATOM     65  C   UNL A   1      42.994  37.401  28.143  1.00  0.00     0.001 A 
ATOM     66  C   UNL A   1      42.673  35.802  26.362  1.00  0.00     0.001 A 
ATOM     67  C   UNL A   1      42.816  37.121  26.789  1.00  0.00     0.000 A 
ENDBRANCH  48  62
BRANCH  49  68
ATOM     68  C   UNL A   1      42.465  27.520  35.235  1.00  0.00    -0.014 A 
ATOM     69  C   UNL A   1      43.130  27.592  36.469  1.00  0.00     0.009 A 
ATOM     70  C   UNL A   1      41.778  26.342  34.906  1.00  0.00     0.009 A 
ATOM     71  C   UNL A   1      43.134  26.498  37.337  1.00  0.00     0.001 A 
ATOM     72  C   UNL A   1      41.756  25.261  35.789  1.00  0.00     0.001 A 
ATOM     73  C   UNL A   1      42.444  25.335  36.999  1.00  0.00     0.000 A 
ENDBRANCH  49  68
BRANCH  61  74
ATOM     74  C   UNL A   1      47.222  29.609  30.592  1.00  0.00    -0.014 A 
ATOM     75  C   UNL A   1      48.362  30.051  31.281  1.00  0.00     0.009 A 
ATOM     76  C   UNL A   1      47.373  28.641  29.584  1.00  0.00     0.009 A 
ATOM     77  C   UNL A   1      49.627  29.569  30.935  1.00  0.00     0.001 A 
ATOM     78  C   UNL A   1      48.634  28.134  29.266  1.00  0.00     0.001 A 
ATOM     79  C   UNL A   1      49.761  28.608  29.934  1.00  0.00     0.000 A 
ENDBRANCH  61  74
ENDBRANCH  35  36
ENDBRANCH  28  30
ENDBRANCH  27  28
ENDBRANCH  26  27
ENDBRANCH  25  26
ENDBRANCH  24  25
ENDBRANCH  23  24
ENDBRANCH  22  23
ENDBRANCH  21  22
ENDBRANCH  20  21
ENDBRANCH   1  20
TORSDOF 26
ENDMDL
MODEL 2
REMARK VINA RESULT:      -6.3      2.279     10.764
REMARK SMILES C=C(C)C(=O)OCC[C@@H](C(C)=O)C(=O)OCCOCCOCCOCCOC(=O)c1ccc(-c2c3nc(c(-c4ccccc4)c4ccc([nH]4)c(-c4ccccc4)c4nc(c(-c5ccccc5)c5ccc2[nH]5)C=C4)C=C3)cc1
REMARK SMILES IDX 19 1 18 2 17 3 16 4 15 5 13 6 14 7 9 8 8 9 7 10 6 11 4 12
REMARK SMILES IDX 5 13 2 14 1 15 3 16 10 17 11 18 12 19 20 20 21 21 22 22
REMARK SMILES IDX 23 23 24 24 25 25 26 26 27 27 28 28 29 29 30 30 31 31 77 32
REMARK SMILES IDX 32 33 76 34 33 35 34 36 35 37 70 38 36 39 75 40 69 41 71 42
REMARK SMILES IDX 37 43 74 44 68 45 67 46 38 48 60 49 45 50 59 51 46 52 49 53
REMARK SMILES IDX 58 54 72 55 47 56 48 57 57 59 73 60 50 61 39 62 40 63 44 64
REMARK SMILES IDX 41 65 43 66 42 67 61 68 62 69 66 70 63 71 65 72 64 73 51 74
REMARK SMILES IDX 52 75 56 76 53 77 55 78 54 79
REMARK H PARENT 71 47 49 58
REMARK Flexibility Score: inf
ROOT
ATOM      1  C   UNL A   1      41.122  26.241  26.330  1.00  0.00     0.188 C 
ENDROOT
BRANCH   1   2
ATOM      2  O   UNL A   1      40.485  26.344  27.587  1.00  0.00    -0.376 OA
BRANCH   2   3
ATOM      3  C   UNL A   1      41.158  26.779  28.756  1.00  0.00     0.202 C 
BRANCH   3   4
ATOM      4  C   UNL A   1      40.836  28.060  29.548  1.00  0.00     0.261 C 
BRANCH   4   5
ATOM      5  O   UNL A   1      40.391  27.951  30.910  1.00  0.00    -0.463 OA
BRANCH   5   6
ATOM      6  C   UNL A   1      39.050  27.863  31.066  1.00  0.00     0.316 C 
ATOM      7  O   UNL A   1      38.426  26.807  30.998  1.00  0.00    -0.251 OA
BRANCH   6   8
ATOM      8  C   UNL A   1      38.327  29.187  31.165  1.00  0.00     0.169 C 
BRANCH   8   9
ATOM      9  C   UNL A   1      37.283  29.544  30.091  1.00  0.00     0.065 C 
BRANCH   9  10
ATOM     10  C   UNL A   1      37.686  30.762  29.238  1.00  0.00     0.234 C 
BRANCH  10  11
ATOM     11  O   UNL A   1      38.271  31.822  30.023  1.00  0.00    -0.462 OA
BRANCH  11  12
ATOM     12  C   UNL A   1      37.673  33.040  29.923  1.00  0.00     0.333 C 
ATOM     13  O   UNL A   1      36.537  33.260  29.535  1.00  0.00    -0.247 OA
BRANCH  12  14
ATOM     14  C   UNL A   1      38.585  34.101  30.408  1.00  0.00     0.027 C 
ATOM     15  C   UNL A   1      38.486  34.464  31.697  1.00  0.00     0.020 C 
ATOM     16  C   UNL A   1      39.465  34.776  29.411  1.00  0.00     0.051 C 
ENDBRANCH  12  14
ENDBRANCH  11  12
ENDBRANCH  10  11
ENDBRANCH   9  10
ENDBRANCH   8   9
BRANCH   8  17
ATOM     17  C   UNL A   1      37.726  29.425  32.537  1.00  0.00     0.144 C 
ATOM     18  C   UNL A   1      37.653  30.825  33.084  1.00  0.00     0.088 C 
ATOM     19  O   UNL A   1      37.234  28.495  33.183  1.00  0.00    -0.299 OA
ENDBRANCH   8  17
ENDBRANCH   6   8
ENDBRANCH   5   6
ENDBRANCH   4   5
ENDBRANCH   3   4
ENDBRANCH   2   3
ENDBRANCH   1   2
BRANCH   1  20
ATOM     20  C   UNL A   1      41.502  24.875  25.753  1.00  0.00     0.188 C 
BRANCH  20  21
ATOM     21  O   UNL A   1      41.483  23.805  26.677  1.00  0.00    -0.377 OA
BRANCH  21  22
ATOM     22  C   UNL A   1      42.608  22.933  26.731  1.00  0.00     0.188 C 
BRANCH  22  23
ATOM     23  C   UNL A   1      44.020  23.478  26.423  1.00  0.00     0.188 C 
BRANCH  23  24
ATOM     24  O   UNL A   1      44.656  22.861  25.316  1.00  0.00    -0.376 OA
BRANCH  24  25
ATOM     25  C   UNL A   1      45.746  23.525  24.693  1.00  0.00     0.202 C 
BRANCH  25  26
ATOM     26  C   UNL A   1      46.779  24.222  25.595  1.00  0.00     0.261 C 
BRANCH  26  27
ATOM     27  O   UNL A   1      47.594  25.232  24.980  1.00  0.00    -0.460 OA
BRANCH  27  28
ATOM     28  C   UNL A   1      47.048  26.442  24.755  1.00  0.00     0.338 C 
ATOM     29  O   UNL A   1      46.909  27.001  23.677  1.00  0.00    -0.246 OA
BRANCH  28  30
ATOM     30  C   UNL A   1      46.452  26.918  26.018  1.00  0.00     0.060 A 
ATOM     31  C   UNL A   1      45.057  27.012  26.116  1.00  0.00     0.016 A 
ATOM     32  C   UNL A   1      47.265  27.303  27.087  1.00  0.00     0.016 A 
ATOM     33  C   UNL A   1      44.473  27.556  27.259  1.00  0.00     0.010 A 
ATOM     34  C   UNL A   1      46.679  27.867  28.223  1.00  0.00     0.010 A 
ATOM     35  C   UNL A   1      45.285  28.044  28.290  1.00  0.00    -0.014 A 
BRANCH  35  36
ATOM     36  C   UNL A   1      44.703  28.964  29.297  1.00  0.00     0.031 A 
ATOM     37  C   UNL A   1      44.245  28.376  30.606  1.00  0.00     0.074 A 
ATOM     38  C   UNL A   1      44.618  30.288  29.084  1.00  0.00     0.049 A 
ATOM     39  N   UNL A   1      43.674  28.961  31.627  1.00  0.00    -0.248 NA
ATOM     40  C   UNL A   1      44.460  26.929  30.783  1.00  0.00     0.031 C 
ATOM     41  C   UNL A   1      45.081  30.988  27.888  1.00  0.00     0.029 A 
ATOM     42  N   UNL A   1      44.102  31.280  29.880  1.00  0.00    -0.354 N 
ATOM     43  C   UNL A   1      43.449  27.953  32.558  1.00  0.00     0.074 A 
ATOM     44  C   UNL A   1      43.913  26.718  31.969  1.00  0.00     0.031 C 
ATOM     45  C   UNL A   1      44.822  32.301  28.027  1.00  0.00     0.029 A 
ATOM     46  C   UNL A   1      44.144  32.526  29.303  1.00  0.00     0.049 A 
ATOM     47  H   UNL A   1      43.738  31.115  30.779  1.00  0.00     0.167 HD
ATOM     48  C   UNL A   1      42.910  28.046  33.796  1.00  0.00     0.031 A 
ATOM     49  C   UNL A   1      43.668  33.705  29.748  1.00  0.00     0.031 A 
ATOM     50  C   UNL A   1      42.433  29.272  34.377  1.00  0.00     0.049 A 
ATOM     51  C   UNL A   1      42.993  33.770  31.094  1.00  0.00     0.074 A 
ATOM     52  C   UNL A   1      41.872  29.475  35.625  1.00  0.00     0.029 A 
ATOM     53  N   UNL A   1      42.455  30.504  33.741  1.00  0.00    -0.354 N 
ATOM     54  N   UNL A   1      42.796  32.814  31.972  1.00  0.00    -0.248 NA
ATOM     55  C   UNL A   1      42.486  35.084  31.517  1.00  0.00     0.031 C 
ATOM     56  C   UNL A   1      41.496  30.818  35.721  1.00  0.00     0.029 A 
ATOM     57  C   UNL A   1      41.896  31.467  34.564  1.00  0.00     0.049 A 
ATOM     58  H   UNL A   1      42.815  30.670  32.840  1.00  0.00     0.167 HD
ATOM     59  C   UNL A   1      42.185  33.420  33.064  1.00  0.00     0.074 A 
ATOM     60  C   UNL A   1      42.051  34.825  32.741  1.00  0.00     0.031 C 
ATOM     61  C   UNL A   1      41.777  32.865  34.233  1.00  0.00     0.031 A 
BRANCH  48  62
ATOM     62  C   UNL A   1      42.767  26.773  34.584  1.00  0.00    -0.014 A 
ATOM     63  C   UNL A   1      43.882  25.993  34.931  1.00  0.00     0.009 A 
ATOM     64  C   UNL A   1      41.493  26.356  35.001  1.00  0.00     0.009 A 
ATOM     65  C   UNL A   1      43.719  24.803  35.645  1.00  0.00     0.001 A 
ATOM     66  C   UNL A   1      41.336  25.184  35.744  1.00  0.00     0.001 A 
ATOM     67  C   UNL A   1      42.447  24.403  36.055  1.00  0.00     0.000 A 
ENDBRANCH  48  62
BRANCH  49  68
ATOM     68  C   UNL A   1      43.795  34.928  28.909  1.00  0.00    -0.014 A 
ATOM     69  C   UNL A   1      42.802  35.265  27.975  1.00  0.00     0.009 A 
ATOM     70  C   UNL A   1      44.929  35.748  29.016  1.00  0.00     0.009 A 
ATOM     71  C   UNL A   1      42.959  36.378  27.145  1.00  0.00     0.001 A 
ATOM     72  C   UNL A   1      45.067  36.878  28.207  1.00  0.00     0.001 A 
ATOM     73  C   UNL A   1      44.088  37.185  27.265  1.00  0.00     0.000 A 
ENDBRANCH  49  68
BRANCH  61  74
ATOM     74  C   UNL A   1      41.211  33.787  35.279  1.00  0.00    -0.014 A 
ATOM     75  C   UNL A   1      41.897  34.064  36.473  1.00  0.00     0.009 A 
ATOM     76  C   UNL A   1      39.980  34.421  35.043  1.00  0.00     0.009 A 
ATOM     77  C   UNL A   1      41.338  34.919  37.425  1.00  0.00     0.001 A 
ATOM     78  C   UNL A   1      39.442  35.303  35.980  1.00  0.00     0.001 A 
ATOM     79  C   UNL A   1      40.115  35.542  37.176  1.00  0.00     0.000 A 
ENDBRANCH  61  74
ENDBRANCH  35  36
ENDBRANCH  28  30
ENDBRANCH  27  28
ENDBRANCH  26  27
ENDBRANCH  25  26
ENDBRANCH  24  25
ENDBRANCH  23  24
ENDBRANCH  22  23
ENDBRANCH  21  22
ENDBRANCH  20  21
ENDBRANCH   1  20
TORSDOF 26
ENDMDL
MODEL 3
REMARK VINA RESULT:      -6.3      5.624      8.152
REMARK SMILES C=C(C)C(=O)OCC[C@@H](C(C)=O)C(=O)OCCOCCOCCOCCOC(=O)c1ccc(-c2c3nc(c(-c4ccccc4)c4ccc([nH]4)c(-c4ccccc4)c4nc(c(-c5ccccc5)c5ccc2[nH]5)C=C4)C=C3)cc1
REMARK SMILES IDX 19 1 18 2 17 3 16 4 15 5 13 6 14 7 9 8 8 9 7 10 6 11 4 12
REMARK SMILES IDX 5 13 2 14 1 15 3 16 10 17 11 18 12 19 20 20 21 21 22 22
REMARK SMILES IDX 23 23 24 24 25 25 26 26 27 27 28 28 29 29 30 30 31 31 77 32
REMARK SMILES IDX 32 33 76 34 33 35 34 36 35 37 70 38 36 39 75 40 69 41 71 42
REMARK SMILES IDX 37 43 74 44 68 45 67 46 38 48 60 49 45 50 59 51 46 52 49 53
REMARK SMILES IDX 58 54 72 55 47 56 48 57 57 59 73 60 50 61 39 62 40 63 44 64
REMARK SMILES IDX 41 65 43 66 42 67 61 68 62 69 66 70 63 71 65 72 64 73 51 74
REMARK SMILES IDX 52 75 56 76 53 77 55 78 54 79
REMARK H PARENT 71 47 49 58
REMARK Flexibility Score: inf
ROOT
ATOM      1  C   UNL A   1      33.035  29.066  24.779  1.00  0.00     0.188 C 
ENDROOT
BRANCH   1   2
ATOM      2  O   UNL A   1      33.787  28.069  25.441  1.00  0.00    -0.376 OA
BRANCH   2   3
ATOM      3  C   UNL A   1      33.738  26.700  25.076  1.00  0.00     0.202 C 
BRANCH   3   4
ATOM      4  C   UNL A   1      34.077  26.133  23.686  1.00  0.00     0.261 C 
BRANCH   4   5
ATOM      5  O   UNL A   1      33.360  24.986  23.201  1.00  0.00    -0.463 OA
BRANCH   5   6
ATOM      6  C   UNL A   1      34.117  23.881  23.009  1.00  0.00     0.316 C 
ATOM      7  O   UNL A   1      34.221  23.308  21.927  1.00  0.00    -0.251 OA
BRANCH   6   8
ATOM      8  C   UNL A   1      34.709  23.283  24.264  1.00  0.00     0.169 C 
BRANCH   8   9
ATOM      9  C   UNL A   1      34.111  21.975  24.816  1.00  0.00     0.065 C 
BRANCH   9  10
ATOM     10  C   UNL A   1      32.679  22.148  25.358  1.00  0.00     0.234 C 
BRANCH  10  11
ATOM     11  O   UNL A   1      32.487  23.410  26.028  1.00  0.00    -0.462 OA
BRANCH  11  12
ATOM     12  C   UNL A   1      31.214  23.695  26.413  1.00  0.00     0.333 C 
ATOM     13  O   UNL A   1      30.642  23.264  27.402  1.00  0.00    -0.247 OA
BRANCH  12  14
ATOM     14  C   UNL A   1      30.600  24.667  25.480  1.00  0.00     0.027 C 
ATOM     15  C   UNL A   1      30.456  24.292  24.199  1.00  0.00     0.020 C 
ATOM     16  C   UNL A   1      30.293  26.033  25.994  1.00  0.00     0.051 C 
ENDBRANCH  12  14
ENDBRANCH  11  12
ENDBRANCH  10  11
ENDBRANCH   9  10
ENDBRANCH   8   9
BRANCH   8  17
ATOM     17  C   UNL A   1      36.218  23.143  24.192  1.00  0.00     0.144 C 
ATOM     18  C   UNL A   1      37.073  23.752  25.270  1.00  0.00     0.088 C 
ATOM     19  O   UNL A   1      36.750  22.479  23.298  1.00  0.00    -0.299 OA
ENDBRANCH   8  17
ENDBRANCH   6   8
ENDBRANCH   5   6
ENDBRANCH   4   5
ENDBRANCH   3   4
ENDBRANCH   2   3
ENDBRANCH   1   2
BRANCH   1  20
ATOM     20  C   UNL A   1      32.018  29.917  25.544  1.00  0.00     0.188 C 
BRANCH  20  21
ATOM     21  O   UNL A   1      32.298  30.101  26.917  1.00  0.00    -0.377 OA
BRANCH  21  22
ATOM     22  C   UNL A   1      33.062  31.238  27.310  1.00  0.00     0.188 C 
BRANCH  22  23
ATOM     23  C   UNL A   1      34.494  31.050  27.857  1.00  0.00     0.188 C 
BRANCH  23  24
ATOM     24  O   UNL A   1      34.791  31.838  28.998  1.00  0.00    -0.376 OA
BRANCH  24  25
ATOM     25  C   UNL A   1      35.930  32.685  28.970  1.00  0.00     0.202 C 
BRANCH  25  26
ATOM     26  C   UNL A   1      36.020  33.810  30.016  1.00  0.00     0.261 C 
BRANCH  26  27
ATOM     27  O   UNL A   1      35.821  33.432  31.387  1.00  0.00    -0.460 OA
BRANCH  27  28
ATOM     28  C   UNL A   1      36.497  34.104  32.338  1.00  0.00     0.338 C 
ATOM     29  O   UNL A   1      36.230  35.206  32.796  1.00  0.00    -0.246 OA
BRANCH  28  30
ATOM     30  C   UNL A   1      37.523  33.202  32.895  1.00  0.00     0.060 A 
ATOM     31  C   UNL A   1      37.176  32.352  33.955  1.00  0.00     0.016 A 
ATOM     32  C   UNL A   1      38.829  33.220  32.400  1.00  0.00     0.016 A 
ATOM     33  C   UNL A   1      38.151  31.567  34.568  1.00  0.00     0.010 A 
ATOM     34  C   UNL A   1      39.809  32.447  33.029  1.00  0.00     0.010 A 
ATOM     35  C   UNL A   1      39.484  31.660  34.148  1.00  0.00    -0.014 A 
BRANCH  35  36
ATOM     36  C   UNL A   1      40.559  31.150  35.032  1.00  0.00     0.031 A 
ATOM     37  C   UNL A   1      41.067  32.059  36.120  1.00  0.00     0.074 A 
ATOM     38  C   UNL A   1      41.050  29.904  34.908  1.00  0.00     0.049 A 
ATOM     39  N   UNL A   1      42.019  31.861  36.994  1.00  0.00    -0.248 NA
ATOM     40  C   UNL A   1      40.408  33.372  36.235  1.00  0.00     0.031 C 
ATOM     41  C   UNL A   1      40.602  28.908  33.938  1.00  0.00     0.029 A 
ATOM     42  N   UNL A   1      42.043  29.272  35.612  1.00  0.00    -0.354 N 
ATOM     43  C   UNL A   1      42.083  33.026  37.750  1.00  0.00     0.074 A 
ATOM     44  C   UNL A   1      41.099  33.937  37.211  1.00  0.00     0.031 C 
ATOM     45  C   UNL A   1      41.325  27.785  34.105  1.00  0.00     0.029 A 
ATOM     46  C   UNL A   1      42.308  28.000  35.167  1.00  0.00     0.049 A 
ATOM     47  H   UNL A   1      42.519  29.689  36.366  1.00  0.00     0.167 HD
ATOM     48  C   UNL A   1      42.886  33.313  38.802  1.00  0.00     0.031 A 
ATOM     49  C   UNL A   1      43.251  27.121  35.559  1.00  0.00     0.031 A 
ATOM     50  C   UNL A   1      43.876  32.414  39.328  1.00  0.00     0.049 A 
ATOM     51  C   UNL A   1      44.191  27.495  36.677  1.00  0.00     0.074 A 
ATOM     52  C   UNL A   1      44.738  32.606  40.393  1.00  0.00     0.029 A 
ATOM     53  N   UNL A   1      44.142  31.151  38.820  1.00  0.00    -0.354 N 
ATOM     54  N   UNL A   1      44.235  28.595  37.392  1.00  0.00    -0.248 NA
ATOM     55  C   UNL A   1      45.204  26.497  37.050  1.00  0.00     0.031 C 
ATOM     56  C   UNL A   1      45.569  31.486  40.489  1.00  0.00     0.029 A 
ATOM     57  C   UNL A   1      45.171  30.563  39.535  1.00  0.00     0.049 A 
ATOM     58  H   UNL A   1      43.669  30.734  38.063  1.00  0.00     0.167 HD
ATOM     59  C   UNL A   1      45.248  28.401  38.325  1.00  0.00     0.074 A 
ATOM     60  C   UNL A   1      45.785  27.077  38.089  1.00  0.00     0.031 C 
ATOM     61  C   UNL A   1      45.690  29.240  39.295  1.00  0.00     0.031 A 
BRANCH  48  62
ATOM     62  C   UNL A   1      42.751  34.677  39.421  1.00  0.00    -0.014 A 
ATOM     63  C   UNL A   1      43.487  35.776  38.948  1.00  0.00     0.009 A 
ATOM     64  C   UNL A   1      41.860  34.869  40.488  1.00  0.00     0.009 A 
ATOM     65  C   UNL A   1      43.360  37.028  39.556  1.00  0.00     0.001 A 
ATOM     66  C   UNL A   1      41.709  36.127  41.072  1.00  0.00     0.001 A 
ATOM     67  C   UNL A   1      42.467  37.203  40.613  1.00  0.00     0.000 A 
ENDBRANCH  48  62
BRANCH  49  68
ATOM     68  C   UNL A   1      43.371  25.801  34.883  1.00  0.00    -0.014 A 
ATOM     69  C   UNL A   1      42.667  24.682  35.358  1.00  0.00     0.009 A 
ATOM     70  C   UNL A   1      44.220  25.644  33.777  1.00  0.00     0.009 A 
ATOM     71  C   UNL A   1      42.836  23.432  34.760  1.00  0.00     0.001 A 
ATOM     72  C   UNL A   1      44.362  24.399  33.160  1.00  0.00     0.001 A 
ATOM     73  C   UNL A   1      43.679  23.292  33.659  1.00  0.00     0.000 A 
ENDBRANCH  49  68
BRANCH  61  74
ATOM     74  C   UNL A   1      46.761  28.729  40.221  1.00  0.00    -0.014 A 
ATOM     75  C   UNL A   1      46.451  28.045  41.407  1.00  0.00     0.009 A 
ATOM     76  C   UNL A   1      48.110  28.906  39.874  1.00  0.00     0.009 A 
ATOM     77  C   UNL A   1      47.472  27.591  42.247  1.00  0.00     0.001 A 
ATOM     78  C   UNL A   1      49.127  28.419  40.696  1.00  0.00     0.001 A 
ATOM     79  C   UNL A   1      48.807  27.774  41.889  1.00  0.00     0.000 A 
ENDBRANCH  61  74
ENDBRANCH  35  36
ENDBRANCH  28  30
ENDBRANCH  27  28
ENDBRANCH  26  27
ENDBRANCH  25  26
ENDBRANCH  24  25
ENDBRANCH  23  24
ENDBRANCH  22  23
ENDBRANCH  21  22
ENDBRANCH  20  21
ENDBRANCH   1  20
TORSDOF 26
ENDMDL
