MODEL 1
REMARK VINA RESULT:      -7.3      0.000      0.000
REMARK SMILES Cc1c(CC(=O)N[C@@H](CCO)C(=O)OCCOCCOCCOCCOC(=O)c2ccc(-c3c4nc(c(-c5ccccc5)c5ccc([nH]5)c(-c5ccccc5)c5nc(c(-c6ccccc6)c6ccc3[nH]6)C=C5)C=C4)cc2)cc(-c2ccc(S(C)(=O)=O)cc2)n1-c1ccc(F)cc1
REMARK SMILES IDX 18 1 17 2 16 3 15 4 14 5 12 6 13 7 8 8 7 9 5 10 6 11 4 13
REMARK SMILES IDX 3 14 1 15 2 16 89 17 77 18 78 19 90 20 91 21 96 22 92 23
REMARK SMILES IDX 95 24 93 25 94 26 79 27 80 28 88 29 81 30 87 31 82 32 83 33
REMARK SMILES IDX 84 34 85 35 86 36 9 37 10 38 11 39 19 41 20 42 21 43 22 44
REMARK SMILES IDX 23 45 24 46 25 47 26 48 27 49 28 50 29 51 30 52 76 53 31 54
REMARK SMILES IDX 75 55 32 56 33 57 34 58 69 59 35 60 74 61 68 62 70 63 36 64
REMARK SMILES IDX 73 65 67 66 66 67 37 69 59 70 44 71 58 72 45 73 48 74 57 75
REMARK SMILES IDX 71 76 46 77 47 78 56 80 72 81 49 82 38 83 39 84 43 85 40 86
REMARK SMILES IDX 42 87 41 88 60 89 61 90 65 91 62 92 64 93 63 94 50 95 51 96
REMARK SMILES IDX 55 97 52 98 54 99 53 100
REMARK H PARENT 7 12 11 40 70 68 48 79
REMARK Flexibility Score: inf
ROOT
ATOM      1  C   UNL A   1      48.940  42.225  31.959  1.00  0.00     0.188 C 
ENDROOT
BRANCH   1   2
ATOM      2  O   UNL A   1      48.259  42.295  30.714  1.00  0.00    -0.376 OA
BRANCH   2   3
ATOM      3  C   UNL A   1      48.521  43.367  29.824  1.00  0.00     0.202 C 
BRANCH   3   4
ATOM      4  C   UNL A   1      48.296  43.132  28.321  1.00  0.00     0.261 C 
BRANCH   4   5
ATOM      5  O   UNL A   1      46.917  43.085  27.899  1.00  0.00    -0.462 OA
BRANCH   5   6
ATOM      6  C   UNL A   1      46.706  43.184  26.560  1.00  0.00     0.328 C 
ATOM      7  O   UNL A   1      46.999  44.158  25.876  1.00  0.00    -0.250 OA
BRANCH   6   8
ATOM      8  C   UNL A   1      45.953  41.971  25.970  1.00  0.00     0.194 C 
BRANCH   8   9
ATOM      9  N   UNL A   1      44.944  42.163  24.915  1.00  0.00    -0.342 N 
ATOM     10  C   UNL A   1      45.092  42.359  23.568  1.00  0.00     0.225 C 
ATOM     11  O   UNL A   1      44.067  42.520  22.898  1.00  0.00    -0.275 OA
ATOM     12  H   UNL A   1      44.011  42.148  25.229  1.00  0.00     0.164 HD
BRANCH  10  13
ATOM     13  C   UNL A   1      46.457  42.284  22.893  1.00  0.00     0.137 C 
BRANCH  13  14
ATOM     14  C   UNL A   1      46.774  43.500  22.087  1.00  0.00    -0.017 A 
ATOM     15  C   UNL A   1      49.161  42.935  21.265  1.00  0.00     0.065 C 
ATOM     16  C   UNL A   1      47.896  43.732  21.309  1.00  0.00     0.024 A 
ATOM     17  N   UNL A   1      47.672  44.882  20.558  1.00  0.00    -0.314 N 
ATOM     18  C   UNL A   1      45.936  44.633  21.951  1.00  0.00     0.033 A 
ATOM     19  C   UNL A   1      46.447  45.431  20.945  1.00  0.00     0.053 A 
BRANCH  17  20
ATOM     20  C   UNL A   1      48.507  45.379  19.518  1.00  0.00     0.046 A 
ATOM     21  C   UNL A   1      49.370  46.453  19.772  1.00  0.00     0.029 A 
ATOM     22  C   UNL A   1      48.397  44.847  18.224  1.00  0.00     0.029 A 
ATOM     23  C   UNL A   1      50.116  47.000  18.730  1.00  0.00     0.041 A 
ATOM     24  C   UNL A   1      49.141  45.408  17.186  1.00  0.00     0.041 A 
ATOM     25  C   UNL A   1      49.989  46.479  17.447  1.00  0.00     0.123 A 
ATOM     26  F   UNL A   1      50.687  47.024  16.442  1.00  0.00    -0.207 F 
ENDBRANCH  17  20
BRANCH  19  27
ATOM     27  C   UNL A   1      45.747  46.534  20.276  1.00  0.00    -0.001 A 
ATOM     28  C   UNL A   1      44.866  46.283  19.213  1.00  0.00     0.011 A 
ATOM     29  C   UNL A   1      45.921  47.849  20.725  1.00  0.00     0.011 A 
ATOM     30  C   UNL A   1      44.217  47.333  18.564  1.00  0.00     0.021 A 
ATOM     31  C   UNL A   1      45.273  48.907  20.082  1.00  0.00     0.021 A 
ATOM     32  C   UNL A   1      44.442  48.643  18.992  1.00  0.00     0.067 A 
BRANCH  32  33
ATOM     33  S   UNL A   1      43.633  49.977  18.142  1.00  0.00     0.175 S 
ATOM     34  C   UNL A   1      44.905  50.647  17.103  1.00  0.00     0.163 C 
ATOM     35  O   UNL A   1      42.613  49.393  17.301  1.00  0.00    -0.224 OA
ATOM     36  O   UNL A   1      43.301  50.992  19.131  1.00  0.00    -0.224 OA
ENDBRANCH  32  33
ENDBRANCH  19  27
ENDBRANCH  13  14
ENDBRANCH  10  13
ENDBRANCH   8   9
BRANCH   8  37
ATOM     37  C   UNL A   1      46.971  40.918  25.512  1.00  0.00     0.065 C 
BRANCH  37  38
ATOM     38  C   UNL A   1      46.429  39.490  25.474  1.00  0.00     0.159 C 
BRANCH  38  39
ATOM     39  O   UNL A   1      46.906  38.773  24.347  1.00  0.00    -0.396 OA
ATOM     40  H   UNL A   1      46.365  37.979  24.217  1.00  0.00     0.210 HD
ENDBRANCH  38  39
ENDBRANCH  37  38
ENDBRANCH   8  37
ENDBRANCH   6   8
ENDBRANCH   5   6
ENDBRANCH   4   5
ENDBRANCH   3   4
ENDBRANCH   2   3
ENDBRANCH   1   2
BRANCH   1  41
ATOM     41  C   UNL A   1      48.192  42.027  33.290  1.00  0.00     0.188 C 
BRANCH  41  42
ATOM     42  O   UNL A   1      46.785  42.128  33.246  1.00  0.00    -0.377 OA
BRANCH  42  43
ATOM     43  C   UNL A   1      46.096  41.975  34.478  1.00  0.00     0.188 C 
BRANCH  43  44
ATOM     44  C   UNL A   1      45.454  43.252  35.013  1.00  0.00     0.188 C 
BRANCH  44  45
ATOM     45  O   UNL A   1      45.723  44.440  34.299  1.00  0.00    -0.376 OA
BRANCH  45  46
ATOM     46  C   UNL A   1      44.726  45.185  33.621  1.00  0.00     0.202 C 
BRANCH  46  47
ATOM     47  C   UNL A   1      43.822  44.732  32.444  1.00  0.00     0.261 C 
BRANCH  47  48
ATOM     48  O   UNL A   1      42.426  44.342  32.570  1.00  0.00    -0.460 OA
BRANCH  48  49
ATOM     49  C   UNL A   1      42.252  43.110  33.159  1.00  0.00     0.338 C 
ATOM     50  O   UNL A   1      42.002  42.972  34.350  1.00  0.00    -0.246 OA
BRANCH  49  51
ATOM     51  C   UNL A   1      42.440  41.887  32.275  1.00  0.00     0.060 A 
ATOM     52  C   UNL A   1      43.155  40.795  32.749  1.00  0.00     0.016 A 
ATOM     53  C   UNL A   1      42.235  41.920  30.878  1.00  0.00     0.016 A 
ATOM     54  C   UNL A   1      43.613  39.770  31.857  1.00  0.00     0.010 A 
ATOM     55  C   UNL A   1      42.749  40.902  29.969  1.00  0.00     0.010 A 
ATOM     56  C   UNL A   1      43.477  39.790  30.424  1.00  0.00    -0.014 A 
BRANCH  56  57
ATOM     57  C   UNL A   1      44.509  38.915  29.582  1.00  0.00     0.031 A 
ATOM     58  C   UNL A   1      43.649  38.127  28.653  1.00  0.00     0.074 A 
ATOM     59  C   UNL A   1      45.857  38.586  29.495  1.00  0.00     0.049 A 
ATOM     60  N   UNL A   1      42.725  37.333  29.112  1.00  0.00    -0.248 NA
ATOM     61  C   UNL A   1      43.545  38.450  27.230  1.00  0.00     0.031 C 
ATOM     62  C   UNL A   1      46.962  39.051  30.345  1.00  0.00     0.029 A 
ATOM     63  N   UNL A   1      46.577  37.745  28.591  1.00  0.00    -0.354 N 
ATOM     64  C   UNL A   1      42.054  36.858  28.010  1.00  0.00     0.074 A 
ATOM     65  C   UNL A   1      42.468  37.726  26.916  1.00  0.00     0.031 C 
ATOM     66  C   UNL A   1      48.171  38.626  29.872  1.00  0.00     0.029 A 
ATOM     67  C   UNL A   1      48.006  37.782  28.692  1.00  0.00     0.049 A 
ATOM     68  H   UNL A   1      46.116  37.172  27.936  1.00  0.00     0.167 HD
ATOM     69  C   UNL A   1      41.795  35.522  27.956  1.00  0.00     0.031 A 
ATOM     70  C   UNL A   1      48.992  37.157  27.943  1.00  0.00     0.031 A 
ATOM     71  C   UNL A   1      42.701  34.844  27.067  1.00  0.00     0.049 A 
ATOM     72  C   UNL A   1      48.385  36.011  27.250  1.00  0.00     0.074 A 
ATOM     73  C   UNL A   1      43.108  35.074  25.770  1.00  0.00     0.029 A 
ATOM     74  N   UNL A   1      43.673  34.061  27.658  1.00  0.00    -0.354 N 
ATOM     75  N   UNL A   1      48.166  34.887  27.860  1.00  0.00    -0.248 NA
ATOM     76  C   UNL A   1      48.110  36.006  25.817  1.00  0.00     0.031 C 
ATOM     77  C   UNL A   1      44.505  34.850  25.781  1.00  0.00     0.029 A 
ATOM     78  C   UNL A   1      44.856  34.199  26.959  1.00  0.00     0.049 A 
ATOM     79  H   UNL A   1      43.544  33.494  28.453  1.00  0.00     0.167 HD
ATOM     80  C   UNL A   1      47.248  34.283  27.056  1.00  0.00     0.074 A 
ATOM     81  C   UNL A   1      47.479  34.833  25.735  1.00  0.00     0.031 C 
ATOM     82  C   UNL A   1      46.091  33.875  27.635  1.00  0.00     0.031 A 
BRANCH  69  83
ATOM     83  C   UNL A   1      41.256  34.895  29.208  1.00  0.00    -0.014 A 
ATOM     84  C   UNL A   1      39.876  34.924  29.439  1.00  0.00     0.009 A 
ATOM     85  C   UNL A   1      42.088  34.344  30.200  1.00  0.00     0.009 A 
ATOM     86  C   UNL A   1      39.354  34.472  30.656  1.00  0.00     0.001 A 
ATOM     87  C   UNL A   1      41.572  33.922  31.424  1.00  0.00     0.001 A 
ATOM     88  C   UNL A   1      40.202  33.995  31.655  1.00  0.00     0.000 A 
ENDBRANCH  69  83
BRANCH  70  89
ATOM     89  C   UNL A   1      50.508  37.137  27.713  1.00  0.00    -0.014 A 
ATOM     90  C   UNL A   1      51.050  37.762  26.541  1.00  0.00     0.009 A 
ATOM     91  C   UNL A   1      51.432  36.892  28.732  1.00  0.00     0.009 A 
ATOM     92  C   UNL A   1      52.378  38.215  26.441  1.00  0.00     0.001 A 
ATOM     93  C   UNL A   1      52.783  37.317  28.620  1.00  0.00     0.001 A 
ATOM     94  C   UNL A   1      53.246  38.006  27.497  1.00  0.00     0.000 A 
ENDBRANCH  70  89
BRANCH  82  95
ATOM     95  C   UNL A   1      46.181  33.347  29.060  1.00  0.00    -0.014 A 
ATOM     96  C   UNL A   1      45.844  34.083  30.218  1.00  0.00     0.009 A 
ATOM     97  C   UNL A   1      46.688  32.055  29.255  1.00  0.00     0.009 A 
ATOM     98  C   UNL A   1      46.083  33.589  31.506  1.00  0.00     0.001 A 
ATOM     99  C   UNL A   1      46.880  31.537  30.542  1.00  0.00     0.001 A 
ATOM    100  C   UNL A   1      46.599  32.311  31.667  1.00  0.00     0.000 A 
ENDBRANCH  82  95
ENDBRANCH  56  57
ENDBRANCH  49  51
ENDBRANCH  48  49
ENDBRANCH  47  48
ENDBRANCH  46  47
ENDBRANCH  45  46
ENDBRANCH  44  45
ENDBRANCH  43  44
ENDBRANCH  42  43
ENDBRANCH  41  42
ENDBRANCH   1  41
TORSDOF 29
ENDMDL
MODEL 2
REMARK VINA RESULT:      -6.9     11.432     17.316
REMARK SMILES Cc1c(CC(=O)N[C@@H](CCO)C(=O)OCCOCCOCCOCCOC(=O)c2ccc(-c3c4nc(c(-c5ccccc5)c5ccc([nH]5)c(-c5ccccc5)c5nc(c(-c6ccccc6)c6ccc3[nH]6)C=C5)C=C4)cc2)cc(-c2ccc(S(C)(=O)=O)cc2)n1-c1ccc(F)cc1
REMARK SMILES IDX 18 1 17 2 16 3 15 4 14 5 12 6 13 7 8 8 7 9 5 10 6 11 4 13
REMARK SMILES IDX 3 14 1 15 2 16 89 17 77 18 78 19 90 20 91 21 96 22 92 23
REMARK SMILES IDX 95 24 93 25 94 26 79 27 80 28 88 29 81 30 87 31 82 32 83 33
REMARK SMILES IDX 84 34 85 35 86 36 9 37 10 38 11 39 19 41 20 42 21 43 22 44
REMARK SMILES IDX 23 45 24 46 25 47 26 48 27 49 28 50 29 51 30 52 76 53 31 54
REMARK SMILES IDX 75 55 32 56 33 57 34 58 69 59 35 60 74 61 68 62 70 63 36 64
REMARK SMILES IDX 73 65 67 66 66 67 37 69 59 70 44 71 58 72 45 73 48 74 57 75
REMARK SMILES IDX 71 76 46 77 47 78 56 80 72 81 49 82 38 83 39 84 43 85 40 86
REMARK SMILES IDX 42 87 41 88 60 89 61 90 65 91 62 92 64 93 63 94 50 95 51 96
REMARK SMILES IDX 55 97 52 98 54 99 53 100
REMARK H PARENT 7 12 11 40 70 68 48 79
REMARK Flexibility Score: inf
ROOT
ATOM      1  C   UNL A   1      35.428  34.142  32.751  1.00  0.00     0.188 C 
ENDROOT
BRANCH   1   2
ATOM      2  O   UNL A   1      35.481  33.433  33.981  1.00  0.00    -0.376 OA
BRANCH   2   3
ATOM      3  C   UNL A   1      36.735  33.071  34.535  1.00  0.00     0.202 C 
BRANCH   3   4
ATOM      4  C   UNL A   1      37.403  31.779  34.035  1.00  0.00     0.261 C 
BRANCH   4   5
ATOM      5  O   UNL A   1      38.747  31.552  34.507  1.00  0.00    -0.462 OA
BRANCH   5   6
ATOM      6  C   UNL A   1      38.861  31.168  35.806  1.00  0.00     0.328 C 
ATOM      7  O   UNL A   1      38.251  30.234  36.314  1.00  0.00    -0.250 OA
BRANCH   6   8
ATOM      8  C   UNL A   1      39.775  32.094  36.637  1.00  0.00     0.194 C 
BRANCH   8   9
ATOM      9  N   UNL A   1      40.751  32.971  35.968  1.00  0.00    -0.342 N 
ATOM     10  C   UNL A   1      41.937  32.674  35.351  1.00  0.00     0.225 C 
ATOM     11  O   UNL A   1      42.588  33.613  34.883  1.00  0.00    -0.275 OA
ATOM     12  H   UNL A   1      40.513  33.927  35.965  1.00  0.00     0.164 HD
BRANCH  10  13
ATOM     13  C   UNL A   1      42.398  31.235  35.153  1.00  0.00     0.137 C 
BRANCH  13  14
ATOM     14  C   UNL A   1      43.349  30.779  36.209  1.00  0.00    -0.017 A 
ATOM     15  C   UNL A   1      44.482  28.780  35.020  1.00  0.00     0.065 C 
ATOM     16  C   UNL A   1      44.312  29.787  36.112  1.00  0.00     0.024 A 
ATOM     17  N   UNL A   1      45.118  29.855  37.245  1.00  0.00    -0.314 N 
ATOM     18  C   UNL A   1      43.454  31.330  37.510  1.00  0.00     0.033 A 
ATOM     19  C   UNL A   1      44.595  30.825  38.103  1.00  0.00     0.053 A 
BRANCH  17  20
ATOM     20  C   UNL A   1      46.317  29.119  37.464  1.00  0.00     0.046 A 
ATOM     21  C   UNL A   1      46.286  27.955  38.242  1.00  0.00     0.029 A 
ATOM     22  C   UNL A   1      47.535  29.611  36.972  1.00  0.00     0.029 A 
ATOM     23  C   UNL A   1      47.474  27.289  38.536  1.00  0.00     0.041 A 
ATOM     24  C   UNL A   1      48.720  28.943  37.279  1.00  0.00     0.041 A 
ATOM     25  C   UNL A   1      48.679  27.792  38.059  1.00  0.00     0.123 A 
ATOM     26  F   UNL A   1      49.822  27.165  38.365  1.00  0.00    -0.207 F 
ENDBRANCH  17  20
BRANCH  19  27
ATOM     27  C   UNL A   1      45.242  31.343  39.313  1.00  0.00    -0.001 A 
ATOM     28  C   UNL A   1      46.195  32.371  39.232  1.00  0.00     0.011 A 
ATOM     29  C   UNL A   1      44.880  30.844  40.571  1.00  0.00     0.011 A 
ATOM     30  C   UNL A   1      46.825  32.850  40.381  1.00  0.00     0.021 A 
ATOM     31  C   UNL A   1      45.504  31.319  41.727  1.00  0.00     0.021 A 
ATOM     32  C   UNL A   1      46.488  32.305  41.622  1.00  0.00     0.067 A 
BRANCH  32  33
ATOM     33  S   UNL A   1      47.316  32.900  43.076  1.00  0.00     0.175 S 
ATOM     34  C   UNL A   1      46.011  33.060  44.267  1.00  0.00     0.163 C 
ATOM     35  O   UNL A   1      48.214  31.857  43.516  1.00  0.00    -0.224 OA
ATOM     36  O   UNL A   1      47.806  34.240  42.786  1.00  0.00    -0.224 OA
ENDBRANCH  32  33
ENDBRANCH  19  27
ENDBRANCH  13  14
ENDBRANCH  10  13
ENDBRANCH   8   9
BRANCH   8  37
ATOM     37  C   UNL A   1      38.914  32.931  37.592  1.00  0.00     0.065 C 
BRANCH  37  38
ATOM     38  C   UNL A   1      39.610  33.318  38.896  1.00  0.00     0.159 C 
BRANCH  38  39
ATOM     39  O   UNL A   1      40.767  32.533  39.131  1.00  0.00    -0.396 OA
ATOM     40  H   UNL A   1      40.514  31.600  39.207  1.00  0.00     0.210 HD
ENDBRANCH  38  39
ENDBRANCH  37  38
ENDBRANCH   8  37
ENDBRANCH   6   8
ENDBRANCH   5   6
ENDBRANCH   4   5
ENDBRANCH   3   4
ENDBRANCH   2   3
ENDBRANCH   1   2
BRANCH   1  41
ATOM     41  C   UNL A   1      34.337  35.187  32.458  1.00  0.00     0.188 C 
BRANCH  41  42
ATOM     42  O   UNL A   1      33.389  34.852  31.468  1.00  0.00    -0.377 OA
BRANCH  42  43
ATOM     43  C   UNL A   1      32.809  35.930  30.748  1.00  0.00     0.188 C 
BRANCH  43  44
ATOM     44  C   UNL A   1      32.815  35.761  29.232  1.00  0.00     0.188 C 
BRANCH  44  45
ATOM     45  O   UNL A   1      34.080  35.651  28.614  1.00  0.00    -0.376 OA
BRANCH  45  46
ATOM     46  C   UNL A   1      34.499  34.504  27.895  1.00  0.00     0.202 C 
BRANCH  46  47
ATOM     47  C   UNL A   1      35.714  33.582  28.182  1.00  0.00     0.261 C 
BRANCH  47  48
ATOM     48  O   UNL A   1      36.339  33.411  29.484  1.00  0.00    -0.460 OA
BRANCH  48  49
ATOM     49  C   UNL A   1      36.497  32.092  29.848  1.00  0.00     0.338 C 
ATOM     50  O   UNL A   1      35.730  31.517  30.611  1.00  0.00    -0.246 OA
BRANCH  49  51
ATOM     51  C   UNL A   1      37.717  31.365  29.306  1.00  0.00     0.060 A 
ATOM     52  C   UNL A   1      37.556  30.314  28.413  1.00  0.00     0.016 A 
ATOM     53  C   UNL A   1      38.989  31.457  29.914  1.00  0.00     0.016 A 
ATOM     54  C   UNL A   1      38.638  29.418  28.126  1.00  0.00     0.010 A 
ATOM     55  C   UNL A   1      40.069  30.511  29.658  1.00  0.00     0.010 A 
ATOM     56  C   UNL A   1      39.930  29.439  28.762  1.00  0.00    -0.014 A 
BRANCH  56  57
ATOM     57  C   UNL A   1      40.765  28.083  28.759  1.00  0.00     0.031 A 
ATOM     58  C   UNL A   1      41.831  28.307  29.777  1.00  0.00     0.074 A 
ATOM     59  C   UNL A   1      40.888  26.868  28.094  1.00  0.00     0.049 A 
ATOM     60  N   UNL A   1      42.668  29.298  29.660  1.00  0.00    -0.248 NA
ATOM     61  C   UNL A   1      41.785  27.680  31.098  1.00  0.00     0.031 C 
ATOM     62  C   UNL A   1      40.111  26.378  26.946  1.00  0.00     0.029 A 
ATOM     63  N   UNL A   1      41.751  25.749  28.304  1.00  0.00    -0.354 N 
ATOM     64  C   UNL A   1      43.430  29.285  30.804  1.00  0.00     0.074 A 
ATOM     65  C   UNL A   1      42.715  28.409  31.722  1.00  0.00     0.031 C 
ATOM     66  C   UNL A   1      40.418  25.080  26.652  1.00  0.00     0.029 A 
ATOM     67  C   UNL A   1      41.472  24.577  27.527  1.00  0.00     0.049 A 
ATOM     68  H   UNL A   1      42.496  25.780  28.947  1.00  0.00     0.167 HD
ATOM     69  C   UNL A   1      44.779  29.418  30.666  1.00  0.00     0.031 A 
ATOM     70  C   UNL A   1      42.056  23.319  27.527  1.00  0.00     0.031 A 
ATOM     71  C   UNL A   1      45.451  28.155  30.810  1.00  0.00     0.049 A 
ATOM     72  C   UNL A   1      43.387  23.431  28.140  1.00  0.00     0.074 A 
ATOM     73  C   UNL A   1      45.393  27.151  31.754  1.00  0.00     0.029 A 
ATOM     74  N   UNL A   1      45.954  27.590  29.655  1.00  0.00    -0.354 N 
ATOM     75  N   UNL A   1      44.407  23.880  27.473  1.00  0.00    -0.248 NA
ATOM     76  C   UNL A   1      43.689  22.931  29.477  1.00  0.00     0.031 C 
ATOM     77  C   UNL A   1      45.388  25.949  31.007  1.00  0.00     0.029 A 
ATOM     78  C   UNL A   1      45.757  26.223  29.694  1.00  0.00     0.049 A 
ATOM     79  H   UNL A   1      46.385  28.082  28.919  1.00  0.00     0.167 HD
ATOM     80  C   UNL A   1      45.281  24.227  28.459  1.00  0.00     0.074 A 
ATOM     81  C   UNL A   1      44.943  23.376  29.582  1.00  0.00     0.031 C 
ATOM     82  C   UNL A   1      45.757  25.497  28.445  1.00  0.00     0.031 A 
BRANCH  69  83
ATOM     83  C   UNL A   1      45.251  30.494  29.733  1.00  0.00    -0.014 A 
ATOM     84  C   UNL A   1      45.200  31.827  30.157  1.00  0.00     0.009 A 
ATOM     85  C   UNL A   1      45.674  30.228  28.418  1.00  0.00     0.009 A 
ATOM     86  C   UNL A   1      45.503  32.863  29.267  1.00  0.00     0.001 A 
ATOM     87  C   UNL A   1      45.947  31.260  27.522  1.00  0.00     0.001 A 
ATOM     88  C   UNL A   1      45.852  32.581  27.946  1.00  0.00     0.000 A 
ENDBRANCH  69  83
BRANCH  70  89
ATOM     89  C   UNL A   1      41.877  21.900  26.972  1.00  0.00    -0.014 A 
ATOM     90  C   UNL A   1      42.782  21.416  25.971  1.00  0.00     0.009 A 
ATOM     91  C   UNL A   1      41.139  20.912  27.629  1.00  0.00     0.009 A 
ATOM     92  C   UNL A   1      43.020  20.052  25.728  1.00  0.00     0.001 A 
ATOM     93  C   UNL A   1      41.354  19.533  27.363  1.00  0.00     0.001 A 
ATOM     94  C   UNL A   1      42.313  19.103  26.443  1.00  0.00     0.000 A 
ENDBRANCH  70  89
BRANCH  82  95
ATOM     95  C   UNL A   1      46.004  26.127  27.081  1.00  0.00    -0.014 A 
ATOM     96  C   UNL A   1      47.206  26.020  26.346  1.00  0.00     0.009 A 
ATOM     97  C   UNL A   1      44.992  26.923  26.530  1.00  0.00     0.009 A 
ATOM     98  C   UNL A   1      47.418  26.740  25.165  1.00  0.00     0.001 A 
ATOM     99  C   UNL A   1      45.182  27.605  25.320  1.00  0.00     0.001 A 
ATOM    100  C   UNL A   1      46.401  27.531  24.650  1.00  0.00     0.000 A 
ENDBRANCH  82  95
ENDBRANCH  56  57
ENDBRANCH  49  51
ENDBRANCH  48  49
ENDBRANCH  47  48
ENDBRANCH  46  47
ENDBRANCH  45  46
ENDBRANCH  44  45
ENDBRANCH  43  44
ENDBRANCH  42  43
ENDBRANCH  41  42
ENDBRANCH   1  41
TORSDOF 29
ENDMDL
MODEL 3
REMARK VINA RESULT:      -6.7      8.682     15.338
REMARK SMILES Cc1c(CC(=O)N[C@@H](CCO)C(=O)OCCOCCOCCOCCOC(=O)c2ccc(-c3c4nc(c(-c5ccccc5)c5ccc([nH]5)c(-c5ccccc5)c5nc(c(-c6ccccc6)c6ccc3[nH]6)C=C5)C=C4)cc2)cc(-c2ccc(S(C)(=O)=O)cc2)n1-c1ccc(F)cc1
REMARK SMILES IDX 18 1 17 2 16 3 15 4 14 5 12 6 13 7 8 8 7 9 5 10 6 11 4 13
REMARK SMILES IDX 3 14 1 15 2 16 89 17 77 18 78 19 90 20 91 21 96 22 92 23
REMARK SMILES IDX 95 24 93 25 94 26 79 27 80 28 88 29 81 30 87 31 82 32 83 33
REMARK SMILES IDX 84 34 85 35 86 36 9 37 10 38 11 39 19 41 20 42 21 43 22 44
REMARK SMILES IDX 23 45 24 46 25 47 26 48 27 49 28 50 29 51 30 52 76 53 31 54
REMARK SMILES IDX 75 55 32 56 33 57 34 58 69 59 35 60 74 61 68 62 70 63 36 64
REMARK SMILES IDX 73 65 67 66 66 67 37 69 59 70 44 71 58 72 45 73 48 74 57 75
REMARK SMILES IDX 71 76 46 77 47 78 56 80 72 81 49 82 38 83 39 84 43 85 40 86
REMARK SMILES IDX 42 87 41 88 60 89 61 90 65 91 62 92 64 93 63 94 50 95 51 96
REMARK SMILES IDX 55 97 52 98 54 99 53 100
REMARK H PARENT 7 12 11 40 70 68 48 79
REMARK Flexibility Score: inf
ROOT
ATOM      1  C   UNL A   1      50.112  27.234  29.002  1.00  0.00     0.188 C 
ENDROOT
BRANCH   1   2
ATOM      2  O   UNL A   1      49.945  28.397  29.801  1.00  0.00    -0.376 OA
BRANCH   2   3
ATOM      3  C   UNL A   1      49.562  29.621  29.197  1.00  0.00     0.202 C 
BRANCH   3   4
ATOM      4  C   UNL A   1      48.932  30.704  30.090  1.00  0.00     0.261 C 
BRANCH   4   5
ATOM      5  O   UNL A   1      47.947  31.540  29.449  1.00  0.00    -0.462 OA
BRANCH   5   6
ATOM      6  C   UNL A   1      48.437  32.557  28.691  1.00  0.00     0.328 C 
ATOM      7  O   UNL A   1      49.606  32.664  28.338  1.00  0.00    -0.250 OA
BRANCH   6   8
ATOM      8  C   UNL A   1      47.389  33.649  28.384  1.00  0.00     0.194 C 
BRANCH   8   9
ATOM      9  N   UNL A   1      47.580  35.023  28.880  1.00  0.00    -0.342 N 
ATOM     10  C   UNL A   1      46.671  35.934  29.348  1.00  0.00     0.225 C 
ATOM     11  O   UNL A   1      47.096  37.043  29.685  1.00  0.00    -0.275 OA
ATOM     12  H   UNL A   1      48.514  35.338  28.874  1.00  0.00     0.164 HD
BRANCH  10  13
ATOM     13  C   UNL A   1      45.204  35.571  29.546  1.00  0.00     0.137 C 
BRANCH  13  14
ATOM     14  C   UNL A   1      44.842  35.377  30.981  1.00  0.00    -0.017 A 
ATOM     15  C   UNL A   1      43.336  37.441  31.391  1.00  0.00     0.065 C 
ATOM     16  C   UNL A   1      43.961  36.128  31.741  1.00  0.00     0.024 A 
ATOM     17  N   UNL A   1      43.751  35.461  32.945  1.00  0.00    -0.314 N 
ATOM     18  C   UNL A   1      45.325  34.339  31.814  1.00  0.00     0.033 A 
ATOM     19  C   UNL A   1      44.586  34.342  32.981  1.00  0.00     0.053 A 
BRANCH  17  20
ATOM     20  C   UNL A   1      42.797  35.811  33.942  1.00  0.00     0.046 A 
ATOM     21  C   UNL A   1      43.187  36.597  35.033  1.00  0.00     0.029 A 
ATOM     22  C   UNL A   1      41.495  35.295  33.868  1.00  0.00     0.029 A 
ATOM     23  C   UNL A   1      42.277  36.859  36.056  1.00  0.00     0.041 A 
ATOM     24  C   UNL A   1      40.593  35.555  34.901  1.00  0.00     0.041 A 
ATOM     25  C   UNL A   1      40.993  36.329  35.984  1.00  0.00     0.123 A 
ATOM     26  F   UNL A   1      40.129  36.561  36.982  1.00  0.00    -0.207 F 
ENDBRANCH  17  20
BRANCH  19  27
ATOM     27  C   UNL A   1      44.545  33.268  33.981  1.00  0.00    -0.001 A 
ATOM     28  C   UNL A   1      44.371  33.564  35.342  1.00  0.00     0.011 A 
ATOM     29  C   UNL A   1      44.636  31.930  33.578  1.00  0.00     0.011 A 
ATOM     30  C   UNL A   1      44.353  32.545  36.295  1.00  0.00     0.021 A 
ATOM     31  C   UNL A   1      44.616  30.904  34.525  1.00  0.00     0.021 A 
ATOM     32  C   UNL A   1      44.496  31.220  35.880  1.00  0.00     0.067 A 
BRANCH  32  33
ATOM     33  S   UNL A   1      44.499  29.931  37.102  1.00  0.00     0.175 S 
ATOM     34  C   UNL A   1      43.459  28.679  36.397  1.00  0.00     0.163 C 
ATOM     35  O   UNL A   1      45.848  29.418  37.180  1.00  0.00    -0.224 OA
ATOM     36  O   UNL A   1      43.821  30.444  38.284  1.00  0.00    -0.224 OA
ENDBRANCH  32  33
ENDBRANCH  19  27
ENDBRANCH  13  14
ENDBRANCH  10  13
ENDBRANCH   8   9
BRANCH   8  37
ATOM     37  C   UNL A   1      47.127  33.688  26.873  1.00  0.00     0.065 C 
BRANCH  37  38
ATOM     38  C   UNL A   1      47.205  35.084  26.254  1.00  0.00     0.159 C 
BRANCH  38  39
ATOM     39  O   UNL A   1      48.505  35.374  25.769  1.00  0.00    -0.396 OA
ATOM     40  H   UNL A   1      48.928  36.027  26.348  1.00  0.00     0.210 HD
ENDBRANCH  38  39
ENDBRANCH  37  38
ENDBRANCH   8  37
ENDBRANCH   6   8
ENDBRANCH   5   6
ENDBRANCH   4   5
ENDBRANCH   3   4
ENDBRANCH   2   3
ENDBRANCH   1   2
BRANCH   1  41
ATOM     41  C   UNL A   1      48.933  26.570  28.269  1.00  0.00     0.188 C 
BRANCH  41  42
ATOM     42  O   UNL A   1      48.382  25.418  28.868  1.00  0.00    -0.377 OA
BRANCH  42  43
ATOM     43  C   UNL A   1      47.000  25.180  28.646  1.00  0.00     0.188 C 
BRANCH  43  44
ATOM     44  C   UNL A   1      46.442  25.806  27.372  1.00  0.00     0.188 C 
BRANCH  44  45
ATOM     45  O   UNL A   1      46.469  25.002  26.210  1.00  0.00    -0.376 OA
BRANCH  45  46
ATOM     46  C   UNL A   1      45.356  24.255  25.752  1.00  0.00     0.202 C 
BRANCH  46  47
ATOM     47  C   UNL A   1      44.698  23.012  26.407  1.00  0.00     0.261 C 
BRANCH  47  48
ATOM     48  O   UNL A   1      43.469  23.035  27.185  1.00  0.00    -0.460 OA
BRANCH  48  49
ATOM     49  C   UNL A   1      42.330  23.048  26.411  1.00  0.00     0.338 C 
ATOM     50  O   UNL A   1      42.103  22.209  25.548  1.00  0.00    -0.246 OA
BRANCH  49  51
ATOM     51  C   UNL A   1      41.361  24.200  26.624  1.00  0.00     0.060 A 
ATOM     52  C   UNL A   1      41.453  25.337  25.832  1.00  0.00     0.016 A 
ATOM     53  C   UNL A   1      40.594  24.340  27.802  1.00  0.00     0.016 A 
ATOM     54  C   UNL A   1      40.776  26.547  26.197  1.00  0.00     0.010 A 
ATOM     55  C   UNL A   1      39.952  25.589  28.196  1.00  0.00     0.010 A 
ATOM     56  C   UNL A   1      40.032  26.752  27.412  1.00  0.00    -0.014 A 
BRANCH  56  57
ATOM     57  C   UNL A   1      39.856  28.254  27.914  1.00  0.00     0.031 A 
ATOM     58  C   UNL A   1      41.248  28.788  27.969  1.00  0.00     0.074 A 
ATOM     59  C   UNL A   1      38.905  29.152  28.385  1.00  0.00     0.049 A 
ATOM     60  N   UNL A   1      42.153  28.216  28.710  1.00  0.00    -0.248 NA
ATOM     61  C   UNL A   1      41.760  29.721  26.965  1.00  0.00     0.031 C 
ATOM     62  C   UNL A   1      37.471  28.922  28.608  1.00  0.00     0.029 A 
ATOM     63  N   UNL A   1      38.999  30.525  28.772  1.00  0.00    -0.354 N 
ATOM     64  C   UNL A   1      43.329  28.876  28.445  1.00  0.00     0.074 A 
ATOM     65  C   UNL A   1      43.066  29.641  27.235  1.00  0.00     0.031 C 
ATOM     66  C   UNL A   1      36.825  30.078  28.944  1.00  0.00     0.029 A 
ATOM     67  C   UNL A   1      37.760  31.194  29.041  1.00  0.00     0.049 A 
ATOM     68  H   UNL A   1      39.866  30.985  28.850  1.00  0.00     0.167 HD
ATOM     69  C   UNL A   1      44.100  29.243  29.507  1.00  0.00     0.031 A 
ATOM     70  C   UNL A   1      37.486  32.514  29.369  1.00  0.00     0.031 A 
ATOM     71  C   UNL A   1      43.969  30.646  29.796  1.00  0.00     0.049 A 
ATOM     72  C   UNL A   1      38.719  33.123  29.889  1.00  0.00     0.074 A 
ATOM     73  C   UNL A   1      44.046  31.785  29.023  1.00  0.00     0.029 A 
ATOM     74  N   UNL A   1      43.246  30.976  30.925  1.00  0.00    -0.354 N 
ATOM     75  N   UNL A   1      39.112  32.924  31.110  1.00  0.00    -0.248 NA
ATOM     76  C   UNL A   1      39.509  34.086  29.129  1.00  0.00     0.031 C 
ATOM     77  C   UNL A   1      42.974  32.597  29.462  1.00  0.00     0.029 A 
ATOM     78  C   UNL A   1      42.484  32.098  30.665  1.00  0.00     0.049 A 
ATOM     79  H   UNL A   1      43.270  30.490  31.781  1.00  0.00     0.167 HD
ATOM     80  C   UNL A   1      40.430  33.266  31.060  1.00  0.00     0.074 A 
ATOM     81  C   UNL A   1      40.534  34.220  29.974  1.00  0.00     0.031 C 
ATOM     82  C   UNL A   1      41.326  32.345  31.493  1.00  0.00     0.031 A 
BRANCH  69  83
ATOM     83  C   UNL A   1      44.309  28.204  30.570  1.00  0.00    -0.014 A 
ATOM     84  C   UNL A   1      44.248  26.852  30.216  1.00  0.00     0.009 A 
ATOM     85  C   UNL A   1      44.489  28.532  31.927  1.00  0.00     0.009 A 
ATOM     86  C   UNL A   1      44.302  25.860  31.202  1.00  0.00     0.001 A 
ATOM     87  C   UNL A   1      44.512  27.547  32.912  1.00  0.00     0.001 A 
ATOM     88  C   UNL A   1      44.409  26.208  32.549  1.00  0.00     0.000 A 
ENDBRANCH  69  83
BRANCH  70  89
ATOM     89  C   UNL A   1      36.328  33.505  29.535  1.00  0.00    -0.014 A 
ATOM     90  C   UNL A   1      35.689  34.042  28.369  1.00  0.00     0.009 A 
ATOM     91  C   UNL A   1      35.601  33.638  30.721  1.00  0.00     0.009 A 
ATOM     92  C   UNL A   1      34.381  34.560  28.364  1.00  0.00     0.001 A 
ATOM     93  C   UNL A   1      34.293  34.192  30.725  1.00  0.00     0.001 A 
ATOM     94  C   UNL A   1      33.671  34.618  29.549  1.00  0.00     0.000 A 
ENDBRANCH  70  89
BRANCH  82  95
ATOM     95  C   UNL A   1      40.906  31.473  32.669  1.00  0.00    -0.014 A 
ATOM     96  C   UNL A   1      41.054  31.825  34.030  1.00  0.00     0.009 A 
ATOM     97  C   UNL A   1      40.386  30.202  32.396  1.00  0.00     0.009 A 
ATOM     98  C   UNL A   1      40.778  30.921  35.063  1.00  0.00     0.001 A 
ATOM     99  C   UNL A   1      40.060  29.313  33.429  1.00  0.00     0.001 A 
ATOM    100  C   UNL A   1      40.276  29.663  34.760  1.00  0.00     0.000 A 
ENDBRANCH  82  95
ENDBRANCH  56  57
ENDBRANCH  49  51
ENDBRANCH  48  49
ENDBRANCH  47  48
ENDBRANCH  46  47
ENDBRANCH  45  46
ENDBRANCH  44  45
ENDBRANCH  43  44
ENDBRANCH  42  43
ENDBRANCH  41  42
ENDBRANCH   1  41
TORSDOF 29
ENDMDL
