MODEL 1
REMARK VINA RESULT:      -7.6      0.000      0.000
REMARK SMILES CC[NH2+][C@@]1(C(=O)OCCOCCOCCOCCOC(=O)c2ccc(-c3c4nc(c(-c5ccccc5)c5ccc([nH]5)c(-c5ccccc5)c5nc(c(-c6ccccc6)c6ccc3[nH]6)C=C5)C=C4)cc2)CC[C@@H](SCC2CCCC2)C1
REMARK SMILES IDX 12 1 11 2 10 3 9 4 8 5 7 6 5 7 6 8 4 9 70 10 80 11 71 12
REMARK SMILES IDX 72 13 3 14 2 17 1 18 73 19 74 20 75 21 76 22 79 23 77 24
REMARK SMILES IDX 78 25 13 26 14 27 15 28 16 29 17 30 18 31 19 32 20 33 21 34
REMARK SMILES IDX 22 35 23 36 69 37 24 38 68 39 25 40 26 41 27 42 62 43 28 44
REMARK SMILES IDX 67 45 61 46 63 47 29 48 66 49 60 50 59 51 30 53 52 54 37 55
REMARK SMILES IDX 51 56 38 57 41 58 50 59 64 60 39 61 40 62 49 64 65 65 42 66
REMARK SMILES IDX 31 67 32 68 36 69 33 70 35 71 34 72 53 73 54 74 58 75 55 76
REMARK SMILES IDX 57 77 56 78 43 79 44 80 48 81 45 82 47 83 46 84
REMARK H PARENT 3 15 3 16 63 52 41 63
REMARK Flexibility Score: inf
ROOT
ATOM      1  C   UNL A   1      35.569  30.521  27.613  1.00  0.00     0.188 C 
ENDROOT
BRANCH   1   2
ATOM      2  C   UNL A   1      34.213  31.185  27.887  1.00  0.00     0.188 C 
BRANCH   2   3
ATOM      3  O   UNL A   1      33.008  30.727  27.304  1.00  0.00    -0.376 OA
BRANCH   3   4
ATOM      4  C   UNL A   1      32.884  29.640  26.403  1.00  0.00     0.202 C 
BRANCH   4   5
ATOM      5  C   UNL A   1      32.265  29.692  24.997  1.00  0.00     0.261 C 
BRANCH   5   6
ATOM      6  O   UNL A   1      32.471  28.568  24.140  1.00  0.00    -0.459 OA
BRANCH   6   7
ATOM      7  C   UNL A   1      31.351  27.848  23.931  1.00  0.00     0.368 C 
ATOM      8  O   UNL A   1      30.215  28.326  23.978  1.00  0.00    -0.245 OA
BRANCH   7   9
ATOM      9  C   UNL A   1      31.567  26.316  23.780  1.00  0.00     0.195 C 
ATOM     10  C   UNL A   1      30.308  25.831  24.509  1.00  0.00     0.082 C 
ATOM     11  C   UNL A   1      32.718  25.559  24.497  1.00  0.00     0.095 C 
ATOM     12  C   UNL A   1      30.758  25.521  25.940  1.00  0.00     0.022 C 
ATOM     13  C   UNL A   1      32.220  25.110  25.862  1.00  0.00     0.053 C 
BRANCH   9  14
ATOM     14  N   UNL A   1      31.479  26.046  22.302  1.00  0.00    -0.332 N 
ATOM     15  H   UNL A   1      30.626  25.512  22.142  1.00  0.00     0.347 HD
ATOM     16  H   UNL A   1      31.513  26.972  21.875  1.00  0.00     0.347 HD
BRANCH  14  17
ATOM     17  C   UNL A   1      32.572  25.315  21.668  1.00  0.00     0.257 C 
ATOM     18  C   UNL A   1      32.586  25.518  20.158  1.00  0.00     0.071 C 
ENDBRANCH  14  17
ENDBRANCH   9  14
BRANCH  13  19
ATOM     19  S   UNL A   1      32.604  23.378  26.413  1.00  0.00    -0.158 SA
BRANCH  19  20
ATOM     20  C   UNL A   1      34.006  22.754  25.387  1.00  0.00     0.073 C 
BRANCH  20  21
ATOM     21  C   UNL A   1      33.708  21.467  24.604  1.00  0.00    -0.001 C 
ATOM     22  C   UNL A   1      34.662  20.350  24.955  1.00  0.00     0.004 C 
ATOM     23  C   UNL A   1      32.372  20.805  24.955  1.00  0.00     0.004 C 
ATOM     24  C   UNL A   1      34.020  19.051  24.535  1.00  0.00     0.000 C 
ATOM     25  C   UNL A   1      32.531  19.339  24.534  1.00  0.00     0.000 C 
ENDBRANCH  20  21
ENDBRANCH  19  20
ENDBRANCH  13  19
ENDBRANCH   7   9
ENDBRANCH   6   7
ENDBRANCH   5   6
ENDBRANCH   4   5
ENDBRANCH   3   4
ENDBRANCH   2   3
ENDBRANCH   1   2
BRANCH   1  26
ATOM     26  O   UNL A   1      35.859  29.367  28.373  1.00  0.00    -0.377 OA
BRANCH  26  27
ATOM     27  C   UNL A   1      36.906  29.429  29.331  1.00  0.00     0.188 C 
BRANCH  27  28
ATOM     28  C   UNL A   1      36.609  29.994  30.733  1.00  0.00     0.188 C 
BRANCH  28  29
ATOM     29  O   UNL A   1      37.206  31.252  30.999  1.00  0.00    -0.376 OA
BRANCH  29  30
ATOM     30  C   UNL A   1      36.833  32.383  30.231  1.00  0.00     0.202 C 
BRANCH  30  31
ATOM     31  C   UNL A   1      36.197  33.588  30.946  1.00  0.00     0.261 C 
BRANCH  31  32
ATOM     32  O   UNL A   1      35.848  33.412  32.329  1.00  0.00    -0.460 OA
BRANCH  32  33
ATOM     33  C   UNL A   1      36.534  34.108  33.255  1.00  0.00     0.338 C 
ATOM     34  O   UNL A   1      36.235  35.190  33.738  1.00  0.00    -0.246 OA
BRANCH  33  35
ATOM     35  C   UNL A   1      37.620  33.245  33.758  1.00  0.00     0.060 A 
ATOM     36  C   UNL A   1      37.323  32.274  34.724  1.00  0.00     0.016 A 
ATOM     37  C   UNL A   1      38.928  33.404  33.295  1.00  0.00     0.016 A 
ATOM     38  C   UNL A   1      38.341  31.496  35.269  1.00  0.00     0.010 A 
ATOM     39  C   UNL A   1      39.953  32.642  33.862  1.00  0.00     0.010 A 
ATOM     40  C   UNL A   1      39.668  31.719  34.884  1.00  0.00    -0.014 A 
BRANCH  40  41
ATOM     41  C   UNL A   1      40.762  31.160  35.713  1.00  0.00     0.031 A 
ATOM     42  C   UNL A   1      41.288  31.996  36.850  1.00  0.00     0.074 A 
ATOM     43  C   UNL A   1      41.244  29.924  35.503  1.00  0.00     0.049 A 
ATOM     44  N   UNL A   1      42.243  31.731  37.704  1.00  0.00    -0.248 NA
ATOM     45  C   UNL A   1      40.649  33.308  37.048  1.00  0.00     0.031 C 
ATOM     46  C   UNL A   1      40.779  28.995  34.474  1.00  0.00     0.029 A 
ATOM     47  N   UNL A   1      42.239  29.239  36.153  1.00  0.00    -0.354 N 
ATOM     48  C   UNL A   1      42.326  32.846  38.530  1.00  0.00     0.074 A 
ATOM     49  C   UNL A   1      41.350  33.800  38.057  1.00  0.00     0.031 C 
ATOM     50  C   UNL A   1      41.495  27.860  34.560  1.00  0.00     0.029 A 
ATOM     51  C   UNL A   1      42.489  27.998  35.623  1.00  0.00     0.049 A 
ATOM     52  H   UNL A   1      42.728  29.604  36.927  1.00  0.00     0.167 HD
ATOM     53  C   UNL A   1      43.139  33.055  39.591  1.00  0.00     0.031 A 
ATOM     54  C   UNL A   1      43.427  27.087  35.948  1.00  0.00     0.031 A 
ATOM     55  C   UNL A   1      44.122  32.112  40.051  1.00  0.00     0.049 A 
ATOM     56  C   UNL A   1      44.380  27.380  37.079  1.00  0.00     0.074 A 
ATOM     57  C   UNL A   1      44.988  32.224  41.125  1.00  0.00     0.029 A 
ATOM     58  N   UNL A   1      44.377  30.886  39.458  1.00  0.00    -0.354 N 
ATOM     59  N   UNL A   1      44.435  28.426  37.868  1.00  0.00    -0.248 NA
ATOM     60  C   UNL A   1      45.394  26.355  37.370  1.00  0.00     0.031 C 
ATOM     61  C   UNL A   1      45.814  31.096  41.139  1.00  0.00     0.029 A 
ATOM     62  C   UNL A   1      45.409  30.245  40.123  1.00  0.00     0.049 A 
ATOM     63  H   UNL A   1      43.895  30.524  38.679  1.00  0.00     0.167 HD
ATOM     64  C   UNL A   1      45.464  28.170  38.768  1.00  0.00     0.074 A 
ATOM     65  C   UNL A   1      45.993  26.864  38.437  1.00  0.00     0.031 C 
ATOM     66  C   UNL A   1      45.928  28.946  39.780  1.00  0.00     0.031 A 
BRANCH  53  67
ATOM     67  C   UNL A   1      43.029  34.379  40.297  1.00  0.00    -0.014 A 
ATOM     68  C   UNL A   1      42.154  34.565  41.379  1.00  0.00     0.009 A 
ATOM     69  C   UNL A   1      43.835  35.452  39.886  1.00  0.00     0.009 A 
ATOM     70  C   UNL A   1      42.062  35.808  42.010  1.00  0.00     0.001 A 
ATOM     71  C   UNL A   1      43.766  36.684  40.538  1.00  0.00     0.001 A 
ATOM     72  C   UNL A   1      42.873  36.864  41.593  1.00  0.00     0.000 A 
ENDBRANCH  53  67
BRANCH  54  73
ATOM     73  C   UNL A   1      43.535  25.818  35.179  1.00  0.00    -0.014 A 
ATOM     74  C   UNL A   1      42.852  24.665  35.594  1.00  0.00     0.009 A 
ATOM     75  C   UNL A   1      44.351  25.747  34.039  1.00  0.00     0.009 A 
ATOM     76  C   UNL A   1      43.007  23.461  34.902  1.00  0.00     0.001 A 
ATOM     77  C   UNL A   1      44.478  24.551  33.329  1.00  0.00     0.001 A 
ATOM     78  C   UNL A   1      43.815  23.406  33.767  1.00  0.00     0.000 A 
ENDBRANCH  54  73
BRANCH  66  79
ATOM     79  C   UNL A   1      47.032  28.382  40.635  1.00  0.00    -0.014 A 
ATOM     80  C   UNL A   1      48.351  28.289  40.167  1.00  0.00     0.009 A 
ATOM     81  C   UNL A   1      46.747  27.967  41.946  1.00  0.00     0.009 A 
ATOM     82  C   UNL A   1      49.353  27.753  40.980  1.00  0.00     0.001 A 
ATOM     83  C   UNL A   1      47.757  27.465  42.769  1.00  0.00     0.001 A 
ATOM     84  C   UNL A   1      49.056  27.347  42.280  1.00  0.00     0.000 A 
ENDBRANCH  66  79
ENDBRANCH  40  41
ENDBRANCH  33  35
ENDBRANCH  32  33
ENDBRANCH  31  32
ENDBRANCH  30  31
ENDBRANCH  29  30
ENDBRANCH  28  29
ENDBRANCH  27  28
ENDBRANCH  26  27
ENDBRANCH   1  26
TORSDOF 25
ENDMDL
MODEL 2
REMARK VINA RESULT:      -7.3      8.208     10.535
REMARK SMILES CC[NH2+][C@@]1(C(=O)OCCOCCOCCOCCOC(=O)c2ccc(-c3c4nc(c(-c5ccccc5)c5ccc([nH]5)c(-c5ccccc5)c5nc(c(-c6ccccc6)c6ccc3[nH]6)C=C5)C=C4)cc2)CC[C@@H](SCC2CCCC2)C1
REMARK SMILES IDX 12 1 11 2 10 3 9 4 8 5 7 6 5 7 6 8 4 9 70 10 80 11 71 12
REMARK SMILES IDX 72 13 3 14 2 17 1 18 73 19 74 20 75 21 76 22 79 23 77 24
REMARK SMILES IDX 78 25 13 26 14 27 15 28 16 29 17 30 18 31 19 32 20 33 21 34
REMARK SMILES IDX 22 35 23 36 69 37 24 38 68 39 25 40 26 41 27 42 62 43 28 44
REMARK SMILES IDX 67 45 61 46 63 47 29 48 66 49 60 50 59 51 30 53 52 54 37 55
REMARK SMILES IDX 51 56 38 57 41 58 50 59 64 60 39 61 40 62 49 64 65 65 42 66
REMARK SMILES IDX 31 67 32 68 36 69 33 70 35 71 34 72 53 73 54 74 58 75 55 76
REMARK SMILES IDX 57 77 56 78 43 79 44 80 48 81 45 82 47 83 46 84
REMARK H PARENT 3 15 3 16 63 52 41 63
REMARK Flexibility Score: inf
ROOT
ATOM      1  C   UNL A   1      36.311  31.275  28.202  1.00  0.00     0.188 C 
ENDROOT
BRANCH   1   2
ATOM      2  C   UNL A   1      34.804  31.476  28.411  1.00  0.00     0.188 C 
BRANCH   2   3
ATOM      3  O   UNL A   1      33.854  31.248  27.386  1.00  0.00    -0.376 OA
BRANCH   3   4
ATOM      4  C   UNL A   1      33.260  30.001  27.070  1.00  0.00     0.202 C 
BRANCH   4   5
ATOM      5  C   UNL A   1      33.022  29.439  25.660  1.00  0.00     0.261 C 
BRANCH   5   6
ATOM      6  O   UNL A   1      32.585  28.083  25.551  1.00  0.00    -0.459 OA
BRANCH   6   7
ATOM      7  C   UNL A   1      31.577  27.920  24.671  1.00  0.00     0.368 C 
ATOM      8  O   UNL A   1      30.821  28.832  24.324  1.00  0.00    -0.245 OA
BRANCH   7   9
ATOM      9  C   UNL A   1      31.315  26.454  24.227  1.00  0.00     0.195 C 
ATOM     10  C   UNL A   1      29.858  26.328  24.691  1.00  0.00     0.082 C 
ATOM     11  C   UNL A   1      32.017  25.240  24.896  1.00  0.00     0.095 C 
ATOM     12  C   UNL A   1      29.923  25.657  26.067  1.00  0.00     0.022 C 
ATOM     13  C   UNL A   1      31.167  24.782  26.071  1.00  0.00     0.053 C 
BRANCH   9  14
ATOM     14  N   UNL A   1      31.410  26.470  22.726  1.00  0.00    -0.332 N 
ATOM     15  H   UNL A   1      30.850  25.692  22.379  1.00  0.00     0.347 HD
ATOM     16  H   UNL A   1      31.091  27.402  22.463  1.00  0.00     0.347 HD
BRANCH  14  17
ATOM     17  C   UNL A   1      32.732  26.355  22.117  1.00  0.00     0.257 C 
ATOM     18  C   UNL A   1      32.895  25.042  21.362  1.00  0.00     0.071 C 
ENDBRANCH  14  17
ENDBRANCH   9  14
BRANCH  13  19
ATOM     19  S   UNL A   1      30.872  22.961  26.287  1.00  0.00    -0.158 SA
BRANCH  19  20
ATOM     20  C   UNL A   1      31.895  22.068  25.035  1.00  0.00     0.073 C 
BRANCH  20  21
ATOM     21  C   UNL A   1      33.182  21.439  25.585  1.00  0.00    -0.001 C 
ATOM     22  C   UNL A   1      33.832  20.506  24.592  1.00  0.00     0.004 C 
ATOM     23  C   UNL A   1      34.326  22.431  25.815  1.00  0.00     0.004 C 
ATOM     24  C   UNL A   1      35.273  20.331  25.002  1.00  0.00     0.000 C 
ATOM     25  C   UNL A   1      35.602  21.581  25.798  1.00  0.00     0.000 C 
ENDBRANCH  20  21
ENDBRANCH  19  20
ENDBRANCH  13  19
ENDBRANCH   7   9
ENDBRANCH   6   7
ENDBRANCH   5   6
ENDBRANCH   4   5
ENDBRANCH   3   4
ENDBRANCH   2   3
ENDBRANCH   1   2
BRANCH   1  26
ATOM     26  O   UNL A   1      36.852  30.073  28.708  1.00  0.00    -0.377 OA
BRANCH  26  27
ATOM     27  C   UNL A   1      38.265  29.929  28.748  1.00  0.00     0.188 C 
BRANCH  27  28
ATOM     28  C   UNL A   1      38.976  29.173  27.608  1.00  0.00     0.188 C 
BRANCH  28  29
ATOM     29  O   UNL A   1      39.694  28.024  28.023  1.00  0.00    -0.376 OA
BRANCH  29  30
ATOM     30  C   UNL A   1      39.009  26.959  28.660  1.00  0.00     0.202 C 
BRANCH  30  31
ATOM     31  C   UNL A   1      39.532  25.524  28.472  1.00  0.00     0.261 C 
BRANCH  31  32
ATOM     32  O   UNL A   1      40.212  25.237  27.239  1.00  0.00    -0.460 OA
BRANCH  32  33
ATOM     33  C   UNL A   1      41.486  24.806  27.296  1.00  0.00     0.338 C 
ATOM     34  O   UNL A   1      41.884  23.657  27.181  1.00  0.00    -0.246 OA
BRANCH  33  35
ATOM     35  C   UNL A   1      42.365  25.991  27.315  1.00  0.00     0.060 A 
ATOM     36  C   UNL A   1      42.550  26.717  26.129  1.00  0.00     0.016 A 
ATOM     37  C   UNL A   1      43.019  26.375  28.488  1.00  0.00     0.016 A 
ATOM     38  C   UNL A   1      43.430  27.796  26.101  1.00  0.00     0.010 A 
ATOM     39  C   UNL A   1      43.923  27.441  28.451  1.00  0.00     0.010 A 
ATOM     40  C   UNL A   1      44.165  28.124  27.246  1.00  0.00    -0.014 A 
BRANCH  40  41
ATOM     41  C   UNL A   1      45.343  29.014  27.115  1.00  0.00     0.031 A 
ATOM     42  C   UNL A   1      45.125  30.500  27.222  1.00  0.00     0.074 A 
ATOM     43  C   UNL A   1      46.583  28.522  26.957  1.00  0.00     0.049 A 
ATOM     44  N   UNL A   1      45.990  31.476  27.129  1.00  0.00    -0.248 NA
ATOM     45  C   UNL A   1      43.741  30.942  27.467  1.00  0.00     0.031 C 
ATOM     46  C   UNL A   1      46.932  27.104  26.896  1.00  0.00     0.029 A 
ATOM     47  N   UNL A   1      47.783  29.173  26.817  1.00  0.00    -0.354 N 
ATOM     48  C   UNL A   1      45.255  32.644  27.292  1.00  0.00     0.074 A 
ATOM     49  C   UNL A   1      43.873  32.259  27.458  1.00  0.00     0.031 C 
ATOM     50  C   UNL A   1      48.262  26.992  26.726  1.00  0.00     0.029 A 
ATOM     51  C   UNL A   1      48.848  28.328  26.631  1.00  0.00     0.049 A 
ATOM     52  H   UNL A   1      47.870  30.154  26.849  1.00  0.00     0.167 HD
ATOM     53  C   UNL A   1      45.693  33.925  27.309  1.00  0.00     0.031 A 
ATOM     54  C   UNL A   1      50.144  28.604  26.388  1.00  0.00     0.031 A 
ATOM     55  C   UNL A   1      47.066  34.310  27.127  1.00  0.00     0.049 A 
ATOM     56  C   UNL A   1      50.593  30.042  26.324  1.00  0.00     0.074 A 
ATOM     57  C   UNL A   1      47.614  35.581  27.138  1.00  0.00     0.029 A 
ATOM     58  N   UNL A   1      48.108  33.427  26.893  1.00  0.00    -0.354 N 
ATOM     59  N   UNL A   1      49.895  31.139  26.502  1.00  0.00    -0.248 NA
ATOM     60  C   UNL A   1      52.015  30.277  26.035  1.00  0.00     0.031 C 
ATOM     61  C   UNL A   1      48.976  35.471  26.841  1.00  0.00     0.029 A 
ATOM     62  C   UNL A   1      49.291  34.126  26.724  1.00  0.00     0.049 A 
ATOM     63  H   UNL A   1      48.020  32.447  26.852  1.00  0.00     0.167 HD
ATOM     64  C   UNL A   1      50.798  32.189  26.383  1.00  0.00     0.074 A 
ATOM     65  C   UNL A   1      52.096  31.596  26.132  1.00  0.00     0.031 C 
ATOM     66  C   UNL A   1      50.575  33.524  26.473  1.00  0.00     0.031 A 
BRANCH  53  67
ATOM     67  C   UNL A   1      44.662  35.006  27.483  1.00  0.00    -0.014 A 
ATOM     68  C   UNL A   1      44.430  35.609  28.729  1.00  0.00     0.009 A 
ATOM     69  C   UNL A   1      43.926  35.447  26.371  1.00  0.00     0.009 A 
ATOM     70  C   UNL A   1      43.459  36.603  28.866  1.00  0.00     0.001 A 
ATOM     71  C   UNL A   1      42.979  36.463  26.503  1.00  0.00     0.001 A 
ATOM     72  C   UNL A   1      42.739  37.033  27.751  1.00  0.00     0.000 A 
ENDBRANCH  53  67
BRANCH  54  73
ATOM     73  C   UNL A   1      51.115  27.500  26.163  1.00  0.00    -0.014 A 
ATOM     74  C   UNL A   1      51.366  27.015  24.871  1.00  0.00     0.009 A 
ATOM     75  C   UNL A   1      51.774  26.903  27.249  1.00  0.00     0.009 A 
ATOM     76  C   UNL A   1      52.233  25.937  24.674  1.00  0.00     0.001 A 
ATOM     77  C   UNL A   1      52.667  25.848  27.046  1.00  0.00     0.001 A 
ATOM     78  C   UNL A   1      52.887  25.358  25.760  1.00  0.00     0.000 A 
ENDBRANCH  54  73
BRANCH  66  79
ATOM     79  C   UNL A   1      51.768  34.435  26.351  1.00  0.00    -0.014 A 
ATOM     80  C   UNL A   1      52.504  34.839  27.475  1.00  0.00     0.009 A 
ATOM     81  C   UNL A   1      52.179  34.867  25.079  1.00  0.00     0.009 A 
ATOM     82  C   UNL A   1      53.601  35.694  27.331  1.00  0.00     0.001 A 
ATOM     83  C   UNL A   1      53.297  35.690  24.935  1.00  0.00     0.001 A 
ATOM     84  C   UNL A   1      53.999  36.113  26.063  1.00  0.00     0.000 A 
ENDBRANCH  66  79
ENDBRANCH  40  41
ENDBRANCH  33  35
ENDBRANCH  32  33
ENDBRANCH  31  32
ENDBRANCH  30  31
ENDBRANCH  29  30
ENDBRANCH  28  29
ENDBRANCH  27  28
ENDBRANCH  26  27
ENDBRANCH   1  26
TORSDOF 25
ENDMDL
MODEL 3
REMARK VINA RESULT:      -7.3     14.330     18.030
REMARK SMILES CC[NH2+][C@@]1(C(=O)OCCOCCOCCOCCOC(=O)c2ccc(-c3c4nc(c(-c5ccccc5)c5ccc([nH]5)c(-c5ccccc5)c5nc(c(-c6ccccc6)c6ccc3[nH]6)C=C5)C=C4)cc2)CC[C@@H](SCC2CCCC2)C1
REMARK SMILES IDX 12 1 11 2 10 3 9 4 8 5 7 6 5 7 6 8 4 9 70 10 80 11 71 12
REMARK SMILES IDX 72 13 3 14 2 17 1 18 73 19 74 20 75 21 76 22 79 23 77 24
REMARK SMILES IDX 78 25 13 26 14 27 15 28 16 29 17 30 18 31 19 32 20 33 21 34
REMARK SMILES IDX 22 35 23 36 69 37 24 38 68 39 25 40 26 41 27 42 62 43 28 44
REMARK SMILES IDX 67 45 61 46 63 47 29 48 66 49 60 50 59 51 30 53 52 54 37 55
REMARK SMILES IDX 51 56 38 57 41 58 50 59 64 60 39 61 40 62 49 64 65 65 42 66
REMARK SMILES IDX 31 67 32 68 36 69 33 70 35 71 34 72 53 73 54 74 58 75 55 76
REMARK SMILES IDX 57 77 56 78 43 79 44 80 48 81 45 82 47 83 46 84
REMARK H PARENT 3 15 3 16 63 52 41 63
REMARK Flexibility Score: inf
ROOT
ATOM      1  C   UNL A   1      42.594  42.995  20.503  1.00  0.00     0.188 C 
ENDROOT
BRANCH   1   2
ATOM      2  C   UNL A   1      41.815  43.480  21.733  1.00  0.00     0.188 C 
BRANCH   2   3
ATOM      3  O   UNL A   1      41.733  42.729  22.930  1.00  0.00    -0.376 OA
BRANCH   3   4
ATOM      4  C   UNL A   1      42.819  42.102  23.590  1.00  0.00     0.202 C 
BRANCH   4   5
ATOM      5  C   UNL A   1      43.043  42.036  25.109  1.00  0.00     0.261 C 
BRANCH   5   6
ATOM      6  O   UNL A   1      43.205  40.746  25.700  1.00  0.00    -0.459 OA
BRANCH   6   7
ATOM      7  C   UNL A   1      42.069  40.265  26.245  1.00  0.00     0.368 C 
ATOM      8  O   UNL A   1      40.945  40.683  25.955  1.00  0.00    -0.245 OA
BRANCH   7   9
ATOM      9  C   UNL A   1      42.268  39.242  27.398  1.00  0.00     0.195 C 
ATOM     10  C   UNL A   1      41.243  39.808  28.389  1.00  0.00     0.082 C 
ATOM     11  C   UNL A   1      43.577  39.166  28.231  1.00  0.00     0.095 C 
ATOM     12  C   UNL A   1      42.045  40.695  29.346  1.00  0.00     0.022 C 
ATOM     13  C   UNL A   1      43.448  40.112  29.415  1.00  0.00     0.053 C 
BRANCH   9  14
ATOM     14  N   UNL A   1      41.816  37.921  26.839  1.00  0.00    -0.332 N 
ATOM     15  H   UNL A   1      40.813  37.850  27.005  1.00  0.00     0.347 HD
ATOM     16  H   UNL A   1      42.107  37.949  25.862  1.00  0.00     0.347 HD
BRANCH  14  17
ATOM     17  C   UNL A   1      42.428  36.703  27.364  1.00  0.00     0.257 C 
ATOM     18  C   UNL A   1      42.730  35.701  26.258  1.00  0.00     0.071 C 
ENDBRANCH  14  17
ENDBRANCH   9  14
BRANCH  13  19
ATOM     19  S   UNL A   1      43.990  39.508  31.086  1.00  0.00    -0.158 SA
BRANCH  19  20
ATOM     20  C   UNL A   1      45.070  40.805  31.836  1.00  0.00     0.073 C 
BRANCH  20  21
ATOM     21  C   UNL A   1      44.356  41.754  32.809  1.00  0.00    -0.001 C 
ATOM     22  C   UNL A   1      43.739  42.938  32.104  1.00  0.00     0.004 C 
ATOM     23  C   UNL A   1      43.115  41.159  33.480  1.00  0.00     0.004 C 
ATOM     24  C   UNL A   1      42.691  43.520  33.018  1.00  0.00     0.000 C 
ATOM     25  C   UNL A   1      42.279  42.368  33.916  1.00  0.00     0.000 C 
ENDBRANCH  20  21
ENDBRANCH  19  20
ENDBRANCH  13  19
ENDBRANCH   7   9
ENDBRANCH   6   7
ENDBRANCH   5   6
ENDBRANCH   4   5
ENDBRANCH   3   4
ENDBRANCH   2   3
ENDBRANCH   1   2
BRANCH   1  26
ATOM     26  O   UNL A   1      41.983  43.223  19.251  1.00  0.00    -0.377 OA
BRANCH  26  27
ATOM     27  C   UNL A   1      42.710  43.933  18.259  1.00  0.00     0.188 C 
BRANCH  27  28
ATOM     28  C   UNL A   1      42.248  45.347  17.856  1.00  0.00     0.188 C 
BRANCH  28  29
ATOM     29  O   UNL A   1      43.300  46.237  17.524  1.00  0.00    -0.376 OA
BRANCH  29  30
ATOM     30  C   UNL A   1      43.607  47.316  18.391  1.00  0.00     0.202 C 
BRANCH  30  31
ATOM     31  C   UNL A   1      45.002  47.373  19.037  1.00  0.00     0.261 C 
BRANCH  31  32
ATOM     32  O   UNL A   1      45.268  46.432  20.091  1.00  0.00    -0.460 OA
BRANCH  32  33
ATOM     33  C   UNL A   1      45.825  45.251  19.767  1.00  0.00     0.338 C 
ATOM     34  O   UNL A   1      46.197  44.886  18.662  1.00  0.00    -0.246 OA
BRANCH  33  35
ATOM     35  C   UNL A   1      46.114  44.527  21.020  1.00  0.00     0.060 A 
ATOM     36  C   UNL A   1      45.377  44.842  22.171  1.00  0.00     0.016 A 
ATOM     37  C   UNL A   1      47.117  43.556  21.067  1.00  0.00     0.016 A 
ATOM     38  C   UNL A   1      45.677  44.226  23.383  1.00  0.00     0.010 A 
ATOM     39  C   UNL A   1      47.435  42.958  22.290  1.00  0.00     0.010 A 
ATOM     40  C   UNL A   1      46.748  43.326  23.460  1.00  0.00    -0.014 A 
BRANCH  40  41
ATOM     41  C   UNL A   1      47.287  42.962  24.791  1.00  0.00     0.031 A 
ATOM     42  C   UNL A   1      47.910  44.049  25.626  1.00  0.00     0.074 A 
ATOM     43  C   UNL A   1      47.184  41.713  25.274  1.00  0.00     0.049 A 
ATOM     44  N   UNL A   1      48.458  43.977  26.811  1.00  0.00    -0.248 NA
ATOM     45  C   UNL A   1      47.913  45.402  25.042  1.00  0.00     0.031 C 
ATOM     46  C   UNL A   1      46.553  40.587  24.589  1.00  0.00     0.029 A 
ATOM     47  N   UNL A   1      47.615  41.186  26.466  1.00  0.00    -0.354 N 
ATOM     48  C   UNL A   1      48.881  45.267  27.107  1.00  0.00     0.074 A 
ATOM     49  C   UNL A   1      48.555  46.095  25.969  1.00  0.00     0.031 C 
ATOM     50  C   UNL A   1      46.643  39.497  25.372  1.00  0.00     0.029 A 
ATOM     51  C   UNL A   1      47.368  39.843  26.594  1.00  0.00     0.049 A 
ATOM     52  H   UNL A   1      48.060  41.723  27.162  1.00  0.00     0.167 HD
ATOM     53  C   UNL A   1      49.481  45.725  28.231  1.00  0.00     0.031 A 
ATOM     54  C   UNL A   1      47.709  38.986  27.577  1.00  0.00     0.031 A 
ATOM     55  C   UNL A   1      49.821  44.897  29.357  1.00  0.00     0.049 A 
ATOM     56  C   UNL A   1      48.457  39.503  28.780  1.00  0.00     0.074 A 
ATOM     57  C   UNL A   1      50.421  45.267  30.548  1.00  0.00     0.029 A 
ATOM     58  N   UNL A   1      49.597  43.532  29.428  1.00  0.00    -0.354 N 
ATOM     59  N   UNL A   1      48.831  40.728  29.062  1.00  0.00    -0.248 NA
ATOM     60  C   UNL A   1      48.817  38.515  29.807  1.00  0.00     0.031 C 
ATOM     61  C   UNL A   1      50.625  44.113  31.310  1.00  0.00     0.029 A 
ATOM     62  C   UNL A   1      50.078  43.037  30.629  1.00  0.00     0.049 A 
ATOM     63  H   UNL A   1      49.162  42.993  28.728  1.00  0.00     0.167 HD
ATOM     64  C   UNL A   1      49.438  40.664  30.311  1.00  0.00     0.074 A 
ATOM     65  C   UNL A   1      49.367  39.282  30.738  1.00  0.00     0.031 C 
ATOM     66  C   UNL A   1      50.003  41.658  31.040  1.00  0.00     0.031 A 
BRANCH  53  67
ATOM     67  C   UNL A   1      49.854  47.181  28.272  1.00  0.00    -0.014 A 
ATOM     68  C   UNL A   1      48.953  48.159  28.723  1.00  0.00     0.009 A 
ATOM     69  C   UNL A   1      51.140  47.579  27.875  1.00  0.00     0.009 A 
ATOM     70  C   UNL A   1      49.320  49.506  28.740  1.00  0.00     0.001 A 
ATOM     71  C   UNL A   1      51.517  48.922  27.924  1.00  0.00     0.001 A 
ATOM     72  C   UNL A   1      50.604  49.885  28.347  1.00  0.00     0.000 A 
ENDBRANCH  53  67
BRANCH  54  73
ATOM     73  C   UNL A   1      47.371  37.542  27.462  1.00  0.00    -0.014 A 
ATOM     74  C   UNL A   1      48.120  36.692  26.635  1.00  0.00     0.009 A 
ATOM     75  C   UNL A   1      46.273  37.013  28.159  1.00  0.00     0.009 A 
ATOM     76  C   UNL A   1      47.759  35.350  26.485  1.00  0.00     0.001 A 
ATOM     77  C   UNL A   1      45.935  35.664  28.033  1.00  0.00     0.001 A 
ATOM     78  C   UNL A   1      46.670  34.836  27.188  1.00  0.00     0.000 A 
ENDBRANCH  54  73
BRANCH  66  79
ATOM     79  C   UNL A   1      50.544  41.299  32.398  1.00  0.00    -0.014 A 
ATOM     80  C   UNL A   1      49.739  41.340  33.547  1.00  0.00     0.009 A 
ATOM     81  C   UNL A   1      51.879  40.879  32.521  1.00  0.00     0.009 A 
ATOM     82  C   UNL A   1      50.273  41.010  34.796  1.00  0.00     0.001 A 
ATOM     83  C   UNL A   1      52.399  40.515  33.764  1.00  0.00     0.001 A 
ATOM     84  C   UNL A   1      51.599  40.593  34.902  1.00  0.00     0.000 A 
ENDBRANCH  66  79
ENDBRANCH  40  41
ENDBRANCH  33  35
ENDBRANCH  32  33
ENDBRANCH  31  32
ENDBRANCH  30  31
ENDBRANCH  29  30
ENDBRANCH  28  29
ENDBRANCH  27  28
ENDBRANCH  26  27
ENDBRANCH   1  26
TORSDOF 25
ENDMDL
