MODEL 1
REMARK VINA RESULT:      -9.5      0.000      0.000
REMARK SMILES O=C(OCCOCCOCCOCCOC(=O)[C@@H]1C[C@@H]2CC[C@H]1N2C(=O)C[C@H]1CCCCO1)c1ccc(-c2c3nc(c(-c4ccccc4)c4ccc([nH]4)c(-c4ccccc4)c4nc(c(-c5ccccc5)c5ccc2[nH]5)C=C4)C=C3)cc1
REMARK SMILES IDX 10 1 9 2 8 3 7 4 6 5 5 6 4 7 3 8 2 9 1 10 34 11 35 12 81 13
REMARK SMILES IDX 36 14 80 15 37 16 38 17 39 18 74 19 40 20 79 21 73 22 75 23
REMARK SMILES IDX 41 24 78 25 72 26 71 27 42 29 64 30 49 31 63 32 50 33 53 34
REMARK SMILES IDX 62 35 76 36 51 37 52 38 61 40 77 41 54 42 43 43 44 44 48 45
REMARK SMILES IDX 45 46 47 47 46 48 65 49 66 50 70 51 67 52 69 53 68 54 55 55
REMARK SMILES IDX 56 56 60 57 57 58 59 59 58 60 11 61 12 62 13 63 14 64 15 65
REMARK SMILES IDX 16 66 17 67 18 68 19 69 23 70 20 71 22 72 24 73 21 74 25 75
REMARK SMILES IDX 26 76 27 77 28 78 29 79 33 80 30 81 32 82 31 83
REMARK H PARENT 75 28 53 39
REMARK Flexibility Score: inf
ROOT
ATOM      1  C   UNL A   1      34.667  31.241  28.199  1.00  0.00     0.188 C 
ENDROOT
BRANCH   1   2
ATOM      2  O   UNL A   1      35.036  32.554  27.816  1.00  0.00    -0.377 OA
BRANCH   2   3
ATOM      3  C   UNL A   1      35.345  33.437  28.877  1.00  0.00     0.188 C 
BRANCH   3   4
ATOM      4  C   UNL A   1      34.135  34.207  29.383  1.00  0.00     0.188 C 
BRANCH   4   5
ATOM      5  O   UNL A   1      33.830  33.855  30.737  1.00  0.00    -0.376 OA
BRANCH   5   6
ATOM      6  C   UNL A   1      34.606  34.512  31.741  1.00  0.00     0.202 C 
BRANCH   6   7
ATOM      7  C   UNL A   1      34.664  33.785  33.084  1.00  0.00     0.261 C 
BRANCH   7   8
ATOM      8  O   UNL A   1      35.290  32.496  33.010  1.00  0.00    -0.460 OA
BRANCH   8   9
ATOM      9  C   UNL A   1      36.517  32.124  33.443  1.00  0.00     0.338 C 
ATOM     10  O   UNL A   1      36.812  32.376  34.617  1.00  0.00    -0.246 OA
BRANCH   9  11
ATOM     11  C   UNL A   1      37.573  31.476  32.597  1.00  0.00     0.060 A 
ATOM     12  C   UNL A   1      38.705  30.811  33.070  1.00  0.00     0.016 A 
ATOM     13  C   UNL A   1      37.366  31.487  31.206  1.00  0.00     0.016 A 
ATOM     14  C   UNL A   1      39.597  30.180  32.227  1.00  0.00     0.010 A 
ATOM     15  C   UNL A   1      38.279  30.887  30.334  1.00  0.00     0.010 A 
ATOM     16  C   UNL A   1      39.409  30.252  30.855  1.00  0.00    -0.014 A 
BRANCH  16  17
ATOM     17  C   UNL A   1      40.569  29.891  30.034  1.00  0.00     0.031 A 
ATOM     18  C   UNL A   1      40.495  28.587  29.301  1.00  0.00     0.074 A 
ATOM     19  C   UNL A   1      41.522  30.803  29.785  1.00  0.00     0.049 A 
ATOM     20  N   UNL A   1      41.377  28.019  28.530  1.00  0.00    -0.248 NA
ATOM     21  C   UNL A   1      39.234  27.829  29.436  1.00  0.00     0.031 C 
ATOM     22  C   UNL A   1      41.535  32.176  30.299  1.00  0.00     0.029 A 
ATOM     23  N   UNL A   1      42.637  30.728  28.999  1.00  0.00    -0.354 N 
ATOM     24  C   UNL A   1      40.797  26.823  28.124  1.00  0.00     0.074 A 
ATOM     25  C   UNL A   1      39.487  26.746  28.721  1.00  0.00     0.031 C 
ATOM     26  C   UNL A   1      42.610  32.816  29.807  1.00  0.00     0.029 A 
ATOM     27  C   UNL A   1      43.390  31.876  29.011  1.00  0.00     0.049 A 
ATOM     28  H   UNL A   1      42.877  29.929  28.476  1.00  0.00     0.167 HD
ATOM     29  C   UNL A   1      41.335  25.868  27.334  1.00  0.00     0.031 A 
ATOM     30  C   UNL A   1      44.602  32.103  28.474  1.00  0.00     0.031 A 
ATOM     31  C   UNL A   1      42.652  25.982  26.778  1.00  0.00     0.049 A 
ATOM     32  C   UNL A   1      45.246  30.966  27.728  1.00  0.00     0.074 A 
ATOM     33  C   UNL A   1      43.369  25.060  26.043  1.00  0.00     0.029 A 
ATOM     34  N   UNL A   1      43.451  27.112  26.909  1.00  0.00    -0.354 N 
ATOM     35  N   UNL A   1      44.749  29.786  27.432  1.00  0.00    -0.248 NA
ATOM     36  C   UNL A   1      46.618  31.179  27.257  1.00  0.00     0.031 C 
ATOM     37  C   UNL A   1      44.628  25.613  25.780  1.00  0.00     0.029 A 
ATOM     38  C   UNL A   1      44.666  26.905  26.290  1.00  0.00     0.049 A 
ATOM     39  H   UNL A   1      43.188  27.939  27.374  1.00  0.00     0.167 HD
ATOM     40  C   UNL A   1      45.739  29.121  26.725  1.00  0.00     0.074 A 
ATOM     41  C   UNL A   1      46.856  30.043  26.618  1.00  0.00     0.031 C 
ATOM     42  C   UNL A   1      45.740  27.865  26.212  1.00  0.00     0.031 A 
BRANCH  29  43
ATOM     43  C   UNL A   1      40.538  24.609  27.151  1.00  0.00    -0.014 A 
ATOM     44  C   UNL A   1      40.992  23.365  27.619  1.00  0.00     0.009 A 
ATOM     45  C   UNL A   1      39.334  24.663  26.432  1.00  0.00     0.009 A 
ATOM     46  C   UNL A   1      40.276  22.198  27.334  1.00  0.00     0.001 A 
ATOM     47  C   UNL A   1      38.606  23.500  26.173  1.00  0.00     0.001 A 
ATOM     48  C   UNL A   1      39.085  22.268  26.613  1.00  0.00     0.000 A 
ENDBRANCH  29  43
BRANCH  30  49
ATOM     49  C   UNL A   1      45.306  33.394  28.701  1.00  0.00    -0.014 A 
ATOM     50  C   UNL A   1      45.189  34.457  27.795  1.00  0.00     0.009 A 
ATOM     51  C   UNL A   1      46.133  33.561  29.827  1.00  0.00     0.009 A 
ATOM     52  C   UNL A   1      45.905  35.642  27.993  1.00  0.00     0.001 A 
ATOM     53  C   UNL A   1      46.819  34.757  30.042  1.00  0.00     0.001 A 
ATOM     54  C   UNL A   1      46.715  35.793  29.118  1.00  0.00     0.000 A 
ENDBRANCH  30  49
BRANCH  42  55
ATOM     55  C   UNL A   1      46.966  27.448  25.458  1.00  0.00    -0.014 A 
ATOM     56  C   UNL A   1      47.980  26.699  26.073  1.00  0.00     0.009 A 
ATOM     57  C   UNL A   1      47.075  27.768  24.096  1.00  0.00     0.009 A 
ATOM     58  C   UNL A   1      49.099  26.304  25.340  1.00  0.00     0.001 A 
ATOM     59  C   UNL A   1      48.177  27.342  23.359  1.00  0.00     0.001 A 
ATOM     60  C   UNL A   1      49.192  26.619  23.984  1.00  0.00     0.000 A 
ENDBRANCH  42  55
ENDBRANCH  16  17
ENDBRANCH   9  11
ENDBRANCH   8   9
ENDBRANCH   7   8
ENDBRANCH   6   7
ENDBRANCH   5   6
ENDBRANCH   4   5
ENDBRANCH   3   4
ENDBRANCH   2   3
ENDBRANCH   1   2
BRANCH   1  61
ATOM     61  C   UNL A   1      35.143  30.022  27.403  1.00  0.00     0.188 C 
BRANCH  61  62
ATOM     62  O   UNL A   1      34.232  29.666  26.387  1.00  0.00    -0.376 OA
BRANCH  62  63
ATOM     63  C   UNL A   1      32.855  29.848  26.685  1.00  0.00     0.202 C 
BRANCH  63  64
ATOM     64  C   UNL A   1      31.762  29.025  25.953  1.00  0.00     0.261 C 
BRANCH  64  65
ATOM     65  O   UNL A   1      31.906  28.838  24.521  1.00  0.00    -0.463 OA
BRANCH  65  66
ATOM     66  C   UNL A   1      32.755  27.928  24.017  1.00  0.00     0.311 C 
ATOM     67  O   UNL A   1      33.614  28.210  23.178  1.00  0.00    -0.252 OA
BRANCH  66  68
ATOM     68  C   UNL A   1      32.651  26.518  24.620  1.00  0.00     0.124 C 
ATOM     69  C   UNL A   1      33.939  26.071  25.359  1.00  0.00     0.042 C 
ATOM     70  C   UNL A   1      32.272  25.207  23.884  1.00  0.00     0.099 C 
ATOM     71  C   UNL A   1      33.989  24.544  25.098  1.00  0.00     0.086 C 
ATOM     72  C   UNL A   1      33.298  24.782  22.816  1.00  0.00     0.028 C 
ATOM     73  N   UNL A   1      32.587  24.248  24.918  1.00  0.00    -0.336 N 
ATOM     74  C   UNL A   1      34.502  24.326  23.664  1.00  0.00     0.027 C 
BRANCH  73  75
ATOM     75  C   UNL A   1      31.845  23.274  25.525  1.00  0.00     0.225 C 
ATOM     76  O   UNL A   1      30.628  23.397  25.672  1.00  0.00    -0.275 OA
BRANCH  75  77
ATOM     77  C   UNL A   1      32.575  22.043  26.066  1.00  0.00     0.132 C 
BRANCH  77  78
ATOM     78  C   UNL A   1      32.283  20.780  25.255  1.00  0.00     0.127 C 
ATOM     79  C   UNL A   1      32.614  20.939  23.766  1.00  0.00     0.033 C 
ATOM     80  O   UNL A   1      33.047  19.691  25.776  1.00  0.00    -0.378 OA
ATOM     81  C   UNL A   1      32.255  19.648  23.026  1.00  0.00     0.005 C 
ATOM     82  C   UNL A   1      32.645  18.444  25.211  1.00  0.00     0.160 C 
ATOM     83  C   UNL A   1      32.880  18.431  23.705  1.00  0.00     0.029 C 
ENDBRANCH  77  78
ENDBRANCH  75  77
ENDBRANCH  73  75
ENDBRANCH  66  68
ENDBRANCH  65  66
ENDBRANCH  64  65
ENDBRANCH  63  64
ENDBRANCH  62  63
ENDBRANCH  61  62
ENDBRANCH   1  61
TORSDOF 23
ENDMDL
MODEL 2
REMARK VINA RESULT:      -8.4      3.635      7.611
REMARK SMILES O=C(OCCOCCOCCOCCOC(=O)[C@@H]1C[C@@H]2CC[C@H]1N2C(=O)C[C@H]1CCCCO1)c1ccc(-c2c3nc(c(-c4ccccc4)c4ccc([nH]4)c(-c4ccccc4)c4nc(c(-c5ccccc5)c5ccc2[nH]5)C=C4)C=C3)cc1
REMARK SMILES IDX 10 1 9 2 8 3 7 4 6 5 5 6 4 7 3 8 2 9 1 10 34 11 35 12 81 13
REMARK SMILES IDX 36 14 80 15 37 16 38 17 39 18 74 19 40 20 79 21 73 22 75 23
REMARK SMILES IDX 41 24 78 25 72 26 71 27 42 29 64 30 49 31 63 32 50 33 53 34
REMARK SMILES IDX 62 35 76 36 51 37 52 38 61 40 77 41 54 42 43 43 44 44 48 45
REMARK SMILES IDX 45 46 47 47 46 48 65 49 66 50 70 51 67 52 69 53 68 54 55 55
REMARK SMILES IDX 56 56 60 57 57 58 59 59 58 60 11 61 12 62 13 63 14 64 15 65
REMARK SMILES IDX 16 66 17 67 18 68 19 69 23 70 20 71 22 72 24 73 21 74 25 75
REMARK SMILES IDX 26 76 27 77 28 78 29 79 33 80 30 81 32 82 31 83
REMARK H PARENT 75 28 53 39
REMARK Flexibility Score: inf
ROOT
ATOM      1  C   UNL A   1      37.830  30.687  29.254  1.00  0.00     0.188 C 
ENDROOT
BRANCH   1   2
ATOM      2  O   UNL A   1      39.009  29.902  29.213  1.00  0.00    -0.377 OA
BRANCH   2   3
ATOM      3  C   UNL A   1      38.907  28.683  28.502  1.00  0.00     0.188 C 
BRANCH   3   4
ATOM      4  C   UNL A   1      39.999  28.509  27.459  1.00  0.00     0.188 C 
BRANCH   4   5
ATOM      5  O   UNL A   1      40.670  27.254  27.620  1.00  0.00    -0.376 OA
BRANCH   5   6
ATOM      6  C   UNL A   1      40.083  26.142  26.941  1.00  0.00     0.202 C 
BRANCH   6   7
ATOM      7  C   UNL A   1      39.931  24.881  27.790  1.00  0.00     0.261 C 
BRANCH   7   8
ATOM      8  O   UNL A   1      41.041  23.979  27.678  1.00  0.00    -0.460 OA
BRANCH   8   9
ATOM      9  C   UNL A   1      42.220  23.998  28.343  1.00  0.00     0.338 C 
ATOM     10  O   UNL A   1      42.370  23.189  29.265  1.00  0.00    -0.246 OA
BRANCH   9  11
ATOM     11  C   UNL A   1      43.341  24.961  28.089  1.00  0.00     0.060 A 
ATOM     12  C   UNL A   1      44.144  25.556  29.063  1.00  0.00     0.016 A 
ATOM     13  C   UNL A   1      43.649  25.236  26.744  1.00  0.00     0.016 A 
ATOM     14  C   UNL A   1      45.204  26.381  28.745  1.00  0.00     0.010 A 
ATOM     15  C   UNL A   1      44.694  26.099  26.403  1.00  0.00     0.010 A 
ATOM     16  C   UNL A   1      45.455  26.688  27.416  1.00  0.00    -0.014 A 
BRANCH  16  17
ATOM     17  C   UNL A   1      46.335  27.838  27.184  1.00  0.00     0.031 A 
ATOM     18  C   UNL A   1      47.758  27.535  26.826  1.00  0.00     0.074 A 
ATOM     19  C   UNL A   1      45.812  29.069  27.072  1.00  0.00     0.049 A 
ATOM     20  N   UNL A   1      48.745  28.351  26.591  1.00  0.00    -0.248 NA
ATOM     21  C   UNL A   1      48.109  26.107  26.685  1.00  0.00     0.031 C 
ATOM     22  C   UNL A   1      44.389  29.399  27.194  1.00  0.00     0.029 A 
ATOM     23  N   UNL A   1      46.410  30.263  26.784  1.00  0.00    -0.354 N 
ATOM     24  C   UNL A   1      49.838  27.539  26.319  1.00  0.00     0.074 A 
ATOM     25  C   UNL A   1      49.400  26.168  26.406  1.00  0.00     0.031 C 
ATOM     26  C   UNL A   1      44.225  30.714  26.976  1.00  0.00     0.029 A 
ATOM     27  C   UNL A   1      45.535  31.322  26.777  1.00  0.00     0.049 A 
ATOM     28  H   UNL A   1      47.372  30.356  26.601  1.00  0.00     0.167 HD
ATOM     29  C   UNL A   1      51.104  27.920  26.041  1.00  0.00     0.031 A 
ATOM     30  C   UNL A   1      45.794  32.637  26.671  1.00  0.00     0.031 A 
ATOM     31  C   UNL A   1      51.497  29.299  25.985  1.00  0.00     0.049 A 
ATOM     32  C   UNL A   1      47.235  33.043  26.517  1.00  0.00     0.074 A 
ATOM     33  C   UNL A   1      52.756  29.838  25.812  1.00  0.00     0.029 A 
ATOM     34  N   UNL A   1      50.609  30.361  26.106  1.00  0.00    -0.354 N 
ATOM     35  N   UNL A   1      48.296  32.282  26.369  1.00  0.00    -0.248 NA
ATOM     36  C   UNL A   1      47.521  34.481  26.532  1.00  0.00     0.031 C 
ATOM     37  C   UNL A   1      52.634  31.231  25.888  1.00  0.00     0.029 A 
ATOM     38  C   UNL A   1      51.292  31.557  26.036  1.00  0.00     0.049 A 
ATOM     39  H   UNL A   1      49.635  30.272  26.222  1.00  0.00     0.167 HD
ATOM     40  C   UNL A   1      49.374  33.146  26.255  1.00  0.00     0.074 A 
ATOM     41  C   UNL A   1      48.831  34.491  26.327  1.00  0.00     0.031 C 
ATOM     42  C   UNL A   1      50.694  32.868  26.110  1.00  0.00     0.031 A 
BRANCH  29  43
ATOM     43  C   UNL A   1      52.129  26.831  25.907  1.00  0.00    -0.014 A 
ATOM     44  C   UNL A   1      52.838  26.334  27.014  1.00  0.00     0.009 A 
ATOM     45  C   UNL A   1      52.439  26.340  24.630  1.00  0.00     0.009 A 
ATOM     46  C   UNL A   1      53.861  25.397  26.835  1.00  0.00     0.001 A 
ATOM     47  C   UNL A   1      53.442  25.384  24.457  1.00  0.00     0.001 A 
ATOM     48  C   UNL A   1      54.161  24.924  25.559  1.00  0.00     0.000 A 
ENDBRANCH  29  43
BRANCH  30  49
ATOM     49  C   UNL A   1      44.705  33.642  26.803  1.00  0.00    -0.014 A 
ATOM     50  C   UNL A   1      44.334  34.154  28.054  1.00  0.00     0.009 A 
ATOM     51  C   UNL A   1      44.003  34.079  25.665  1.00  0.00     0.009 A 
ATOM     52  C   UNL A   1      43.269  35.054  28.166  1.00  0.00     0.001 A 
ATOM     53  C   UNL A   1      42.962  35.003  25.775  1.00  0.00     0.001 A 
ATOM     54  C   UNL A   1      42.588  35.481  27.027  1.00  0.00     0.000 A 
ENDBRANCH  30  49
BRANCH  42  55
ATOM     55  C   UNL A   1      51.617  34.041  25.976  1.00  0.00    -0.014 A 
ATOM     56  C   UNL A   1      52.046  34.491  24.719  1.00  0.00     0.009 A 
ATOM     57  C   UNL A   1      52.013  34.736  27.129  1.00  0.00     0.009 A 
ATOM     58  C   UNL A   1      52.885  35.601  24.624  1.00  0.00     0.001 A 
ATOM     59  C   UNL A   1      52.822  35.864  27.028  1.00  0.00     0.001 A 
ATOM     60  C   UNL A   1      53.265  36.290  25.776  1.00  0.00     0.000 A 
ENDBRANCH  42  55
ENDBRANCH  16  17
ENDBRANCH   9  11
ENDBRANCH   8   9
ENDBRANCH   7   8
ENDBRANCH   6   7
ENDBRANCH   5   6
ENDBRANCH   4   5
ENDBRANCH   3   4
ENDBRANCH   2   3
ENDBRANCH   1   2
BRANCH   1  61
ATOM     61  C   UNL A   1      36.786  30.605  28.137  1.00  0.00     0.188 C 
BRANCH  61  62
ATOM     62  O   UNL A   1      35.472  30.743  28.630  1.00  0.00    -0.376 OA
BRANCH  62  63
ATOM     63  C   UNL A   1      34.444  30.858  27.657  1.00  0.00     0.202 C 
BRANCH  63  64
ATOM     64  C   UNL A   1      34.000  29.634  26.813  1.00  0.00     0.261 C 
BRANCH  64  65
ATOM     65  O   UNL A   1      32.578  29.357  26.724  1.00  0.00    -0.463 OA
BRANCH  65  66
ATOM     66  C   UNL A   1      31.896  29.558  25.585  1.00  0.00     0.311 C 
ATOM     67  O   UNL A   1      31.167  30.537  25.408  1.00  0.00    -0.252 OA
BRANCH  66  68
ATOM     68  C   UNL A   1      32.152  28.532  24.469  1.00  0.00     0.124 C 
ATOM     69  C   UNL A   1      31.176  28.674  23.271  1.00  0.00     0.042 C 
ATOM     70  C   UNL A   1      32.214  26.988  24.609  1.00  0.00     0.099 C 
ATOM     71  C   UNL A   1      30.989  27.214  22.788  1.00  0.00     0.086 C 
ATOM     72  C   UNL A   1      30.872  26.354  25.022  1.00  0.00     0.028 C 
ATOM     73  N   UNL A   1      32.236  26.620  23.212  1.00  0.00    -0.336 N 
ATOM     74  C   UNL A   1      30.013  26.518  23.753  1.00  0.00     0.027 C 
BRANCH  73  75
ATOM     75  C   UNL A   1      33.106  25.868  22.473  1.00  0.00     0.225 C 
ATOM     76  O   UNL A   1      33.897  26.394  21.689  1.00  0.00    -0.275 OA
BRANCH  75  77
ATOM     77  C   UNL A   1      33.039  24.346  22.609  1.00  0.00     0.132 C 
BRANCH  77  78
ATOM     78  C   UNL A   1      34.170  23.779  23.467  1.00  0.00     0.127 C 
ATOM     79  C   UNL A   1      33.733  22.572  24.306  1.00  0.00     0.033 C 
ATOM     80  O   UNL A   1      35.253  23.379  22.625  1.00  0.00    -0.378 OA
ATOM     81  C   UNL A   1      34.911  22.095  25.161  1.00  0.00     0.005 C 
ATOM     82  C   UNL A   1      36.421  23.059  23.381  1.00  0.00     0.160 C 
ATOM     83  C   UNL A   1      36.159  21.878  24.308  1.00  0.00     0.029 C 
ENDBRANCH  77  78
ENDBRANCH  75  77
ENDBRANCH  73  75
ENDBRANCH  66  68
ENDBRANCH  65  66
ENDBRANCH  64  65
ENDBRANCH  63  64
ENDBRANCH  62  63
ENDBRANCH  61  62
ENDBRANCH   1  61
TORSDOF 23
ENDMDL
MODEL 3
REMARK VINA RESULT:      -8.1      5.497     10.998
REMARK SMILES O=C(OCCOCCOCCOCCOC(=O)[C@@H]1C[C@@H]2CC[C@H]1N2C(=O)C[C@H]1CCCCO1)c1ccc(-c2c3nc(c(-c4ccccc4)c4ccc([nH]4)c(-c4ccccc4)c4nc(c(-c5ccccc5)c5ccc2[nH]5)C=C4)C=C3)cc1
REMARK SMILES IDX 10 1 9 2 8 3 7 4 6 5 5 6 4 7 3 8 2 9 1 10 34 11 35 12 81 13
REMARK SMILES IDX 36 14 80 15 37 16 38 17 39 18 74 19 40 20 79 21 73 22 75 23
REMARK SMILES IDX 41 24 78 25 72 26 71 27 42 29 64 30 49 31 63 32 50 33 53 34
REMARK SMILES IDX 62 35 76 36 51 37 52 38 61 40 77 41 54 42 43 43 44 44 48 45
REMARK SMILES IDX 45 46 47 47 46 48 65 49 66 50 70 51 67 52 69 53 68 54 55 55
REMARK SMILES IDX 56 56 60 57 57 58 59 59 58 60 11 61 12 62 13 63 14 64 15 65
REMARK SMILES IDX 16 66 17 67 18 68 19 69 23 70 20 71 22 72 24 73 21 74 25 75
REMARK SMILES IDX 26 76 27 77 28 78 29 79 33 80 30 81 32 82 31 83
REMARK H PARENT 75 28 53 39
REMARK Flexibility Score: inf
ROOT
ATOM      1  C   UNL A   1      38.746  29.317  27.657  1.00  0.00     0.188 C 
ENDROOT
BRANCH   1   2
ATOM      2  O   UNL A   1      39.661  29.263  26.575  1.00  0.00    -0.377 OA
BRANCH   2   3
ATOM      3  C   UNL A   1      40.925  28.700  26.871  1.00  0.00     0.188 C 
BRANCH   3   4
ATOM      4  C   UNL A   1      42.017  29.154  25.916  1.00  0.00     0.188 C 
BRANCH   4   5
ATOM      5  O   UNL A   1      42.191  28.215  24.849  1.00  0.00    -0.376 OA
BRANCH   5   6
ATOM      6  C   UNL A   1      43.268  27.288  25.004  1.00  0.00     0.202 C 
BRANCH   6   7
ATOM      7  C   UNL A   1      42.838  25.843  25.246  1.00  0.00     0.261 C 
BRANCH   7   8
ATOM      8  O   UNL A   1      43.890  25.012  25.760  1.00  0.00    -0.460 OA
BRANCH   8   9
ATOM      9  C   UNL A   1      44.208  24.747  27.049  1.00  0.00     0.338 C 
ATOM     10  O   UNL A   1      44.617  23.612  27.317  1.00  0.00    -0.246 OA
BRANCH   9  11
ATOM     11  C   UNL A   1      44.053  25.706  28.193  1.00  0.00     0.060 A 
ATOM     12  C   UNL A   1      42.864  25.993  28.863  1.00  0.00     0.016 A 
ATOM     13  C   UNL A   1      45.226  26.318  28.670  1.00  0.00     0.016 A 
ATOM     14  C   UNL A   1      42.815  26.837  29.954  1.00  0.00     0.010 A 
ATOM     15  C   UNL A   1      45.190  27.206  29.749  1.00  0.00     0.010 A 
ATOM     16  C   UNL A   1      43.970  27.479  30.373  1.00  0.00    -0.014 A 
BRANCH  16  17
ATOM     17  C   UNL A   1      43.774  28.619  31.274  1.00  0.00     0.031 A 
ATOM     18  C   UNL A   1      44.106  28.400  32.718  1.00  0.00     0.074 A 
ATOM     19  C   UNL A   1      43.539  29.839  30.767  1.00  0.00     0.049 A 
ATOM     20  N   UNL A   1      44.007  29.221  33.725  1.00  0.00    -0.248 NA
ATOM     21  C   UNL A   1      44.653  27.075  33.072  1.00  0.00     0.031 C 
ATOM     22  C   UNL A   1      43.423  30.156  29.340  1.00  0.00     0.029 A 
ATOM     23  N   UNL A   1      43.402  31.047  31.391  1.00  0.00    -0.354 N 
ATOM     24  C   UNL A   1      44.437  28.500  34.832  1.00  0.00     0.074 A 
ATOM     25  C   UNL A   1      44.808  27.181  34.381  1.00  0.00     0.031 C 
ATOM     26  C   UNL A   1      43.237  31.479  29.200  1.00  0.00     0.029 A 
ATOM     27  C   UNL A   1      43.146  32.081  30.524  1.00  0.00     0.049 A 
ATOM     28  H   UNL A   1      43.479  31.164  32.365  1.00  0.00     0.167 HD
ATOM     29  C   UNL A   1      44.493  28.912  36.117  1.00  0.00     0.031 A 
ATOM     30  C   UNL A   1      42.824  33.358  30.798  1.00  0.00     0.031 A 
ATOM     31  C   UNL A   1      44.094  30.230  36.520  1.00  0.00     0.049 A 
ATOM     32  C   UNL A   1      42.742  33.750  32.248  1.00  0.00     0.074 A 
ATOM     33  C   UNL A   1      44.002  30.761  37.791  1.00  0.00     0.029 A 
ATOM     34  N   UNL A   1      43.717  31.229  35.630  1.00  0.00    -0.354 N 
ATOM     35  N   UNL A   1      43.041  33.041  33.313  1.00  0.00    -0.248 NA
ATOM     36  C   UNL A   1      42.265  35.106  32.539  1.00  0.00     0.031 C 
ATOM     37  C   UNL A   1      43.511  32.066  37.670  1.00  0.00     0.029 A 
ATOM     38  C   UNL A   1      43.366  32.369  36.322  1.00  0.00     0.049 A 
ATOM     39  H   UNL A   1      43.703  31.137  34.650  1.00  0.00     0.167 HD
ATOM     40  C   UNL A   1      42.806  33.868  34.401  1.00  0.00     0.074 A 
ATOM     41  C   UNL A   1      42.363  35.141  33.861  1.00  0.00     0.031 C 
ATOM     42  C   UNL A   1      42.935  33.611  35.727  1.00  0.00     0.031 A 
BRANCH  29  43
ATOM     43  C   UNL A   1      44.882  27.888  37.144  1.00  0.00    -0.014 A 
ATOM     44  C   UNL A   1      43.963  26.954  37.650  1.00  0.00     0.009 A 
ATOM     45  C   UNL A   1      46.185  27.906  37.664  1.00  0.00     0.009 A 
ATOM     46  C   UNL A   1      44.333  26.088  38.684  1.00  0.00     0.001 A 
ATOM     47  C   UNL A   1      46.560  27.021  38.677  1.00  0.00     0.001 A 
ATOM     48  C   UNL A   1      45.630  26.122  39.195  1.00  0.00     0.000 A 
ENDBRANCH  29  43
BRANCH  30  49
ATOM     49  C   UNL A   1      42.467  34.304  29.706  1.00  0.00    -0.014 A 
ATOM     50  C   UNL A   1      41.130  34.617  29.422  1.00  0.00     0.009 A 
ATOM     51  C   UNL A   1      43.475  34.885  28.915  1.00  0.00     0.009 A 
ATOM     52  C   UNL A   1      40.811  35.464  28.354  1.00  0.00     0.001 A 
ATOM     53  C   UNL A   1      43.155  35.756  27.872  1.00  0.00     0.001 A 
ATOM     54  C   UNL A   1      41.822  36.036  27.584  1.00  0.00     0.000 A 
ENDBRANCH  30  49
BRANCH  42  55
ATOM     55  C   UNL A   1      42.635  34.742  36.663  1.00  0.00    -0.014 A 
ATOM     56  C   UNL A   1      41.359  34.909  37.219  1.00  0.00     0.009 A 
ATOM     57  C   UNL A   1      43.668  35.617  37.033  1.00  0.00     0.009 A 
ATOM     58  C   UNL A   1      41.115  35.957  38.106  1.00  0.00     0.001 A 
ATOM     59  C   UNL A   1      43.430  36.641  37.946  1.00  0.00     0.001 A 
ATOM     60  C   UNL A   1      42.151  36.816  38.474  1.00  0.00     0.000 A 
ENDBRANCH  42  55
ENDBRANCH  16  17
ENDBRANCH   9  11
ENDBRANCH   8   9
ENDBRANCH   7   8
ENDBRANCH   6   7
ENDBRANCH   5   6
ENDBRANCH   4   5
ENDBRANCH   3   4
ENDBRANCH   2   3
ENDBRANCH   1   2
BRANCH   1  61
ATOM     61  C   UNL A   1      39.235  29.291  29.108  1.00  0.00     0.188 C 
BRANCH  61  62
ATOM     62  O   UNL A   1      38.743  28.172  29.811  1.00  0.00    -0.376 OA
BRANCH  62  63
ATOM     63  C   UNL A   1      38.006  28.447  30.993  1.00  0.00     0.202 C 
BRANCH  63  64
ATOM     64  C   UNL A   1      38.700  28.472  32.381  1.00  0.00     0.261 C 
BRANCH  64  65
ATOM     65  O   UNL A   1      38.682  29.721  33.120  1.00  0.00    -0.463 OA
BRANCH  65  66
ATOM     66  C   UNL A   1      39.229  30.839  32.616  1.00  0.00     0.311 C 
ATOM     67  O   UNL A   1      40.354  30.862  32.112  1.00  0.00    -0.252 OA
BRANCH  66  68
ATOM     68  C   UNL A   1      38.323  32.082  32.623  1.00  0.00     0.124 C 
ATOM     69  C   UNL A   1      39.072  33.387  32.248  1.00  0.00     0.042 C 
ATOM     70  C   UNL A   1      37.429  32.586  33.785  1.00  0.00     0.099 C 
ATOM     71  C   UNL A   1      38.360  34.465  33.103  1.00  0.00     0.086 C 
ATOM     72  C   UNL A   1      38.227  33.037  35.023  1.00  0.00     0.028 C 
ATOM     73  N   UNL A   1      37.050  33.876  33.257  1.00  0.00    -0.336 N 
ATOM     74  C   UNL A   1      38.884  34.347  34.545  1.00  0.00     0.027 C 
BRANCH  73  75
ATOM     75  C   UNL A   1      35.832  34.453  33.027  1.00  0.00     0.225 C 
ATOM     76  O   UNL A   1      35.585  35.595  33.416  1.00  0.00    -0.275 OA
BRANCH  75  77
ATOM     77  C   UNL A   1      34.763  33.623  32.315  1.00  0.00     0.132 C 
BRANCH  77  78
ATOM     78  C   UNL A   1      34.736  33.865  30.805  1.00  0.00     0.127 C 
ATOM     79  C   UNL A   1      35.068  32.606  29.995  1.00  0.00     0.033 C 
ATOM     80  O   UNL A   1      33.440  34.325  30.419  1.00  0.00    -0.378 OA
ATOM     81  C   UNL A   1      35.059  32.947  28.502  1.00  0.00     0.005 C 
ATOM     82  C   UNL A   1      33.423  34.785  29.067  1.00  0.00     0.160 C 
ATOM     83  C   UNL A   1      33.764  33.653  28.106  1.00  0.00     0.029 C 
ENDBRANCH  77  78
ENDBRANCH  75  77
ENDBRANCH  73  75
ENDBRANCH  66  68
ENDBRANCH  65  66
ENDBRANCH  64  65
ENDBRANCH  63  64
ENDBRANCH  62  63
ENDBRANCH  61  62
ENDBRANCH   1  61
TORSDOF 23
ENDMDL
