MODEL 1
REMARK VINA RESULT:     -10.4      0.000      0.000
REMARK SMILES C[C@@H](C(=O)OCCOCCOCCOCCOC(=O)c1ccc(-c2c3nc(c(-c4ccccc4)c4ccc([nH]4)c(-c4ccccc4)c4nc(c(-c5ccccc5)c5ccc2[nH]5)C=C4)C=C3)cc1)c1ccc(-c2cccc(OC(=O)NC3CC3)c2)c(F)c1
REMARK SMILES IDX 9 1 8 2 7 3 6 4 5 5 3 6 4 7 2 8 1 9 68 10 69 11 87 12 70 13
REMARK SMILES IDX 85 14 71 15 86 16 72 17 73 18 84 19 74 20 76 21 75 22 77 23
REMARK SMILES IDX 78 24 79 25 80 26 81 28 82 29 83 30 10 31 11 32 12 33 13 34
REMARK SMILES IDX 14 35 15 36 16 37 17 38 18 39 19 40 20 41 21 42 67 43 22 44
REMARK SMILES IDX 66 45 23 46 24 47 25 48 60 49 26 50 65 51 59 52 61 53 27 54
REMARK SMILES IDX 64 55 58 56 57 57 28 59 50 60 35 61 49 62 36 63 39 64 48 65
REMARK SMILES IDX 62 66 37 67 38 68 47 70 63 71 40 72 29 73 30 74 34 75 31 76
REMARK SMILES IDX 33 77 32 78 51 79 52 80 56 81 53 82 55 83 54 84 41 85 42 86
REMARK SMILES IDX 46 87 43 88 45 89 44 90
REMARK H PARENT 80 27 61 58 39 69
REMARK Flexibility Score: inf
ROOT
ATOM      1  C   UNL A   1      30.927  25.874  25.889  1.00  0.00     0.188 C 
ENDROOT
BRANCH   1   2
ATOM      2  O   UNL A   1      31.132  24.794  26.776  1.00  0.00    -0.376 OA
BRANCH   2   3
ATOM      3  C   UNL A   1      30.425  23.572  26.624  1.00  0.00     0.202 C 
BRANCH   3   4
ATOM      4  C   UNL A   1      30.825  22.397  25.704  1.00  0.00     0.261 C 
BRANCH   4   5
ATOM      5  O   UNL A   1      31.938  22.601  24.829  1.00  0.00    -0.463 OA
BRANCH   5   6
ATOM      6  C   UNL A   1      33.181  22.496  25.355  1.00  0.00     0.313 C 
ATOM      7  O   UNL A   1      33.446  21.859  26.369  1.00  0.00    -0.252 OA
BRANCH   6   8
ATOM      8  C   UNL A   1      34.252  23.194  24.497  1.00  0.00     0.126 C 
ATOM      9  C   UNL A   1      33.951  23.114  22.991  1.00  0.00     0.025 C 
BRANCH   8  10
ATOM     10  C   UNL A   1      35.686  22.868  24.940  1.00  0.00    -0.031 A 
ATOM     11  C   UNL A   1      36.516  23.765  25.634  1.00  0.00     0.005 A 
ATOM     12  C   UNL A   1      36.199  21.582  24.704  1.00  0.00     0.044 A 
ATOM     13  C   UNL A   1      37.806  23.391  26.060  1.00  0.00     0.012 A 
ATOM     14  C   UNL A   1      37.479  21.218  25.124  1.00  0.00     0.131 A 
ATOM     15  C   UNL A   1      38.309  22.104  25.816  1.00  0.00     0.018 A 
ATOM     16  F   UNL A   1      37.893  19.967  24.865  1.00  0.00    -0.206 F 
BRANCH  15  17
ATOM     17  C   UNL A   1      39.645  21.687  26.273  1.00  0.00    -0.012 A 
ATOM     18  C   UNL A   1      40.250  22.282  27.392  1.00  0.00     0.009 A 
ATOM     19  C   UNL A   1      40.327  20.642  25.622  1.00  0.00     0.056 A 
ATOM     20  C   UNL A   1      41.489  21.837  27.861  1.00  0.00     0.004 A 
ATOM     21  C   UNL A   1      41.565  20.204  26.087  1.00  0.00     0.133 A 
ATOM     22  C   UNL A   1      42.148  20.797  27.209  1.00  0.00     0.047 A 
BRANCH  21  23
ATOM     23  O   UNL A   1      42.322  19.155  25.503  1.00  0.00    -0.410 OA
BRANCH  23  24
ATOM     24  C   UNL A   1      43.351  18.441  26.110  1.00  0.00     0.412 C 
ATOM     25  O   UNL A   1      43.226  17.612  27.006  1.00  0.00    -0.224 OA
ATOM     26  N   UNL A   1      44.601  18.741  25.631  1.00  0.00    -0.318 N 
ATOM     27  H   UNL A   1      45.342  18.284  26.091  1.00  0.00     0.167 HD
BRANCH  26  28
ATOM     28  C   UNL A   1      44.996  19.608  24.573  1.00  0.00     0.085 C 
ATOM     29  C   UNL A   1      44.953  21.108  24.567  1.00  0.00     0.027 C 
ATOM     30  C   UNL A   1      46.265  20.408  24.740  1.00  0.00     0.027 C 
ENDBRANCH  26  28
ENDBRANCH  23  24
ENDBRANCH  21  23
ENDBRANCH  15  17
ENDBRANCH   8  10
ENDBRANCH   6   8
ENDBRANCH   5   6
ENDBRANCH   4   5
ENDBRANCH   3   4
ENDBRANCH   2   3
ENDBRANCH   1   2
BRANCH   1  31
ATOM     31  C   UNL A   1      32.001  26.074  24.809  1.00  0.00     0.188 C 
BRANCH  31  32
ATOM     32  O   UNL A   1      31.552  25.999  23.467  1.00  0.00    -0.377 OA
BRANCH  32  33
ATOM     33  C   UNL A   1      31.161  27.196  22.803  1.00  0.00     0.188 C 
BRANCH  33  34
ATOM     34  C   UNL A   1      31.108  28.554  23.536  1.00  0.00     0.188 C 
BRANCH  34  35
ATOM     35  O   UNL A   1      32.340  29.250  23.605  1.00  0.00    -0.376 OA
BRANCH  35  36
ATOM     36  C   UNL A   1      32.970  29.398  24.867  1.00  0.00     0.202 C 
BRANCH  36  37
ATOM     37  C   UNL A   1      32.282  30.305  25.900  1.00  0.00     0.261 C 
BRANCH  37  38
ATOM     38  O   UNL A   1      32.908  30.386  27.190  1.00  0.00    -0.460 OA
BRANCH  38  39
ATOM     39  C   UNL A   1      33.613  31.503  27.477  1.00  0.00     0.338 C 
ATOM     40  O   UNL A   1      33.198  32.640  27.550  1.00  0.00    -0.246 OA
BRANCH  39  41
ATOM     41  C   UNL A   1      34.972  31.079  27.883  1.00  0.00     0.060 A 
ATOM     42  C   UNL A   1      35.304  29.720  27.819  1.00  0.00     0.016 A 
ATOM     43  C   UNL A   1      35.907  32.017  28.326  1.00  0.00     0.016 A 
ATOM     44  C   UNL A   1      36.563  29.288  28.238  1.00  0.00     0.010 A 
ATOM     45  C   UNL A   1      37.160  31.581  28.765  1.00  0.00     0.010 A 
ATOM     46  C   UNL A   1      37.479  30.210  28.759  1.00  0.00    -0.014 A 
BRANCH  46  47
ATOM     47  C   UNL A   1      38.678  29.725  29.485  1.00  0.00     0.031 A 
ATOM     48  C   UNL A   1      38.866  30.154  30.915  1.00  0.00     0.074 A 
ATOM     49  C   UNL A   1      39.572  28.906  28.903  1.00  0.00     0.049 A 
ATOM     50  N   UNL A   1      39.854  29.902  31.735  1.00  0.00    -0.248 NA
ATOM     51  C   UNL A   1      37.794  30.978  31.496  1.00  0.00     0.031 C 
ATOM     52  C   UNL A   1      39.478  28.376  27.545  1.00  0.00     0.029 A 
ATOM     53  N   UNL A   1      40.742  28.383  29.392  1.00  0.00    -0.354 N 
ATOM     54  C   UNL A   1      39.526  30.545  32.924  1.00  0.00     0.074 A 
ATOM     55  C   UNL A   1      38.267  31.224  32.707  1.00  0.00     0.031 C 
ATOM     56  C   UNL A   1      40.556  27.609  27.304  1.00  0.00     0.029 A 
ATOM     57  C   UNL A   1      41.431  27.627  28.476  1.00  0.00     0.049 A 
ATOM     58  H   UNL A   1      41.059  28.535  30.312  1.00  0.00     0.167 HD
ATOM     59  C   UNL A   1      40.207  30.563  34.094  1.00  0.00     0.031 A 
ATOM     60  C   UNL A   1      42.641  27.039  28.565  1.00  0.00     0.031 A 
ATOM     61  C   UNL A   1      41.469  29.906  34.303  1.00  0.00     0.049 A 
ATOM     62  C   UNL A   1      43.426  27.154  29.846  1.00  0.00     0.074 A 
ATOM     63  C   UNL A   1      42.238  29.862  35.453  1.00  0.00     0.029 A 
ATOM     64  N   UNL A   1      42.154  29.187  33.335  1.00  0.00    -0.354 N 
ATOM     65  N   UNL A   1      43.099  27.746  30.969  1.00  0.00    -0.248 NA
ATOM     66  C   UNL A   1      44.748  26.508  29.872  1.00  0.00     0.031 C 
ATOM     67  C   UNL A   1      43.419  29.173  35.161  1.00  0.00     0.029 A 
ATOM     68  C   UNL A   1      43.351  28.722  33.853  1.00  0.00     0.049 A 
ATOM     69  H   UNL A   1      41.836  29.031  32.416  1.00  0.00     0.167 HD
ATOM     70  C   UNL A   1      44.157  27.517  31.843  1.00  0.00     0.074 A 
ATOM     71  C   UNL A   1      45.127  26.719  31.124  1.00  0.00     0.031 C 
ATOM     72  C   UNL A   1      44.309  27.929  33.126  1.00  0.00     0.031 A 
BRANCH  59  73
ATOM     73  C   UNL A   1      39.614  31.358  35.225  1.00  0.00    -0.014 A 
ATOM     74  C   UNL A   1      38.583  30.839  36.024  1.00  0.00     0.009 A 
ATOM     75  C   UNL A   1      40.111  32.640  35.508  1.00  0.00     0.009 A 
ATOM     76  C   UNL A   1      38.036  31.605  37.057  1.00  0.00     0.001 A 
ATOM     77  C   UNL A   1      39.586  33.389  36.561  1.00  0.00     0.001 A 
ATOM     78  C   UNL A   1      38.541  32.875  37.328  1.00  0.00     0.000 A 
ENDBRANCH  59  73
BRANCH  60  79
ATOM     79  C   UNL A   1      43.206  26.313  27.395  1.00  0.00    -0.014 A 
ATOM     80  C   UNL A   1      44.324  26.811  26.709  1.00  0.00     0.009 A 
ATOM     81  C   UNL A   1      42.611  25.124  26.942  1.00  0.00     0.009 A 
ATOM     82  C   UNL A   1      44.816  26.151  25.580  1.00  0.00     0.001 A 
ATOM     83  C   UNL A   1      43.124  24.448  25.834  1.00  0.00     0.001 A 
ATOM     84  C   UNL A   1      44.220  24.968  25.147  1.00  0.00     0.000 A 
ENDBRANCH  60  79
BRANCH  72  85
ATOM     85  C   UNL A   1      45.549  27.486  33.855  1.00  0.00    -0.014 A 
ATOM     86  C   UNL A   1      46.717  28.266  33.864  1.00  0.00     0.009 A 
ATOM     87  C   UNL A   1      45.531  26.286  34.586  1.00  0.00     0.009 A 
ATOM     88  C   UNL A   1      47.850  27.834  34.558  1.00  0.00     0.001 A 
ATOM     89  C   UNL A   1      46.653  25.875  35.307  1.00  0.00     0.001 A 
ATOM     90  C   UNL A   1      47.814  26.643  35.284  1.00  0.00     0.000 A 
ENDBRANCH  72  85
ENDBRANCH  46  47
ENDBRANCH  39  41
ENDBRANCH  38  39
ENDBRANCH  37  38
ENDBRANCH  36  37
ENDBRANCH  35  36
ENDBRANCH  34  35
ENDBRANCH  33  34
ENDBRANCH  32  33
ENDBRANCH  31  32
ENDBRANCH   1  31
TORSDOF 25
ENDMDL
MODEL 2
REMARK VINA RESULT:      -9.8      1.583      2.285
REMARK SMILES C[C@@H](C(=O)OCCOCCOCCOCCOC(=O)c1ccc(-c2c3nc(c(-c4ccccc4)c4ccc([nH]4)c(-c4ccccc4)c4nc(c(-c5ccccc5)c5ccc2[nH]5)C=C4)C=C3)cc1)c1ccc(-c2cccc(OC(=O)NC3CC3)c2)c(F)c1
REMARK SMILES IDX 9 1 8 2 7 3 6 4 5 5 3 6 4 7 2 8 1 9 68 10 69 11 87 12 70 13
REMARK SMILES IDX 85 14 71 15 86 16 72 17 73 18 84 19 74 20 76 21 75 22 77 23
REMARK SMILES IDX 78 24 79 25 80 26 81 28 82 29 83 30 10 31 11 32 12 33 13 34
REMARK SMILES IDX 14 35 15 36 16 37 17 38 18 39 19 40 20 41 21 42 67 43 22 44
REMARK SMILES IDX 66 45 23 46 24 47 25 48 60 49 26 50 65 51 59 52 61 53 27 54
REMARK SMILES IDX 64 55 58 56 57 57 28 59 50 60 35 61 49 62 36 63 39 64 48 65
REMARK SMILES IDX 62 66 37 67 38 68 47 70 63 71 40 72 29 73 30 74 34 75 31 76
REMARK SMILES IDX 33 77 32 78 51 79 52 80 56 81 53 82 55 83 54 84 41 85 42 86
REMARK SMILES IDX 46 87 43 88 45 89 44 90
REMARK H PARENT 80 27 61 58 39 69
REMARK Flexibility Score: inf
ROOT
ATOM      1  C   UNL A   1      31.762  21.778  25.354  1.00  0.00     0.188 C 
ENDROOT
BRANCH   1   2
ATOM      2  O   UNL A   1      32.172  21.291  24.093  1.00  0.00    -0.376 OA
BRANCH   2   3
ATOM      3  C   UNL A   1      32.203  22.135  22.952  1.00  0.00     0.202 C 
BRANCH   3   4
ATOM      4  C   UNL A   1      33.366  23.062  22.536  1.00  0.00     0.261 C 
BRANCH   4   5
ATOM      5  O   UNL A   1      34.151  23.638  23.585  1.00  0.00    -0.463 OA
BRANCH   5   6
ATOM      6  C   UNL A   1      35.386  23.129  23.802  1.00  0.00     0.313 C 
ATOM      7  O   UNL A   1      36.235  22.994  22.927  1.00  0.00    -0.252 OA
BRANCH   6   8
ATOM      8  C   UNL A   1      35.649  22.813  25.284  1.00  0.00     0.126 C 
ATOM      9  C   UNL A   1      34.644  23.499  26.224  1.00  0.00     0.025 C 
BRANCH   8  10
ATOM     10  C   UNL A   1      37.134  22.902  25.666  1.00  0.00    -0.031 A 
ATOM     11  C   UNL A   1      37.764  24.083  26.094  1.00  0.00     0.005 A 
ATOM     12  C   UNL A   1      37.916  21.735  25.654  1.00  0.00     0.044 A 
ATOM     13  C   UNL A   1      39.120  24.092  26.481  1.00  0.00     0.012 A 
ATOM     14  C   UNL A   1      39.258  21.750  26.033  1.00  0.00     0.131 A 
ATOM     15  C   UNL A   1      39.891  22.921  26.461  1.00  0.00     0.018 A 
ATOM     16  F   UNL A   1      39.934  20.591  25.999  1.00  0.00    -0.206 F 
BRANCH  15  17
ATOM     17  C   UNL A   1      41.301  22.906  26.883  1.00  0.00    -0.012 A 
ATOM     18  C   UNL A   1      41.654  22.900  28.243  1.00  0.00     0.009 A 
ATOM     19  C   UNL A   1      42.331  22.847  25.926  1.00  0.00     0.056 A 
ATOM     20  C   UNL A   1      42.993  22.819  28.637  1.00  0.00     0.004 A 
ATOM     21  C   UNL A   1      43.665  22.772  26.321  1.00  0.00     0.133 A 
ATOM     22  C   UNL A   1      44.000  22.754  27.676  1.00  0.00     0.047 A 
BRANCH  21  23
ATOM     23  O   UNL A   1      44.767  22.702  25.431  1.00  0.00    -0.410 OA
BRANCH  23  24
ATOM     24  C   UNL A   1      44.782  22.093  24.179  1.00  0.00     0.412 C 
ATOM     25  O   UNL A   1      44.526  22.635  23.108  1.00  0.00    -0.224 OA
ATOM     26  N   UNL A   1      45.106  20.761  24.206  1.00  0.00    -0.318 N 
ATOM     27  H   UNL A   1      45.065  20.306  23.334  1.00  0.00     0.167 HD
BRANCH  26  28
ATOM     28  C   UNL A   1      45.496  19.932  25.296  1.00  0.00     0.085 C 
ATOM     29  C   UNL A   1      45.569  18.432  25.312  1.00  0.00     0.027 C 
ATOM     30  C   UNL A   1      46.832  19.233  25.221  1.00  0.00     0.027 C 
ENDBRANCH  26  28
ENDBRANCH  23  24
ENDBRANCH  21  23
ENDBRANCH  15  17
ENDBRANCH   8  10
ENDBRANCH   6   8
ENDBRANCH   5   6
ENDBRANCH   4   5
ENDBRANCH   3   4
ENDBRANCH   2   3
ENDBRANCH   1   2
BRANCH   1  31
ATOM     31  C   UNL A   1      30.844  23.010  25.336  1.00  0.00     0.188 C 
BRANCH  31  32
ATOM     32  O   UNL A   1      31.380  24.191  25.906  1.00  0.00    -0.377 OA
BRANCH  32  33
ATOM     33  C   UNL A   1      30.703  25.426  25.701  1.00  0.00     0.188 C 
BRANCH  33  34
ATOM     34  C   UNL A   1      31.228  26.750  26.297  1.00  0.00     0.188 C 
BRANCH  34  35
ATOM     35  O   UNL A   1      31.965  27.563  25.401  1.00  0.00    -0.376 OA
BRANCH  35  36
ATOM     36  C   UNL A   1      31.565  28.911  25.216  1.00  0.00     0.202 C 
BRANCH  36  37
ATOM     37  C   UNL A   1      32.583  30.007  25.566  1.00  0.00     0.261 C 
BRANCH  37  38
ATOM     38  O   UNL A   1      32.982  30.087  26.943  1.00  0.00    -0.460 OA
BRANCH  38  39
ATOM     39  C   UNL A   1      33.480  31.264  27.386  1.00  0.00     0.338 C 
ATOM     40  O   UNL A   1      32.881  32.304  27.552  1.00  0.00    -0.246 OA
BRANCH  39  41
ATOM     41  C   UNL A   1      34.873  31.019  27.826  1.00  0.00     0.060 A 
ATOM     42  C   UNL A   1      35.287  29.701  28.056  1.00  0.00     0.016 A 
ATOM     43  C   UNL A   1      35.757  32.083  28.011  1.00  0.00     0.016 A 
ATOM     44  C   UNL A   1      36.580  29.445  28.514  1.00  0.00     0.010 A 
ATOM     45  C   UNL A   1      37.045  31.827  28.489  1.00  0.00     0.010 A 
ATOM     46  C   UNL A   1      37.449  30.511  28.779  1.00  0.00    -0.014 A 
BRANCH  46  47
ATOM     47  C   UNL A   1      38.693  30.271  29.550  1.00  0.00     0.031 A 
ATOM     48  C   UNL A   1      38.734  30.704  30.990  1.00  0.00     0.074 A 
ATOM     49  C   UNL A   1      39.758  29.662  28.998  1.00  0.00     0.049 A 
ATOM     50  N   UNL A   1      39.720  30.647  31.848  1.00  0.00    -0.248 NA
ATOM     51  C   UNL A   1      37.493  31.281  31.533  1.00  0.00     0.031 C 
ATOM     52  C   UNL A   1      39.829  29.147  27.633  1.00  0.00     0.029 A 
ATOM     53  N   UNL A   1      40.992  29.383  29.531  1.00  0.00    -0.354 N 
ATOM     54  C   UNL A   1      39.220  31.189  33.028  1.00  0.00     0.074 A 
ATOM     55  C   UNL A   1      37.859  31.598  32.765  1.00  0.00     0.031 C 
ATOM     56  C   UNL A   1      41.050  28.622  27.430  1.00  0.00     0.029 A 
ATOM     57  C   UNL A   1      41.856  28.800  28.637  1.00  0.00     0.049 A 
ATOM     58  H   UNL A   1      41.235  29.581  30.465  1.00  0.00     0.167 HD
ATOM     59  C   UNL A   1      39.837  31.327  34.225  1.00  0.00     0.031 A 
ATOM     60  C   UNL A   1      43.157  28.472  28.771  1.00  0.00     0.031 A 
ATOM     61  C   UNL A   1      41.199  30.939  34.480  1.00  0.00     0.049 A 
ATOM     62  C   UNL A   1      43.852  28.723  30.085  1.00  0.00     0.074 A 
ATOM     63  C   UNL A   1      41.915  31.035  35.661  1.00  0.00     0.029 A 
ATOM     64  N   UNL A   1      42.054  30.393  33.535  1.00  0.00    -0.354 N 
ATOM     65  N   UNL A   1      43.367  29.217  31.199  1.00  0.00    -0.248 NA
ATOM     66  C   UNL A   1      45.276  28.362  30.160  1.00  0.00     0.031 C 
ATOM     67  C   UNL A   1      43.224  30.608  35.413  1.00  0.00     0.029 A 
ATOM     68  C   UNL A   1      43.301  30.175  34.098  1.00  0.00     0.049 A 
ATOM     69  H   UNL A   1      41.811  30.190  32.603  1.00  0.00     0.167 HD
ATOM     70  C   UNL A   1      44.414  29.195  32.114  1.00  0.00     0.074 A 
ATOM     71  C   UNL A   1      45.555  28.626  31.429  1.00  0.00     0.031 C 
ATOM     72  C   UNL A   1      44.429  29.608  33.406  1.00  0.00     0.031 A 
BRANCH  59  73
ATOM     73  C   UNL A   1      39.050  31.964  35.337  1.00  0.00    -0.014 A 
ATOM     74  C   UNL A   1      38.346  31.189  36.273  1.00  0.00     0.009 A 
ATOM     75  C   UNL A   1      39.031  33.362  35.462  1.00  0.00     0.009 A 
ATOM     76  C   UNL A   1      37.607  31.806  37.287  1.00  0.00     0.001 A 
ATOM     77  C   UNL A   1      38.319  33.973  36.494  1.00  0.00     0.001 A 
ATOM     78  C   UNL A   1      37.599  33.195  37.399  1.00  0.00     0.000 A 
ENDBRANCH  59  73
BRANCH  60  79
ATOM     79  C   UNL A   1      43.905  27.897  27.620  1.00  0.00    -0.014 A 
ATOM     80  C   UNL A   1      44.145  26.517  27.534  1.00  0.00     0.009 A 
ATOM     81  C   UNL A   1      44.404  28.733  26.609  1.00  0.00     0.009 A 
ATOM     82  C   UNL A   1      44.894  25.992  26.477  1.00  0.00     0.001 A 
ATOM     83  C   UNL A   1      45.123  28.203  25.535  1.00  0.00     0.001 A 
ATOM     84  C   UNL A   1      45.376  26.834  25.476  1.00  0.00     0.000 A 
ENDBRANCH  60  79
BRANCH  72  85
ATOM     85  C   UNL A   1      45.704  29.417  34.181  1.00  0.00    -0.014 A 
ATOM     86  C   UNL A   1      46.763  30.334  34.094  1.00  0.00     0.009 A 
ATOM     87  C   UNL A   1      45.828  28.321  35.051  1.00  0.00     0.009 A 
ATOM     88  C   UNL A   1      47.932  30.137  34.835  1.00  0.00     0.001 A 
ATOM     89  C   UNL A   1      46.982  28.145  35.816  1.00  0.00     0.001 A 
ATOM     90  C   UNL A   1      48.037  29.046  35.699  1.00  0.00     0.000 A 
ENDBRANCH  72  85
ENDBRANCH  46  47
ENDBRANCH  39  41
ENDBRANCH  38  39
ENDBRANCH  37  38
ENDBRANCH  36  37
ENDBRANCH  35  36
ENDBRANCH  34  35
ENDBRANCH  33  34
ENDBRANCH  32  33
ENDBRANCH  31  32
ENDBRANCH   1  31
TORSDOF 25
ENDMDL
MODEL 3
REMARK VINA RESULT:      -9.7      1.672      5.966
REMARK SMILES C[C@@H](C(=O)OCCOCCOCCOCCOC(=O)c1ccc(-c2c3nc(c(-c4ccccc4)c4ccc([nH]4)c(-c4ccccc4)c4nc(c(-c5ccccc5)c5ccc2[nH]5)C=C4)C=C3)cc1)c1ccc(-c2cccc(OC(=O)NC3CC3)c2)c(F)c1
REMARK SMILES IDX 9 1 8 2 7 3 6 4 5 5 3 6 4 7 2 8 1 9 68 10 69 11 87 12 70 13
REMARK SMILES IDX 85 14 71 15 86 16 72 17 73 18 84 19 74 20 76 21 75 22 77 23
REMARK SMILES IDX 78 24 79 25 80 26 81 28 82 29 83 30 10 31 11 32 12 33 13 34
REMARK SMILES IDX 14 35 15 36 16 37 17 38 18 39 19 40 20 41 21 42 67 43 22 44
REMARK SMILES IDX 66 45 23 46 24 47 25 48 60 49 26 50 65 51 59 52 61 53 27 54
REMARK SMILES IDX 64 55 58 56 57 57 28 59 50 60 35 61 49 62 36 63 39 64 48 65
REMARK SMILES IDX 62 66 37 67 38 68 47 70 63 71 40 72 29 73 30 74 34 75 31 76
REMARK SMILES IDX 33 77 32 78 51 79 52 80 56 81 53 82 55 83 54 84 41 85 42 86
REMARK SMILES IDX 46 87 43 88 45 89 44 90
REMARK H PARENT 80 27 61 58 39 69
REMARK Flexibility Score: inf
ROOT
ATOM      1  C   UNL A   1      31.712  22.130  25.569  1.00  0.00     0.188 C 
ENDROOT
BRANCH   1   2
ATOM      2  O   UNL A   1      32.256  21.624  24.368  1.00  0.00    -0.376 OA
BRANCH   2   3
ATOM      3  C   UNL A   1      32.492  22.469  23.252  1.00  0.00     0.202 C 
BRANCH   3   4
ATOM      4  C   UNL A   1      33.802  23.229  22.946  1.00  0.00     0.261 C 
BRANCH   4   5
ATOM      5  O   UNL A   1      34.753  23.347  24.009  1.00  0.00    -0.463 OA
BRANCH   5   6
ATOM      6  C   UNL A   1      35.957  22.751  23.848  1.00  0.00     0.313 C 
ATOM      7  O   UNL A   1      36.680  22.917  22.871  1.00  0.00    -0.252 OA
BRANCH   6   8
ATOM      8  C   UNL A   1      36.369  21.901  25.063  1.00  0.00     0.126 C 
ATOM      9  C   UNL A   1      35.235  21.746  26.090  1.00  0.00     0.025 C 
BRANCH   8  10
ATOM     10  C   UNL A   1      37.759  22.262  25.607  1.00  0.00    -0.031 A 
ATOM     11  C   UNL A   1      38.094  23.522  26.132  1.00  0.00     0.005 A 
ATOM     12  C   UNL A   1      38.755  21.272  25.652  1.00  0.00     0.044 A 
ATOM     13  C   UNL A   1      39.372  23.779  26.666  1.00  0.00     0.012 A 
ATOM     14  C   UNL A   1      40.022  21.533  26.177  1.00  0.00     0.131 A 
ATOM     15  C   UNL A   1      40.360  22.783  26.702  1.00  0.00     0.018 A 
ATOM     16  F   UNL A   1      40.915  20.531  26.188  1.00  0.00    -0.206 F 
BRANCH  15  17
ATOM     17  C   UNL A   1      41.694  23.025  27.275  1.00  0.00    -0.012 A 
ATOM     18  C   UNL A   1      41.858  23.302  28.642  1.00  0.00     0.009 A 
ATOM     19  C   UNL A   1      42.844  22.935  26.469  1.00  0.00     0.056 A 
ATOM     20  C   UNL A   1      43.133  23.466  29.194  1.00  0.00     0.004 A 
ATOM     21  C   UNL A   1      44.113  23.105  27.019  1.00  0.00     0.133 A 
ATOM     22  C   UNL A   1      44.261  23.366  28.383  1.00  0.00     0.047 A 
BRANCH  21  23
ATOM     23  O   UNL A   1      45.326  23.025  26.289  1.00  0.00    -0.410 OA
BRANCH  23  24
ATOM     24  C   UNL A   1      45.454  22.824  24.918  1.00  0.00     0.412 C 
ATOM     25  O   UNL A   1      45.579  23.700  24.067  1.00  0.00    -0.224 OA
ATOM     26  N   UNL A   1      45.418  21.508  24.536  1.00  0.00    -0.318 N 
ATOM     27  H   UNL A   1      45.452  21.356  23.564  1.00  0.00     0.167 HD
BRANCH  26  28
ATOM     28  C   UNL A   1      45.343  20.324  25.325  1.00  0.00     0.085 C 
ATOM     29  C   UNL A   1      45.028  18.936  24.847  1.00  0.00     0.027 C 
ATOM     30  C   UNL A   1      46.442  19.299  25.183  1.00  0.00     0.027 C 
ENDBRANCH  26  28
ENDBRANCH  23  24
ENDBRANCH  21  23
ENDBRANCH  15  17
ENDBRANCH   8  10
ENDBRANCH   6   8
ENDBRANCH   5   6
ENDBRANCH   4   5
ENDBRANCH   3   4
ENDBRANCH   2   3
ENDBRANCH   1   2
BRANCH   1  31
ATOM     31  C   UNL A   1      30.791  23.352  25.431  1.00  0.00     0.188 C 
BRANCH  31  32
ATOM     32  O   UNL A   1      31.101  24.459  26.259  1.00  0.00    -0.377 OA
BRANCH  32  33
ATOM     33  C   UNL A   1      30.351  25.660  26.115  1.00  0.00     0.188 C 
BRANCH  33  34
ATOM     34  C   UNL A   1      31.011  27.051  26.241  1.00  0.00     0.188 C 
BRANCH  34  35
ATOM     35  O   UNL A   1      31.584  27.557  25.049  1.00  0.00    -0.376 OA
BRANCH  35  36
ATOM     36  C   UNL A   1      31.211  28.853  24.610  1.00  0.00     0.202 C 
BRANCH  36  37
ATOM     37  C   UNL A   1      32.064  30.037  25.092  1.00  0.00     0.261 C 
BRANCH  37  38
ATOM     38  O   UNL A   1      32.194  30.189  26.514  1.00  0.00    -0.460 OA
BRANCH  38  39
ATOM     39  C   UNL A   1      32.627  31.381  26.982  1.00  0.00     0.338 C 
ATOM     40  O   UNL A   1      31.992  32.408  27.089  1.00  0.00    -0.246 OA
BRANCH  39  41
ATOM     41  C   UNL A   1      33.985  31.175  27.534  1.00  0.00     0.060 A 
ATOM     42  C   UNL A   1      34.461  29.866  27.687  1.00  0.00     0.016 A 
ATOM     43  C   UNL A   1      34.778  32.265  27.899  1.00  0.00     0.016 A 
ATOM     44  C   UNL A   1      35.720  29.642  28.246  1.00  0.00     0.010 A 
ATOM     45  C   UNL A   1      36.029  32.038  28.478  1.00  0.00     0.010 A 
ATOM     46  C   UNL A   1      36.489  30.725  28.688  1.00  0.00    -0.014 A 
BRANCH  46  47
ATOM     47  C   UNL A   1      37.669  30.484  29.554  1.00  0.00     0.031 A 
ATOM     48  C   UNL A   1      38.853  29.768  28.962  1.00  0.00     0.074 A 
ATOM     49  C   UNL A   1      37.706  30.906  30.830  1.00  0.00     0.049 A 
ATOM     50  N   UNL A   1      39.972  29.399  29.531  1.00  0.00    -0.248 NA
ATOM     51  C   UNL A   1      38.758  29.421  27.534  1.00  0.00     0.031 C 
ATOM     52  C   UNL A   1      36.650  31.656  31.506  1.00  0.00     0.029 A 
ATOM     53  N   UNL A   1      38.679  30.753  31.786  1.00  0.00    -0.354 N 
ATOM     54  C   UNL A   1      40.708  28.769  28.534  1.00  0.00     0.074 A 
ATOM     55  C   UNL A   1      39.897  28.776  27.337  1.00  0.00     0.031 C 
ATOM     56  C   UNL A   1      37.029  31.889  32.776  1.00  0.00     0.029 A 
ATOM     57  C   UNL A   1      38.334  31.272  33.009  1.00  0.00     0.049 A 
ATOM     58  H   UNL A   1      39.543  30.313  31.611  1.00  0.00     0.167 HD
ATOM     59  C   UNL A   1      41.952  28.238  28.605  1.00  0.00     0.031 A 
ATOM     60  C   UNL A   1      38.986  31.230  34.188  1.00  0.00     0.031 A 
ATOM     61  C   UNL A   1      42.750  28.212  29.801  1.00  0.00     0.049 A 
ATOM     62  C   UNL A   1      40.328  30.548  34.268  1.00  0.00     0.074 A 
ATOM     63  C   UNL A   1      44.024  27.700  29.976  1.00  0.00     0.029 A 
ATOM     64  N   UNL A   1      42.345  28.709  31.031  1.00  0.00    -0.354 N 
ATOM     65  N   UNL A   1      41.024  29.973  33.316  1.00  0.00    -0.248 NA
ATOM     66  C   UNL A   1      40.978  30.518  35.587  1.00  0.00     0.031 C 
ATOM     67  C   UNL A   1      44.363  27.828  31.327  1.00  0.00     0.029 A 
ATOM     68  C   UNL A   1      43.333  28.488  31.977  1.00  0.00     0.049 A 
ATOM     69  H   UNL A   1      41.484  29.153  31.205  1.00  0.00     0.167 HD
ATOM     70  C   UNL A   1      42.205  29.544  33.914  1.00  0.00     0.074 A 
ATOM     71  C   UNL A   1      42.136  29.939  35.305  1.00  0.00     0.031 C 
ATOM     72  C   UNL A   1      43.252  28.885  33.359  1.00  0.00     0.031 A 
BRANCH  59  73
ATOM     73  C   UNL A   1      42.504  27.604  27.358  1.00  0.00    -0.014 A 
ATOM     74  C   UNL A   1      41.788  26.621  26.656  1.00  0.00     0.009 A 
ATOM     75  C   UNL A   1      43.755  28.012  26.867  1.00  0.00     0.009 A 
ATOM     76  C   UNL A   1      42.331  26.034  25.511  1.00  0.00     0.001 A 
ATOM     77  C   UNL A   1      44.279  27.446  25.705  1.00  0.00     0.001 A 
ATOM     78  C   UNL A   1      43.572  26.451  25.034  1.00  0.00     0.000 A 
ENDBRANCH  59  73
BRANCH  60  79
ATOM     79  C   UNL A   1      38.367  31.823  35.405  1.00  0.00    -0.014 A 
ATOM     80  C   UNL A   1      38.195  31.061  36.570  1.00  0.00     0.009 A 
ATOM     81  C   UNL A   1      37.923  33.155  35.398  1.00  0.00     0.009 A 
ATOM     82  C   UNL A   1      37.565  31.610  37.690  1.00  0.00     0.001 A 
ATOM     83  C   UNL A   1      37.324  33.712  36.530  1.00  0.00     0.001 A 
ATOM     84  C   UNL A   1      37.137  32.936  37.672  1.00  0.00     0.000 A 
ENDBRANCH  60  79
BRANCH  72  85
ATOM     85  C   UNL A   1      44.433  28.588  34.244  1.00  0.00    -0.014 A 
ATOM     86  C   UNL A   1      45.332  29.593  34.635  1.00  0.00     0.009 A 
ATOM     87  C   UNL A   1      44.620  27.284  34.733  1.00  0.00     0.009 A 
ATOM     88  C   UNL A   1      46.413  29.289  35.466  1.00  0.00     0.001 A 
ATOM     89  C   UNL A   1      45.680  26.991  35.591  1.00  0.00     0.001 A 
ATOM     90  C   UNL A   1      46.582  27.991  35.948  1.00  0.00     0.000 A 
ENDBRANCH  72  85
ENDBRANCH  46  47
ENDBRANCH  39  41
ENDBRANCH  38  39
ENDBRANCH  37  38
ENDBRANCH  36  37
ENDBRANCH  35  36
ENDBRANCH  34  35
ENDBRANCH  33  34
ENDBRANCH  32  33
ENDBRANCH  31  32
ENDBRANCH   1  31
TORSDOF 25
ENDMDL
