MODEL 1
REMARK VINA RESULT:      -9.1      0.000      0.000
REMARK SMILES CS(=O)(=O)c1ccc(-c2cc(Cl)cc3c2O[C@@H](C(F)(F)F)C(C(=O)OCCOCCOCCOCCOC(=O)c2ccc(-c4c5nc(c(-c6ccccc6)c6ccc([nH]6)c(-c6ccccc6)c6nc(c(-c7ccccc7)c7ccc4[nH]7)C=C6)C=C5)cc2)=C3)cc1
REMARK SMILES IDX 31 1 30 2 29 3 28 4 27 5 26 6 25 7 23 8 24 9 22 10 9 11
REMARK SMILES IDX 10 12 15 13 11 14 14 15 16 16 12 17 13 18 88 19 17 20 8 21
REMARK SMILES IDX 5 22 6 23 90 24 7 25 89 26 2 27 1 28 3 29 4 30 18 31 19 32
REMARK SMILES IDX 20 33 21 34 32 35 33 36 34 37 35 38 36 39 37 40 38 41 39 42
REMARK SMILES IDX 40 43 41 44 87 45 42 46 86 47 43 48 44 49 45 50 80 51 46 52
REMARK SMILES IDX 85 53 79 54 81 55 47 56 84 57 78 58 77 59 48 61 70 62 55 63
REMARK SMILES IDX 69 64 56 65 59 66 68 67 82 68 57 69 58 70 67 72 83 73 60 74
REMARK SMILES IDX 49 75 50 76 54 77 51 78 53 79 52 80 71 81 72 82 76 83 73 84
REMARK SMILES IDX 75 85 74 86 61 87 62 88 66 89 63 90 65 91 64 92
REMARK H PARENT 81 60 59 71
REMARK Flexibility Score: inf
ROOT
ATOM      1  O   UNL A   1      42.179  19.088  25.367  1.00  0.00    -0.377 OA
ENDROOT
BRANCH   1   2
ATOM      2  C   UNL A   1      43.430  19.723  25.550  1.00  0.00     0.188 C 
BRANCH   2   3
ATOM      3  C   UNL A   1      44.481  19.284  24.522  1.00  0.00     0.188 C 
BRANCH   3   4
ATOM      4  O   UNL A   1      45.532  20.227  24.329  1.00  0.00    -0.376 OA
BRANCH   4   5
ATOM      5  C   UNL A   1      45.171  21.579  24.059  1.00  0.00     0.202 C 
BRANCH   5   6
ATOM      6  C   UNL A   1      46.157  22.671  24.489  1.00  0.00     0.261 C 
BRANCH   6   7
ATOM      7  O   UNL A   1      46.150  22.814  25.928  1.00  0.00    -0.460 OA
BRANCH   7   8
ATOM      8  C   UNL A   1      46.655  23.963  26.404  1.00  0.00     0.338 C 
ATOM      9  O   UNL A   1      47.616  24.043  27.158  1.00  0.00    -0.246 OA
BRANCH   8  10
ATOM     10  C   UNL A   1      46.043  25.159  25.775  1.00  0.00     0.087 C 
ATOM     11  C   UNL A   1      46.115  28.659  28.005  1.00  0.00     0.026 A 
ATOM     12  C   UNL A   1      46.193  28.266  29.361  1.00  0.00     0.033 A 
ATOM     13  C   UNL A   1      45.976  27.607  27.078  1.00  0.00     0.135 A 
ATOM     14  C   UNL A   1      45.768  27.001  29.763  1.00  0.00     0.042 A 
ATOM     15  C   UNL A   1      45.328  26.431  27.485  1.00  0.00     0.019 A 
ATOM     16  O   UNL A   1      46.729  27.593  25.906  1.00  0.00    -0.475 OA
ATOM     17  Cl  UNL A   1      45.832  26.569  31.424  1.00  0.00    -0.084 Cl
ATOM     18  C   UNL A   1      45.228  26.120  28.836  1.00  0.00     0.032 A 
ATOM     19  C   UNL A   1      44.916  25.468  26.443  1.00  0.00     0.027 C 
ATOM     20  C   UNL A   1      46.724  26.336  25.098  1.00  0.00     0.316 C 
BRANCH  11  21
ATOM     21  C   UNL A   1      45.479  30.014  27.818  1.00  0.00    -0.015 A 
ATOM     22  C   UNL A   1      44.828  32.477  26.552  1.00  0.00     0.067 A 
ATOM     23  C   UNL A   1      43.965  31.382  26.450  1.00  0.00     0.021 A 
ATOM     24  C   UNL A   1      45.951  32.397  27.371  1.00  0.00     0.021 A 
ATOM     25  C   UNL A   1      44.282  30.170  27.088  1.00  0.00     0.010 A 
ATOM     26  C   UNL A   1      46.262  31.178  28.002  1.00  0.00     0.010 A 
BRANCH  22  27
ATOM     27  S   UNL A   1      44.494  33.899  25.528  1.00  0.00     0.175 S 
ATOM     28  C   UNL A   1      45.960  34.887  25.468  1.00  0.00     0.163 C 
ATOM     29  O   UNL A   1      43.485  34.679  26.219  1.00  0.00    -0.224 OA
ATOM     30  O   UNL A   1      44.258  33.388  24.190  1.00  0.00    -0.224 OA
ENDBRANCH  22  27
ENDBRANCH  11  21
BRANCH  20  31
ATOM     31  C   UNL A   1      48.017  26.064  24.286  1.00  0.00     0.430 C 
ATOM     32  F   UNL A   1      48.149  27.012  23.319  1.00  0.00    -0.167 F 
ATOM     33  F   UNL A   1      49.119  26.158  25.068  1.00  0.00    -0.167 F 
ATOM     34  F   UNL A   1      48.083  24.881  23.659  1.00  0.00    -0.167 F 
ENDBRANCH  20  31
ENDBRANCH   8  10
ENDBRANCH   7   8
ENDBRANCH   6   7
ENDBRANCH   5   6
ENDBRANCH   4   5
ENDBRANCH   3   4
ENDBRANCH   2   3
ENDBRANCH   1   2
BRANCH   1  35
ATOM     35  C   UNL A   1      41.062  19.618  26.075  1.00  0.00     0.188 C 
BRANCH  35  36
ATOM     36  C   UNL A   1      41.202  20.208  27.497  1.00  0.00     0.188 C 
BRANCH  36  37
ATOM     37  O   UNL A   1      40.419  21.377  27.730  1.00  0.00    -0.376 OA
BRANCH  37  38
ATOM     38  C   UNL A   1      40.109  22.181  26.602  1.00  0.00     0.202 C 
BRANCH  38  39
ATOM     39  C   UNL A   1      40.993  23.427  26.469  1.00  0.00     0.261 C 
BRANCH  39  40
ATOM     40  O   UNL A   1      40.277  24.651  26.240  1.00  0.00    -0.460 OA
BRANCH  40  41
ATOM     41  C   UNL A   1      41.007  25.774  26.075  1.00  0.00     0.338 C 
ATOM     42  O   UNL A   1      41.460  26.219  25.034  1.00  0.00    -0.246 OA
BRANCH  41  43
ATOM     43  C   UNL A   1      41.005  26.497  27.360  1.00  0.00     0.060 A 
ATOM     44  C   UNL A   1      40.064  26.144  28.337  1.00  0.00     0.016 A 
ATOM     45  C   UNL A   1      41.955  27.490  27.613  1.00  0.00     0.016 A 
ATOM     46  C   UNL A   1      40.054  26.807  29.563  1.00  0.00     0.010 A 
ATOM     47  C   UNL A   1      41.929  28.167  28.832  1.00  0.00     0.010 A 
ATOM     48  C   UNL A   1      40.961  27.848  29.800  1.00  0.00    -0.014 A 
BRANCH  48  49
ATOM     49  C   UNL A   1      40.779  28.745  30.962  1.00  0.00     0.031 A 
ATOM     50  C   UNL A   1      39.720  29.808  30.875  1.00  0.00     0.074 A 
ATOM     51  C   UNL A   1      41.547  28.640  32.059  1.00  0.00     0.049 A 
ATOM     52  N   UNL A   1      39.422  30.754  31.726  1.00  0.00    -0.248 NA
ATOM     53  C   UNL A   1      38.889  29.801  29.659  1.00  0.00     0.031 C 
ATOM     54  C   UNL A   1      42.582  27.632  32.280  1.00  0.00     0.029 A 
ATOM     55  N   UNL A   1      41.576  29.411  33.194  1.00  0.00    -0.354 N 
ATOM     56  C   UNL A   1      38.371  31.456  31.148  1.00  0.00     0.074 A 
ATOM     57  C   UNL A   1      38.104  30.847  29.864  1.00  0.00     0.031 C 
ATOM     58  C   UNL A   1      43.160  27.858  33.474  1.00  0.00     0.029 A 
ATOM     59  C   UNL A   1      42.558  29.044  34.082  1.00  0.00     0.049 A 
ATOM     60  H   UNL A   1      40.955  30.157  33.356  1.00  0.00     0.167 HD
ATOM     61  C   UNL A   1      37.688  32.515  31.643  1.00  0.00     0.031 A 
ATOM     62  C   UNL A   1      42.940  29.619  35.239  1.00  0.00     0.031 A 
ATOM     63  C   UNL A   1      37.975  33.144  32.901  1.00  0.00     0.049 A 
ATOM     64  C   UNL A   1      42.226  30.854  35.725  1.00  0.00     0.074 A 
ATOM     65  C   UNL A   1      37.337  34.219  33.493  1.00  0.00     0.029 A 
ATOM     66  N   UNL A   1      38.997  32.762  33.756  1.00  0.00    -0.354 N 
ATOM     67  N   UNL A   1      41.213  31.490  35.189  1.00  0.00    -0.248 NA
ATOM     68  C   UNL A   1      42.710  31.448  36.980  1.00  0.00     0.031 C 
ATOM     69  C   UNL A   1      38.008  34.523  34.681  1.00  0.00     0.029 A 
ATOM     70  C   UNL A   1      39.026  33.600  34.857  1.00  0.00     0.049 A 
ATOM     71  H   UNL A   1      39.610  32.007  33.603  1.00  0.00     0.167 HD
ATOM     72  C   UNL A   1      40.922  32.541  36.052  1.00  0.00     0.074 A 
ATOM     73  C   UNL A   1      41.858  32.449  37.154  1.00  0.00     0.031 C 
ATOM     74  C   UNL A   1      39.965  33.494  35.944  1.00  0.00     0.031 A 
BRANCH  61  75
ATOM     75  C   UNL A   1      36.588  33.075  30.788  1.00  0.00    -0.014 A 
ATOM     76  C   UNL A   1      35.245  32.734  31.015  1.00  0.00     0.009 A 
ATOM     77  C   UNL A   1      36.900  33.963  29.747  1.00  0.00     0.009 A 
ATOM     78  C   UNL A   1      34.239  33.245  30.193  1.00  0.00     0.001 A 
ATOM     79  C   UNL A   1      35.888  34.493  28.945  1.00  0.00     0.001 A 
ATOM     80  C   UNL A   1      34.561  34.126  29.161  1.00  0.00     0.000 A 
ENDBRANCH  61  75
BRANCH  62  81
ATOM     81  C   UNL A   1      44.079  29.056  36.010  1.00  0.00    -0.014 A 
ATOM     82  C   UNL A   1      43.873  28.037  36.954  1.00  0.00     0.009 A 
ATOM     83  C   UNL A   1      45.378  29.556  35.827  1.00  0.00     0.009 A 
ATOM     84  C   UNL A   1      44.940  27.548  37.713  1.00  0.00     0.001 A 
ATOM     85  C   UNL A   1      46.447  29.047  36.567  1.00  0.00     0.001 A 
ATOM     86  C   UNL A   1      46.226  28.050  37.516  1.00  0.00     0.000 A 
ENDBRANCH  62  81
BRANCH  74  87
ATOM     87  C   UNL A   1      39.856  34.497  37.059  1.00  0.00    -0.014 A 
ATOM     88  C   UNL A   1      40.472  35.754  36.972  1.00  0.00     0.009 A 
ATOM     89  C   UNL A   1      39.075  34.197  38.186  1.00  0.00     0.009 A 
ATOM     90  C   UNL A   1      40.329  36.682  38.007  1.00  0.00     0.001 A 
ATOM     91  C   UNL A   1      38.911  35.136  39.205  1.00  0.00     0.001 A 
ATOM     92  C   UNL A   1      39.544  36.375  39.118  1.00  0.00     0.000 A 
ENDBRANCH  74  87
ENDBRANCH  48  49
ENDBRANCH  41  43
ENDBRANCH  40  41
ENDBRANCH  39  40
ENDBRANCH  38  39
ENDBRANCH  37  38
ENDBRANCH  36  37
ENDBRANCH  35  36
ENDBRANCH   1  35
TORSDOF 23
ENDMDL
MODEL 2
REMARK VINA RESULT:      -8.5      4.986      9.933
REMARK SMILES CS(=O)(=O)c1ccc(-c2cc(Cl)cc3c2O[C@@H](C(F)(F)F)C(C(=O)OCCOCCOCCOCCOC(=O)c2ccc(-c4c5nc(c(-c6ccccc6)c6ccc([nH]6)c(-c6ccccc6)c6nc(c(-c7ccccc7)c7ccc4[nH]7)C=C6)C=C5)cc2)=C3)cc1
REMARK SMILES IDX 31 1 30 2 29 3 28 4 27 5 26 6 25 7 23 8 24 9 22 10 9 11
REMARK SMILES IDX 10 12 15 13 11 14 14 15 16 16 12 17 13 18 88 19 17 20 8 21
REMARK SMILES IDX 5 22 6 23 90 24 7 25 89 26 2 27 1 28 3 29 4 30 18 31 19 32
REMARK SMILES IDX 20 33 21 34 32 35 33 36 34 37 35 38 36 39 37 40 38 41 39 42
REMARK SMILES IDX 40 43 41 44 87 45 42 46 86 47 43 48 44 49 45 50 80 51 46 52
REMARK SMILES IDX 85 53 79 54 81 55 47 56 84 57 78 58 77 59 48 61 70 62 55 63
REMARK SMILES IDX 69 64 56 65 59 66 68 67 82 68 57 69 58 70 67 72 83 73 60 74
REMARK SMILES IDX 49 75 50 76 54 77 51 78 53 79 52 80 71 81 72 82 76 83 73 84
REMARK SMILES IDX 75 85 74 86 61 87 62 88 66 89 63 90 65 91 64 92
REMARK H PARENT 81 60 59 71
REMARK Flexibility Score: inf
ROOT
ATOM      1  O   UNL A   1      30.160  28.206  23.495  1.00  0.00    -0.377 OA
ENDROOT
BRANCH   1   2
ATOM      2  C   UNL A   1      31.052  27.694  22.523  1.00  0.00     0.188 C 
BRANCH   2   3
ATOM      3  C   UNL A   1      31.759  26.410  22.976  1.00  0.00     0.188 C 
BRANCH   3   4
ATOM      4  O   UNL A   1      32.514  26.556  24.175  1.00  0.00    -0.376 OA
BRANCH   4   5
ATOM      5  C   UNL A   1      32.756  25.387  24.955  1.00  0.00     0.202 C 
BRANCH   5   6
ATOM      6  C   UNL A   1      33.467  24.216  24.267  1.00  0.00     0.261 C 
BRANCH   6   7
ATOM      7  O   UNL A   1      34.894  24.441  24.242  1.00  0.00    -0.460 OA
BRANCH   7   8
ATOM      8  C   UNL A   1      35.602  23.815  25.196  1.00  0.00     0.338 C 
ATOM      9  O   UNL A   1      35.313  23.805  26.385  1.00  0.00    -0.246 OA
BRANCH   8  10
ATOM     10  C   UNL A   1      36.686  22.970  24.638  1.00  0.00     0.087 C 
ATOM     11  C   UNL A   1      39.908  22.212  27.143  1.00  0.00     0.026 A 
ATOM     12  C   UNL A   1      39.952  23.279  28.070  1.00  0.00     0.033 A 
ATOM     13  C   UNL A   1      38.937  22.332  26.130  1.00  0.00     0.135 A 
ATOM     14  C   UNL A   1      39.368  24.508  27.772  1.00  0.00     0.042 A 
ATOM     15  C   UNL A   1      38.554  23.615  25.711  1.00  0.00     0.019 A 
ATOM     16  O   UNL A   1      38.145  21.241  25.776  1.00  0.00    -0.475 OA
ATOM     17  Cl  UNL A   1      39.477  25.800  28.898  1.00  0.00    -0.084 Cl
ATOM     18  C   UNL A   1      38.764  24.712  26.539  1.00  0.00     0.032 A 
ATOM     19  C   UNL A   1      37.779  23.735  24.458  1.00  0.00     0.027 C 
ATOM     20  C   UNL A   1      36.974  21.499  24.886  1.00  0.00     0.316 C 
BRANCH  11  21
ATOM     21  C   UNL A   1      41.252  21.563  26.927  1.00  0.00    -0.015 A 
ATOM     22  C   UNL A   1      43.537  20.619  25.517  1.00  0.00     0.067 A 
ATOM     23  C   UNL A   1      43.560  21.870  26.140  1.00  0.00     0.021 A 
ATOM     24  C   UNL A   1      42.435  19.785  25.683  1.00  0.00     0.021 A 
ATOM     25  C   UNL A   1      42.434  22.328  26.848  1.00  0.00     0.010 A 
ATOM     26  C   UNL A   1      41.311  20.254  26.391  1.00  0.00     0.010 A 
BRANCH  22  27
ATOM     27  S   UNL A   1      44.894  20.201  24.438  1.00  0.00     0.175 S 
ATOM     28  C   UNL A   1      45.906  19.010  25.267  1.00  0.00     0.163 C 
ATOM     29  O   UNL A   1      45.690  21.405  24.291  1.00  0.00    -0.224 OA
ATOM     30  O   UNL A   1      44.308  19.546  23.283  1.00  0.00    -0.224 OA
ENDBRANCH  22  27
ENDBRANCH  11  21
BRANCH  20  31
ATOM     31  C   UNL A   1      35.769  20.543  25.079  1.00  0.00     0.430 C 
ATOM     32  F   UNL A   1      36.191  19.255  24.955  1.00  0.00    -0.167 F 
ATOM     33  F   UNL A   1      35.246  20.654  26.324  1.00  0.00    -0.167 F 
ATOM     34  F   UNL A   1      34.755  20.687  24.215  1.00  0.00    -0.167 F 
ENDBRANCH  20  31
ENDBRANCH   8  10
ENDBRANCH   7   8
ENDBRANCH   6   7
ENDBRANCH   5   6
ENDBRANCH   4   5
ENDBRANCH   3   4
ENDBRANCH   2   3
ENDBRANCH   1   2
BRANCH   1  35
ATOM     35  C   UNL A   1      29.333  29.302  23.116  1.00  0.00     0.188 C 
BRANCH  35  36
ATOM     36  C   UNL A   1      29.521  30.713  23.719  1.00  0.00     0.188 C 
BRANCH  36  37
ATOM     37  O   UNL A   1      30.445  30.773  24.803  1.00  0.00    -0.376 OA
BRANCH  37  38
ATOM     38  C   UNL A   1      30.603  32.029  25.448  1.00  0.00     0.202 C 
BRANCH  38  39
ATOM     39  C   UNL A   1      31.293  31.939  26.814  1.00  0.00     0.261 C 
BRANCH  39  40
ATOM     40  O   UNL A   1      32.695  31.633  26.761  1.00  0.00    -0.460 OA
BRANCH  40  41
ATOM     41  C   UNL A   1      33.060  30.358  27.013  1.00  0.00     0.338 C 
ATOM     42  O   UNL A   1      32.461  29.340  26.710  1.00  0.00    -0.246 OA
BRANCH  41  43
ATOM     43  C   UNL A   1      34.431  30.389  27.556  1.00  0.00     0.060 A 
ATOM     44  C   UNL A   1      35.087  29.177  27.811  1.00  0.00     0.016 A 
ATOM     45  C   UNL A   1      35.078  31.609  27.773  1.00  0.00     0.016 A 
ATOM     46  C   UNL A   1      36.389  29.185  28.313  1.00  0.00     0.010 A 
ATOM     47  C   UNL A   1      36.371  31.614  28.295  1.00  0.00     0.010 A 
ATOM     48  C   UNL A   1      37.020  30.404  28.594  1.00  0.00    -0.014 A 
BRANCH  48  49
ATOM     49  C   UNL A   1      38.268  30.430  29.388  1.00  0.00     0.031 A 
ATOM     50  C   UNL A   1      39.475  29.730  28.829  1.00  0.00     0.074 A 
ATOM     51  C   UNL A   1      38.329  31.037  30.585  1.00  0.00     0.049 A 
ATOM     52  N   UNL A   1      40.653  29.551  29.366  1.00  0.00    -0.248 NA
ATOM     53  C   UNL A   1      39.327  29.150  27.483  1.00  0.00     0.031 C 
ATOM     54  C   UNL A   1      37.241  31.779  31.219  1.00  0.00     0.029 A 
ATOM     55  N   UNL A   1      39.360  31.108  31.488  1.00  0.00    -0.354 N 
ATOM     56  C   UNL A   1      41.386  28.838  28.426  1.00  0.00     0.074 A 
ATOM     57  C   UNL A   1      40.512  28.591  27.299  1.00  0.00     0.031 C 
ATOM     58  C   UNL A   1      37.657  32.217  32.421  1.00  0.00     0.029 A 
ATOM     59  C   UNL A   1      39.026  31.758  32.651  1.00  0.00     0.049 A 
ATOM     60  H   UNL A   1      40.252  30.730  31.318  1.00  0.00     0.167 HD
ATOM     61  C   UNL A   1      42.673  28.424  28.492  1.00  0.00     0.031 A 
ATOM     62  C   UNL A   1      39.739  31.936  33.780  1.00  0.00     0.031 A 
ATOM     63  C   UNL A   1      43.531  28.636  29.623  1.00  0.00     0.049 A 
ATOM     64  C   UNL A   1      41.139  31.385  33.868  1.00  0.00     0.074 A 
ATOM     65  C   UNL A   1      44.852  28.260  29.786  1.00  0.00     0.029 A 
ATOM     66  N   UNL A   1      43.146  29.271  30.794  1.00  0.00    -0.354 N 
ATOM     67  N   UNL A   1      41.834  30.741  32.962  1.00  0.00    -0.248 NA
ATOM     68  C   UNL A   1      41.853  31.588  35.138  1.00  0.00     0.031 C 
ATOM     69  C   UNL A   1      45.251  28.618  31.077  1.00  0.00     0.029 A 
ATOM     70  C   UNL A   1      44.196  29.270  31.696  1.00  0.00     0.049 A 
ATOM     71  H   UNL A   1      42.258  29.663  30.959  1.00  0.00     0.167 HD
ATOM     72  C   UNL A   1      43.073  30.487  33.540  1.00  0.00     0.074 A 
ATOM     73  C   UNL A   1      43.038  31.057  34.871  1.00  0.00     0.031 C 
ATOM     74  C   UNL A   1      44.143  29.842  33.017  1.00  0.00     0.031 A 
BRANCH  61  75
ATOM     75  C   UNL A   1      43.207  27.664  27.312  1.00  0.00    -0.014 A 
ATOM     76  C   UNL A   1      44.149  28.237  26.443  1.00  0.00     0.009 A 
ATOM     77  C   UNL A   1      42.766  26.354  27.072  1.00  0.00     0.009 A 
ATOM     78  C   UNL A   1      44.613  27.524  25.336  1.00  0.00     0.001 A 
ATOM     79  C   UNL A   1      43.253  25.634  25.979  1.00  0.00     0.001 A 
ATOM     80  C   UNL A   1      44.167  26.223  25.108  1.00  0.00     0.000 A 
ENDBRANCH  61  75
BRANCH  62  81
ATOM     81  C   UNL A   1      39.134  32.641  34.941  1.00  0.00    -0.014 A 
ATOM     82  C   UNL A   1      39.360  34.012  35.144  1.00  0.00     0.009 A 
ATOM     83  C   UNL A   1      38.349  31.939  35.868  1.00  0.00     0.009 A 
ATOM     84  C   UNL A   1      38.832  34.658  36.265  1.00  0.00     0.001 A 
ATOM     85  C   UNL A   1      37.799  32.593  36.973  1.00  0.00     0.001 A 
ATOM     86  C   UNL A   1      38.049  33.949  37.175  1.00  0.00     0.000 A 
ENDBRANCH  62  81
BRANCH  74  87
ATOM     87  C   UNL A   1      45.379  29.745  33.868  1.00  0.00    -0.014 A 
ATOM     88  C   UNL A   1      45.703  28.563  34.550  1.00  0.00     0.009 A 
ATOM     89  C   UNL A   1      46.260  30.835  33.936  1.00  0.00     0.009 A 
ATOM     90  C   UNL A   1      46.875  28.486  35.308  1.00  0.00     0.001 A 
ATOM     91  C   UNL A   1      47.443  30.745  34.672  1.00  0.00     0.001 A 
ATOM     92  C   UNL A   1      47.745  29.574  35.363  1.00  0.00     0.000 A 
ENDBRANCH  74  87
ENDBRANCH  48  49
ENDBRANCH  41  43
ENDBRANCH  40  41
ENDBRANCH  39  40
ENDBRANCH  38  39
ENDBRANCH  37  38
ENDBRANCH  36  37
ENDBRANCH  35  36
ENDBRANCH   1  35
TORSDOF 23
ENDMDL
MODEL 3
REMARK VINA RESULT:      -8.4      6.712     13.566
REMARK SMILES CS(=O)(=O)c1ccc(-c2cc(Cl)cc3c2O[C@@H](C(F)(F)F)C(C(=O)OCCOCCOCCOCCOC(=O)c2ccc(-c4c5nc(c(-c6ccccc6)c6ccc([nH]6)c(-c6ccccc6)c6nc(c(-c7ccccc7)c7ccc4[nH]7)C=C6)C=C5)cc2)=C3)cc1
REMARK SMILES IDX 31 1 30 2 29 3 28 4 27 5 26 6 25 7 23 8 24 9 22 10 9 11
REMARK SMILES IDX 10 12 15 13 11 14 14 15 16 16 12 17 13 18 88 19 17 20 8 21
REMARK SMILES IDX 5 22 6 23 90 24 7 25 89 26 2 27 1 28 3 29 4 30 18 31 19 32
REMARK SMILES IDX 20 33 21 34 32 35 33 36 34 37 35 38 36 39 37 40 38 41 39 42
REMARK SMILES IDX 40 43 41 44 87 45 42 46 86 47 43 48 44 49 45 50 80 51 46 52
REMARK SMILES IDX 85 53 79 54 81 55 47 56 84 57 78 58 77 59 48 61 70 62 55 63
REMARK SMILES IDX 69 64 56 65 59 66 68 67 82 68 57 69 58 70 67 72 83 73 60 74
REMARK SMILES IDX 49 75 50 76 54 77 51 78 53 79 52 80 71 81 72 82 76 83 73 84
REMARK SMILES IDX 75 85 74 86 61 87 62 88 66 89 63 90 65 91 64 92
REMARK H PARENT 81 60 59 71
REMARK Flexibility Score: inf
ROOT
ATOM      1  O   UNL A   1      34.086  33.471  29.667  1.00  0.00    -0.377 OA
ENDROOT
BRANCH   1   2
ATOM      2  C   UNL A   1      34.738  32.328  29.146  1.00  0.00     0.188 C 
BRANCH   2   3
ATOM      3  C   UNL A   1      34.039  31.751  27.908  1.00  0.00     0.188 C 
BRANCH   3   4
ATOM      4  O   UNL A   1      34.544  30.484  27.496  1.00  0.00    -0.376 OA
BRANCH   4   5
ATOM      5  C   UNL A   1      33.617  29.536  26.972  1.00  0.00     0.202 C 
BRANCH   5   6
ATOM      6  C   UNL A   1      33.774  29.135  25.501  1.00  0.00     0.261 C 
BRANCH   6   7
ATOM      7  O   UNL A   1      32.515  28.662  24.972  1.00  0.00    -0.460 OA
BRANCH   7   8
ATOM      8  C   UNL A   1      32.209  27.384  25.245  1.00  0.00     0.338 C 
ATOM      9  O   UNL A   1      31.147  27.007  25.723  1.00  0.00    -0.246 OA
BRANCH   8  10
ATOM     10  C   UNL A   1      33.229  26.434  24.737  1.00  0.00     0.087 C 
ATOM     11  C   UNL A   1      32.040  22.474  24.369  1.00  0.00     0.026 A 
ATOM     12  C   UNL A   1      30.980  22.288  25.287  1.00  0.00     0.033 A 
ATOM     13  C   UNL A   1      32.660  23.738  24.409  1.00  0.00     0.135 A 
ATOM     14  C   UNL A   1      30.836  23.129  26.389  1.00  0.00     0.042 A 
ATOM     15  C   UNL A   1      32.679  24.442  25.623  1.00  0.00     0.019 A 
ATOM     16  O   UNL A   1      32.960  24.417  23.230  1.00  0.00    -0.475 OA
ATOM     17  Cl  UNL A   1      29.567  22.851  27.512  1.00  0.00    -0.084 Cl
ATOM     18  C   UNL A   1      31.757  24.141  26.619  1.00  0.00     0.032 A 
ATOM     19  C   UNL A   1      33.582  25.605  25.738  1.00  0.00     0.027 C 
ATOM     20  C   UNL A   1      33.377  25.847  23.344  1.00  0.00     0.316 C 
BRANCH  11  21
ATOM     21  C   UNL A   1      32.784  21.198  24.060  1.00  0.00    -0.015 A 
ATOM     22  C   UNL A   1      33.491  18.447  24.217  1.00  0.00     0.067 A 
ATOM     23  C   UNL A   1      32.615  18.894  23.225  1.00  0.00     0.021 A 
ATOM     24  C   UNL A   1      34.109  19.368  25.059  1.00  0.00     0.021 A 
ATOM     25  C   UNL A   1      32.277  20.257  23.141  1.00  0.00     0.010 A 
ATOM     26  C   UNL A   1      33.762  20.729  24.969  1.00  0.00     0.010 A 
BRANCH  22  27
ATOM     27  S   UNL A   1      33.688  16.686  24.422  1.00  0.00     0.175 S 
ATOM     28  C   UNL A   1      35.145  16.407  25.385  1.00  0.00     0.163 C 
ATOM     29  O   UNL A   1      33.941  16.141  23.102  1.00  0.00    -0.224 OA
ATOM     30  O   UNL A   1      32.553  16.240  25.210  1.00  0.00    -0.224 OA
ENDBRANCH  22  27
ENDBRANCH  11  21
BRANCH  20  31
ATOM     31  C   UNL A   1      33.014  26.743  22.132  1.00  0.00     0.430 C 
ATOM     32  F   UNL A   1      31.683  27.026  22.164  1.00  0.00    -0.167 F 
ATOM     33  F   UNL A   1      33.658  27.933  22.189  1.00  0.00    -0.167 F 
ATOM     34  F   UNL A   1      33.255  26.225  20.920  1.00  0.00    -0.167 F 
ENDBRANCH  20  31
ENDBRANCH   8  10
ENDBRANCH   7   8
ENDBRANCH   6   7
ENDBRANCH   5   6
ENDBRANCH   4   5
ENDBRANCH   3   4
ENDBRANCH   2   3
ENDBRANCH   1   2
BRANCH   1  35
ATOM     35  C   UNL A   1      34.241  33.742  31.056  1.00  0.00     0.188 C 
BRANCH  35  36
ATOM     36  C   UNL A   1      35.568  33.462  31.799  1.00  0.00     0.188 C 
BRANCH  36  37
ATOM     37  O   UNL A   1      35.547  32.299  32.625  1.00  0.00    -0.376 OA
BRANCH  37  38
ATOM     38  C   UNL A   1      36.791  31.858  33.149  1.00  0.00     0.202 C 
BRANCH  38  39
ATOM     39  C   UNL A   1      37.920  31.819  32.111  1.00  0.00     0.261 C 
BRANCH  39  40
ATOM     40  O   UNL A   1      37.559  31.231  30.852  1.00  0.00    -0.460 OA
BRANCH  40  41
ATOM     41  C   UNL A   1      37.537  29.883  30.782  1.00  0.00     0.338 C 
ATOM     42  O   UNL A   1      36.580  29.146  30.951  1.00  0.00    -0.246 OA
BRANCH  41  43
ATOM     43  C   UNL A   1      38.847  29.444  30.265  1.00  0.00     0.060 A 
ATOM     44  C   UNL A   1      39.628  28.579  31.043  1.00  0.00     0.016 A 
ATOM     45  C   UNL A   1      39.280  29.852  29.000  1.00  0.00     0.016 A 
ATOM     46  C   UNL A   1      40.864  28.142  30.567  1.00  0.00     0.010 A 
ATOM     47  C   UNL A   1      40.526  29.431  28.536  1.00  0.00     0.010 A 
ATOM     48  C   UNL A   1      41.334  28.599  29.329  1.00  0.00    -0.014 A 
BRANCH  48  49
ATOM     49  C   UNL A   1      42.746  28.384  28.943  1.00  0.00     0.031 A 
ATOM     50  C   UNL A   1      43.736  29.472  29.249  1.00  0.00     0.074 A 
ATOM     51  C   UNL A   1      43.141  27.264  28.315  1.00  0.00     0.049 A 
ATOM     52  N   UNL A   1      45.004  29.550  28.946  1.00  0.00    -0.248 NA
ATOM     53  C   UNL A   1      43.218  30.632  29.997  1.00  0.00     0.031 C 
ATOM     54  C   UNL A   1      42.288  26.123  27.993  1.00  0.00     0.029 A 
ATOM     55  N   UNL A   1      44.374  26.916  27.822  1.00  0.00    -0.354 N 
ATOM     56  C   UNL A   1      45.437  30.765  29.463  1.00  0.00     0.074 A 
ATOM     57  C   UNL A   1      44.291  31.404  30.072  1.00  0.00     0.031 C 
ATOM     58  C   UNL A   1      43.021  25.204  27.338  1.00  0.00     0.029 A 
ATOM     59  C   UNL A   1      44.382  25.708  27.167  1.00  0.00     0.049 A 
ATOM     60  H   UNL A   1      45.175  27.478  27.927  1.00  0.00     0.167 HD
ATOM     61  C   UNL A   1      46.679  31.303  29.434  1.00  0.00     0.031 A 
ATOM     62  C   UNL A   1      45.371  25.098  26.486  1.00  0.00     0.031 A 
ATOM     63  C   UNL A   1      47.810  30.688  28.799  1.00  0.00     0.049 A 
ATOM     64  C   UNL A   1      46.722  25.759  26.387  1.00  0.00     0.074 A 
ATOM     65  C   UNL A   1      49.111  31.150  28.720  1.00  0.00     0.029 A 
ATOM     66  N   UNL A   1      47.770  29.480  28.120  1.00  0.00    -0.354 N 
ATOM     67  N   UNL A   1      47.130  26.891  26.907  1.00  0.00    -0.248 NA
ATOM     68  C   UNL A   1      47.749  25.053  25.607  1.00  0.00     0.031 C 
ATOM     69  C   UNL A   1      49.847  30.249  27.945  1.00  0.00     0.029 A 
ATOM     70  C   UNL A   1      49.017  29.196  27.592  1.00  0.00     0.049 A 
ATOM     71  H   UNL A   1      46.973  28.910  28.027  1.00  0.00     0.167 HD
ATOM     72  C   UNL A   1      48.464  27.021  26.540  1.00  0.00     0.074 A 
ATOM     73  C   UNL A   1      48.801  25.845  25.764  1.00  0.00     0.031 C 
ATOM     74  C   UNL A   1      49.334  28.021  26.822  1.00  0.00     0.031 A 
BRANCH  61  75
ATOM     75  C   UNL A   1      46.855  32.647  30.081  1.00  0.00    -0.014 A 
ATOM     76  C   UNL A   1      47.222  32.761  31.431  1.00  0.00     0.009 A 
ATOM     77  C   UNL A   1      46.659  33.813  29.326  1.00  0.00     0.009 A 
ATOM     78  C   UNL A   1      47.354  34.020  32.021  1.00  0.00     0.001 A 
ATOM     79  C   UNL A   1      46.819  35.069  29.913  1.00  0.00     0.001 A 
ATOM     80  C   UNL A   1      47.156  35.171  31.261  1.00  0.00     0.000 A 
ENDBRANCH  61  75
BRANCH  62  81
ATOM     81  C   UNL A   1      45.119  23.797  25.812  1.00  0.00    -0.014 A 
ATOM     82  C   UNL A   1      44.535  23.752  24.536  1.00  0.00     0.009 A 
ATOM     83  C   UNL A   1      45.438  22.591  26.453  1.00  0.00     0.009 A 
ATOM     84  C   UNL A   1      44.254  22.525  23.929  1.00  0.00     0.001 A 
ATOM     85  C   UNL A   1      45.182  21.366  25.833  1.00  0.00     0.001 A 
ATOM     86  C   UNL A   1      44.582  21.334  24.576  1.00  0.00     0.000 A 
ENDBRANCH  62  81
BRANCH  74  87
ATOM     87  C   UNL A   1      50.744  27.877  26.319  1.00  0.00    -0.014 A 
ATOM     88  C   UNL A   1      51.326  28.849  25.492  1.00  0.00     0.009 A 
ATOM     89  C   UNL A   1      51.517  26.780  26.730  1.00  0.00     0.009 A 
ATOM     90  C   UNL A   1      52.649  28.710  25.065  1.00  0.00     0.001 A 
ATOM     91  C   UNL A   1      52.847  26.658  26.324  1.00  0.00     0.001 A 
ATOM     92  C   UNL A   1      53.409  27.619  25.485  1.00  0.00     0.000 A 
ENDBRANCH  74  87
ENDBRANCH  48  49
ENDBRANCH  41  43
ENDBRANCH  40  41
ENDBRANCH  39  40
ENDBRANCH  38  39
ENDBRANCH  37  38
ENDBRANCH  36  37
ENDBRANCH  35  36
ENDBRANCH   1  35
TORSDOF 23
ENDMDL
