MODEL 1
REMARK VINA RESULT:      -8.8      0.000      0.000
REMARK SMILES Cc1cc(C)n2ncc(C(=O)N(C)CCCC(=O)OCCOCCOCCOCCOC(=O)c3ccc(-c4c5nc(c(-c6ccccc6)c6ccc([nH]6)c(-c6ccccc6)c6nc(c(-c7ccccc7)c7ccc4[nH]7)C=C6)C=C5)cc3)c2n1
REMARK SMILES IDX 23 1 22 2 21 3 20 4 19 5 17 6 18 7 16 8 15 9 14 10 12 11
REMARK SMILES IDX 13 12 10 13 11 14 9 15 1 16 2 17 3 18 83 19 4 20 82 21 5 22
REMARK SMILES IDX 6 23 7 24 8 25 24 26 25 27 26 28 27 29 28 30 29 31 30 32
REMARK SMILES IDX 31 33 32 34 33 35 34 36 35 37 81 38 36 39 80 40 37 41 38 42
REMARK SMILES IDX 39 43 74 44 40 45 79 46 73 47 75 48 41 49 78 50 72 51 71 52
REMARK SMILES IDX 42 54 64 55 49 56 63 57 50 58 53 59 62 60 76 61 51 62 52 63
REMARK SMILES IDX 61 65 77 66 54 67 43 68 44 69 48 70 45 71 47 72 46 73 65 74
REMARK SMILES IDX 66 75 70 76 67 77 69 78 68 79 55 80 56 81 60 82 57 83 59 84
REMARK SMILES IDX 58 85
REMARK H PARENT 75 53 53 64
REMARK Flexibility Score: inf
ROOT
ATOM      1  C   UNL A   1      37.278  20.000  24.332  1.00  0.00     0.188 C 
ENDROOT
BRANCH   1   2
ATOM      2  O   UNL A   1      36.252  19.447  25.121  1.00  0.00    -0.376 OA
BRANCH   2   3
ATOM      3  C   UNL A   1      35.913  18.083  25.001  1.00  0.00     0.202 C 
BRANCH   3   4
ATOM      4  C   UNL A   1      34.767  17.567  24.119  1.00  0.00     0.261 C 
BRANCH   4   5
ATOM      5  O   UNL A   1      33.447  18.008  24.451  1.00  0.00    -0.463 OA
BRANCH   5   6
ATOM      6  C   UNL A   1      32.697  18.503  23.445  1.00  0.00     0.305 C 
ATOM      7  O   UNL A   1      32.460  17.900  22.401  1.00  0.00    -0.252 OA
BRANCH   6   8
ATOM      8  C   UNL A   1      32.048  19.843  23.757  1.00  0.00     0.124 C 
BRANCH   8   9
ATOM      9  C   UNL A   1      32.724  21.205  23.524  1.00  0.00     0.033 C 
BRANCH   9  10
ATOM     10  C   UNL A   1      33.931  21.616  24.373  1.00  0.00     0.120 C 
BRANCH  10  11
ATOM     11  N   UNL A   1      33.971  23.061  24.581  1.00  0.00    -0.342 N 
ATOM     12  C   UNL A   1      33.695  23.492  25.938  1.00  0.00     0.147 C 
BRANCH  11  13
ATOM     13  C   UNL A   1      34.385  23.837  23.496  1.00  0.00     0.259 C 
ATOM     14  O   UNL A   1      35.472  23.600  22.967  1.00  0.00    -0.269 OA
BRANCH  13  15
ATOM     15  C   UNL A   1      33.518  24.847  22.910  1.00  0.00     0.104 A 
ATOM     16  C   UNL A   1      34.040  28.562  26.118  1.00  0.00     0.067 C 
ATOM     17  C   UNL A   1      33.433  27.864  24.927  1.00  0.00     0.042 A 
ATOM     18  C   UNL A   1      32.270  28.542  24.274  1.00  0.00     0.047 A 
ATOM     19  N   UNL A   1      33.926  26.720  24.553  1.00  0.00    -0.233 NA
ATOM     20  C   UNL A   1      31.765  27.940  23.183  1.00  0.00     0.043 A 
ATOM     21  C   UNL A   1      33.339  26.107  23.475  1.00  0.00     0.168 A 
ATOM     22  C   UNL A   1      30.593  28.473  22.423  1.00  0.00     0.067 C 
ATOM     23  N   UNL A   1      32.321  26.730  22.751  1.00  0.00    -0.219 N 
ATOM     24  N   UNL A   1      31.973  26.001  21.665  1.00  0.00    -0.174 NA
ATOM     25  C   UNL A   1      32.673  24.874  21.787  1.00  0.00     0.151 A 
ENDBRANCH  13  15
ENDBRANCH  11  13
ENDBRANCH  10  11
ENDBRANCH   9  10
ENDBRANCH   8   9
ENDBRANCH   6   8
ENDBRANCH   5   6
ENDBRANCH   4   5
ENDBRANCH   3   4
ENDBRANCH   2   3
ENDBRANCH   1   2
BRANCH   1  26
ATOM     26  C   UNL A   1      37.662  21.452  24.683  1.00  0.00     0.188 C 
BRANCH  26  27
ATOM     27  O   UNL A   1      37.774  21.922  26.018  1.00  0.00    -0.377 OA
BRANCH  27  28
ATOM     28  C   UNL A   1      39.033  22.348  26.529  1.00  0.00     0.188 C 
BRANCH  28  29
ATOM     29  C   UNL A   1      40.232  21.379  26.622  1.00  0.00     0.188 C 
BRANCH  29  30
ATOM     30  O   UNL A   1      41.266  21.603  25.678  1.00  0.00    -0.376 OA
BRANCH  30  31
ATOM     31  C   UNL A   1      42.441  22.303  26.037  1.00  0.00     0.202 C 
BRANCH  31  32
ATOM     32  C   UNL A   1      42.528  23.803  25.751  1.00  0.00     0.261 C 
BRANCH  32  33
ATOM     33  O   UNL A   1      41.683  24.619  26.545  1.00  0.00    -0.460 OA
BRANCH  33  34
ATOM     34  C   UNL A   1      41.376  25.797  25.973  1.00  0.00     0.338 C 
ATOM     35  O   UNL A   1      41.729  26.208  24.884  1.00  0.00    -0.246 OA
BRANCH  34  36
ATOM     36  C   UNL A   1      40.662  26.615  26.949  1.00  0.00     0.060 A 
ATOM     37  C   UNL A   1      40.697  27.984  26.710  1.00  0.00     0.016 A 
ATOM     38  C   UNL A   1      40.313  26.073  28.198  1.00  0.00     0.016 A 
ATOM     39  C   UNL A   1      40.629  28.815  27.797  1.00  0.00     0.010 A 
ATOM     40  C   UNL A   1      40.235  26.913  29.287  1.00  0.00     0.010 A 
ATOM     41  C   UNL A   1      40.487  28.261  29.082  1.00  0.00    -0.014 A 
BRANCH  41  42
ATOM     42  C   UNL A   1      40.480  29.204  30.179  1.00  0.00     0.031 A 
ATOM     43  C   UNL A   1      39.155  29.820  30.334  1.00  0.00     0.074 A 
ATOM     44  C   UNL A   1      41.547  29.526  30.932  1.00  0.00     0.049 A 
ATOM     45  N   UNL A   1      38.806  30.981  29.897  1.00  0.00    -0.248 NA
ATOM     46  C   UNL A   1      38.045  28.984  30.813  1.00  0.00     0.031 C 
ATOM     47  C   UNL A   1      42.819  28.810  31.044  1.00  0.00     0.029 A 
ATOM     48  N   UNL A   1      41.681  30.544  31.830  1.00  0.00    -0.354 N 
ATOM     49  C   UNL A   1      37.487  31.129  30.291  1.00  0.00     0.074 A 
ATOM     50  C   UNL A   1      37.014  29.815  30.647  1.00  0.00     0.031 C 
ATOM     51  C   UNL A   1      43.491  29.270  32.126  1.00  0.00     0.029 A 
ATOM     52  C   UNL A   1      42.781  30.419  32.667  1.00  0.00     0.049 A 
ATOM     53  H   UNL A   1      41.054  31.301  31.880  1.00  0.00     0.167 HD
ATOM     54  C   UNL A   1      37.047  32.359  30.661  1.00  0.00     0.031 A 
ATOM     55  C   UNL A   1      43.059  31.191  33.744  1.00  0.00     0.031 A 
ATOM     56  C   UNL A   1      37.928  33.403  30.196  1.00  0.00     0.049 A 
ATOM     57  C   UNL A   1      42.391  32.496  33.554  1.00  0.00     0.074 A 
ATOM     58  C   UNL A   1      38.190  34.069  29.020  1.00  0.00     0.029 A 
ATOM     59  N   UNL A   1      38.999  33.607  31.023  1.00  0.00    -0.354 N 
ATOM     60  N   UNL A   1      42.745  33.353  32.638  1.00  0.00    -0.248 NA
ATOM     61  C   UNL A   1      41.101  32.744  34.189  1.00  0.00     0.031 C 
ATOM     62  C   UNL A   1      39.503  34.619  29.148  1.00  0.00     0.029 A 
ATOM     63  C   UNL A   1      40.001  34.306  30.409  1.00  0.00     0.049 A 
ATOM     64  H   UNL A   1      39.043  33.289  31.953  1.00  0.00     0.167 HD
ATOM     65  C   UNL A   1      41.563  33.971  32.288  1.00  0.00     0.074 A 
ATOM     66  C   UNL A   1      40.637  33.698  33.379  1.00  0.00     0.031 C 
ATOM     67  C   UNL A   1      41.319  34.348  31.001  1.00  0.00     0.031 A 
BRANCH  54  68
ATOM     68  C   UNL A   1      36.229  32.559  31.919  1.00  0.00    -0.014 A 
ATOM     69  C   UNL A   1      34.882  32.931  31.783  1.00  0.00     0.009 A 
ATOM     70  C   UNL A   1      36.800  32.706  33.201  1.00  0.00     0.009 A 
ATOM     71  C   UNL A   1      34.161  33.460  32.861  1.00  0.00     0.001 A 
ATOM     72  C   UNL A   1      36.075  33.201  34.286  1.00  0.00     0.001 A 
ATOM     73  C   UNL A   1      34.760  33.596  34.111  1.00  0.00     0.000 A 
ENDBRANCH  54  68
BRANCH  55  74
ATOM     74  C   UNL A   1      43.623  30.803  35.055  1.00  0.00    -0.014 A 
ATOM     75  C   UNL A   1      43.074  29.723  35.767  1.00  0.00     0.009 A 
ATOM     76  C   UNL A   1      44.889  31.272  35.448  1.00  0.00     0.009 A 
ATOM     77  C   UNL A   1      43.797  29.087  36.784  1.00  0.00     0.001 A 
ATOM     78  C   UNL A   1      45.608  30.640  36.468  1.00  0.00     0.001 A 
ATOM     79  C   UNL A   1      45.073  29.534  37.121  1.00  0.00     0.000 A 
ENDBRANCH  55  74
BRANCH  67  80
ATOM     80  C   UNL A   1      42.487  34.662  30.120  1.00  0.00    -0.014 A 
ATOM     81  C   UNL A   1      43.154  35.896  30.103  1.00  0.00     0.009 A 
ATOM     82  C   UNL A   1      42.982  33.616  29.325  1.00  0.00     0.009 A 
ATOM     83  C   UNL A   1      44.291  36.072  29.304  1.00  0.00     0.001 A 
ATOM     84  C   UNL A   1      44.124  33.788  28.544  1.00  0.00     0.001 A 
ATOM     85  C   UNL A   1      44.778  35.015  28.533  1.00  0.00     0.000 A 
ENDBRANCH  67  80
ENDBRANCH  41  42
ENDBRANCH  34  36
ENDBRANCH  33  34
ENDBRANCH  32  33
ENDBRANCH  31  32
ENDBRANCH  30  31
ENDBRANCH  29  30
ENDBRANCH  28  29
ENDBRANCH  27  28
ENDBRANCH  26  27
ENDBRANCH   1  26
TORSDOF 25
ENDMDL
MODEL 2
REMARK VINA RESULT:      -8.4      1.742      2.734
REMARK SMILES Cc1cc(C)n2ncc(C(=O)N(C)CCCC(=O)OCCOCCOCCOCCOC(=O)c3ccc(-c4c5nc(c(-c6ccccc6)c6ccc([nH]6)c(-c6ccccc6)c6nc(c(-c7ccccc7)c7ccc4[nH]7)C=C6)C=C5)cc3)c2n1
REMARK SMILES IDX 23 1 22 2 21 3 20 4 19 5 17 6 18 7 16 8 15 9 14 10 12 11
REMARK SMILES IDX 13 12 10 13 11 14 9 15 1 16 2 17 3 18 83 19 4 20 82 21 5 22
REMARK SMILES IDX 6 23 7 24 8 25 24 26 25 27 26 28 27 29 28 30 29 31 30 32
REMARK SMILES IDX 31 33 32 34 33 35 34 36 35 37 81 38 36 39 80 40 37 41 38 42
REMARK SMILES IDX 39 43 74 44 40 45 79 46 73 47 75 48 41 49 78 50 72 51 71 52
REMARK SMILES IDX 42 54 64 55 49 56 63 57 50 58 53 59 62 60 76 61 51 62 52 63
REMARK SMILES IDX 61 65 77 66 54 67 43 68 44 69 48 70 45 71 47 72 46 73 65 74
REMARK SMILES IDX 66 75 70 76 67 77 69 78 68 79 55 80 56 81 60 82 57 83 59 84
REMARK SMILES IDX 58 85
REMARK H PARENT 75 53 53 64
REMARK Flexibility Score: inf
ROOT
ATOM      1  C   UNL A   1      38.332  21.081  25.352  1.00  0.00     0.188 C 
ENDROOT
BRANCH   1   2
ATOM      2  O   UNL A   1      37.400  21.845  26.082  1.00  0.00    -0.376 OA
BRANCH   2   3
ATOM      3  C   UNL A   1      36.094  22.044  25.588  1.00  0.00     0.202 C 
BRANCH   3   4
ATOM      4  C   UNL A   1      34.825  21.784  26.413  1.00  0.00     0.261 C 
BRANCH   4   5
ATOM      5  O   UNL A   1      33.900  22.867  26.534  1.00  0.00    -0.463 OA
BRANCH   5   6
ATOM      6  C   UNL A   1      32.837  22.860  25.702  1.00  0.00     0.305 C 
ATOM      7  O   UNL A   1      31.937  22.025  25.742  1.00  0.00    -0.252 OA
BRANCH   6   8
ATOM      8  C   UNL A   1      32.770  24.062  24.773  1.00  0.00     0.124 C 
BRANCH   8   9
ATOM      9  C   UNL A   1      33.622  25.331  24.940  1.00  0.00     0.033 C 
BRANCH   9  10
ATOM     10  C   UNL A   1      34.132  26.080  23.705  1.00  0.00     0.120 C 
BRANCH  10  11
ATOM     11  N   UNL A   1      33.039  26.440  22.806  1.00  0.00    -0.342 N 
ATOM     12  C   UNL A   1      32.927  25.616  21.618  1.00  0.00     0.147 C 
BRANCH  11  13
ATOM     13  C   UNL A   1      32.170  27.440  23.250  1.00  0.00     0.259 C 
ATOM     14  O   UNL A   1      32.608  28.575  23.440  1.00  0.00    -0.269 OA
BRANCH  13  15
ATOM     15  C   UNL A   1      30.743  27.199  23.390  1.00  0.00     0.104 A 
ATOM     16  C   UNL A   1      28.861  31.231  21.251  1.00  0.00     0.067 C 
ATOM     17  C   UNL A   1      28.790  29.942  22.030  1.00  0.00     0.042 A 
ATOM     18  C   UNL A   1      27.453  29.569  22.591  1.00  0.00     0.047 A 
ATOM     19  N   UNL A   1      29.878  29.247  22.192  1.00  0.00    -0.233 NA
ATOM     20  C   UNL A   1      27.386  28.394  23.241  1.00  0.00     0.043 A 
ATOM     21  C   UNL A   1      29.780  28.087  22.918  1.00  0.00     0.168 A 
ATOM     22  C   UNL A   1      26.135  27.882  23.878  1.00  0.00     0.067 C 
ATOM     23  N   UNL A   1      28.547  27.623  23.380  1.00  0.00    -0.219 N 
ATOM     24  N   UNL A   1      28.667  26.409  23.967  1.00  0.00    -0.174 NA
ATOM     25  C   UNL A   1      29.980  26.183  23.989  1.00  0.00     0.151 A 
ENDBRANCH  13  15
ENDBRANCH  11  13
ENDBRANCH  10  11
ENDBRANCH   9  10
ENDBRANCH   8   9
ENDBRANCH   6   8
ENDBRANCH   5   6
ENDBRANCH   4   5
ENDBRANCH   3   4
ENDBRANCH   2   3
ENDBRANCH   1   2
BRANCH   1  26
ATOM     26  C   UNL A   1      39.728  20.965  25.995  1.00  0.00     0.188 C 
BRANCH  26  27
ATOM     27  O   UNL A   1      40.017  21.420  27.309  1.00  0.00    -0.377 OA
BRANCH  27  28
ATOM     28  C   UNL A   1      41.042  22.383  27.529  1.00  0.00     0.188 C 
BRANCH  28  29
ATOM     29  C   UNL A   1      42.242  22.514  26.564  1.00  0.00     0.188 C 
BRANCH  29  30
ATOM     30  O   UNL A   1      43.241  23.437  26.963  1.00  0.00    -0.376 OA
BRANCH  30  31
ATOM     31  C   UNL A   1      43.479  24.618  26.222  1.00  0.00     0.202 C 
BRANCH  31  32
ATOM     32  C   UNL A   1      42.947  25.949  26.756  1.00  0.00     0.261 C 
BRANCH  32  33
ATOM     33  O   UNL A   1      41.872  26.508  26.021  1.00  0.00    -0.460 OA
BRANCH  33  34
ATOM     34  C   UNL A   1      40.675  25.975  26.323  1.00  0.00     0.338 C 
ATOM     35  O   UNL A   1      40.116  25.046  25.771  1.00  0.00    -0.246 OA
BRANCH  34  36
ATOM     36  C   UNL A   1      40.041  26.804  27.344  1.00  0.00     0.060 A 
ATOM     37  C   UNL A   1      40.025  28.167  27.072  1.00  0.00     0.016 A 
ATOM     38  C   UNL A   1      39.823  26.286  28.633  1.00  0.00     0.016 A 
ATOM     39  C   UNL A   1      40.044  29.023  28.142  1.00  0.00     0.010 A 
ATOM     40  C   UNL A   1      39.832  27.150  29.705  1.00  0.00     0.010 A 
ATOM     41  C   UNL A   1      40.036  28.498  29.447  1.00  0.00    -0.014 A 
BRANCH  41  42
ATOM     42  C   UNL A   1      40.114  29.466  30.518  1.00  0.00     0.031 A 
ATOM     43  C   UNL A   1      38.867  30.236  30.623  1.00  0.00     0.074 A 
ATOM     44  C   UNL A   1      41.194  29.684  31.289  1.00  0.00     0.049 A 
ATOM     45  N   UNL A   1      38.665  31.416  30.146  1.00  0.00    -0.248 NA
ATOM     46  C   UNL A   1      37.657  29.548  31.095  1.00  0.00     0.031 C 
ATOM     47  C   UNL A   1      42.372  28.829  31.453  1.00  0.00     0.029 A 
ATOM     48  N   UNL A   1      41.426  30.705  32.164  1.00  0.00    -0.354 N 
ATOM     49  C   UNL A   1      37.365  31.728  30.502  1.00  0.00     0.074 A 
ATOM     50  C   UNL A   1      36.734  30.489  30.880  1.00  0.00     0.031 C 
ATOM     51  C   UNL A   1      43.068  29.239  32.540  1.00  0.00     0.029 A 
ATOM     52  C   UNL A   1      42.484  30.477  33.031  1.00  0.00     0.049 A 
ATOM     53  H   UNL A   1      40.890  31.531  32.178  1.00  0.00     0.167 HD
ATOM     54  C   UNL A   1      37.062  33.011  30.829  1.00  0.00     0.031 A 
ATOM     55  C   UNL A   1      42.826  31.243  34.095  1.00  0.00     0.031 A 
ATOM     56  C   UNL A   1      38.070  33.931  30.359  1.00  0.00     0.049 A 
ATOM     57  C   UNL A   1      42.320  32.611  33.854  1.00  0.00     0.074 A 
ATOM     58  C   UNL A   1      38.434  34.528  29.173  1.00  0.00     0.029 A 
ATOM     59  N   UNL A   1      39.138  34.034  31.207  1.00  0.00    -0.354 N 
ATOM     60  N   UNL A   1      42.791  33.394  32.925  1.00  0.00    -0.248 NA
ATOM     61  C   UNL A   1      41.053  33.025  34.448  1.00  0.00     0.031 C 
ATOM     62  C   UNL A   1      39.799  34.926  29.321  1.00  0.00     0.029 A 
ATOM     63  C   UNL A   1      40.229  34.594  30.602  1.00  0.00     0.049 A 
ATOM     64  H   UNL A   1      39.124  33.739  32.146  1.00  0.00     0.167 HD
ATOM     65  C   UNL A   1      41.698  34.135  32.528  1.00  0.00     0.074 A 
ATOM     66  C   UNL A   1      40.722  34.003  33.602  1.00  0.00     0.031 C 
ATOM     67  C   UNL A   1      41.529  34.500  31.227  1.00  0.00     0.031 A 
BRANCH  54  68
ATOM     68  C   UNL A   1      36.246  33.341  32.059  1.00  0.00    -0.014 A 
ATOM     69  C   UNL A   1      35.293  34.369  31.967  1.00  0.00     0.009 A 
ATOM     70  C   UNL A   1      36.590  32.911  33.358  1.00  0.00     0.009 A 
ATOM     71  C   UNL A   1      34.749  34.960  33.115  1.00  0.00     0.001 A 
ATOM     72  C   UNL A   1      36.024  33.475  34.503  1.00  0.00     0.001 A 
ATOM     73  C   UNL A   1      35.118  34.514  34.381  1.00  0.00     0.000 A 
ENDBRANCH  54  68
BRANCH  55  74
ATOM     74  C   UNL A   1      43.312  30.830  35.429  1.00  0.00    -0.014 A 
ATOM     75  C   UNL A   1      43.107  29.515  35.878  1.00  0.00     0.009 A 
ATOM     76  C   UNL A   1      44.251  31.619  36.116  1.00  0.00     0.009 A 
ATOM     77  C   UNL A   1      43.869  28.983  36.926  1.00  0.00     0.001 A 
ATOM     78  C   UNL A   1      45.008  31.089  37.167  1.00  0.00     0.001 A 
ATOM     79  C   UNL A   1      44.833  29.765  37.558  1.00  0.00     0.000 A 
ENDBRANCH  55  74
BRANCH  67  80
ATOM     80  C   UNL A   1      42.745  34.650  30.368  1.00  0.00    -0.014 A 
ATOM     81  C   UNL A   1      43.622  35.744  30.425  1.00  0.00     0.009 A 
ATOM     82  C   UNL A   1      43.055  33.581  29.513  1.00  0.00     0.009 A 
ATOM     83  C   UNL A   1      44.782  35.760  29.640  1.00  0.00     0.001 A 
ATOM     84  C   UNL A   1      44.219  33.590  28.746  1.00  0.00     0.001 A 
ATOM     85  C   UNL A   1      45.082  34.680  28.809  1.00  0.00     0.000 A 
ENDBRANCH  67  80
ENDBRANCH  41  42
ENDBRANCH  34  36
ENDBRANCH  33  34
ENDBRANCH  32  33
ENDBRANCH  31  32
ENDBRANCH  30  31
ENDBRANCH  29  30
ENDBRANCH  28  29
ENDBRANCH  27  28
ENDBRANCH  26  27
ENDBRANCH   1  26
TORSDOF 25
ENDMDL
MODEL 3
REMARK VINA RESULT:      -8.2      2.244      6.129
REMARK SMILES Cc1cc(C)n2ncc(C(=O)N(C)CCCC(=O)OCCOCCOCCOCCOC(=O)c3ccc(-c4c5nc(c(-c6ccccc6)c6ccc([nH]6)c(-c6ccccc6)c6nc(c(-c7ccccc7)c7ccc4[nH]7)C=C6)C=C5)cc3)c2n1
REMARK SMILES IDX 23 1 22 2 21 3 20 4 19 5 17 6 18 7 16 8 15 9 14 10 12 11
REMARK SMILES IDX 13 12 10 13 11 14 9 15 1 16 2 17 3 18 83 19 4 20 82 21 5 22
REMARK SMILES IDX 6 23 7 24 8 25 24 26 25 27 26 28 27 29 28 30 29 31 30 32
REMARK SMILES IDX 31 33 32 34 33 35 34 36 35 37 81 38 36 39 80 40 37 41 38 42
REMARK SMILES IDX 39 43 74 44 40 45 79 46 73 47 75 48 41 49 78 50 72 51 71 52
REMARK SMILES IDX 42 54 64 55 49 56 63 57 50 58 53 59 62 60 76 61 51 62 52 63
REMARK SMILES IDX 61 65 77 66 54 67 43 68 44 69 48 70 45 71 47 72 46 73 65 74
REMARK SMILES IDX 66 75 70 76 67 77 69 78 68 79 55 80 56 81 60 82 57 83 59 84
REMARK SMILES IDX 58 85
REMARK H PARENT 75 53 53 64
REMARK Flexibility Score: inf
ROOT
ATOM      1  C   UNL A   1      40.468  21.517  26.584  1.00  0.00     0.188 C 
ENDROOT
BRANCH   1   2
ATOM      2  O   UNL A   1      39.284  21.691  25.842  1.00  0.00    -0.376 OA
BRANCH   2   3
ATOM      3  C   UNL A   1      38.418  22.770  26.116  1.00  0.00     0.202 C 
BRANCH   3   4
ATOM      4  C   UNL A   1      36.887  22.665  26.065  1.00  0.00     0.261 C 
BRANCH   4   5
ATOM      5  O   UNL A   1      36.312  22.205  24.839  1.00  0.00    -0.463 OA
BRANCH   5   6
ATOM      6  C   UNL A   1      35.847  20.938  24.819  1.00  0.00     0.305 C 
ATOM      7  O   UNL A   1      36.540  19.947  25.034  1.00  0.00    -0.252 OA
BRANCH   6   8
ATOM      8  C   UNL A   1      34.341  20.833  24.630  1.00  0.00     0.124 C 
BRANCH   8   9
ATOM      9  C   UNL A   1      33.316  20.980  25.766  1.00  0.00     0.033 C 
BRANCH   9  10
ATOM     10  C   UNL A   1      31.916  21.527  25.470  1.00  0.00     0.120 C 
BRANCH  10  11
ATOM     11  N   UNL A   1      31.736  22.867  26.025  1.00  0.00    -0.342 N 
ATOM     12  C   UNL A   1      30.378  23.188  26.420  1.00  0.00     0.147 C 
BRANCH  11  13
ATOM     13  C   UNL A   1      32.894  23.623  26.218  1.00  0.00     0.259 C 
ATOM     14  O   UNL A   1      33.618  23.377  27.185  1.00  0.00    -0.269 OA
BRANCH  13  15
ATOM     15  C   UNL A   1      33.322  24.620  25.250  1.00  0.00     0.104 A 
ATOM     16  C   UNL A   1      31.846  28.793  27.435  1.00  0.00     0.067 C 
ATOM     17  C   UNL A   1      32.414  27.974  26.303  1.00  0.00     0.042 A 
ATOM     18  C   UNL A   1      32.679  28.695  25.019  1.00  0.00     0.047 A 
ATOM     19  N   UNL A   1      32.617  26.703  26.491  1.00  0.00    -0.233 NA
ATOM     20  C   UNL A   1      33.232  27.970  24.032  1.00  0.00     0.043 A 
ATOM     21  C   UNL A   1      33.121  25.985  25.436  1.00  0.00     0.168 A 
ATOM     22  C   UNL A   1      33.543  28.530  22.681  1.00  0.00     0.067 C 
ATOM     23  N   UNL A   1      33.491  26.611  24.245  1.00  0.00    -0.219 N 
ATOM     24  N   UNL A   1      34.070  25.735  23.389  1.00  0.00    -0.174 NA
ATOM     25  C   UNL A   1      33.938  24.553  23.989  1.00  0.00     0.151 A 
ENDBRANCH  13  15
ENDBRANCH  11  13
ENDBRANCH  10  11
ENDBRANCH   9  10
ENDBRANCH   8   9
ENDBRANCH   6   8
ENDBRANCH   5   6
ENDBRANCH   4   5
ENDBRANCH   3   4
ENDBRANCH   2   3
ENDBRANCH   1   2
BRANCH   1  26
ATOM     26  C   UNL A   1      41.703  21.105  25.759  1.00  0.00     0.188 C 
BRANCH  26  27
ATOM     27  O   UNL A   1      42.782  20.358  26.301  1.00  0.00    -0.377 OA
BRANCH  27  28
ATOM     28  C   UNL A   1      43.573  19.521  25.464  1.00  0.00     0.188 C 
BRANCH  28  29
ATOM     29  C   UNL A   1      45.039  19.874  25.128  1.00  0.00     0.188 C 
BRANCH  29  30
ATOM     30  O   UNL A   1      45.277  21.235  24.812  1.00  0.00    -0.376 OA
BRANCH  30  31
ATOM     31  C   UNL A   1      45.686  22.153  25.806  1.00  0.00     0.202 C 
BRANCH  31  32
ATOM     32  C   UNL A   1      46.210  23.525  25.379  1.00  0.00     0.261 C 
BRANCH  32  33
ATOM     33  O   UNL A   1      45.319  24.293  24.589  1.00  0.00    -0.460 OA
BRANCH  33  34
ATOM     34  C   UNL A   1      44.076  24.371  25.097  1.00  0.00     0.338 C 
ATOM     35  O   UNL A   1      43.096  23.734  24.760  1.00  0.00    -0.246 OA
BRANCH  34  36
ATOM     36  C   UNL A   1      44.026  25.487  26.036  1.00  0.00     0.060 A 
ATOM     37  C   UNL A   1      43.210  25.291  27.144  1.00  0.00     0.016 A 
ATOM     38  C   UNL A   1      44.469  26.760  25.637  1.00  0.00     0.016 A 
ATOM     39  C   UNL A   1      42.628  26.400  27.701  1.00  0.00     0.010 A 
ATOM     40  C   UNL A   1      43.891  27.872  26.207  1.00  0.00     0.010 A 
ATOM     41  C   UNL A   1      42.910  27.670  27.167  1.00  0.00    -0.014 A 
BRANCH  41  42
ATOM     42  C   UNL A   1      42.213  28.780  27.776  1.00  0.00     0.031 A 
ATOM     43  C   UNL A   1      43.046  29.991  27.771  1.00  0.00     0.074 A 
ATOM     44  C   UNL A   1      40.988  28.718  28.329  1.00  0.00     0.049 A 
ATOM     45  N   UNL A   1      43.738  30.436  28.763  1.00  0.00    -0.248 NA
ATOM     46  C   UNL A   1      43.325  30.644  26.484  1.00  0.00     0.031 C 
ATOM     47  C   UNL A   1      39.979  27.669  28.168  1.00  0.00     0.029 A 
ATOM     48  N   UNL A   1      40.353  29.645  29.104  1.00  0.00    -0.354 N 
ATOM     49  C   UNL A   1      44.334  31.593  28.292  1.00  0.00     0.074 A 
ATOM     50  C   UNL A   1      44.227  31.554  26.855  1.00  0.00     0.031 C 
ATOM     51  C   UNL A   1      38.788  28.129  28.619  1.00  0.00     0.029 A 
ATOM     52  C   UNL A   1      38.992  29.422  29.252  1.00  0.00     0.049 A 
ATOM     53  H   UNL A   1      40.820  30.404  29.522  1.00  0.00     0.167 HD
ATOM     54  C   UNL A   1      44.496  32.641  29.140  1.00  0.00     0.031 A 
ATOM     55  C   UNL A   1      38.101  30.264  29.827  1.00  0.00     0.031 A 
ATOM     56  C   UNL A   1      44.382  32.232  30.519  1.00  0.00     0.049 A 
ATOM     57  C   UNL A   1      38.837  31.133  30.769  1.00  0.00     0.074 A 
ATOM     58  C   UNL A   1      45.160  31.602  31.464  1.00  0.00     0.029 A 
ATOM     59  N   UNL A   1      43.087  32.164  30.952  1.00  0.00    -0.354 N 
ATOM     60  N   UNL A   1      39.384  30.693  31.867  1.00  0.00    -0.248 NA
ATOM     61  C   UNL A   1      39.248  32.468  30.348  1.00  0.00     0.031 C 
ATOM     62  C   UNL A   1      44.263  31.084  32.449  1.00  0.00     0.029 A 
ATOM     63  C   UNL A   1      42.962  31.435  32.102  1.00  0.00     0.049 A 
ATOM     64  H   UNL A   1      42.330  32.591  30.489  1.00  0.00     0.167 HD
ATOM     65  C   UNL A   1      40.498  31.491  32.026  1.00  0.00     0.074 A 
ATOM     66  C   UNL A   1      40.268  32.660  31.187  1.00  0.00     0.031 C 
ATOM     67  C   UNL A   1      41.657  30.989  32.536  1.00  0.00     0.031 A 
BRANCH  54  68
ATOM     68  C   UNL A   1      44.127  34.051  28.732  1.00  0.00    -0.014 A 
ATOM     69  C   UNL A   1      45.157  34.998  28.611  1.00  0.00     0.009 A 
ATOM     70  C   UNL A   1      42.809  34.551  28.772  1.00  0.00     0.009 A 
ATOM     71  C   UNL A   1      44.881  36.371  28.577  1.00  0.00     0.001 A 
ATOM     72  C   UNL A   1      42.529  35.917  28.704  1.00  0.00     0.001 A 
ATOM     73  C   UNL A   1      43.567  36.828  28.626  1.00  0.00     0.000 A 
ENDBRANCH  54  68
BRANCH  55  74
ATOM     74  C   UNL A   1      36.711  30.572  29.428  1.00  0.00    -0.014 A 
ATOM     75  C   UNL A   1      35.982  31.558  30.115  1.00  0.00     0.009 A 
ATOM     76  C   UNL A   1      36.219  30.142  28.183  1.00  0.00     0.009 A 
ATOM     77  C   UNL A   1      34.846  32.145  29.543  1.00  0.00     0.001 A 
ATOM     78  C   UNL A   1      35.081  30.725  27.615  1.00  0.00     0.001 A 
ATOM     79  C   UNL A   1      34.408  31.742  28.284  1.00  0.00     0.000 A 
ENDBRANCH  55  74
BRANCH  67  80
ATOM     80  C   UNL A   1      41.576  29.817  33.464  1.00  0.00    -0.014 A 
ATOM     81  C   UNL A   1      41.526  28.480  33.042  1.00  0.00     0.009 A 
ATOM     82  C   UNL A   1      41.636  30.090  34.839  1.00  0.00     0.009 A 
ATOM     83  C   UNL A   1      41.535  27.443  33.984  1.00  0.00     0.001 A 
ATOM     84  C   UNL A   1      41.664  29.057  35.774  1.00  0.00     0.001 A 
ATOM     85  C   UNL A   1      41.612  27.733  35.347  1.00  0.00     0.000 A 
ENDBRANCH  67  80
ENDBRANCH  41  42
ENDBRANCH  34  36
ENDBRANCH  33  34
ENDBRANCH  32  33
ENDBRANCH  31  32
ENDBRANCH  30  31
ENDBRANCH  29  30
ENDBRANCH  28  29
ENDBRANCH  27  28
ENDBRANCH  26  27
ENDBRANCH   1  26
TORSDOF 25
ENDMDL
