MODEL 1
REMARK VINA RESULT:      -8.1      0.000      0.000
REMARK SMILES [NH3+][C@@H](C(=O)OCCOCCOCCOCCOC(=O)c1ccc(-c2c3nc(c(-c4ccccc4)c4ccc([nH]4)c(-c4ccccc4)c4nc(c(-c5ccccc5)c5ccc2[nH]5)C=C4)C=C3)cc1)C(C(F)(F)F)C(F)(F)F
REMARK SMILES IDX 11 1 10 2 9 3 8 4 7 5 6 6 5 7 3 8 4 9 2 10 1 11 68 15 69 16
REMARK SMILES IDX 70 17 71 18 72 19 73 20 74 21 75 22 76 23 12 24 13 25 14 26
REMARK SMILES IDX 15 27 16 28 17 29 18 30 19 31 20 32 21 33 67 34 22 35 66 36
REMARK SMILES IDX 23 37 24 38 25 39 60 40 26 41 65 42 59 43 61 44 27 45 64 46
REMARK SMILES IDX 58 47 57 48 28 50 50 51 35 52 49 53 36 54 39 55 48 56 62 57
REMARK SMILES IDX 37 58 38 59 47 61 63 62 40 63 29 64 30 65 34 66 31 67 33 68
REMARK SMILES IDX 32 69 51 70 52 71 56 72 53 73 55 74 54 75 41 76 42 77 46 78
REMARK SMILES IDX 43 79 45 80 44 81
REMARK H PARENT 1 12 1 13 1 14 61 49 39 60
REMARK Flexibility Score: inf
ROOT
ATOM      1  O   UNL A   1      35.533  23.518  25.389  1.00  0.00    -0.377 OA
ENDROOT
BRANCH   1   2
ATOM      2  C   UNL A   1      34.940  22.263  25.114  1.00  0.00     0.188 C 
BRANCH   2   3
ATOM      3  C   UNL A   1      34.358  21.575  26.363  1.00  0.00     0.188 C 
BRANCH   3   4
ATOM      4  O   UNL A   1      33.138  22.097  26.843  1.00  0.00    -0.376 OA
BRANCH   4   5
ATOM      5  C   UNL A   1      31.930  21.983  26.103  1.00  0.00     0.202 C 
BRANCH   5   6
ATOM      6  C   UNL A   1      30.777  23.008  26.077  1.00  0.00     0.261 C 
BRANCH   6   7
ATOM      7  O   UNL A   1      30.979  24.217  26.806  1.00  0.00    -0.459 OA
BRANCH   7   8
ATOM      8  C   UNL A   1      31.673  25.227  26.222  1.00  0.00     0.365 C 
ATOM      9  O   UNL A   1      32.888  25.352  26.241  1.00  0.00    -0.245 OA
BRANCH   8  10
ATOM     10  C   UNL A   1      30.713  26.164  25.446  1.00  0.00     0.313 C 
BRANCH  10  11
ATOM     11  N   UNL A   1      29.331  25.605  25.490  1.00  0.00    -0.345 N 
ATOM     12  H   UNL A   1      29.378  24.592  25.600  1.00  0.00     0.345 HD
ATOM     13  H   UNL A   1      28.844  25.831  24.623  1.00  0.00     0.345 HD
ATOM     14  H   UNL A   1      28.826  26.010  26.279  1.00  0.00     0.345 HD
ENDBRANCH  10  11
BRANCH  10  15
ATOM     15  C   UNL A   1      31.218  26.499  24.029  1.00  0.00     0.268 C 
BRANCH  15  16
ATOM     16  C   UNL A   1      31.099  25.315  23.123  1.00  0.00     0.406 C 
ATOM     17  F   UNL A   1      29.935  24.659  23.270  1.00  0.00    -0.170 F 
ATOM     18  F   UNL A   1      31.233  25.652  21.823  1.00  0.00    -0.170 F 
ATOM     19  F   UNL A   1      32.102  24.435  23.378  1.00  0.00    -0.170 F 
ENDBRANCH  15  16
BRANCH  15  20
ATOM     20  C   UNL A   1      30.428  27.604  23.387  1.00  0.00     0.406 C 
ATOM     21  F   UNL A   1      29.167  27.191  23.125  1.00  0.00    -0.170 F 
ATOM     22  F   UNL A   1      30.294  28.672  24.200  1.00  0.00    -0.170 F 
ATOM     23  F   UNL A   1      30.981  28.025  22.236  1.00  0.00    -0.170 F 
ENDBRANCH  15  20
ENDBRANCH  10  15
ENDBRANCH   8  10
ENDBRANCH   7   8
ENDBRANCH   6   7
ENDBRANCH   5   6
ENDBRANCH   4   5
ENDBRANCH   3   4
ENDBRANCH   2   3
ENDBRANCH   1   2
BRANCH   1  24
ATOM     24  C   UNL A   1      36.916  23.667  25.073  1.00  0.00     0.188 C 
BRANCH  24  25
ATOM     25  C   UNL A   1      37.992  23.657  26.186  1.00  0.00     0.188 C 
BRANCH  25  26
ATOM     26  O   UNL A   1      38.933  22.595  26.096  1.00  0.00    -0.376 OA
BRANCH  26  27
ATOM     27  C   UNL A   1      38.529  21.382  25.480  1.00  0.00     0.202 C 
BRANCH  27  28
ATOM     28  C   UNL A   1      39.303  20.116  25.879  1.00  0.00     0.261 C 
BRANCH  28  29
ATOM     29  O   UNL A   1      40.616  19.981  25.315  1.00  0.00    -0.460 OA
BRANCH  29  30
ATOM     30  C   UNL A   1      41.636  19.724  26.162  1.00  0.00     0.338 C 
ATOM     31  O   UNL A   1      42.154  18.644  26.388  1.00  0.00    -0.246 OA
BRANCH  30  32
ATOM     32  C   UNL A   1      42.167  21.019  26.632  1.00  0.00     0.060 A 
ATOM     33  C   UNL A   1      42.160  21.295  28.006  1.00  0.00     0.016 A 
ATOM     34  C   UNL A   1      42.672  21.952  25.724  1.00  0.00     0.016 A 
ATOM     35  C   UNL A   1      42.619  22.526  28.473  1.00  0.00     0.010 A 
ATOM     36  C   UNL A   1      43.111  23.193  26.191  1.00  0.00     0.010 A 
ATOM     37  C   UNL A   1      43.051  23.500  27.564  1.00  0.00    -0.014 A 
BRANCH  37  38
ATOM     38  C   UNL A   1      43.235  24.900  28.016  1.00  0.00     0.031 A 
ATOM     39  C   UNL A   1      44.631  25.367  28.329  1.00  0.00     0.074 A 
ATOM     40  C   UNL A   1      42.198  25.748  28.128  1.00  0.00     0.049 A 
ATOM     41  N   UNL A   1      45.039  26.525  28.783  1.00  0.00    -0.248 NA
ATOM     42  C   UNL A   1      45.713  24.394  28.102  1.00  0.00     0.031 C 
ATOM     43  C   UNL A   1      40.808  25.438  27.801  1.00  0.00     0.029 A 
ATOM     44  N   UNL A   1      42.163  27.051  28.556  1.00  0.00    -0.354 N 
ATOM     45  C   UNL A   1      46.418  26.413  28.908  1.00  0.00     0.074 A 
ATOM     46  C   UNL A   1      46.776  25.070  28.510  1.00  0.00     0.031 C 
ATOM     47  C   UNL A   1      40.052  26.523  28.048  1.00  0.00     0.029 A 
ATOM     48  C   UNL A   1      40.899  27.587  28.584  1.00  0.00     0.049 A 
ATOM     49  H   UNL A   1      42.968  27.555  28.817  1.00  0.00     0.167 HD
ATOM     50  C   UNL A   1      47.310  27.346  29.317  1.00  0.00     0.031 A 
ATOM     51  C   UNL A   1      40.475  28.792  29.016  1.00  0.00     0.031 A 
ATOM     52  C   UNL A   1      46.954  28.678  29.727  1.00  0.00     0.049 A 
ATOM     53  C   UNL A   1      41.477  29.781  29.555  1.00  0.00     0.074 A 
ATOM     54  C   UNL A   1      47.787  29.702  30.140  1.00  0.00     0.029 A 
ATOM     55  N   UNL A   1      45.658  29.165  29.786  1.00  0.00    -0.354 N 
ATOM     56  N   UNL A   1      42.782  29.677  29.641  1.00  0.00    -0.248 NA
ATOM     57  C   UNL A   1      40.944  31.060  30.049  1.00  0.00     0.031 C 
ATOM     58  C   UNL A   1      46.989  30.787  30.517  1.00  0.00     0.029 A 
ATOM     59  C   UNL A   1      45.665  30.464  30.265  1.00  0.00     0.049 A 
ATOM     60  H   UNL A   1      44.853  28.662  29.528  1.00  0.00     0.167 HD
ATOM     61  C   UNL A   1      43.226  30.885  30.165  1.00  0.00     0.074 A 
ATOM     62  C   UNL A   1      42.055  31.713  30.362  1.00  0.00     0.031 C 
ATOM     63  C   UNL A   1      44.492  31.278  30.453  1.00  0.00     0.031 A 
BRANCH  50  64
ATOM     64  C   UNL A   1      48.756  26.940  29.384  1.00  0.00    -0.014 A 
ATOM     65  C   UNL A   1      49.628  27.141  28.302  1.00  0.00     0.009 A 
ATOM     66  C   UNL A   1      49.260  26.374  30.565  1.00  0.00     0.009 A 
ATOM     67  C   UNL A   1      50.966  26.753  28.391  1.00  0.00     0.001 A 
ATOM     68  C   UNL A   1      50.606  26.017  30.663  1.00  0.00     0.001 A 
ATOM     69  C   UNL A   1      51.455  26.197  29.574  1.00  0.00     0.000 A 
ENDBRANCH  50  64
BRANCH  51  70
ATOM     70  C   UNL A   1      39.027  29.133  28.984  1.00  0.00    -0.014 A 
ATOM     71  C   UNL A   1      38.216  28.924  30.111  1.00  0.00     0.009 A 
ATOM     72  C   UNL A   1      38.437  29.633  27.812  1.00  0.00     0.009 A 
ATOM     73  C   UNL A   1      36.843  29.180  30.054  1.00  0.00     0.001 A 
ATOM     74  C   UNL A   1      37.072  29.920  27.769  1.00  0.00     0.001 A 
ATOM     75  C   UNL A   1      36.273  29.682  28.885  1.00  0.00     0.000 A 
ENDBRANCH  51  70
BRANCH  63  76
ATOM     76  C   UNL A   1      44.686  32.680  30.965  1.00  0.00    -0.014 A 
ATOM     77  C   UNL A   1      44.861  33.765  30.093  1.00  0.00     0.009 A 
ATOM     78  C   UNL A   1      44.643  32.921  32.349  1.00  0.00     0.009 A 
ATOM     79  C   UNL A   1      45.027  35.056  30.598  1.00  0.00     0.001 A 
ATOM     80  C   UNL A   1      44.774  34.217  32.849  1.00  0.00     0.001 A 
ATOM     81  C   UNL A   1      44.978  35.283  31.973  1.00  0.00     0.000 A 
ENDBRANCH  63  76
ENDBRANCH  37  38
ENDBRANCH  30  32
ENDBRANCH  29  30
ENDBRANCH  28  29
ENDBRANCH  27  28
ENDBRANCH  26  27
ENDBRANCH  25  26
ENDBRANCH  24  25
ENDBRANCH   1  24
TORSDOF 24
ENDMDL
MODEL 2
REMARK VINA RESULT:      -8.0      1.319      2.113
REMARK SMILES [NH3+][C@@H](C(=O)OCCOCCOCCOCCOC(=O)c1ccc(-c2c3nc(c(-c4ccccc4)c4ccc([nH]4)c(-c4ccccc4)c4nc(c(-c5ccccc5)c5ccc2[nH]5)C=C4)C=C3)cc1)C(C(F)(F)F)C(F)(F)F
REMARK SMILES IDX 11 1 10 2 9 3 8 4 7 5 6 6 5 7 3 8 4 9 2 10 1 11 68 15 69 16
REMARK SMILES IDX 70 17 71 18 72 19 73 20 74 21 75 22 76 23 12 24 13 25 14 26
REMARK SMILES IDX 15 27 16 28 17 29 18 30 19 31 20 32 21 33 67 34 22 35 66 36
REMARK SMILES IDX 23 37 24 38 25 39 60 40 26 41 65 42 59 43 61 44 27 45 64 46
REMARK SMILES IDX 58 47 57 48 28 50 50 51 35 52 49 53 36 54 39 55 48 56 62 57
REMARK SMILES IDX 37 58 38 59 47 61 63 62 40 63 29 64 30 65 34 66 31 67 33 68
REMARK SMILES IDX 32 69 51 70 52 71 56 72 53 73 55 74 54 75 41 76 42 77 46 78
REMARK SMILES IDX 43 79 45 80 44 81
REMARK H PARENT 1 12 1 13 1 14 61 49 39 60
REMARK Flexibility Score: inf
ROOT
ATOM      1  O   UNL A   1      35.647  23.740  24.726  1.00  0.00    -0.377 OA
ENDROOT
BRANCH   1   2
ATOM      2  C   UNL A   1      34.741  23.099  25.603  1.00  0.00     0.188 C 
BRANCH   2   3
ATOM      3  C   UNL A   1      33.716  24.061  26.234  1.00  0.00     0.188 C 
BRANCH   3   4
ATOM      4  O   UNL A   1      33.612  25.333  25.632  1.00  0.00    -0.376 OA
BRANCH   4   5
ATOM      5  C   UNL A   1      32.966  26.419  26.282  1.00  0.00     0.202 C 
BRANCH   5   6
ATOM      6  C   UNL A   1      33.553  27.830  26.500  1.00  0.00     0.261 C 
BRANCH   6   7
ATOM      7  O   UNL A   1      33.575  28.696  25.367  1.00  0.00    -0.459 OA
BRANCH   7   8
ATOM      8  C   UNL A   1      32.432  29.336  25.007  1.00  0.00     0.365 C 
ATOM      9  O   UNL A   1      31.998  30.350  25.528  1.00  0.00    -0.245 OA
BRANCH   8  10
ATOM     10  C   UNL A   1      31.793  28.645  23.776  1.00  0.00     0.313 C 
BRANCH  10  11
ATOM     11  N   UNL A   1      32.145  29.405  22.542  1.00  0.00    -0.345 N 
ATOM     12  H   UNL A   1      32.844  28.886  22.012  1.00  0.00     0.345 HD
ATOM     13  H   UNL A   1      32.521  30.317  22.799  1.00  0.00     0.345 HD
ATOM     14  H   UNL A   1      31.309  29.532  21.971  1.00  0.00     0.345 HD
ENDBRANCH  10  11
BRANCH  10  15
ATOM     15  C   UNL A   1      30.284  28.383  23.952  1.00  0.00     0.268 C 
BRANCH  15  16
ATOM     16  C   UNL A   1      29.474  29.345  23.142  1.00  0.00     0.406 C 
ATOM     17  F   UNL A   1      28.150  29.194  23.320  1.00  0.00    -0.170 F 
ATOM     18  F   UNL A   1      29.792  30.629  23.407  1.00  0.00    -0.170 F 
ATOM     19  F   UNL A   1      29.733  29.170  21.820  1.00  0.00    -0.170 F 
ENDBRANCH  15  16
BRANCH  15  20
ATOM     20  C   UNL A   1      29.886  27.008  23.498  1.00  0.00     0.406 C 
ATOM     21  F   UNL A   1      28.544  26.931  23.349  1.00  0.00    -0.170 F 
ATOM     22  F   UNL A   1      30.399  26.703  22.288  1.00  0.00    -0.170 F 
ATOM     23  F   UNL A   1      30.267  26.053  24.364  1.00  0.00    -0.170 F 
ENDBRANCH  15  20
ENDBRANCH  10  15
ENDBRANCH   8  10
ENDBRANCH   7   8
ENDBRANCH   6   7
ENDBRANCH   5   6
ENDBRANCH   4   5
ENDBRANCH   3   4
ENDBRANCH   2   3
ENDBRANCH   1   2
BRANCH   1  24
ATOM     24  C   UNL A   1      36.949  23.169  24.604  1.00  0.00     0.188 C 
BRANCH  24  25
ATOM     25  C   UNL A   1      37.917  23.128  25.811  1.00  0.00     0.188 C 
BRANCH  25  26
ATOM     26  O   UNL A   1      38.834  22.043  25.804  1.00  0.00    -0.376 OA
BRANCH  26  27
ATOM     27  C   UNL A   1      38.353  20.751  25.468  1.00  0.00     0.202 C 
BRANCH  27  28
ATOM     28  C   UNL A   1      39.344  19.586  25.619  1.00  0.00     0.261 C 
BRANCH  28  29
ATOM     29  O   UNL A   1      40.708  19.877  25.277  1.00  0.00    -0.460 OA
BRANCH  29  30
ATOM     30  C   UNL A   1      41.650  19.643  26.215  1.00  0.00     0.338 C 
ATOM     31  O   UNL A   1      42.133  18.567  26.524  1.00  0.00    -0.246 OA
BRANCH  30  32
ATOM     32  C   UNL A   1      42.157  20.949  26.680  1.00  0.00     0.060 A 
ATOM     33  C   UNL A   1      42.168  21.220  28.056  1.00  0.00     0.016 A 
ATOM     34  C   UNL A   1      42.620  21.898  25.767  1.00  0.00     0.016 A 
ATOM     35  C   UNL A   1      42.604  22.462  28.518  1.00  0.00     0.010 A 
ATOM     36  C   UNL A   1      43.035  23.149  26.230  1.00  0.00     0.010 A 
ATOM     37  C   UNL A   1      42.993  23.449  27.605  1.00  0.00    -0.014 A 
BRANCH  37  38
ATOM     38  C   UNL A   1      43.150  24.852  28.058  1.00  0.00     0.031 A 
ATOM     39  C   UNL A   1      44.533  25.336  28.404  1.00  0.00     0.074 A 
ATOM     40  C   UNL A   1      42.101  25.687  28.144  1.00  0.00     0.049 A 
ATOM     41  N   UNL A   1      44.915  26.500  28.865  1.00  0.00    -0.248 NA
ATOM     42  C   UNL A   1      45.631  24.376  28.204  1.00  0.00     0.031 C 
ATOM     43  C   UNL A   1      40.722  25.361  27.785  1.00  0.00     0.029 A 
ATOM     44  N   UNL A   1      42.040  26.991  28.569  1.00  0.00    -0.354 N 
ATOM     45  C   UNL A   1      46.292  26.405  29.023  1.00  0.00     0.074 A 
ATOM     46  C   UNL A   1      46.676  25.066  28.636  1.00  0.00     0.031 C 
ATOM     47  C   UNL A   1      39.948  26.437  28.012  1.00  0.00     0.029 A 
ATOM     48  C   UNL A   1      40.770  27.512  28.566  1.00  0.00     0.049 A 
ATOM     49  H   UNL A   1      42.832  27.505  28.848  1.00  0.00     0.167 HD
ATOM     50  C   UNL A   1      47.164  27.349  29.451  1.00  0.00     0.031 A 
ATOM     51  C   UNL A   1      40.321  28.712  28.986  1.00  0.00     0.031 A 
ATOM     52  C   UNL A   1      46.782  28.677  29.850  1.00  0.00     0.049 A 
ATOM     53  C   UNL A   1      41.298  29.714  29.546  1.00  0.00     0.074 A 
ATOM     54  C   UNL A   1      47.592  29.712  30.282  1.00  0.00     0.029 A 
ATOM     55  N   UNL A   1      45.479  29.149  29.878  1.00  0.00    -0.354 N 
ATOM     56  N   UNL A   1      42.601  29.626  29.664  1.00  0.00    -0.248 NA
ATOM     57  C   UNL A   1      40.738  30.987  30.025  1.00  0.00     0.031 C 
ATOM     58  C   UNL A   1      46.773  30.787  30.638  1.00  0.00     0.029 A 
ATOM     59  C   UNL A   1      45.459  30.448  30.354  1.00  0.00     0.049 A 
ATOM     60  H   UNL A   1      44.686  28.636  29.602  1.00  0.00     0.167 HD
ATOM     61  C   UNL A   1      43.018  30.840  30.196  1.00  0.00     0.074 A 
ATOM     62  C   UNL A   1      41.833  31.654  30.363  1.00  0.00     0.031 C 
ATOM     63  C   UNL A   1      44.272  31.248  30.513  1.00  0.00     0.031 A 
BRANCH  50  64
ATOM     64  C   UNL A   1      48.612  26.960  29.553  1.00  0.00    -0.014 A 
ATOM     65  C   UNL A   1      49.500  27.142  28.481  1.00  0.00     0.009 A 
ATOM     66  C   UNL A   1      49.102  26.432  30.758  1.00  0.00     0.009 A 
ATOM     67  C   UNL A   1      50.841  26.771  28.603  1.00  0.00     0.001 A 
ATOM     68  C   UNL A   1      50.449  26.092  30.888  1.00  0.00     0.001 A 
ATOM     69  C   UNL A   1      51.315  26.252  29.808  1.00  0.00     0.000 A 
ENDBRANCH  50  64
BRANCH  51  70
ATOM     70  C   UNL A   1      38.869  29.036  28.919  1.00  0.00    -0.014 A 
ATOM     71  C   UNL A   1      38.284  29.460  27.716  1.00  0.00     0.009 A 
ATOM     72  C   UNL A   1      38.068  28.961  30.071  1.00  0.00     0.009 A 
ATOM     73  C   UNL A   1      36.937  29.830  27.675  1.00  0.00     0.001 A 
ATOM     74  C   UNL A   1      36.715  29.300  30.018  1.00  0.00     0.001 A 
ATOM     75  C   UNL A   1      36.153  29.746  28.824  1.00  0.00     0.000 A 
ENDBRANCH  51  70
BRANCH  63  76
ATOM     76  C   UNL A   1      44.437  32.653  31.028  1.00  0.00    -0.014 A 
ATOM     77  C   UNL A   1      44.670  33.732  30.161  1.00  0.00     0.009 A 
ATOM     78  C   UNL A   1      44.307  32.904  32.404  1.00  0.00     0.009 A 
ATOM     79  C   UNL A   1      44.807  35.027  30.667  1.00  0.00     0.001 A 
ATOM     80  C   UNL A   1      44.410  34.203  32.903  1.00  0.00     0.001 A 
ATOM     81  C   UNL A   1      44.671  35.263  32.035  1.00  0.00     0.000 A 
ENDBRANCH  63  76
ENDBRANCH  37  38
ENDBRANCH  30  32
ENDBRANCH  29  30
ENDBRANCH  28  29
ENDBRANCH  27  28
ENDBRANCH  26  27
ENDBRANCH  25  26
ENDBRANCH  24  25
ENDBRANCH   1  24
TORSDOF 24
ENDMDL
MODEL 3
REMARK VINA RESULT:      -7.9      1.440      1.967
REMARK SMILES [NH3+][C@@H](C(=O)OCCOCCOCCOCCOC(=O)c1ccc(-c2c3nc(c(-c4ccccc4)c4ccc([nH]4)c(-c4ccccc4)c4nc(c(-c5ccccc5)c5ccc2[nH]5)C=C4)C=C3)cc1)C(C(F)(F)F)C(F)(F)F
REMARK SMILES IDX 11 1 10 2 9 3 8 4 7 5 6 6 5 7 3 8 4 9 2 10 1 11 68 15 69 16
REMARK SMILES IDX 70 17 71 18 72 19 73 20 74 21 75 22 76 23 12 24 13 25 14 26
REMARK SMILES IDX 15 27 16 28 17 29 18 30 19 31 20 32 21 33 67 34 22 35 66 36
REMARK SMILES IDX 23 37 24 38 25 39 60 40 26 41 65 42 59 43 61 44 27 45 64 46
REMARK SMILES IDX 58 47 57 48 28 50 50 51 35 52 49 53 36 54 39 55 48 56 62 57
REMARK SMILES IDX 37 58 38 59 47 61 63 62 40 63 29 64 30 65 34 66 31 67 33 68
REMARK SMILES IDX 32 69 51 70 52 71 56 72 53 73 55 74 54 75 41 76 42 77 46 78
REMARK SMILES IDX 43 79 45 80 44 81
REMARK H PARENT 1 12 1 13 1 14 61 49 39 60
REMARK Flexibility Score: inf
ROOT
ATOM      1  O   UNL A   1      35.318  23.606  24.847  1.00  0.00    -0.377 OA
ENDROOT
BRANCH   1   2
ATOM      2  C   UNL A   1      34.736  22.376  24.458  1.00  0.00     0.188 C 
BRANCH   2   3
ATOM      3  C   UNL A   1      33.271  22.223  24.909  1.00  0.00     0.188 C 
BRANCH   3   4
ATOM      4  O   UNL A   1      32.297  22.746  24.031  1.00  0.00    -0.376 OA
BRANCH   4   5
ATOM      5  C   UNL A   1      32.576  23.842  23.171  1.00  0.00     0.202 C 
BRANCH   5   6
ATOM      6  C   UNL A   1      31.636  25.031  22.877  1.00  0.00     0.261 C 
BRANCH   6   7
ATOM      7  O   UNL A   1      30.540  25.216  23.770  1.00  0.00    -0.459 OA
BRANCH   7   8
ATOM      8  C   UNL A   1      30.794  25.536  25.065  1.00  0.00     0.365 C 
ATOM      9  O   UNL A   1      30.856  24.740  25.989  1.00  0.00    -0.245 OA
BRANCH   8  10
ATOM     10  C   UNL A   1      31.084  27.052  25.199  1.00  0.00     0.313 C 
BRANCH  10  11
ATOM     11  N   UNL A   1      31.291  27.640  23.844  1.00  0.00    -0.345 N 
ATOM     12  H   UNL A   1      31.634  26.919  23.210  1.00  0.00     0.345 HD
ATOM     13  H   UNL A   1      31.972  28.396  23.902  1.00  0.00     0.345 HD
ATOM     14  H   UNL A   1      30.405  28.007  23.495  1.00  0.00     0.345 HD
ENDBRANCH  10  11
BRANCH  10  15
ATOM     15  C   UNL A   1      32.212  27.360  26.204  1.00  0.00     0.268 C 
BRANCH  15  16
ATOM     16  C   UNL A   1      33.478  27.723  25.495  1.00  0.00     0.406 C 
ATOM     17  F   UNL A   1      33.828  26.825  24.558  1.00  0.00    -0.170 F 
ATOM     18  F   UNL A   1      33.406  28.936  24.911  1.00  0.00    -0.170 F 
ATOM     19  F   UNL A   1      34.500  27.806  26.386  1.00  0.00    -0.170 F 
ENDBRANCH  15  16
BRANCH  15  20
ATOM     20  C   UNL A   1      31.880  28.521  27.098  1.00  0.00     0.406 C 
ATOM     21  F   UNL A   1      32.999  28.989  27.697  1.00  0.00    -0.170 F 
ATOM     22  F   UNL A   1      31.379  29.567  26.408  1.00  0.00    -0.170 F 
ATOM     23  F   UNL A   1      30.996  28.193  28.056  1.00  0.00    -0.170 F 
ENDBRANCH  15  20
ENDBRANCH  10  15
ENDBRANCH   8  10
ENDBRANCH   7   8
ENDBRANCH   6   7
ENDBRANCH   5   6
ENDBRANCH   4   5
ENDBRANCH   3   4
ENDBRANCH   2   3
ENDBRANCH   1   2
BRANCH   1  24
ATOM     24  C   UNL A   1      36.742  23.692  24.812  1.00  0.00     0.188 C 
BRANCH  24  25
ATOM     25  C   UNL A   1      37.586  23.462  26.089  1.00  0.00     0.188 C 
BRANCH  25  26
ATOM     26  O   UNL A   1      38.550  22.423  25.988  1.00  0.00    -0.376 OA
BRANCH  26  27
ATOM     27  C   UNL A   1      38.194  21.232  25.303  1.00  0.00     0.202 C 
BRANCH  27  28
ATOM     28  C   UNL A   1      39.005  19.973  25.645  1.00  0.00     0.261 C 
BRANCH  28  29
ATOM     29  O   UNL A   1      40.345  19.931  25.130  1.00  0.00    -0.460 OA
BRANCH  29  30
ATOM     30  C   UNL A   1      41.338  19.645  25.999  1.00  0.00     0.338 C 
ATOM     31  O   UNL A   1      41.840  18.555  26.214  1.00  0.00    -0.246 OA
BRANCH  30  32
ATOM     32  C   UNL A   1      41.868  20.924  26.513  1.00  0.00     0.060 A 
ATOM     33  C   UNL A   1      41.794  21.182  27.889  1.00  0.00     0.016 A 
ATOM     34  C   UNL A   1      42.436  21.859  25.646  1.00  0.00     0.016 A 
ATOM     35  C   UNL A   1      42.251  22.399  28.396  1.00  0.00     0.010 A 
ATOM     36  C   UNL A   1      42.872  23.085  26.152  1.00  0.00     0.010 A 
ATOM     37  C   UNL A   1      42.747  23.376  27.523  1.00  0.00    -0.014 A 
BRANCH  37  38
ATOM     38  C   UNL A   1      42.933  24.766  28.004  1.00  0.00     0.031 A 
ATOM     39  C   UNL A   1      44.323  25.209  28.375  1.00  0.00     0.074 A 
ATOM     40  C   UNL A   1      41.904  25.626  28.091  1.00  0.00     0.049 A 
ATOM     41  N   UNL A   1      44.728  26.354  28.861  1.00  0.00    -0.248 NA
ATOM     42  C   UNL A   1      45.399  24.225  28.172  1.00  0.00     0.031 C 
ATOM     43  C   UNL A   1      40.522  25.341  27.709  1.00  0.00     0.029 A 
ATOM     44  N   UNL A   1      41.870  26.924  28.537  1.00  0.00    -0.354 N 
ATOM     45  C   UNL A   1      46.100  26.222  29.035  1.00  0.00     0.074 A 
ATOM     46  C   UNL A   1      46.455  24.880  28.630  1.00  0.00     0.031 C 
ATOM     47  C   UNL A   1      39.772  26.432  27.945  1.00  0.00     0.029 A 
ATOM     48  C   UNL A   1      40.613  27.476  28.528  1.00  0.00     0.049 A 
ATOM     49  H   UNL A   1      42.671  27.412  28.836  1.00  0.00     0.167 HD
ATOM     50  C   UNL A   1      46.989  27.136  29.491  1.00  0.00     0.031 A 
ATOM     51  C   UNL A   1      40.189  28.680  28.963  1.00  0.00     0.031 A 
ATOM     52  C   UNL A   1      46.636  28.466  29.908  1.00  0.00     0.049 A 
ATOM     53  C   UNL A   1      41.184  29.647  29.553  1.00  0.00     0.074 A 
ATOM     54  C   UNL A   1      47.466  29.473  30.367  1.00  0.00     0.029 A 
ATOM     55  N   UNL A   1      45.345  28.971  29.928  1.00  0.00    -0.354 N 
ATOM     56  N   UNL A   1      42.483  29.524  29.686  1.00  0.00    -0.248 NA
ATOM     57  C   UNL A   1      40.650  30.925  30.047  1.00  0.00     0.031 C 
ATOM     58  C   UNL A   1      46.670  30.562  30.732  1.00  0.00     0.029 A 
ATOM     59  C   UNL A   1      45.352  30.262  30.426  1.00  0.00     0.049 A 
ATOM     60  H   UNL A   1      44.543  28.482  29.632  1.00  0.00     0.167 HD
ATOM     61  C   UNL A   1      42.924  30.718  30.243  1.00  0.00     0.074 A 
ATOM     62  C   UNL A   1      41.757  31.558  30.410  1.00  0.00     0.031 C 
ATOM     63  C   UNL A   1      44.183  31.089  30.584  1.00  0.00     0.031 A 
BRANCH  50  64
ATOM     64  C   UNL A   1      48.426  26.709  29.604  1.00  0.00    -0.014 A 
ATOM     65  C   UNL A   1      49.350  26.953  28.576  1.00  0.00     0.009 A 
ATOM     66  C   UNL A   1      48.868  26.078  30.778  1.00  0.00     0.009 A 
ATOM     67  C   UNL A   1      50.679  26.545  28.707  1.00  0.00     0.001 A 
ATOM     68  C   UNL A   1      50.204  25.700  30.920  1.00  0.00     0.001 A 
ATOM     69  C   UNL A   1      51.106  25.924  29.882  1.00  0.00     0.000 A 
ENDBRANCH  50  64
BRANCH  51  70
ATOM     70  C   UNL A   1      38.748  29.042  28.883  1.00  0.00    -0.014 A 
ATOM     71  C   UNL A   1      38.204  29.565  27.700  1.00  0.00     0.009 A 
ATOM     72  C   UNL A   1      37.915  28.903  30.006  1.00  0.00     0.009 A 
ATOM     73  C   UNL A   1      36.866  29.969  27.652  1.00  0.00     0.001 A 
ATOM     74  C   UNL A   1      36.571  29.276  29.944  1.00  0.00     0.001 A 
ATOM     75  C   UNL A   1      36.050  29.820  28.772  1.00  0.00     0.000 A 
ENDBRANCH  51  70
BRANCH  63  76
ATOM     76  C   UNL A   1      44.376  32.480  31.125  1.00  0.00    -0.014 A 
ATOM     77  C   UNL A   1      44.597  33.576  30.277  1.00  0.00     0.009 A 
ATOM     78  C   UNL A   1      44.287  32.701  32.510  1.00  0.00     0.009 A 
ATOM     79  C   UNL A   1      44.761  34.857  30.807  1.00  0.00     0.001 A 
ATOM     80  C   UNL A   1      44.416  33.988  33.034  1.00  0.00     0.001 A 
ATOM     81  C   UNL A   1      44.665  35.064  32.183  1.00  0.00     0.000 A 
ENDBRANCH  63  76
ENDBRANCH  37  38
ENDBRANCH  30  32
ENDBRANCH  29  30
ENDBRANCH  28  29
ENDBRANCH  27  28
ENDBRANCH  26  27
ENDBRANCH  25  26
ENDBRANCH  24  25
ENDBRANCH   1  24
TORSDOF 24
ENDMDL
