MODEL 1
REMARK VINA RESULT:      -9.2      0.000      0.000
REMARK SMILES Cc1ccc(F)cc1NS(=O)(=O)c1ccc(C(=O)OCCOCCOCCOCCOC(=O)c2ccc(-c3c4nc(c(-c5ccccc5)c5ccc([nH]5)c(-c5ccccc5)c5nc(c(-c6ccccc6)c6ccc3[nH]6)C=C5)C=C4)cc2)cc1
REMARK SMILES IDX 24 1 23 2 22 3 21 4 20 5 19 6 17 7 18 8 16 9 13 10 14 11
REMARK SMILES IDX 83 12 15 13 82 14 10 15 11 16 12 17 9 18 8 20 1 21 2 22 3 23
REMARK SMILES IDX 4 24 7 25 5 26 6 27 25 28 26 29 27 30 28 31 29 32 30 33
REMARK SMILES IDX 31 34 32 35 33 36 34 37 35 38 81 39 36 40 80 41 37 42 38 43
REMARK SMILES IDX 39 44 74 45 40 46 79 47 73 48 75 49 41 50 78 51 72 52 71 53
REMARK SMILES IDX 42 55 64 56 49 57 63 58 50 59 53 60 62 61 76 62 51 63 52 64
REMARK SMILES IDX 61 66 77 67 54 68 43 69 44 70 48 71 45 72 47 73 46 74 65 75
REMARK SMILES IDX 66 76 70 77 67 78 69 79 68 80 55 81 56 82 60 83 57 84 59 85
REMARK SMILES IDX 58 86
REMARK H PARENT 9 19 75 54 53 65
REMARK Flexibility Score: inf
ROOT
ATOM      1  C   UNL A   1      32.534  28.732  26.487  1.00  0.00     0.188 C 
ENDROOT
BRANCH   1   2
ATOM      2  C   UNL A   1      32.820  29.451  25.157  1.00  0.00     0.188 C 
BRANCH   2   3
ATOM      3  O   UNL A   1      33.367  28.596  24.165  1.00  0.00    -0.376 OA
BRANCH   3   4
ATOM      4  C   UNL A   1      32.791  28.593  22.870  1.00  0.00     0.202 C 
BRANCH   4   5
ATOM      5  C   UNL A   1      31.301  28.934  22.696  1.00  0.00     0.261 C 
BRANCH   5   6
ATOM      6  O   UNL A   1      30.457  27.855  22.273  1.00  0.00    -0.460 OA
BRANCH   6   7
ATOM      7  C   UNL A   1      29.484  27.466  23.126  1.00  0.00     0.338 C 
ATOM      8  O   UNL A   1      28.340  27.886  23.147  1.00  0.00    -0.246 OA
BRANCH   7   9
ATOM      9  C   UNL A   1      29.964  26.311  23.937  1.00  0.00     0.060 A 
ATOM     10  C   UNL A   1      31.032  24.119  25.328  1.00  0.00     0.087 A 
ATOM     11  C   UNL A   1      30.803  24.023  23.954  1.00  0.00     0.023 A 
ATOM     12  C   UNL A   1      30.686  25.292  26.015  1.00  0.00     0.023 A 
ATOM     13  C   UNL A   1      30.300  25.130  23.259  1.00  0.00     0.017 A 
ATOM     14  C   UNL A   1      30.141  26.381  25.325  1.00  0.00     0.017 A 
BRANCH  10  15
ATOM     15  S   UNL A   1      31.860  22.845  26.263  1.00  0.00     0.261 S 
ATOM     16  O   UNL A   1      31.697  21.628  25.496  1.00  0.00    -0.201 OA
ATOM     17  O   UNL A   1      31.384  22.940  27.626  1.00  0.00    -0.201 OA
BRANCH  15  18
ATOM     18  N   UNL A   1      33.506  23.116  26.272  1.00  0.00    -0.279 N 
ATOM     19  H   UNL A   1      33.834  23.675  27.013  1.00  0.00     0.180 HD
BRANCH  18  20
ATOM     20  C   UNL A   1      34.509  22.661  25.367  1.00  0.00     0.055 A 
ATOM     21  C   UNL A   1      34.396  24.886  24.072  1.00  0.00     0.046 C 
ATOM     22  C   UNL A   1      35.074  23.604  24.481  1.00  0.00    -0.027 A 
ATOM     23  C   UNL A   1      36.317  23.327  23.881  1.00  0.00     0.008 A 
ATOM     24  C   UNL A   1      36.948  22.106  24.098  1.00  0.00     0.039 A 
ATOM     25  C   UNL A   1      35.054  21.378  25.426  1.00  0.00     0.066 A 
ATOM     26  C   UNL A   1      36.287  21.129  24.827  1.00  0.00     0.125 A 
ATOM     27  F   UNL A   1      36.875  19.938  25.008  1.00  0.00    -0.207 F 
ENDBRANCH  18  20
ENDBRANCH  15  18
ENDBRANCH  10  15
ENDBRANCH   7   9
ENDBRANCH   6   7
ENDBRANCH   5   6
ENDBRANCH   4   5
ENDBRANCH   3   4
ENDBRANCH   2   3
ENDBRANCH   1   2
BRANCH   1  28
ATOM     28  O   UNL A   1      33.660  28.299  27.235  1.00  0.00    -0.377 OA
BRANCH  28  29
ATOM     29  C   UNL A   1      34.883  29.035  27.161  1.00  0.00     0.188 C 
BRANCH  29  30
ATOM     30  C   UNL A   1      35.166  30.301  28.008  1.00  0.00     0.188 C 
BRANCH  30  31
ATOM     31  O   UNL A   1      34.568  31.490  27.520  1.00  0.00    -0.376 OA
BRANCH  31  32
ATOM     32  C   UNL A   1      35.079  32.720  28.001  1.00  0.00     0.202 C 
BRANCH  32  33
ATOM     33  C   UNL A   1      34.139  33.524  28.910  1.00  0.00     0.261 C 
BRANCH  33  34
ATOM     34  O   UNL A   1      34.777  34.322  29.921  1.00  0.00    -0.460 OA
BRANCH  34  35
ATOM     35  C   UNL A   1      34.663  33.911  31.202  1.00  0.00     0.338 C 
ATOM     36  O   UNL A   1      33.653  33.894  31.887  1.00  0.00    -0.246 OA
BRANCH  35  37
ATOM     37  C   UNL A   1      35.951  33.303  31.593  1.00  0.00     0.060 A 
ATOM     38  C   UNL A   1      37.142  33.820  31.065  1.00  0.00     0.016 A 
ATOM     39  C   UNL A   1      35.980  32.234  32.491  1.00  0.00     0.016 A 
ATOM     40  C   UNL A   1      38.366  33.244  31.410  1.00  0.00     0.010 A 
ATOM     41  C   UNL A   1      37.204  31.647  32.820  1.00  0.00     0.010 A 
ATOM     42  C   UNL A   1      38.400  32.127  32.256  1.00  0.00    -0.014 A 
BRANCH  42  43
ATOM     43  C   UNL A   1      39.649  31.342  32.399  1.00  0.00     0.031 A 
ATOM     44  C   UNL A   1      39.909  30.230  31.418  1.00  0.00     0.074 A 
ATOM     45  C   UNL A   1      40.544  31.607  33.367  1.00  0.00     0.049 A 
ATOM     46  N   UNL A   1      40.900  29.376  31.371  1.00  0.00    -0.248 NA
ATOM     47  C   UNL A   1      38.913  30.058  30.348  1.00  0.00     0.031 C 
ATOM     48  C   UNL A   1      40.436  32.683  34.351  1.00  0.00     0.029 A 
ATOM     49  N   UNL A   1      41.722  30.975  33.684  1.00  0.00    -0.354 N 
ATOM     50  C   UNL A   1      40.640  28.561  30.277  1.00  0.00     0.074 A 
ATOM     51  C   UNL A   1      39.386  29.001  29.706  1.00  0.00     0.031 C 
ATOM     52  C   UNL A   1      41.503  32.632  35.167  1.00  0.00     0.029 A 
ATOM     53  C   UNL A   1      42.347  31.500  34.788  1.00  0.00     0.049 A 
ATOM     54  H   UNL A   1      42.083  30.219  33.168  1.00  0.00     0.167 HD
ATOM     55  C   UNL A   1      41.380  27.540  29.784  1.00  0.00     0.031 A 
ATOM     56  C   UNL A   1      43.458  31.095  35.434  1.00  0.00     0.031 A 
ATOM     57  C   UNL A   1      42.617  27.086  30.363  1.00  0.00     0.049 A 
ATOM     58  C   UNL A   1      44.217  29.896  34.923  1.00  0.00     0.074 A 
ATOM     59  C   UNL A   1      43.448  26.067  29.930  1.00  0.00     0.029 A 
ATOM     60  N   UNL A   1      43.193  27.615  31.507  1.00  0.00    -0.354 N 
ATOM     61  N   UNL A   1      43.979  29.152  33.870  1.00  0.00    -0.248 NA
ATOM     62  C   UNL A   1      45.404  29.488  35.690  1.00  0.00     0.031 C 
ATOM     63  C   UNL A   1      44.491  25.936  30.852  1.00  0.00     0.029 A 
ATOM     64  C   UNL A   1      44.350  26.921  31.816  1.00  0.00     0.049 A 
ATOM     65  H   UNL A   1      42.832  28.372  32.024  1.00  0.00     0.167 HD
ATOM     66  C   UNL A   1      45.002  28.210  33.830  1.00  0.00     0.074 A 
ATOM     67  C   UNL A   1      45.870  28.487  34.955  1.00  0.00     0.031 C 
ATOM     68  C   UNL A   1      45.205  27.207  32.940  1.00  0.00     0.031 A 
BRANCH  55  69
ATOM     69  C   UNL A   1      40.843  26.814  28.582  1.00  0.00    -0.014 A 
ATOM     70  C   UNL A   1      41.307  27.094  27.287  1.00  0.00     0.009 A 
ATOM     71  C   UNL A   1      39.869  25.817  28.751  1.00  0.00     0.009 A 
ATOM     72  C   UNL A   1      40.779  26.420  26.184  1.00  0.00     0.001 A 
ATOM     73  C   UNL A   1      39.367  25.120  27.651  1.00  0.00     0.001 A 
ATOM     74  C   UNL A   1      39.814  25.429  26.367  1.00  0.00     0.000 A 
ENDBRANCH  55  69
BRANCH  56  75
ATOM     75  C   UNL A   1      43.919  31.812  36.654  1.00  0.00    -0.014 A 
ATOM     76  C   UNL A   1      44.837  32.870  36.563  1.00  0.00     0.009 A 
ATOM     77  C   UNL A   1      43.463  31.420  37.923  1.00  0.00     0.009 A 
ATOM     78  C   UNL A   1      45.308  33.502  37.716  1.00  0.00     0.001 A 
ATOM     79  C   UNL A   1      43.911  32.075  39.072  1.00  0.00     0.001 A 
ATOM     80  C   UNL A   1      44.842  33.107  38.969  1.00  0.00     0.000 A 
ENDBRANCH  56  75
BRANCH  68  81
ATOM     81  C   UNL A   1      46.437  26.360  33.118  1.00  0.00    -0.014 A 
ATOM     82  C   UNL A   1      47.654  26.694  32.506  1.00  0.00     0.009 A 
ATOM     83  C   UNL A   1      46.386  25.231  33.954  1.00  0.00     0.009 A 
ATOM     84  C   UNL A   1      48.785  25.896  32.698  1.00  0.00     0.001 A 
ATOM     85  C   UNL A   1      47.525  24.456  34.171  1.00  0.00     0.001 A 
ATOM     86  C   UNL A   1      48.721  24.782  33.534  1.00  0.00     0.000 A 
ENDBRANCH  68  81
ENDBRANCH  42  43
ENDBRANCH  35  37
ENDBRANCH  34  35
ENDBRANCH  33  34
ENDBRANCH  32  33
ENDBRANCH  31  32
ENDBRANCH  30  31
ENDBRANCH  29  30
ENDBRANCH  28  29
ENDBRANCH   1  28
TORSDOF 23
ENDMDL
MODEL 2
REMARK VINA RESULT:      -9.1      1.402      5.868
REMARK SMILES Cc1ccc(F)cc1NS(=O)(=O)c1ccc(C(=O)OCCOCCOCCOCCOC(=O)c2ccc(-c3c4nc(c(-c5ccccc5)c5ccc([nH]5)c(-c5ccccc5)c5nc(c(-c6ccccc6)c6ccc3[nH]6)C=C5)C=C4)cc2)cc1
REMARK SMILES IDX 24 1 23 2 22 3 21 4 20 5 19 6 17 7 18 8 16 9 13 10 14 11
REMARK SMILES IDX 83 12 15 13 82 14 10 15 11 16 12 17 9 18 8 20 1 21 2 22 3 23
REMARK SMILES IDX 4 24 7 25 5 26 6 27 25 28 26 29 27 30 28 31 29 32 30 33
REMARK SMILES IDX 31 34 32 35 33 36 34 37 35 38 81 39 36 40 80 41 37 42 38 43
REMARK SMILES IDX 39 44 74 45 40 46 79 47 73 48 75 49 41 50 78 51 72 52 71 53
REMARK SMILES IDX 42 55 64 56 49 57 63 58 50 59 53 60 62 61 76 62 51 63 52 64
REMARK SMILES IDX 61 66 77 67 54 68 43 69 44 70 48 71 45 72 47 73 46 74 65 75
REMARK SMILES IDX 66 76 70 77 67 78 69 79 68 80 55 81 56 82 60 83 57 84 59 85
REMARK SMILES IDX 58 86
REMARK H PARENT 9 19 75 54 53 65
REMARK Flexibility Score: inf
ROOT
ATOM      1  C   UNL A   1      32.550  28.452  26.075  1.00  0.00     0.188 C 
ENDROOT
BRANCH   1   2
ATOM      2  C   UNL A   1      32.839  29.348  24.857  1.00  0.00     0.188 C 
BRANCH   2   3
ATOM      3  O   UNL A   1      33.425  28.645  23.773  1.00  0.00    -0.376 OA
BRANCH   3   4
ATOM      4  C   UNL A   1      32.825  28.739  22.492  1.00  0.00     0.202 C 
BRANCH   4   5
ATOM      5  C   UNL A   1      31.320  29.036  22.373  1.00  0.00     0.261 C 
BRANCH   5   6
ATOM      6  O   UNL A   1      30.478  27.909  22.097  1.00  0.00    -0.460 OA
BRANCH   6   7
ATOM      7  C   UNL A   1      29.628  27.524  23.073  1.00  0.00     0.338 C 
ATOM      8  O   UNL A   1      28.498  27.949  23.248  1.00  0.00    -0.246 OA
BRANCH   7   9
ATOM      9  C   UNL A   1      30.208  26.367  23.812  1.00  0.00     0.060 A 
ATOM     10  C   UNL A   1      31.101  24.135  25.262  1.00  0.00     0.087 A 
ATOM     11  C   UNL A   1      30.279  25.079  25.879  1.00  0.00     0.023 A 
ATOM     12  C   UNL A   1      31.514  24.328  23.934  1.00  0.00     0.023 A 
ATOM     13  C   UNL A   1      29.810  26.174  25.143  1.00  0.00     0.017 A 
ATOM     14  C   UNL A   1      31.080  25.447  23.215  1.00  0.00     0.017 A 
BRANCH  10  15
ATOM     15  S   UNL A   1      31.579  22.606  26.046  1.00  0.00     0.261 S 
ATOM     16  O   UNL A   1      30.363  21.828  26.160  1.00  0.00    -0.201 OA
ATOM     17  O   UNL A   1      32.359  22.952  27.214  1.00  0.00    -0.201 OA
BRANCH  15  18
ATOM     18  N   UNL A   1      32.550  21.714  25.023  1.00  0.00    -0.279 N 
ATOM     19  H   UNL A   1      33.318  22.201  24.646  1.00  0.00     0.180 HD
BRANCH  18  20
ATOM     20  C   UNL A   1      32.434  20.354  24.613  1.00  0.00     0.055 A 
ATOM     21  C   UNL A   1      31.781  21.095  22.232  1.00  0.00     0.046 C 
ATOM     22  C   UNL A   1      32.296  20.092  23.232  1.00  0.00    -0.027 A 
ATOM     23  C   UNL A   1      32.594  18.806  22.742  1.00  0.00     0.008 A 
ATOM     24  C   UNL A   1      32.946  17.783  23.615  1.00  0.00     0.039 A 
ATOM     25  C   UNL A   1      32.603  19.283  25.489  1.00  0.00     0.066 A 
ATOM     26  C   UNL A   1      32.899  18.020  24.981  1.00  0.00     0.125 A 
ATOM     27  F   UNL A   1      33.203  17.027  25.828  1.00  0.00    -0.207 F 
ENDBRANCH  18  20
ENDBRANCH  15  18
ENDBRANCH  10  15
ENDBRANCH   7   9
ENDBRANCH   6   7
ENDBRANCH   5   6
ENDBRANCH   4   5
ENDBRANCH   3   4
ENDBRANCH   2   3
ENDBRANCH   1   2
BRANCH   1  28
ATOM     28  O   UNL A   1      33.644  28.174  26.937  1.00  0.00    -0.377 OA
BRANCH  28  29
ATOM     29  C   UNL A   1      34.743  29.085  27.002  1.00  0.00     0.188 C 
BRANCH  29  30
ATOM     30  C   UNL A   1      34.798  30.283  27.982  1.00  0.00     0.188 C 
BRANCH  30  31
ATOM     31  O   UNL A   1      34.422  31.529  27.423  1.00  0.00    -0.376 OA
BRANCH  31  32
ATOM     32  C   UNL A   1      34.914  32.700  28.049  1.00  0.00     0.202 C 
BRANCH  32  33
ATOM     33  C   UNL A   1      33.864  33.585  28.733  1.00  0.00     0.261 C 
BRANCH  33  34
ATOM     34  O   UNL A   1      34.376  34.597  29.616  1.00  0.00    -0.460 OA
BRANCH  34  35
ATOM     35  C   UNL A   1      34.300  34.362  30.943  1.00  0.00     0.338 C 
ATOM     36  O   UNL A   1      33.350  34.574  31.680  1.00  0.00    -0.246 OA
BRANCH  35  37
ATOM     37  C   UNL A   1      35.517  33.623  31.337  1.00  0.00     0.060 A 
ATOM     38  C   UNL A   1      36.771  34.105  30.938  1.00  0.00     0.016 A 
ATOM     39  C   UNL A   1      35.417  32.464  32.110  1.00  0.00     0.016 A 
ATOM     40  C   UNL A   1      37.929  33.407  31.286  1.00  0.00     0.010 A 
ATOM     41  C   UNL A   1      36.576  31.758  32.441  1.00  0.00     0.010 A 
ATOM     42  C   UNL A   1      37.834  32.207  32.002  1.00  0.00    -0.014 A 
BRANCH  42  43
ATOM     43  C   UNL A   1      39.017  31.322  32.128  1.00  0.00     0.031 A 
ATOM     44  C   UNL A   1      39.968  31.560  33.270  1.00  0.00     0.074 A 
ATOM     45  C   UNL A   1      39.247  30.321  31.260  1.00  0.00     0.049 A 
ATOM     46  N   UNL A   1      41.092  30.955  33.558  1.00  0.00    -0.248 NA
ATOM     47  C   UNL A   1      39.600  32.629  34.214  1.00  0.00     0.031 C 
ATOM     48  C   UNL A   1      38.382  29.955  30.140  1.00  0.00     0.029 A 
ATOM     49  N   UNL A   1      40.291  29.433  31.185  1.00  0.00    -0.354 N 
ATOM     50  C   UNL A   1      41.570  31.575  34.705  1.00  0.00     0.074 A 
ATOM     51  C   UNL A   1      40.631  32.623  35.043  1.00  0.00     0.031 C 
ATOM     52  C   UNL A   1      38.937  28.920  29.484  1.00  0.00     0.029 A 
ATOM     53  C   UNL A   1      40.211  28.578  30.115  1.00  0.00     0.049 A 
ATOM     54  H   UNL A   1      41.028  29.412  31.838  1.00  0.00     0.167 HD
ATOM     55  C   UNL A   1      42.686  31.297  35.418  1.00  0.00     0.031 A 
ATOM     56  C   UNL A   1      41.079  27.644  29.679  1.00  0.00     0.031 A 
ATOM     57  C   UNL A   1      43.632  30.270  35.072  1.00  0.00     0.049 A 
ATOM     58  C   UNL A   1      42.363  27.414  30.436  1.00  0.00     0.074 A 
ATOM     59  C   UNL A   1      44.788  29.903  35.738  1.00  0.00     0.029 A 
ATOM     60  N   UNL A   1      43.536  29.456  33.954  1.00  0.00    -0.354 N 
ATOM     61  N   UNL A   1      42.789  27.987  31.536  1.00  0.00    -0.248 NA
ATOM     62  C   UNL A   1      43.281  26.403  29.891  1.00  0.00     0.031 C 
ATOM     63  C   UNL A   1      45.426  28.911  34.987  1.00  0.00     0.029 A 
ATOM     64  C   UNL A   1      44.631  28.610  33.893  1.00  0.00     0.049 A 
ATOM     65  H   UNL A   1      42.800  29.476  33.301  1.00  0.00     0.167 HD
ATOM     66  C   UNL A   1      44.007  27.383  31.832  1.00  0.00     0.074 A 
ATOM     67  C   UNL A   1      44.242  26.390  30.804  1.00  0.00     0.031 C 
ATOM     68  C   UNL A   1      44.854  27.627  32.864  1.00  0.00     0.031 A 
BRANCH  55  69
ATOM     69  C   UNL A   1      42.966  32.152  36.624  1.00  0.00    -0.014 A 
ATOM     70  C   UNL A   1      42.590  31.747  37.915  1.00  0.00     0.009 A 
ATOM     71  C   UNL A   1      43.638  33.375  36.466  1.00  0.00     0.009 A 
ATOM     72  C   UNL A   1      42.845  32.567  39.016  1.00  0.00     0.001 A 
ATOM     73  C   UNL A   1      43.921  34.177  37.572  1.00  0.00     0.001 A 
ATOM     74  C   UNL A   1      43.516  33.778  38.845  1.00  0.00     0.000 A 
ENDBRANCH  55  69
BRANCH  56  75
ATOM     75  C   UNL A   1      40.783  26.863  28.447  1.00  0.00    -0.014 A 
ATOM     76  C   UNL A   1      40.002  25.698  28.505  1.00  0.00     0.009 A 
ATOM     77  C   UNL A   1      41.308  27.263  27.208  1.00  0.00     0.009 A 
ATOM     78  C   UNL A   1      39.775  24.938  27.355  1.00  0.00     0.001 A 
ATOM     79  C   UNL A   1      41.052  26.520  26.054  1.00  0.00     0.001 A 
ATOM     80  C   UNL A   1      40.296  25.352  26.130  1.00  0.00     0.000 A 
ENDBRANCH  56  75
BRANCH  68  81
ATOM     81  C   UNL A   1      46.093  26.778  32.960  1.00  0.00    -0.014 A 
ATOM     82  C   UNL A   1      47.298  27.166  32.356  1.00  0.00     0.009 A 
ATOM     83  C   UNL A   1      46.062  25.591  33.711  1.00  0.00     0.009 A 
ATOM     84  C   UNL A   1      48.437  26.364  32.471  1.00  0.00     0.001 A 
ATOM     85  C   UNL A   1      47.210  24.809  33.852  1.00  0.00     0.001 A 
ATOM     86  C   UNL A   1      48.393  25.190  33.223  1.00  0.00     0.000 A 
ENDBRANCH  68  81
ENDBRANCH  42  43
ENDBRANCH  35  37
ENDBRANCH  34  35
ENDBRANCH  33  34
ENDBRANCH  32  33
ENDBRANCH  31  32
ENDBRANCH  30  31
ENDBRANCH  29  30
ENDBRANCH  28  29
ENDBRANCH   1  28
TORSDOF 23
ENDMDL
MODEL 3
REMARK VINA RESULT:      -8.6      3.922      4.694
REMARK SMILES Cc1ccc(F)cc1NS(=O)(=O)c1ccc(C(=O)OCCOCCOCCOCCOC(=O)c2ccc(-c3c4nc(c(-c5ccccc5)c5ccc([nH]5)c(-c5ccccc5)c5nc(c(-c6ccccc6)c6ccc3[nH]6)C=C5)C=C4)cc2)cc1
REMARK SMILES IDX 24 1 23 2 22 3 21 4 20 5 19 6 17 7 18 8 16 9 13 10 14 11
REMARK SMILES IDX 83 12 15 13 82 14 10 15 11 16 12 17 9 18 8 20 1 21 2 22 3 23
REMARK SMILES IDX 4 24 7 25 5 26 6 27 25 28 26 29 27 30 28 31 29 32 30 33
REMARK SMILES IDX 31 34 32 35 33 36 34 37 35 38 81 39 36 40 80 41 37 42 38 43
REMARK SMILES IDX 39 44 74 45 40 46 79 47 73 48 75 49 41 50 78 51 72 52 71 53
REMARK SMILES IDX 42 55 64 56 49 57 63 58 50 59 53 60 62 61 76 62 51 63 52 64
REMARK SMILES IDX 61 66 77 67 54 68 43 69 44 70 48 71 45 72 47 73 46 74 65 75
REMARK SMILES IDX 66 76 70 77 67 78 69 79 68 80 55 81 56 82 60 83 57 84 59 85
REMARK SMILES IDX 58 86
REMARK H PARENT 9 19 75 54 53 65
REMARK Flexibility Score: inf
ROOT
ATOM      1  C   UNL A   1      33.364  28.990  26.686  1.00  0.00     0.188 C 
ENDROOT
BRANCH   1   2
ATOM      2  C   UNL A   1      32.549  28.734  25.405  1.00  0.00     0.188 C 
BRANCH   2   3
ATOM      3  O   UNL A   1      33.352  28.347  24.300  1.00  0.00    -0.376 OA
BRANCH   3   4
ATOM      4  C   UNL A   1      32.884  28.608  22.989  1.00  0.00     0.202 C 
BRANCH   4   5
ATOM      5  C   UNL A   1      31.437  29.087  22.775  1.00  0.00     0.261 C 
BRANCH   5   6
ATOM      6  O   UNL A   1      30.540  28.130  22.195  1.00  0.00    -0.460 OA
BRANCH   6   7
ATOM      7  C   UNL A   1      29.705  27.484  23.037  1.00  0.00     0.338 C 
ATOM      8  O   UNL A   1      28.548  27.787  23.273  1.00  0.00    -0.246 OA
BRANCH   7   9
ATOM      9  C   UNL A   1      30.351  26.227  23.512  1.00  0.00     0.060 A 
ATOM     10  C   UNL A   1      31.381  23.807  24.493  1.00  0.00     0.087 A 
ATOM     11  C   UNL A   1      30.726  24.683  25.360  1.00  0.00     0.023 A 
ATOM     12  C   UNL A   1      31.562  24.158  23.147  1.00  0.00     0.023 A 
ATOM     13  C   UNL A   1      30.186  25.875  24.860  1.00  0.00     0.017 A 
ATOM     14  C   UNL A   1      31.061  25.370  22.659  1.00  0.00     0.017 A 
BRANCH  10  15
ATOM     15  S   UNL A   1      31.917  22.179  24.986  1.00  0.00     0.261 S 
ATOM     16  O   UNL A   1      32.152  21.455  23.753  1.00  0.00    -0.201 OA
ATOM     17  O   UNL A   1      30.971  21.696  25.968  1.00  0.00    -0.201 OA
BRANCH  15  18
ATOM     18  N   UNL A   1      33.417  22.263  25.713  1.00  0.00    -0.279 N 
ATOM     19  H   UNL A   1      33.408  22.540  26.657  1.00  0.00     0.180 HD
BRANCH  18  20
ATOM     20  C   UNL A   1      34.708  21.994  25.172  1.00  0.00     0.055 A 
ATOM     21  C   UNL A   1      34.999  24.478  24.550  1.00  0.00     0.046 C 
ATOM     22  C   UNL A   1      35.526  23.096  24.841  1.00  0.00    -0.027 A 
ATOM     23  C   UNL A   1      36.915  22.908  24.709  1.00  0.00     0.008 A 
ATOM     24  C   UNL A   1      37.469  21.638  24.827  1.00  0.00     0.039 A 
ATOM     25  C   UNL A   1      35.246  20.709  25.102  1.00  0.00     0.066 A 
ATOM     26  C   UNL A   1      36.623  20.547  24.972  1.00  0.00     0.125 A 
ATOM     27  F   UNL A   1      37.149  19.318  25.051  1.00  0.00    -0.207 F 
ENDBRANCH  18  20
ENDBRANCH  15  18
ENDBRANCH  10  15
ENDBRANCH   7   9
ENDBRANCH   6   7
ENDBRANCH   5   6
ENDBRANCH   4   5
ENDBRANCH   3   4
ENDBRANCH   2   3
ENDBRANCH   1   2
BRANCH   1  28
ATOM     28  O   UNL A   1      34.095  30.205  26.745  1.00  0.00    -0.377 OA
BRANCH  28  29
ATOM     29  C   UNL A   1      33.650  31.257  27.605  1.00  0.00     0.188 C 
BRANCH  29  30
ATOM     30  C   UNL A   1      34.612  32.252  28.299  1.00  0.00     0.188 C 
BRANCH  30  31
ATOM     31  O   UNL A   1      35.620  31.651  29.093  1.00  0.00    -0.376 OA
BRANCH  31  32
ATOM     32  C   UNL A   1      35.432  31.654  30.497  1.00  0.00     0.202 C 
BRANCH  32  33
ATOM     33  C   UNL A   1      35.250  33.033  31.144  1.00  0.00     0.261 C 
BRANCH  33  34
ATOM     34  O   UNL A   1      36.446  33.654  31.643  1.00  0.00    -0.460 OA
BRANCH  34  35
ATOM     35  C   UNL A   1      37.157  32.980  32.570  1.00  0.00     0.338 C 
ATOM     36  O   UNL A   1      36.772  32.594  33.663  1.00  0.00    -0.246 OA
BRANCH  35  37
ATOM     37  C   UNL A   1      38.455  32.617  31.964  1.00  0.00     0.060 A 
ATOM     38  C   UNL A   1      38.795  33.140  30.709  1.00  0.00     0.016 A 
ATOM     39  C   UNL A   1      39.337  31.773  32.642  1.00  0.00     0.016 A 
ATOM     40  C   UNL A   1      40.009  32.792  30.114  1.00  0.00     0.010 A 
ATOM     41  C   UNL A   1      40.542  31.411  32.036  1.00  0.00     0.010 A 
ATOM     42  C   UNL A   1      40.869  31.891  30.755  1.00  0.00    -0.014 A 
BRANCH  42  43
ATOM     43  C   UNL A   1      42.010  31.300  30.016  1.00  0.00     0.031 A 
ATOM     44  C   UNL A   1      41.834  29.934  29.407  1.00  0.00     0.074 A 
ATOM     45  C   UNL A   1      43.176  31.954  29.874  1.00  0.00     0.049 A 
ATOM     46  N   UNL A   1      42.698  29.192  28.762  1.00  0.00    -0.248 NA
ATOM     47  C   UNL A   1      40.502  29.324  29.548  1.00  0.00     0.031 C 
ATOM     48  C   UNL A   1      43.461  33.298  30.374  1.00  0.00     0.029 A 
ATOM     49  N   UNL A   1      44.345  31.562  29.269  1.00  0.00    -0.354 N 
ATOM     50  C   UNL A   1      42.020  28.027  28.432  1.00  0.00     0.074 A 
ATOM     51  C   UNL A   1      40.683  28.145  28.974  1.00  0.00     0.031 C 
ATOM     52  C   UNL A   1      44.729  33.616  30.060  1.00  0.00     0.029 A 
ATOM     53  C   UNL A   1      45.355  32.487  29.373  1.00  0.00     0.049 A 
ATOM     54  H   UNL A   1      44.449  30.700  28.805  1.00  0.00     0.167 HD
ATOM     55  C   UNL A   1      42.464  26.953  27.737  1.00  0.00     0.031 A 
ATOM     56  C   UNL A   1      46.642  32.418  28.982  1.00  0.00     0.031 A 
ATOM     57  C   UNL A   1      43.799  26.824  27.217  1.00  0.00     0.049 A 
ATOM     58  C   UNL A   1      47.142  31.174  28.292  1.00  0.00     0.074 A 
ATOM     59  C   UNL A   1      44.343  25.780  26.488  1.00  0.00     0.029 A 
ATOM     60  N   UNL A   1      44.804  27.764  27.383  1.00  0.00    -0.354 N 
ATOM     61  N   UNL A   1      46.483  30.090  27.959  1.00  0.00    -0.248 NA
ATOM     62  C   UNL A   1      48.564  31.150  27.918  1.00  0.00     0.031 C 
ATOM     63  C   UNL A   1      45.695  26.060  26.271  1.00  0.00     0.029 A 
ATOM     64  C   UNL A   1      45.975  27.310  26.800  1.00  0.00     0.049 A 
ATOM     65  H   UNL A   1      44.701  28.627  27.847  1.00  0.00     0.167 HD
ATOM     66  C   UNL A   1      47.401  29.271  27.309  1.00  0.00     0.074 A 
ATOM     67  C   UNL A   1      48.657  29.991  27.282  1.00  0.00     0.031 C 
ATOM     68  C   UNL A   1      47.219  28.035  26.780  1.00  0.00     0.031 A 
BRANCH  55  69
ATOM     69  C   UNL A   1      41.504  25.812  27.540  1.00  0.00    -0.014 A 
ATOM     70  C   UNL A   1      41.605  24.630  28.291  1.00  0.00     0.009 A 
ATOM     71  C   UNL A   1      40.468  25.932  26.601  1.00  0.00     0.009 A 
ATOM     72  C   UNL A   1      40.713  23.577  28.076  1.00  0.00     0.001 A 
ATOM     73  C   UNL A   1      39.557  24.892  26.412  1.00  0.00     0.001 A 
ATOM     74  C   UNL A   1      39.686  23.711  27.142  1.00  0.00     0.000 A 
ENDBRANCH  55  69
BRANCH  56  75
ATOM     75  C   UNL A   1      47.569  33.551  29.251  1.00  0.00    -0.014 A 
ATOM     76  C   UNL A   1      48.290  33.620  30.454  1.00  0.00     0.009 A 
ATOM     77  C   UNL A   1      47.714  34.589  28.316  1.00  0.00     0.009 A 
ATOM     78  C   UNL A   1      49.115  34.716  30.725  1.00  0.00     0.001 A 
ATOM     79  C   UNL A   1      48.564  35.665  28.575  1.00  0.00     0.001 A 
ATOM     80  C   UNL A   1      49.254  35.734  29.784  1.00  0.00     0.000 A 
ENDBRANCH  56  75
BRANCH  68  81
ATOM     81  C   UNL A   1      48.393  27.397  26.087  1.00  0.00    -0.014 A 
ATOM     82  C   UNL A   1      48.612  27.560  24.710  1.00  0.00     0.009 A 
ATOM     83  C   UNL A   1      49.323  26.658  26.838  1.00  0.00     0.009 A 
ATOM     84  C   UNL A   1      49.716  26.966  24.094  1.00  0.00     0.001 A 
ATOM     85  C   UNL A   1      50.443  26.095  26.226  1.00  0.00     0.001 A 
ATOM     86  C   UNL A   1      50.633  26.239  24.853  1.00  0.00     0.000 A 
ENDBRANCH  68  81
ENDBRANCH  42  43
ENDBRANCH  35  37
ENDBRANCH  34  35
ENDBRANCH  33  34
ENDBRANCH  32  33
ENDBRANCH  31  32
ENDBRANCH  30  31
ENDBRANCH  29  30
ENDBRANCH  28  29
ENDBRANCH   1  28
TORSDOF 23
ENDMDL
