MODEL 1
REMARK VINA RESULT:      -7.8      0.000      0.000
REMARK SMILES O=C(OCCOCCOCCOCCOC(=O)c1ccc(-c2c3nc(c(-c4ccccc4)c4ccc([nH]4)c(-c4ccccc4)c4nc(c(-c5ccccc5)c5ccc2[nH]5)C=C4)C=C3)cc1)C1=Cc2c(ccc(Cl)c2-c2ccccc2)O[C@H]1C(F)(F)F
REMARK SMILES IDX 10 1 9 2 8 3 7 4 6 5 5 6 4 7 3 8 2 9 1 10 66 11 67 12 82 13
REMARK SMILES IDX 68 14 81 15 69 16 74 17 70 18 72 19 71 20 73 21 83 22 84 23
REMARK SMILES IDX 85 24 86 25 75 26 76 27 80 28 77 29 79 30 78 31 11 32 12 33
REMARK SMILES IDX 13 34 14 35 15 36 16 37 17 38 18 39 19 40 65 41 20 42 64 43
REMARK SMILES IDX 21 44 22 45 23 46 58 47 24 48 63 49 57 50 59 51 25 52 62 53
REMARK SMILES IDX 56 54 55 55 26 57 48 58 33 59 47 60 34 61 37 62 46 63 60 64
REMARK SMILES IDX 35 65 36 66 45 68 61 69 38 70 27 71 28 72 32 73 29 74 31 75
REMARK SMILES IDX 30 76 49 77 50 78 54 79 51 80 53 81 52 82 39 83 40 84 44 85
REMARK SMILES IDX 41 86 43 87 42 88
REMARK H PARENT 59 56 37 67
REMARK Flexibility Score: inf
ROOT
ATOM      1  C   UNL A   1      36.710  33.727  29.670  1.00  0.00     0.188 C 
ENDROOT
BRANCH   1   2
ATOM      2  O   UNL A   1      37.538  32.645  29.065  1.00  0.00    -0.377 OA
BRANCH   2   3
ATOM      3  C   UNL A   1      38.189  30.805  28.781  1.00  0.00     0.188 C 
BRANCH   3   4
ATOM      4  C   UNL A   1      38.930  29.661  29.731  1.00  0.00     0.188 C 
BRANCH   4   5
ATOM      5  O   UNL A   1      38.268  28.497  30.210  1.00  0.00    -0.376 OA
BRANCH   5   6
ATOM      6  C   UNL A   1      38.968  27.276  30.246  1.00  0.00     0.202 C 
BRANCH   6   7
ATOM      7  C   UNL A   1      39.733  26.793  28.999  1.00  0.00     0.261 C 
BRANCH   7   8
ATOM      8  O   UNL A   1      41.145  26.658  29.279  1.00  0.00    -0.460 OA
BRANCH   8   9
ATOM      9  C   UNL A   1      42.097  27.549  28.912  1.00  0.00     0.338 C 
ATOM     10  O   UNL A   1      42.494  28.396  29.706  1.00  0.00    -0.246 OA
BRANCH   9  11
ATOM     11  C   UNL A   1      42.737  27.463  27.584  1.00  0.00     0.087 C 
ATOM     12  C   UNL A   1      42.820  26.351  26.846  1.00  0.00     0.028 C 
ATOM     13  C   UNL A   1      42.760  28.723  26.763  1.00  0.00     0.316 C 
ATOM     14  C   UNL A   1      44.070  26.257  26.119  1.00  0.00     0.027 A 
ATOM     15  O   UNL A   1      43.865  28.685  25.786  1.00  0.00    -0.475 OA
ATOM     16  C   UNL A   1      44.559  27.496  25.645  1.00  0.00     0.128 A 
ATOM     17  C   UNL A   1      44.733  25.008  25.979  1.00  0.00     0.011 A 
ATOM     18  C   UNL A   1      45.789  27.530  25.023  1.00  0.00     0.049 A 
ATOM     19  C   UNL A   1      45.992  25.101  25.352  1.00  0.00     0.049 A 
ATOM     20  C   UNL A   1      46.509  26.339  24.898  1.00  0.00     0.025 A 
ATOM     21  Cl  UNL A   1      46.997  23.728  25.031  1.00  0.00    -0.084 Cl
BRANCH  13  22
ATOM     22  C   UNL A   1      41.361  28.925  26.106  1.00  0.00     0.430 C 
ATOM     23  F   UNL A   1      40.526  29.658  26.894  1.00  0.00    -0.167 F 
ATOM     24  F   UNL A   1      41.438  29.565  24.920  1.00  0.00    -0.167 F 
ATOM     25  F   UNL A   1      40.726  27.746  25.900  1.00  0.00    -0.167 F 
ENDBRANCH  13  22
BRANCH  17  26
ATOM     26  C   UNL A   1      44.104  23.699  26.429  1.00  0.00    -0.016 A 
ATOM     27  C   UNL A   1      43.205  22.645  25.247  1.00  0.00     0.009 A 
ATOM     28  C   UNL A   1      43.986  23.286  28.205  1.00  0.00     0.009 A 
ATOM     29  C   UNL A   1      42.124  21.305  25.811  1.00  0.00     0.001 A 
ATOM     30  C   UNL A   1      42.894  21.933  28.780  1.00  0.00     0.001 A 
ATOM     31  C   UNL A   1      41.981  20.939  27.574  1.00  0.00     0.000 A 
ENDBRANCH  17  26
ENDBRANCH   9  11
ENDBRANCH   8   9
ENDBRANCH   7   8
ENDBRANCH   6   7
ENDBRANCH   5   6
ENDBRANCH   4   5
ENDBRANCH   3   4
ENDBRANCH   2   3
ENDBRANCH   1   2
BRANCH   1  32
ATOM     32  C   UNL A   1      35.156  33.795  29.830  1.00  0.00     0.188 C 
BRANCH  32  33
ATOM     33  O   UNL A   1      34.477  33.969  31.062  1.00  0.00    -0.376 OA
BRANCH  33  34
ATOM     34  C   UNL A   1      34.719  34.977  32.021  1.00  0.00     0.202 C 
BRANCH  34  35
ATOM     35  C   UNL A   1      34.982  34.778  33.525  1.00  0.00     0.261 C 
BRANCH  35  36
ATOM     36  O   UNL A   1      36.301  35.024  33.996  1.00  0.00    -0.460 OA
BRANCH  36  37
ATOM     37  C   UNL A   1      36.844  34.065  34.771  1.00  0.00     0.338 C 
ATOM     38  O   UNL A   1      36.354  33.564  35.774  1.00  0.00    -0.246 OA
BRANCH  37  39
ATOM     39  C   UNL A   1      38.033  33.525  34.074  1.00  0.00     0.060 A 
ATOM     40  C   UNL A   1      37.804  32.570  33.073  1.00  0.00     0.016 A 
ATOM     41  C   UNL A   1      39.329  33.994  34.319  1.00  0.00     0.016 A 
ATOM     42  C   UNL A   1      38.865  32.060  32.333  1.00  0.00     0.010 A 
ATOM     43  C   UNL A   1      40.402  33.446  33.610  1.00  0.00     0.010 A 
ATOM     44  C   UNL A   1      40.174  32.442  32.651  1.00  0.00    -0.014 A 
BRANCH  44  45
ATOM     45  C   UNL A   1      41.268  31.522  32.262  1.00  0.00     0.031 A 
ATOM     46  C   UNL A   1      42.047  31.892  31.026  1.00  0.00     0.074 A 
ATOM     47  C   UNL A   1      41.621  30.452  32.993  1.00  0.00     0.049 A 
ATOM     48  N   UNL A   1      43.056  31.283  30.460  1.00  0.00    -0.248 NA
ATOM     49  C   UNL A   1      41.628  33.128  30.339  1.00  0.00     0.031 C 
ATOM     50  C   UNL A   1      40.997  30.029  34.244  1.00  0.00     0.029 A 
ATOM     51  N   UNL A   1      42.612  29.526  32.778  1.00  0.00    -0.354 N 
ATOM     52  C   UNL A   1      43.382  32.059  29.353  1.00  0.00     0.074 A 
ATOM     53  C   UNL A   1      42.451  33.160  29.306  1.00  0.00     0.031 C 
ATOM     54  C   UNL A   1      41.621  28.922  34.688  1.00  0.00     0.029 A 
ATOM     55  C   UNL A   1      42.662  28.540  33.733  1.00  0.00     0.049 A 
ATOM     56  H   UNL A   1      43.228  29.565  32.012  1.00  0.00     0.167 HD
ATOM     57  C   UNL A   1      44.373  31.875  28.453  1.00  0.00     0.031 A 
ATOM     58  C   UNL A   1      43.448  27.447  33.807  1.00  0.00     0.031 A 
ATOM     59  C   UNL A   1      45.279  30.764  28.477  1.00  0.00     0.049 A 
ATOM     60  C   UNL A   1      44.475  27.202  32.727  1.00  0.00     0.074 A 
ATOM     61  C   UNL A   1      46.309  30.473  27.602  1.00  0.00     0.029 A 
ATOM     62  N   UNL A   1      45.251  29.751  29.422  1.00  0.00    -0.354 N 
ATOM     63  N   UNL A   1      44.785  27.945  31.691  1.00  0.00    -0.248 NA
ATOM     64  C   UNL A   1      45.266  25.966  32.833  1.00  0.00     0.031 C 
ATOM     65  C   UNL A   1      46.863  29.247  27.980  1.00  0.00     0.029 A 
ATOM     66  C   UNL A   1      46.229  28.816  29.135  1.00  0.00     0.049 A 
ATOM     67  H   UNL A   1      44.631  29.704  30.185  1.00  0.00     0.167 HD
ATOM     68  C   UNL A   1      45.825  27.286  31.044  1.00  0.00     0.074 A 
ATOM     69  C   UNL A   1      46.103  26.091  31.813  1.00  0.00     0.031 C 
ATOM     70  C   UNL A   1      46.492  27.634  29.915  1.00  0.00     0.031 A 
BRANCH  57  71
ATOM     71  C   UNL A   1      44.477  32.876  27.337  1.00  0.00    -0.014 A 
ATOM     72  C   UNL A   1      45.156  34.094  27.504  1.00  0.00     0.009 A 
ATOM     73  C   UNL A   1      43.877  32.597  26.099  1.00  0.00     0.009 A 
ATOM     74  C   UNL A   1      45.201  35.026  26.464  1.00  0.00     0.001 A 
ATOM     75  C   UNL A   1      43.952  33.514  25.052  1.00  0.00     0.001 A 
ATOM     76  C   UNL A   1      44.604  34.734  25.239  1.00  0.00     0.000 A 
ENDBRANCH  57  71
BRANCH  58  77
ATOM     77  C   UNL A   1      43.283  26.471  34.920  1.00  0.00    -0.014 A 
ATOM     78  C   UNL A   1      44.139  26.493  36.033  1.00  0.00     0.009 A 
ATOM     79  C   UNL A   1      42.296  25.475  34.850  1.00  0.00     0.009 A 
ATOM     80  C   UNL A   1      44.030  25.521  37.033  1.00  0.00     0.001 A 
ATOM     81  C   UNL A   1      42.168  24.524  35.866  1.00  0.00     0.001 A 
ATOM     82  C   UNL A   1      43.042  24.540  36.951  1.00  0.00     0.000 A 
ENDBRANCH  58  77
BRANCH  70  83
ATOM     83  C   UNL A   1      47.620  26.744  29.469  1.00  0.00    -0.014 A 
ATOM     84  C   UNL A   1      47.422  25.721  28.530  1.00  0.00     0.009 A 
ATOM     85  C   UNL A   1      48.916  26.976  29.958  1.00  0.00     0.009 A 
ATOM     86  C   UNL A   1      48.494  24.924  28.119  1.00  0.00     0.001 A 
ATOM     87  C   UNL A   1      49.991  26.203  29.518  1.00  0.00     0.001 A 
ATOM     88  C   UNL A   1      49.777  25.170  28.609  1.00  0.00     0.000 A 
ENDBRANCH  70  83
ENDBRANCH  44  45
ENDBRANCH  37  39
ENDBRANCH  36  37
ENDBRANCH  35  36
ENDBRANCH  34  35
ENDBRANCH  33  34
ENDBRANCH  32  33
ENDBRANCH   1  32
TORSDOF 22
ENDMDL
MODEL 2
REMARK VINA RESULT:      -6.9      3.757      8.517
REMARK SMILES O=C(OCCOCCOCCOCCOC(=O)c1ccc(-c2c3nc(c(-c4ccccc4)c4ccc([nH]4)c(-c4ccccc4)c4nc(c(-c5ccccc5)c5ccc2[nH]5)C=C4)C=C3)cc1)C1=Cc2c(ccc(Cl)c2-c2ccccc2)O[C@H]1C(F)(F)F
REMARK SMILES IDX 10 1 9 2 8 3 7 4 6 5 5 6 4 7 3 8 2 9 1 10 66 11 67 12 82 13
REMARK SMILES IDX 68 14 81 15 69 16 74 17 70 18 72 19 71 20 73 21 83 22 84 23
REMARK SMILES IDX 85 24 86 25 75 26 76 27 80 28 77 29 79 30 78 31 11 32 12 33
REMARK SMILES IDX 13 34 14 35 15 36 16 37 17 38 18 39 19 40 65 41 20 42 64 43
REMARK SMILES IDX 21 44 22 45 23 46 58 47 24 48 63 49 57 50 59 51 25 52 62 53
REMARK SMILES IDX 56 54 55 55 26 57 48 58 33 59 47 60 34 61 37 62 46 63 60 64
REMARK SMILES IDX 35 65 36 66 45 68 61 69 38 70 27 71 28 72 32 73 29 74 31 75
REMARK SMILES IDX 30 76 49 77 50 78 54 79 51 80 53 81 52 82 39 83 40 84 44 85
REMARK SMILES IDX 41 86 43 87 42 88
REMARK H PARENT 59 56 37 67
REMARK Flexibility Score: inf
ROOT
ATOM      1  C   UNL A   1      32.935  23.245  24.784  1.00  0.00     0.188 C 
ENDROOT
BRANCH   1   2
ATOM      2  O   UNL A   1      32.808  24.730  24.831  1.00  0.00    -0.377 OA
BRANCH   2   3
ATOM      3  C   UNL A   1      32.598  26.506  25.663  1.00  0.00     0.188 C 
BRANCH   3   4
ATOM      4  C   UNL A   1      33.601  27.545  26.482  1.00  0.00     0.188 C 
BRANCH   4   5
ATOM      5  O   UNL A   1      33.261  28.896  26.765  1.00  0.00    -0.376 OA
BRANCH   5   6
ATOM      6  C   UNL A   1      34.289  29.823  27.024  1.00  0.00     0.202 C 
BRANCH   6   7
ATOM      7  C   UNL A   1      35.470  29.426  27.931  1.00  0.00     0.261 C 
BRANCH   7   8
ATOM      8  O   UNL A   1      36.339  30.555  28.173  1.00  0.00    -0.460 OA
BRANCH   8   9
ATOM      9  C   UNL A   1      36.300  31.341  29.276  1.00  0.00     0.338 C 
ATOM     10  O   UNL A   1      35.226  31.731  29.722  1.00  0.00    -0.246 OA
BRANCH   9  11
ATOM     11  C   UNL A   1      37.538  31.669  30.011  1.00  0.00     0.087 C 
ATOM     12  C   UNL A   1      38.751  31.189  29.718  1.00  0.00     0.028 C 
ATOM     13  C   UNL A   1      37.578  33.002  30.704  1.00  0.00     0.316 C 
ATOM     14  C   UNL A   1      39.550  30.931  30.899  1.00  0.00     0.027 A 
ATOM     15  O   UNL A   1      38.543  32.978  31.820  1.00  0.00    -0.475 OA
ATOM     16  C   UNL A   1      39.358  31.866  31.943  1.00  0.00     0.128 A 
ATOM     17  C   UNL A   1      40.390  29.789  30.968  1.00  0.00     0.011 A 
ATOM     18  C   UNL A   1      39.999  31.657  33.146  1.00  0.00     0.049 A 
ATOM     19  C   UNL A   1      41.008  29.613  32.223  1.00  0.00     0.049 A 
ATOM     20  C   UNL A   1      40.803  30.524  33.288  1.00  0.00     0.025 A 
ATOM     21  Cl  UNL A   1      42.103  28.318  32.571  1.00  0.00    -0.084 Cl
BRANCH  13  22
ATOM     22  C   UNL A   1      37.879  34.111  29.651  1.00  0.00     0.430 C 
ATOM     23  F   UNL A   1      36.745  34.562  29.045  1.00  0.00    -0.167 F 
ATOM     24  F   UNL A   1      38.483  35.187  30.196  1.00  0.00    -0.167 F 
ATOM     25  F   UNL A   1      38.670  33.654  28.651  1.00  0.00    -0.167 F 
ENDBRANCH  13  22
BRANCH  17  26
ATOM     26  C   UNL A   1      40.625  28.878  29.773  1.00  0.00    -0.016 A 
ATOM     27  C   UNL A   1      41.747  29.377  28.429  1.00  0.00     0.009 A 
ATOM     28  C   UNL A   1      39.583  27.400  29.512  1.00  0.00     0.009 A 
ATOM     29  C   UNL A   1      41.748  28.521  26.834  1.00  0.00     0.001 A 
ATOM     30  C   UNL A   1      39.579  26.531  27.900  1.00  0.00     0.001 A 
ATOM     31  C   UNL A   1      40.677  27.089  26.574  1.00  0.00     0.000 A 
ENDBRANCH  17  26
ENDBRANCH   9  11
ENDBRANCH   8   9
ENDBRANCH   7   8
ENDBRANCH   6   7
ENDBRANCH   5   6
ENDBRANCH   4   5
ENDBRANCH   3   4
ENDBRANCH   2   3
ENDBRANCH   1   2
BRANCH   1  32
ATOM     32  C   UNL A   1      34.143  22.382  24.293  1.00  0.00     0.188 C 
BRANCH  32  33
ATOM     33  O   UNL A   1      35.430  22.383  24.884  1.00  0.00    -0.376 OA
BRANCH  33  34
ATOM     34  C   UNL A   1      36.632  21.948  24.284  1.00  0.00     0.202 C 
BRANCH  34  35
ATOM     35  C   UNL A   1      37.542  20.801  24.762  1.00  0.00     0.261 C 
BRANCH  35  36
ATOM     36  O   UNL A   1      38.405  21.066  25.861  1.00  0.00    -0.460 OA
BRANCH  36  37
ATOM     37  C   UNL A   1      39.572  20.391  25.877  1.00  0.00     0.338 C 
ATOM     38  O   UNL A   1      39.759  19.238  25.513  1.00  0.00    -0.246 OA
BRANCH  37  39
ATOM     39  C   UNL A   1      40.657  21.352  26.175  1.00  0.00     0.060 A 
ATOM     40  C   UNL A   1      41.958  20.835  26.263  1.00  0.00     0.016 A 
ATOM     41  C   UNL A   1      40.436  22.730  26.279  1.00  0.00     0.016 A 
ATOM     42  C   UNL A   1      43.037  21.684  26.481  1.00  0.00     0.010 A 
ATOM     43  C   UNL A   1      41.515  23.579  26.547  1.00  0.00     0.010 A 
ATOM     44  C   UNL A   1      42.810  23.049  26.697  1.00  0.00    -0.014 A 
BRANCH  44  45
ATOM     45  C   UNL A   1      43.841  23.804  27.446  1.00  0.00     0.031 A 
ATOM     46  C   UNL A   1      44.797  24.627  26.622  1.00  0.00     0.074 A 
ATOM     47  C   UNL A   1      43.898  23.834  28.788  1.00  0.00     0.049 A 
ATOM     48  N   UNL A   1      45.787  25.391  27.005  1.00  0.00    -0.248 NA
ATOM     49  C   UNL A   1      44.601  24.585  25.162  1.00  0.00     0.031 C 
ATOM     50  C   UNL A   1      42.989  23.143  29.697  1.00  0.00     0.029 A 
ATOM     51  N   UNL A   1      44.771  24.493  29.617  1.00  0.00    -0.354 N 
ATOM     52  C   UNL A   1      46.329  25.909  25.835  1.00  0.00     0.074 A 
ATOM     53  C   UNL A   1      45.585  25.353  24.729  1.00  0.00     0.031 C 
ATOM     54  C   UNL A   1      43.353  23.413  30.964  1.00  0.00     0.029 A 
ATOM     55  C   UNL A   1      44.541  24.267  30.953  1.00  0.00     0.049 A 
ATOM     56  H   UNL A   1      45.494  25.074  29.287  1.00  0.00     0.167 HD
ATOM     57  C   UNL A   1      47.355  26.776  25.687  1.00  0.00     0.031 A 
ATOM     58  C   UNL A   1      45.231  24.687  32.033  1.00  0.00     0.031 A 
ATOM     59  C   UNL A   1      48.118  27.304  26.781  1.00  0.00     0.049 A 
ATOM     60  C   UNL A   1      46.444  25.566  31.837  1.00  0.00     0.074 A 
ATOM     61  C   UNL A   1      49.189  28.176  26.741  1.00  0.00     0.029 A 
ATOM     62  N   UNL A   1      47.895  26.995  28.113  1.00  0.00    -0.354 N 
ATOM     63  N   UNL A   1      46.942  26.060  30.729  1.00  0.00    -0.248 NA
ATOM     64  C   UNL A   1      47.186  25.948  33.048  1.00  0.00     0.031 C 
ATOM     65  C   UNL A   1      49.659  28.343  28.047  1.00  0.00     0.029 A 
ATOM     66  C   UNL A   1      48.830  27.637  28.905  1.00  0.00     0.049 A 
ATOM     67  H   UNL A   1      47.179  26.408  28.446  1.00  0.00     0.167 HD
ATOM     68  C   UNL A   1      48.032  26.836  31.112  1.00  0.00     0.074 A 
ATOM     69  C   UNL A   1      48.112  26.759  32.555  1.00  0.00     0.031 C 
ATOM     70  C   UNL A   1      48.890  27.549  30.341  1.00  0.00     0.031 A 
BRANCH  57  71
ATOM     71  C   UNL A   1      47.738  27.150  24.283  1.00  0.00    -0.014 A 
ATOM     72  C   UNL A   1      46.983  28.069  23.536  1.00  0.00     0.009 A 
ATOM     73  C   UNL A   1      48.871  26.566  23.696  1.00  0.00     0.009 A 
ATOM     74  C   UNL A   1      47.335  28.367  22.218  1.00  0.00     0.001 A 
ATOM     75  C   UNL A   1      49.240  26.890  22.392  1.00  0.00     0.001 A 
ATOM     76  C   UNL A   1      48.466  27.782  21.649  1.00  0.00     0.000 A 
ENDBRANCH  57  71
BRANCH  58  77
ATOM     77  C   UNL A   1      44.825  24.262  33.401  1.00  0.00    -0.014 A 
ATOM     78  C   UNL A   1      44.206  25.163  34.283  1.00  0.00     0.009 A 
ATOM     79  C   UNL A   1      45.102  22.962  33.852  1.00  0.00     0.009 A 
ATOM     80  C   UNL A   1      43.904  24.779  35.594  1.00  0.00     0.001 A 
ATOM     81  C   UNL A   1      44.770  22.571  35.152  1.00  0.00     0.001 A 
ATOM     82  C   UNL A   1      44.182  23.483  36.026  1.00  0.00     0.000 A 
ENDBRANCH  58  77
BRANCH  70  83
ATOM     83  C   UNL A   1      49.959  28.345  31.041  1.00  0.00    -0.014 A 
ATOM     84  C   UNL A   1      49.730  29.657  31.481  1.00  0.00     0.009 A 
ATOM     85  C   UNL A   1      51.199  27.744  31.312  1.00  0.00     0.009 A 
ATOM     86  C   UNL A   1      50.736  30.363  32.146  1.00  0.00     0.001 A 
ATOM     87  C   UNL A   1      52.189  28.439  32.008  1.00  0.00     0.001 A 
ATOM     88  C   UNL A   1      51.961  29.751  32.413  1.00  0.00     0.000 A 
ENDBRANCH  70  83
ENDBRANCH  44  45
ENDBRANCH  37  39
ENDBRANCH  36  37
ENDBRANCH  35  36
ENDBRANCH  34  35
ENDBRANCH  33  34
ENDBRANCH  32  33
ENDBRANCH   1  32
TORSDOF 22
ENDMDL
MODEL 3
REMARK VINA RESULT:      -6.6      9.786     15.745
REMARK SMILES O=C(OCCOCCOCCOCCOC(=O)c1ccc(-c2c3nc(c(-c4ccccc4)c4ccc([nH]4)c(-c4ccccc4)c4nc(c(-c5ccccc5)c5ccc2[nH]5)C=C4)C=C3)cc1)C1=Cc2c(ccc(Cl)c2-c2ccccc2)O[C@H]1C(F)(F)F
REMARK SMILES IDX 10 1 9 2 8 3 7 4 6 5 5 6 4 7 3 8 2 9 1 10 66 11 67 12 82 13
REMARK SMILES IDX 68 14 81 15 69 16 74 17 70 18 72 19 71 20 73 21 83 22 84 23
REMARK SMILES IDX 85 24 86 25 75 26 76 27 80 28 77 29 79 30 78 31 11 32 12 33
REMARK SMILES IDX 13 34 14 35 15 36 16 37 17 38 18 39 19 40 65 41 20 42 64 43
REMARK SMILES IDX 21 44 22 45 23 46 58 47 24 48 63 49 57 50 59 51 25 52 62 53
REMARK SMILES IDX 56 54 55 55 26 57 48 58 33 59 47 60 34 61 37 62 46 63 60 64
REMARK SMILES IDX 35 65 36 66 45 68 61 69 38 70 27 71 28 72 32 73 29 74 31 75
REMARK SMILES IDX 30 76 49 77 50 78 54 79 51 80 53 81 52 82 39 83 40 84 44 85
REMARK SMILES IDX 41 86 43 87 42 88
REMARK H PARENT 59 56 37 67
REMARK Flexibility Score: inf
ROOT
ATOM      1  C   UNL A   1      45.013  40.089  26.118  1.00  0.00     0.188 C 
ENDROOT
BRANCH   1   2
ATOM      2  O   UNL A   1      44.503  41.449  25.782  1.00  0.00    -0.377 OA
BRANCH   2   3
ATOM      3  C   UNL A   1      44.208  43.051  24.670  1.00  0.00     0.188 C 
BRANCH   3   4
ATOM      4  C   UNL A   1      43.688  43.324  23.117  1.00  0.00     0.188 C 
BRANCH   4   5
ATOM      5  O   UNL A   1      43.430  42.280  22.186  1.00  0.00    -0.376 OA
BRANCH   5   6
ATOM      6  C   UNL A   1      42.207  42.271  21.488  1.00  0.00     0.202 C 
BRANCH   6   7
ATOM      7  C   UNL A   1      41.774  43.509  20.681  1.00  0.00     0.261 C 
BRANCH   7   8
ATOM      8  O   UNL A   1      42.368  43.501  19.363  1.00  0.00    -0.460 OA
BRANCH   8   9
ATOM      9  C   UNL A   1      43.475  44.196  19.007  1.00  0.00     0.338 C 
ATOM     10  O   UNL A   1      44.591  43.717  19.184  1.00  0.00    -0.246 OA
BRANCH   9  11
ATOM     11  C   UNL A   1      43.359  45.498  18.321  1.00  0.00     0.087 C 
ATOM     12  C   UNL A   1      44.336  46.080  17.617  1.00  0.00     0.028 C 
ATOM     13  C   UNL A   1      41.982  45.905  17.876  1.00  0.00     0.316 C 
ATOM     14  C   UNL A   1      44.347  47.521  17.766  1.00  0.00     0.027 A 
ATOM     15  O   UNL A   1      41.892  47.372  17.750  1.00  0.00    -0.475 OA
ATOM     16  C   UNL A   1      43.062  48.103  17.868  1.00  0.00     0.128 A 
ATOM     17  C   UNL A   1      45.575  48.229  17.857  1.00  0.00     0.011 A 
ATOM     18  C   UNL A   1      42.963  49.457  18.108  1.00  0.00     0.049 A 
ATOM     19  C   UNL A   1      45.418  49.606  18.119  1.00  0.00     0.049 A 
ATOM     20  C   UNL A   1      44.139  50.198  18.253  1.00  0.00     0.025 A 
ATOM     21  Cl  UNL A   1      46.749  50.705  18.251  1.00  0.00    -0.084 Cl
BRANCH  13  22
ATOM     22  C   UNL A   1      41.631  45.150  16.560  1.00  0.00     0.430 C 
ATOM     23  F   UNL A   1      42.649  44.345  16.143  1.00  0.00    -0.167 F 
ATOM     24  F   UNL A   1      40.543  44.362  16.694  1.00  0.00    -0.167 F 
ATOM     25  F   UNL A   1      41.399  46.004  15.534  1.00  0.00    -0.167 F 
ENDBRANCH  13  22
BRANCH  17  26
ATOM     26  C   UNL A   1      46.921  47.555  17.642  1.00  0.00    -0.016 A 
ATOM     27  C   UNL A   1      47.679  47.498  15.988  1.00  0.00     0.009 A 
ATOM     28  C   UNL A   1      47.675  46.544  18.964  1.00  0.00     0.009 A 
ATOM     29  C   UNL A   1      49.058  46.383  15.621  1.00  0.00     0.001 A 
ATOM     30  C   UNL A   1      49.069  45.415  18.597  1.00  0.00     0.001 A 
ATOM     31  C   UNL A   1      49.763  45.355  16.927  1.00  0.00     0.000 A 
ENDBRANCH  17  26
ENDBRANCH   9  11
ENDBRANCH   8   9
ENDBRANCH   7   8
ENDBRANCH   6   7
ENDBRANCH   5   6
ENDBRANCH   4   5
ENDBRANCH   3   4
ENDBRANCH   2   3
ENDBRANCH   1   2
BRANCH   1  32
ATOM     32  C   UNL A   1      46.320  39.386  25.624  1.00  0.00     0.188 C 
BRANCH  32  33
ATOM     33  O   UNL A   1      47.437  39.088  26.442  1.00  0.00    -0.376 OA
BRANCH  33  34
ATOM     34  C   UNL A   1      48.117  37.854  26.522  1.00  0.00     0.202 C 
BRANCH  34  35
ATOM     35  C   UNL A   1      47.538  36.458  26.225  1.00  0.00     0.261 C 
BRANCH  35  36
ATOM     36  O   UNL A   1      46.188  36.391  25.783  1.00  0.00    -0.460 OA
BRANCH  36  37
ATOM     37  C   UNL A   1      45.624  35.167  25.776  1.00  0.00     0.338 C 
ATOM     38  O   UNL A   1      45.879  34.244  25.014  1.00  0.00    -0.246 OA
BRANCH  37  39
ATOM     39  C   UNL A   1      44.814  35.024  27.006  1.00  0.00     0.060 A 
ATOM     40  C   UNL A   1      44.045  36.131  27.394  1.00  0.00     0.016 A 
ATOM     41  C   UNL A   1      44.730  33.821  27.718  1.00  0.00     0.016 A 
ATOM     42  C   UNL A   1      43.213  36.053  28.506  1.00  0.00     0.010 A 
ATOM     43  C   UNL A   1      43.932  33.758  28.865  1.00  0.00     0.010 A 
ATOM     44  C   UNL A   1      43.211  34.890  29.286  1.00  0.00    -0.014 A 
BRANCH  44  45
ATOM     45  C   UNL A   1      42.781  35.016  30.698  1.00  0.00     0.031 A 
ATOM     46  C   UNL A   1      41.369  34.590  31.007  1.00  0.00     0.074 A 
ATOM     47  C   UNL A   1      43.604  35.410  31.684  1.00  0.00     0.049 A 
ATOM     48  N   UNL A   1      40.729  34.582  32.148  1.00  0.00    -0.248 NA
ATOM     49  C   UNL A   1      40.571  34.102  29.867  1.00  0.00     0.031 C 
ATOM     50  C   UNL A   1      45.009  35.775  31.528  1.00  0.00     0.029 A 
ATOM     51  N   UNL A   1      43.363  35.556  33.027  1.00  0.00    -0.354 N 
ATOM     52  C   UNL A   1      39.460  34.095  31.856  1.00  0.00     0.074 A 
ATOM     53  C   UNL A   1      39.405  33.849  30.435  1.00  0.00     0.031 C 
ATOM     54  C   UNL A   1      45.508  36.108  32.733  1.00  0.00     0.029 A 
ATOM     55  C   UNL A   1      44.448  36.012  33.736  1.00  0.00     0.049 A 
ATOM     56  H   UNL A   1      42.494  35.354  33.444  1.00  0.00     0.167 HD
ATOM     57  C   UNL A   1      38.427  33.866  32.696  1.00  0.00     0.031 A 
ATOM     58  C   UNL A   1      44.555  36.332  35.042  1.00  0.00     0.031 A 
ATOM     59  C   UNL A   1      38.465  34.140  34.104  1.00  0.00     0.049 A 
ATOM     60  C   UNL A   1      43.352  36.175  35.942  1.00  0.00     0.074 A 
ATOM     61  C   UNL A   1      37.468  33.961  35.043  1.00  0.00     0.029 A 
ATOM     62  N   UNL A   1      39.561  34.665  34.770  1.00  0.00    -0.354 N 
ATOM     63  N   UNL A   1      42.160  35.703  35.661  1.00  0.00    -0.248 NA
ATOM     64  C   UNL A   1      43.514  36.591  37.343  1.00  0.00     0.031 C 
ATOM     65  C   UNL A   1      37.938  34.442  36.269  1.00  0.00     0.029 A 
ATOM     66  C   UNL A   1      39.254  34.846  36.106  1.00  0.00     0.049 A 
ATOM     67  H   UNL A   1      40.428  34.877  34.355  1.00  0.00     0.167 HD
ATOM     68  C   UNL A   1      41.445  35.734  36.854  1.00  0.00     0.074 A 
ATOM     69  C   UNL A   1      42.342  36.256  37.863  1.00  0.00     0.031 C 
ATOM     70  C   UNL A   1      40.163  35.365  37.096  1.00  0.00     0.031 A 
BRANCH  57  71
ATOM     71  C   UNL A   1      37.153  33.348  32.090  1.00  0.00    -0.014 A 
ATOM     72  C   UNL A   1      36.105  34.211  31.733  1.00  0.00     0.009 A 
ATOM     73  C   UNL A   1      36.999  31.969  31.879  1.00  0.00     0.009 A 
ATOM     74  C   UNL A   1      34.915  33.699  31.210  1.00  0.00     0.001 A 
ATOM     75  C   UNL A   1      35.823  31.463  31.326  1.00  0.00     0.001 A 
ATOM     76  C   UNL A   1      34.777  32.328  31.002  1.00  0.00     0.000 A 
ENDBRANCH  57  71
BRANCH  58  77
ATOM     77  C   UNL A   1      45.833  36.869  35.586  1.00  0.00    -0.014 A 
ATOM     78  C   UNL A   1      46.756  36.028  36.228  1.00  0.00     0.009 A 
ATOM     79  C   UNL A   1      46.114  38.243  35.510  1.00  0.00     0.009 A 
ATOM     80  C   UNL A   1      47.913  36.555  36.809  1.00  0.00     0.001 A 
ATOM     81  C   UNL A   1      47.288  38.762  36.063  1.00  0.00     0.001 A 
ATOM     82  C   UNL A   1      48.181  37.920  36.723  1.00  0.00     0.000 A 
ENDBRANCH  58  77
BRANCH  70  83
ATOM     83  C   UNL A   1      39.664  35.462  38.512  1.00  0.00    -0.014 A 
ATOM     84  C   UNL A   1      39.232  36.680  39.059  1.00  0.00     0.009 A 
ATOM     85  C   UNL A   1      39.573  34.297  39.292  1.00  0.00     0.009 A 
ATOM     86  C   UNL A   1      38.755  36.734  40.370  1.00  0.00     0.001 A 
ATOM     87  C   UNL A   1      39.062  34.349  40.590  1.00  0.00     0.001 A 
ATOM     88  C   UNL A   1      38.665  35.569  41.132  1.00  0.00     0.000 A 
ENDBRANCH  70  83
ENDBRANCH  44  45
ENDBRANCH  37  39
ENDBRANCH  36  37
ENDBRANCH  35  36
ENDBRANCH  34  35
ENDBRANCH  33  34
ENDBRANCH  32  33
ENDBRANCH   1  32
TORSDOF 22
ENDMDL
