MODEL 1
REMARK VINA RESULT:     -10.0      0.000      0.000
REMARK SMILES CC(C)(C)OC(=O)N1CCC[C@H]1C(=O)N[C@@H](Cc1ccccc1)C(=O)OCCOCCOCCOCCOC(=O)c1ccc(-c2c3nc(c(-c4ccccc4)c4ccc([nH]4)c(-c4ccccc4)c4nc(c(-c5ccccc5)c5ccc2[nH]5)C=C4)C=C3)cc1
REMARK SMILES IDX 30 1 29 2 28 3 27 4 26 5 24 6 25 7 16 8 15 9 13 10 14 11
REMARK SMILES IDX 12 13 8 14 9 15 10 16 11 17 6 18 7 19 5 20 2 21 1 22 3 23
REMARK SMILES IDX 4 24 17 25 18 26 19 27 23 28 20 29 22 30 21 31 31 32 32 33
REMARK SMILES IDX 33 34 34 35 35 36 36 37 37 38 38 39 39 40 40 41 41 42 42 43
REMARK SMILES IDX 88 44 43 45 87 46 44 47 45 48 46 49 81 50 47 51 86 52 80 53
REMARK SMILES IDX 82 54 48 55 85 56 79 57 78 58 49 60 71 61 56 62 70 63 57 64
REMARK SMILES IDX 60 65 69 66 83 67 58 68 59 69 68 71 84 72 61 73 50 74 51 75
REMARK SMILES IDX 55 76 52 77 54 78 53 79 72 80 73 81 77 82 74 83 76 84 75 85
REMARK SMILES IDX 62 86 63 87 67 88 64 89 66 90 65 91
REMARK H PARENT 15 12 82 59 60 70
REMARK Flexibility Score: inf
ROOT
ATOM      1  C   UNL A   1      29.480  29.838  21.802  1.00  0.00     0.188 C 
ENDROOT
BRANCH   1   2
ATOM      2  O   UNL A   1      29.150  29.072  22.959  1.00  0.00    -0.376 OA
BRANCH   2   3
ATOM      3  C   UNL A   1      29.951  27.958  23.320  1.00  0.00     0.202 C 
BRANCH   3   4
ATOM      4  C   UNL A   1      31.265  27.721  22.562  1.00  0.00     0.261 C 
BRANCH   4   5
ATOM      5  O   UNL A   1      31.657  26.340  22.436  1.00  0.00    -0.462 OA
BRANCH   5   6
ATOM      6  C   UNL A   1      32.987  26.084  22.382  1.00  0.00     0.329 C 
ATOM      7  O   UNL A   1      33.673  26.168  21.366  1.00  0.00    -0.250 OA
BRANCH   6   8
ATOM      8  C   UNL A   1      33.552  25.494  23.694  1.00  0.00     0.196 C 
BRANCH   8   9
ATOM      9  N   UNL A   1      34.589  24.446  23.630  1.00  0.00    -0.341 N 
ATOM     10  C   UNL A   1      34.702  23.237  24.271  1.00  0.00     0.243 C 
ATOM     11  O   UNL A   1      35.752  22.606  24.128  1.00  0.00    -0.273 OA
ATOM     12  H   UNL A   1      35.333  24.649  23.018  1.00  0.00     0.164 HD
BRANCH  10  13
ATOM     13  C   UNL A   1      33.561  22.742  25.184  1.00  0.00     0.178 C 
ATOM     14  N   UNL A   1      33.517  21.286  25.371  1.00  0.00    -0.296 N 
ATOM     15  C   UNL A   1      33.793  20.910  26.740  1.00  0.00     0.124 C 
ATOM     16  C   UNL A   1      33.374  22.138  27.525  1.00  0.00     0.024 C 
ATOM     17  C   UNL A   1      33.750  23.295  26.602  1.00  0.00     0.037 C 
BRANCH  14  18
ATOM     18  C   UNL A   1      33.082  20.441  24.377  1.00  0.00     0.410 C 
ATOM     19  O   UNL A   1      32.100  20.677  23.698  1.00  0.00    -0.224 OA
BRANCH  18  20
ATOM     20  O   UNL A   1      33.826  19.304  24.305  1.00  0.00    -0.444 OA
BRANCH  20  21
ATOM     21  C   UNL A   1      33.265  18.031  23.873  1.00  0.00     0.106 C 
ATOM     22  C   UNL A   1      32.339  17.585  25.018  1.00  0.00     0.056 C 
ATOM     23  C   UNL A   1      34.401  17.016  23.726  1.00  0.00     0.056 C 
ATOM     24  C   UNL A   1      32.412  18.110  22.598  1.00  0.00     0.056 C 
ENDBRANCH  20  21
ENDBRANCH  18  20
ENDBRANCH  14  18
ENDBRANCH  10  13
ENDBRANCH   8   9
BRANCH   8  25
ATOM     25  C   UNL A   1      34.068  26.690  24.530  1.00  0.00     0.072 C 
BRANCH  25  26
ATOM     26  C   UNL A   1      33.130  27.111  25.648  1.00  0.00    -0.045 A 
ATOM     27  C   UNL A   1      33.355  28.295  26.364  1.00  0.00     0.004 A 
ATOM     28  C   UNL A   1      31.985  26.353  25.941  1.00  0.00     0.004 A 
ATOM     29  C   UNL A   1      32.441  28.729  27.326  1.00  0.00     0.000 A 
ATOM     30  C   UNL A   1      31.080  26.783  26.913  1.00  0.00     0.000 A 
ATOM     31  C   UNL A   1      31.303  27.974  27.600  1.00  0.00     0.000 A 
ENDBRANCH  25  26
ENDBRANCH   8  25
ENDBRANCH   6   8
ENDBRANCH   5   6
ENDBRANCH   4   5
ENDBRANCH   3   4
ENDBRANCH   2   3
ENDBRANCH   1   2
BRANCH   1  32
ATOM     32  C   UNL A   1      28.606  31.024  21.351  1.00  0.00     0.188 C 
BRANCH  32  33
ATOM     33  O   UNL A   1      27.959  31.744  22.386  1.00  0.00    -0.377 OA
BRANCH  33  34
ATOM     34  C   UNL A   1      28.549  32.999  22.685  1.00  0.00     0.188 C 
BRANCH  34  35
ATOM     35  C   UNL A   1      29.629  32.967  23.779  1.00  0.00     0.188 C 
BRANCH  35  36
ATOM     36  O   UNL A   1      29.592  31.802  24.598  1.00  0.00    -0.376 OA
BRANCH  36  37
ATOM     37  C   UNL A   1      30.736  31.502  25.391  1.00  0.00     0.202 C 
BRANCH  37  38
ATOM     38  C   UNL A   1      31.152  32.549  26.438  1.00  0.00     0.261 C 
BRANCH  38  39
ATOM     39  O   UNL A   1      32.360  32.261  27.163  1.00  0.00    -0.460 OA
BRANCH  39  40
ATOM     40  C   UNL A   1      33.081  33.297  27.633  1.00  0.00     0.338 C 
ATOM     41  O   UNL A   1      32.711  34.441  27.816  1.00  0.00    -0.246 OA
BRANCH  40  42
ATOM     42  C   UNL A   1      34.369  32.756  28.109  1.00  0.00     0.060 A 
ATOM     43  C   UNL A   1      34.502  31.366  28.234  1.00  0.00     0.016 A 
ATOM     44  C   UNL A   1      35.436  33.604  28.421  1.00  0.00     0.016 A 
ATOM     45  C   UNL A   1      35.692  30.821  28.709  1.00  0.00     0.010 A 
ATOM     46  C   UNL A   1      36.616  33.058  28.928  1.00  0.00     0.010 A 
ATOM     47  C   UNL A   1      36.732  31.669  29.108  1.00  0.00    -0.014 A 
BRANCH  47  48
ATOM     48  C   UNL A   1      37.827  31.120  29.939  1.00  0.00     0.031 A 
ATOM     49  C   UNL A   1      38.782  30.156  29.288  1.00  0.00     0.074 A 
ATOM     50  C   UNL A   1      38.000  31.498  31.217  1.00  0.00     0.049 A 
ATOM     51  N   UNL A   1      39.804  29.523  29.803  1.00  0.00    -0.248 NA
ATOM     52  C   UNL A   1      38.560  29.879  27.858  1.00  0.00     0.031 C 
ATOM     53  C   UNL A   1      37.182  32.473  31.935  1.00  0.00     0.029 A 
ATOM     54  N   UNL A   1      38.936  31.099  32.137  1.00  0.00    -0.354 N 
ATOM     55  C   UNL A   1      40.346  28.780  28.762  1.00  0.00     0.074 A 
ATOM     56  C   UNL A   1      39.526  29.012  27.595  1.00  0.00     0.031 C 
ATOM     57  C   UNL A   1      37.649  32.592  33.191  1.00  0.00     0.029 A 
ATOM     58  C   UNL A   1      38.776  31.678  33.371  1.00  0.00     0.049 A 
ATOM     59  H   UNL A   1      39.655  30.458  31.931  1.00  0.00     0.167 HD
ATOM     60  C   UNL A   1      41.439  27.983  28.771  1.00  0.00     0.031 A 
ATOM     61  C   UNL A   1      39.454  31.472  34.517  1.00  0.00     0.031 A 
ATOM     62  C   UNL A   1      42.237  27.729  29.938  1.00  0.00     0.049 A 
ATOM     63  C   UNL A   1      40.592  30.484  34.530  1.00  0.00     0.074 A 
ATOM     64  C   UNL A   1      43.346  26.911  30.062  1.00  0.00     0.029 A 
ATOM     65  N   UNL A   1      42.005  28.287  31.184  1.00  0.00    -0.354 N 
ATOM     66  N   UNL A   1      41.100  29.790  33.538  1.00  0.00    -0.248 NA
ATOM     67  C   UNL A   1      41.256  30.255  35.822  1.00  0.00     0.031 C 
ATOM     68  C   UNL A   1      43.758  26.939  31.398  1.00  0.00     0.029 A 
ATOM     69  C   UNL A   1      42.940  27.820  32.089  1.00  0.00     0.049 A 
ATOM     70  H   UNL A   1      41.283  28.923  31.394  1.00  0.00     0.167 HD
ATOM     71  C   UNL A   1      42.162  29.075  34.080  1.00  0.00     0.074 A 
ATOM     72  C   UNL A   1      42.235  29.429  35.482  1.00  0.00     0.031 C 
ATOM     73  C   UNL A   1      43.004  28.201  33.475  1.00  0.00     0.031 A 
BRANCH  60  74
ATOM     74  C   UNL A   1      41.815  27.311  27.483  1.00  0.00    -0.014 A 
ATOM     75  C   UNL A   1      42.820  27.840  26.658  1.00  0.00     0.009 A 
ATOM     76  C   UNL A   1      41.183  26.117  27.106  1.00  0.00     0.009 A 
ATOM     77  C   UNL A   1      43.170  27.198  25.469  1.00  0.00     0.001 A 
ATOM     78  C   UNL A   1      41.553  25.463  25.929  1.00  0.00     0.001 A 
ATOM     79  C   UNL A   1      42.540  26.006  25.109  1.00  0.00     0.000 A 
ENDBRANCH  60  74
BRANCH  61  80
ATOM     80  C   UNL A   1      39.066  32.179  35.769  1.00  0.00    -0.014 A 
ATOM     81  C   UNL A   1      38.048  31.675  36.592  1.00  0.00     0.009 A 
ATOM     82  C   UNL A   1      39.668  33.401  36.109  1.00  0.00     0.009 A 
ATOM     83  C   UNL A   1      37.610  32.400  37.705  1.00  0.00     0.001 A 
ATOM     84  C   UNL A   1      39.251  34.108  37.239  1.00  0.00     0.001 A 
ATOM     85  C   UNL A   1      38.214  33.614  38.027  1.00  0.00     0.000 A 
ENDBRANCH  61  80
BRANCH  73  86
ATOM     86  C   UNL A   1      44.108  27.615  34.309  1.00  0.00    -0.014 A 
ATOM     87  C   UNL A   1      43.944  26.402  34.995  1.00  0.00     0.009 A 
ATOM     88  C   UNL A   1      45.350  28.269  34.369  1.00  0.00     0.009 A 
ATOM     89  C   UNL A   1      44.991  25.875  35.754  1.00  0.00     0.001 A 
ATOM     90  C   UNL A   1      46.403  27.724  35.103  1.00  0.00     0.001 A 
ATOM     91  C   UNL A   1      46.219  26.532  35.803  1.00  0.00     0.000 A 
ENDBRANCH  73  86
ENDBRANCH  47  48
ENDBRANCH  40  42
ENDBRANCH  39  40
ENDBRANCH  38  39
ENDBRANCH  37  38
ENDBRANCH  36  37
ENDBRANCH  35  36
ENDBRANCH  34  35
ENDBRANCH  33  34
ENDBRANCH  32  33
ENDBRANCH   1  32
TORSDOF 27
ENDMDL
MODEL 2
REMARK VINA RESULT:      -9.9      1.923      5.839
REMARK SMILES CC(C)(C)OC(=O)N1CCC[C@H]1C(=O)N[C@@H](Cc1ccccc1)C(=O)OCCOCCOCCOCCOC(=O)c1ccc(-c2c3nc(c(-c4ccccc4)c4ccc([nH]4)c(-c4ccccc4)c4nc(c(-c5ccccc5)c5ccc2[nH]5)C=C4)C=C3)cc1
REMARK SMILES IDX 30 1 29 2 28 3 27 4 26 5 24 6 25 7 16 8 15 9 13 10 14 11
REMARK SMILES IDX 12 13 8 14 9 15 10 16 11 17 6 18 7 19 5 20 2 21 1 22 3 23
REMARK SMILES IDX 4 24 17 25 18 26 19 27 23 28 20 29 22 30 21 31 31 32 32 33
REMARK SMILES IDX 33 34 34 35 35 36 36 37 37 38 38 39 39 40 40 41 41 42 42 43
REMARK SMILES IDX 88 44 43 45 87 46 44 47 45 48 46 49 81 50 47 51 86 52 80 53
REMARK SMILES IDX 82 54 48 55 85 56 79 57 78 58 49 60 71 61 56 62 70 63 57 64
REMARK SMILES IDX 60 65 69 66 83 67 58 68 59 69 68 71 84 72 61 73 50 74 51 75
REMARK SMILES IDX 55 76 52 77 54 78 53 79 72 80 73 81 77 82 74 83 76 84 75 85
REMARK SMILES IDX 62 86 63 87 67 88 64 89 66 90 65 91
REMARK H PARENT 15 12 82 59 60 70
REMARK Flexibility Score: inf
ROOT
ATOM      1  C   UNL A   1      28.902  30.432  21.550  1.00  0.00     0.188 C 
ENDROOT
BRANCH   1   2
ATOM      2  O   UNL A   1      29.614  29.200  21.647  1.00  0.00    -0.376 OA
BRANCH   2   3
ATOM      3  C   UNL A   1      30.090  28.757  22.908  1.00  0.00     0.202 C 
BRANCH   3   4
ATOM      4  C   UNL A   1      29.214  27.802  23.731  1.00  0.00     0.261 C 
BRANCH   4   5
ATOM      5  O   UNL A   1      29.327  26.410  23.378  1.00  0.00    -0.462 OA
BRANCH   5   6
ATOM      6  C   UNL A   1      30.519  25.811  23.621  1.00  0.00     0.329 C 
ATOM      7  O   UNL A   1      31.267  25.368  22.753  1.00  0.00    -0.250 OA
BRANCH   6   8
ATOM      8  C   UNL A   1      30.788  25.569  25.123  1.00  0.00     0.196 C 
BRANCH   8   9
ATOM      9  N   UNL A   1      30.327  24.314  25.749  1.00  0.00    -0.341 N 
ATOM     10  C   UNL A   1      30.732  23.013  25.584  1.00  0.00     0.243 C 
ATOM     11  O   UNL A   1      30.078  22.131  26.147  1.00  0.00    -0.273 OA
ATOM     12  H   UNL A   1      29.599  24.431  26.402  1.00  0.00     0.164 HD
BRANCH  10  13
ATOM     13  C   UNL A   1      31.930  22.691  24.669  1.00  0.00     0.178 C 
ATOM     14  N   UNL A   1      32.825  21.643  25.178  1.00  0.00    -0.296 N 
ATOM     15  C   UNL A   1      32.803  20.463  24.342  1.00  0.00     0.124 C 
ATOM     16  C   UNL A   1      32.403  21.010  22.986  1.00  0.00     0.024 C 
ATOM     17  C   UNL A   1      31.429  22.135  23.329  1.00  0.00     0.037 C 
BRANCH  14  18
ATOM     18  C   UNL A   1      33.690  21.874  26.222  1.00  0.00     0.410 C 
ATOM     19  O   UNL A   1      33.645  21.247  27.263  1.00  0.00    -0.224 OA
BRANCH  18  20
ATOM     20  O   UNL A   1      34.529  22.917  25.973  1.00  0.00    -0.444 OA
BRANCH  20  21
ATOM     21  C   UNL A   1      35.759  22.761  25.209  1.00  0.00     0.106 C 
ATOM     22  C   UNL A   1      36.776  23.701  25.880  1.00  0.00     0.056 C 
ATOM     23  C   UNL A   1      35.513  23.236  23.775  1.00  0.00     0.056 C 
ATOM     24  C   UNL A   1      36.353  21.346  25.238  1.00  0.00     0.056 C 
ENDBRANCH  20  21
ENDBRANCH  18  20
ENDBRANCH  14  18
ENDBRANCH  10  13
ENDBRANCH   8   9
BRANCH   8  25
ATOM     25  C   UNL A   1      32.314  25.727  25.330  1.00  0.00     0.072 C 
BRANCH  25  26
ATOM     26  C   UNL A   1      32.712  27.021  26.018  1.00  0.00    -0.045 A 
ATOM     27  C   UNL A   1      31.801  27.712  26.829  1.00  0.00     0.004 A 
ATOM     28  C   UNL A   1      34.022  27.514  25.904  1.00  0.00     0.004 A 
ATOM     29  C   UNL A   1      32.198  28.849  27.535  1.00  0.00     0.000 A 
ATOM     30  C   UNL A   1      34.412  28.659  26.602  1.00  0.00     0.000 A 
ATOM     31  C   UNL A   1      33.503  29.321  27.423  1.00  0.00     0.000 A 
ENDBRANCH  25  26
ENDBRANCH   8  25
ENDBRANCH   6   8
ENDBRANCH   5   6
ENDBRANCH   4   5
ENDBRANCH   3   4
ENDBRANCH   2   3
ENDBRANCH   1   2
BRANCH   1  32
ATOM     32  C   UNL A   1      27.648  30.701  22.403  1.00  0.00     0.188 C 
BRANCH  32  33
ATOM     33  O   UNL A   1      27.645  31.918  23.130  1.00  0.00    -0.377 OA
BRANCH  33  34
ATOM     34  C   UNL A   1      28.791  32.728  22.922  1.00  0.00     0.188 C 
BRANCH  34  35
ATOM     35  C   UNL A   1      29.731  32.850  24.133  1.00  0.00     0.188 C 
BRANCH  35  36
ATOM     36  O   UNL A   1      29.868  31.648  24.885  1.00  0.00    -0.376 OA
BRANCH  36  37
ATOM     37  C   UNL A   1      30.997  31.517  25.742  1.00  0.00     0.202 C 
BRANCH  37  38
ATOM     38  C   UNL A   1      31.352  32.732  26.617  1.00  0.00     0.261 C 
BRANCH  38  39
ATOM     39  O   UNL A   1      32.633  32.679  27.268  1.00  0.00    -0.460 OA
BRANCH  39  40
ATOM     40  C   UNL A   1      33.019  33.743  27.999  1.00  0.00     0.338 C 
ATOM     41  O   UNL A   1      32.380  34.747  28.248  1.00  0.00    -0.246 OA
BRANCH  40  42
ATOM     42  C   UNL A   1      34.296  33.389  28.649  1.00  0.00     0.060 A 
ATOM     43  C   UNL A   1      35.490  33.752  28.011  1.00  0.00     0.016 A 
ATOM     44  C   UNL A   1      34.319  32.716  29.874  1.00  0.00     0.016 A 
ATOM     45  C   UNL A   1      36.714  33.408  28.579  1.00  0.00     0.010 A 
ATOM     46  C   UNL A   1      35.546  32.344  30.425  1.00  0.00     0.010 A 
ATOM     47  C   UNL A   1      36.744  32.656  29.759  1.00  0.00    -0.014 A 
BRANCH  47  48
ATOM     48  C   UNL A   1      38.005  31.990  30.154  1.00  0.00     0.031 A 
ATOM     49  C   UNL A   1      38.852  32.660  31.202  1.00  0.00     0.074 A 
ATOM     50  C   UNL A   1      38.367  30.804  29.637  1.00  0.00     0.049 A 
ATOM     51  N   UNL A   1      40.004  32.293  31.700  1.00  0.00    -0.248 NA
ATOM     52  C   UNL A   1      38.320  33.911  31.773  1.00  0.00     0.031 C 
ATOM     53  C   UNL A   1      37.598  30.026  28.668  1.00  0.00     0.029 A 
ATOM     54  N   UNL A   1      39.487  30.045  29.867  1.00  0.00    -0.354 N 
ATOM     55  C   UNL A   1      40.328  33.261  32.642  1.00  0.00     0.074 A 
ATOM     56  C   UNL A   1      39.274  34.249  32.627  1.00  0.00     0.031 C 
ATOM     57  C   UNL A   1      38.275  28.899  28.380  1.00  0.00     0.029 A 
ATOM     58  C   UNL A   1      39.536  28.895  29.119  1.00  0.00     0.049 A 
ATOM     59  H   UNL A   1      40.189  30.300  30.509  1.00  0.00     0.167 HD
ATOM     60  C   UNL A   1      41.404  33.318  33.460  1.00  0.00     0.031 A 
ATOM     61  C   UNL A   1      40.503  27.961  29.031  1.00  0.00     0.031 A 
ATOM     62  C   UNL A   1      42.468  32.352  33.456  1.00  0.00     0.049 A 
ATOM     63  C   UNL A   1      41.749  28.114  29.865  1.00  0.00     0.074 A 
ATOM     64  C   UNL A   1      43.620  32.336  34.222  1.00  0.00     0.029 A 
ATOM     65  N   UNL A   1      42.509  31.235  32.640  1.00  0.00    -0.354 N 
ATOM     66  N   UNL A   1      42.045  29.030  30.756  1.00  0.00    -0.248 NA
ATOM     67  C   UNL A   1      42.796  27.096  29.682  1.00  0.00     0.031 C 
ATOM     68  C   UNL A   1      44.382  31.229  33.834  1.00  0.00     0.029 A 
ATOM     69  C   UNL A   1      43.674  30.528  32.870  1.00  0.00     0.049 A 
ATOM     70  H   UNL A   1      41.811  30.980  31.992  1.00  0.00     0.167 HD
ATOM     71  C   UNL A   1      43.290  28.678  31.265  1.00  0.00     0.074 A 
ATOM     72  C   UNL A   1      43.687  27.458  30.595  1.00  0.00     0.031 C 
ATOM     73  C   UNL A   1      44.040  29.306  32.203  1.00  0.00     0.031 A 
BRANCH  60  74
ATOM     74  C   UNL A   1      41.492  34.479  34.407  1.00  0.00    -0.014 A 
ATOM     75  C   UNL A   1      40.917  34.412  35.687  1.00  0.00     0.009 A 
ATOM     76  C   UNL A   1      42.185  35.638  34.032  1.00  0.00     0.009 A 
ATOM     77  C   UNL A   1      41.018  35.494  36.564  1.00  0.00     0.001 A 
ATOM     78  C   UNL A   1      42.307  36.708  34.920  1.00  0.00     0.001 A 
ATOM     79  C   UNL A   1      41.718  36.639  36.182  1.00  0.00     0.000 A 
ENDBRANCH  60  74
BRANCH  61  80
ATOM     80  C   UNL A   1      40.366  26.808  28.098  1.00  0.00    -0.014 A 
ATOM     81  C   UNL A   1      39.797  25.600  28.529  1.00  0.00     0.009 A 
ATOM     82  C   UNL A   1      40.869  26.890  26.790  1.00  0.00     0.009 A 
ATOM     83  C   UNL A   1      39.774  24.486  27.685  1.00  0.00     0.001 A 
ATOM     84  C   UNL A   1      40.816  25.784  25.938  1.00  0.00     0.001 A 
ATOM     85  C   UNL A   1      40.282  24.580  26.391  1.00  0.00     0.000 A 
ENDBRANCH  61  80
BRANCH  73  86
ATOM     86  C   UNL A   1      45.336  28.656  32.600  1.00  0.00    -0.014 A 
ATOM     87  C   UNL A   1      46.571  29.158  32.163  1.00  0.00     0.009 A 
ATOM     88  C   UNL A   1      45.317  27.550  33.465  1.00  0.00     0.009 A 
ATOM     89  C   UNL A   1      47.761  28.540  32.557  1.00  0.00     0.001 A 
ATOM     90  C   UNL A   1      46.508  26.954  33.881  1.00  0.00     0.001 A 
ATOM     91  C   UNL A   1      47.729  27.444  33.418  1.00  0.00     0.000 A 
ENDBRANCH  73  86
ENDBRANCH  47  48
ENDBRANCH  40  42
ENDBRANCH  39  40
ENDBRANCH  38  39
ENDBRANCH  37  38
ENDBRANCH  36  37
ENDBRANCH  35  36
ENDBRANCH  34  35
ENDBRANCH  33  34
ENDBRANCH  32  33
ENDBRANCH   1  32
TORSDOF 27
ENDMDL
MODEL 3
REMARK VINA RESULT:      -9.6      3.736      7.553
REMARK SMILES CC(C)(C)OC(=O)N1CCC[C@H]1C(=O)N[C@@H](Cc1ccccc1)C(=O)OCCOCCOCCOCCOC(=O)c1ccc(-c2c3nc(c(-c4ccccc4)c4ccc([nH]4)c(-c4ccccc4)c4nc(c(-c5ccccc5)c5ccc2[nH]5)C=C4)C=C3)cc1
REMARK SMILES IDX 30 1 29 2 28 3 27 4 26 5 24 6 25 7 16 8 15 9 13 10 14 11
REMARK SMILES IDX 12 13 8 14 9 15 10 16 11 17 6 18 7 19 5 20 2 21 1 22 3 23
REMARK SMILES IDX 4 24 17 25 18 26 19 27 23 28 20 29 22 30 21 31 31 32 32 33
REMARK SMILES IDX 33 34 34 35 35 36 36 37 37 38 38 39 39 40 40 41 41 42 42 43
REMARK SMILES IDX 88 44 43 45 87 46 44 47 45 48 46 49 81 50 47 51 86 52 80 53
REMARK SMILES IDX 82 54 48 55 85 56 79 57 78 58 49 60 71 61 56 62 70 63 57 64
REMARK SMILES IDX 60 65 69 66 83 67 58 68 59 69 68 71 84 72 61 73 50 74 51 75
REMARK SMILES IDX 55 76 52 77 54 78 53 79 72 80 73 81 77 82 74 83 76 84 75 85
REMARK SMILES IDX 62 86 63 87 67 88 64 89 66 90 65 91
REMARK H PARENT 15 12 82 59 60 70
REMARK Flexibility Score: inf
ROOT
ATOM      1  C   UNL A   1      33.573  33.341  28.081  1.00  0.00     0.188 C 
ENDROOT
BRANCH   1   2
ATOM      2  O   UNL A   1      34.276  32.180  27.646  1.00  0.00    -0.376 OA
BRANCH   2   3
ATOM      3  C   UNL A   1      33.756  30.891  27.930  1.00  0.00     0.202 C 
BRANCH   3   4
ATOM      4  C   UNL A   1      33.818  29.815  26.836  1.00  0.00     0.261 C 
BRANCH   4   5
ATOM      5  O   UNL A   1      33.458  28.487  27.263  1.00  0.00    -0.462 OA
BRANCH   5   6
ATOM      6  C   UNL A   1      32.153  28.140  27.149  1.00  0.00     0.329 C 
ATOM      7  O   UNL A   1      31.229  28.696  27.738  1.00  0.00    -0.250 OA
BRANCH   6   8
ATOM      8  C   UNL A   1      31.931  26.846  26.333  1.00  0.00     0.196 C 
BRANCH   8   9
ATOM      9  N   UNL A   1      31.247  25.700  26.964  1.00  0.00    -0.341 N 
ATOM     10  C   UNL A   1      31.215  24.367  26.636  1.00  0.00     0.243 C 
ATOM     11  O   UNL A   1      30.447  23.638  27.269  1.00  0.00    -0.273 OA
ATOM     12  H   UNL A   1      30.719  25.933  27.762  1.00  0.00     0.164 HD
BRANCH  10  13
ATOM     13  C   UNL A   1      32.076  23.841  25.470  1.00  0.00     0.178 C 
ATOM     14  N   UNL A   1      32.682  22.524  25.703  1.00  0.00    -0.296 N 
ATOM     15  C   UNL A   1      32.153  21.521  24.804  1.00  0.00     0.124 C 
ATOM     16  C   UNL A   1      31.706  22.334  23.606  1.00  0.00     0.024 C 
ATOM     17  C   UNL A   1      31.200  23.634  24.227  1.00  0.00     0.037 C 
BRANCH  14  18
ATOM     18  C   UNL A   1      33.747  22.358  26.556  1.00  0.00     0.410 C 
ATOM     19  O   UNL A   1      33.896  21.359  27.236  1.00  0.00    -0.224 OA
BRANCH  18  20
ATOM     20  O   UNL A   1      34.549  23.457  26.598  1.00  0.00    -0.444 OA
BRANCH  20  21
ATOM     21  C   UNL A   1      35.446  23.808  25.504  1.00  0.00     0.106 C 
ATOM     22  C   UNL A   1      36.821  24.025  26.159  1.00  0.00     0.056 C 
ATOM     23  C   UNL A   1      34.976  25.127  24.886  1.00  0.00     0.056 C 
ATOM     24  C   UNL A   1      35.611  22.716  24.438  1.00  0.00     0.056 C 
ENDBRANCH  20  21
ENDBRANCH  18  20
ENDBRANCH  14  18
ENDBRANCH  10  13
ENDBRANCH   8   9
BRANCH   8  25
ATOM     25  C   UNL A   1      31.181  27.259  25.044  1.00  0.00     0.072 C 
BRANCH  25  26
ATOM     26  C   UNL A   1      32.069  27.345  23.815  1.00  0.00    -0.045 A 
ATOM     27  C   UNL A   1      33.171  28.210  23.785  1.00  0.00     0.004 A 
ATOM     28  C   UNL A   1      31.836  26.512  22.709  1.00  0.00     0.004 A 
ATOM     29  C   UNL A   1      34.039  28.219  22.693  1.00  0.00     0.000 A 
ATOM     30  C   UNL A   1      32.699  26.532  21.612  1.00  0.00     0.000 A 
ATOM     31  C   UNL A   1      33.804  27.379  21.606  1.00  0.00     0.000 A 
ENDBRANCH  25  26
ENDBRANCH   8  25
ENDBRANCH   6   8
ENDBRANCH   5   6
ENDBRANCH   4   5
ENDBRANCH   3   4
ENDBRANCH   2   3
ENDBRANCH   1   2
BRANCH   1  32
ATOM     32  C   UNL A   1      34.322  34.605  28.544  1.00  0.00     0.188 C 
BRANCH  32  33
ATOM     33  O   UNL A   1      34.508  34.737  29.943  1.00  0.00    -0.377 OA
BRANCH  33  34
ATOM     34  C   UNL A   1      33.470  35.439  30.608  1.00  0.00     0.188 C 
BRANCH  34  35
ATOM     35  C   UNL A   1      33.549  35.418  32.144  1.00  0.00     0.188 C 
BRANCH  35  36
ATOM     36  O   UNL A   1      34.757  35.958  32.670  1.00  0.00    -0.376 OA
BRANCH  36  37
ATOM     37  C   UNL A   1      35.736  35.053  33.169  1.00  0.00     0.202 C 
BRANCH  37  38
ATOM     38  C   UNL A   1      35.221  33.747  33.799  1.00  0.00     0.261 C 
BRANCH  38  39
ATOM     39  O   UNL A   1      35.824  32.537  33.309  1.00  0.00    -0.460 OA
BRANCH  39  40
ATOM     40  C   UNL A   1      35.333  31.995  32.177  1.00  0.00     0.338 C 
ATOM     41  O   UNL A   1      34.263  32.221  31.646  1.00  0.00    -0.246 OA
BRANCH  40  42
ATOM     42  C   UNL A   1      36.425  31.224  31.550  1.00  0.00     0.060 A 
ATOM     43  C   UNL A   1      37.386  30.634  32.382  1.00  0.00     0.016 A 
ATOM     44  C   UNL A   1      36.497  31.078  30.162  1.00  0.00     0.016 A 
ATOM     45  C   UNL A   1      38.447  29.926  31.824  1.00  0.00     0.010 A 
ATOM     46  C   UNL A   1      37.580  30.395  29.603  1.00  0.00     0.010 A 
ATOM     47  C   UNL A   1      38.576  29.851  30.432  1.00  0.00    -0.014 A 
BRANCH  47  48
ATOM     48  C   UNL A   1      39.870  29.427  29.852  1.00  0.00     0.031 A 
ATOM     49  C   UNL A   1      40.970  30.451  29.776  1.00  0.00     0.074 A 
ATOM     50  C   UNL A   1      40.081  28.163  29.450  1.00  0.00     0.049 A 
ATOM     51  N   UNL A   1      42.180  30.336  29.294  1.00  0.00    -0.248 NA
ATOM     52  C   UNL A   1      40.666  31.783  30.329  1.00  0.00     0.031 C 
ATOM     53  C   UNL A   1      39.117  27.068  29.537  1.00  0.00     0.029 A 
ATOM     54  N   UNL A   1      41.193  27.590  28.887  1.00  0.00    -0.354 N 
ATOM     55  C   UNL A   1      42.779  31.574  29.491  1.00  0.00     0.074 A 
ATOM     56  C   UNL A   1      41.795  32.436  30.104  1.00  0.00     0.031 C 
ATOM     57  C   UNL A   1      39.679  25.953  29.036  1.00  0.00     0.029 A 
ATOM     58  C   UNL A   1      41.027  26.266  28.565  1.00  0.00     0.049 A 
ATOM     59  H   UNL A   1      42.032  28.081  28.728  1.00  0.00     0.167 HD
ATOM     60  C   UNL A   1      44.043  31.958  29.198  1.00  0.00     0.031 A 
ATOM     61  C   UNL A   1      41.866  25.415  27.942  1.00  0.00     0.031 A 
ATOM     62  C   UNL A   1      45.013  31.111  28.562  1.00  0.00     0.049 A 
ATOM     63  C   UNL A   1      43.226  25.906  27.516  1.00  0.00     0.074 A 
ATOM     64  C   UNL A   1      46.311  31.414  28.191  1.00  0.00     0.029 A 
ATOM     65  N   UNL A   1      44.785  29.795  28.197  1.00  0.00    -0.354 N 
ATOM     66  N   UNL A   1      43.785  27.077  27.711  1.00  0.00    -0.248 NA
ATOM     67  C   UNL A   1      44.075  24.951  26.786  1.00  0.00     0.031 C 
ATOM     68  C   UNL A   1      46.854  30.291  27.559  1.00  0.00     0.029 A 
ATOM     69  C   UNL A   1      45.913  29.274  27.590  1.00  0.00     0.049 A 
ATOM     70  H   UNL A   1      43.945  29.302  28.348  1.00  0.00     0.167 HD
ATOM     71  C   UNL A   1      45.059  26.986  27.163  1.00  0.00     0.074 A 
ATOM     72  C   UNL A   1      45.197  25.642  26.641  1.00  0.00     0.031 C 
ATOM     73  C   UNL A   1      46.032  27.928  27.095  1.00  0.00     0.031 A 
BRANCH  60  74
ATOM     74  C   UNL A   1      44.435  33.365  29.543  1.00  0.00    -0.014 A 
ATOM     75  C   UNL A   1      43.837  34.460  28.899  1.00  0.00     0.009 A 
ATOM     76  C   UNL A   1      45.386  33.601  30.546  1.00  0.00     0.009 A 
ATOM     77  C   UNL A   1      44.202  35.765  29.239  1.00  0.00     0.001 A 
ATOM     78  C   UNL A   1      45.729  34.907  30.903  1.00  0.00     0.001 A 
ATOM     79  C   UNL A   1      45.142  35.987  30.246  1.00  0.00     0.000 A 
ENDBRANCH  60  74
BRANCH  61  80
ATOM     80  C   UNL A   1      41.449  24.018  27.641  1.00  0.00    -0.014 A 
ATOM     81  C   UNL A   1      40.519  23.749  26.625  1.00  0.00     0.009 A 
ATOM     82  C   UNL A   1      41.929  22.951  28.418  1.00  0.00     0.009 A 
ATOM     83  C   UNL A   1      40.046  22.449  26.423  1.00  0.00     0.001 A 
ATOM     84  C   UNL A   1      41.478  21.648  28.192  1.00  0.00     0.001 A 
ATOM     85  C   UNL A   1      40.527  21.401  27.205  1.00  0.00     0.000 A 
ENDBRANCH  61  80
BRANCH  73  86
ATOM     86  C   UNL A   1      47.346  27.522  26.489  1.00  0.00    -0.014 A 
ATOM     87  C   UNL A   1      48.386  27.003  27.274  1.00  0.00     0.009 A 
ATOM     88  C   UNL A   1      47.525  27.620  25.099  1.00  0.00     0.009 A 
ATOM     89  C   UNL A   1      49.593  26.624  26.682  1.00  0.00     0.001 A 
ATOM     90  C   UNL A   1      48.720  27.212  24.508  1.00  0.00     0.001 A 
ATOM     91  C   UNL A   1      49.758  26.723  25.302  1.00  0.00     0.000 A 
ENDBRANCH  73  86
ENDBRANCH  47  48
ENDBRANCH  40  42
ENDBRANCH  39  40
ENDBRANCH  38  39
ENDBRANCH  37  38
ENDBRANCH  36  37
ENDBRANCH  35  36
ENDBRANCH  34  35
ENDBRANCH  33  34
ENDBRANCH  32  33
ENDBRANCH   1  32
TORSDOF 27
ENDMDL
