MODEL 1
REMARK VINA RESULT:      -8.9      0.000      0.000
REMARK SMILES C#CCOc1ccccc1/C=C(\C#N)C(=O)OCCOCCOCCOCCOC(=O)c1ccc(-c2c3nc(c(-c4ccccc4)c4ccc([nH]4)c(-c4ccccc4)c4nc(c(-c5ccccc5)c5ccc2[nH]5)C=C4)C=C3)cc1
REMARK SMILES IDX 22 1 21 2 20 3 19 4 18 5 17 6 15 7 16 8 12 9 11 10 10 11
REMARK SMILES IDX 5 12 6 13 7 14 9 15 8 16 4 17 3 18 2 19 1 20 13 21 14 22
REMARK SMILES IDX 23 23 24 24 25 25 26 26 27 27 28 28 29 29 30 30 31 31 32 32
REMARK SMILES IDX 33 33 79 34 34 35 78 36 35 37 36 38 37 39 72 40 38 41 77 42
REMARK SMILES IDX 71 43 73 44 39 45 76 46 70 47 69 48 40 50 62 51 47 52 61 53
REMARK SMILES IDX 48 54 51 55 60 56 74 57 49 58 50 59 59 61 75 62 52 63 41 64
REMARK SMILES IDX 42 65 46 66 43 67 45 68 44 69 63 70 64 71 68 72 65 73 67 74
REMARK SMILES IDX 66 75 53 76 54 77 58 78 55 79 57 80 56 81
REMARK H PARENT 73 49 51 60
REMARK Flexibility Score: inf
ROOT
ATOM      1  C   UNL A   1      39.379  21.832  26.474  1.00  0.00     0.188 C 
ENDROOT
BRANCH   1   2
ATOM      2  C   UNL A   1      38.098  22.317  25.744  1.00  0.00     0.188 C 
BRANCH   2   3
ATOM      3  O   UNL A   1      37.408  21.366  24.936  1.00  0.00    -0.376 OA
BRANCH   3   4
ATOM      4  C   UNL A   1      36.055  21.091  25.283  1.00  0.00     0.202 C 
BRANCH   4   5
ATOM      5  C   UNL A   1      35.151  22.325  25.313  1.00  0.00     0.261 C 
BRANCH   5   6
ATOM      6  O   UNL A   1      34.728  22.631  23.978  1.00  0.00    -0.459 OA
BRANCH   6   7
ATOM      7  C   UNL A   1      33.417  22.545  23.720  1.00  0.00     0.348 C 
ATOM      8  O   UNL A   1      32.839  21.549  23.301  1.00  0.00    -0.245 OA
BRANCH   7   9
ATOM      9  C   UNL A   1      32.664  23.856  24.075  1.00  0.00     0.138 C 
ATOM     10  C   UNL A   1      32.208  24.961  24.807  1.00  0.00     0.039 C 
BRANCH  10  11
ATOM     11  C   UNL A   1      31.175  25.971  24.258  1.00  0.00     0.018 A 
ATOM     12  C   UNL A   1      31.385  27.345  23.936  1.00  0.00     0.128 A 
ATOM     13  C   UNL A   1      30.296  28.165  23.563  1.00  0.00     0.047 A 
ATOM     14  C   UNL A   1      28.997  27.683  23.505  1.00  0.00     0.004 A 
ATOM     15  C   UNL A   1      29.847  25.505  24.119  1.00  0.00     0.012 A 
ATOM     16  C   UNL A   1      28.773  26.348  23.788  1.00  0.00     0.001 A 
BRANCH  12  17
ATOM     17  O   UNL A   1      32.506  28.138  23.968  1.00  0.00    -0.480 OA
BRANCH  17  18
ATOM     18  C   UNL A   1      32.554  29.329  24.724  1.00  0.00     0.318 C 
BRANCH  18  19
ATOM     19  C   UNL A   1      32.140  28.998  26.149  1.00  0.00    -0.065 C 
ATOM     20  C   UNL A   1      31.784  28.713  27.371  1.00  0.00     0.007 C 
ENDBRANCH  18  19
ENDBRANCH  17  18
ENDBRANCH  12  17
ENDBRANCH  10  11
BRANCH   9  21
ATOM     21  C   UNL A   1      33.400  24.640  23.000  1.00  0.00     0.107 C 
ATOM     22  N   UNL A   1      34.010  25.290  22.108  1.00  0.00    -0.192 NA
ENDBRANCH   9  21
ENDBRANCH   7   9
ENDBRANCH   6   7
ENDBRANCH   5   6
ENDBRANCH   4   5
ENDBRANCH   3   4
ENDBRANCH   2   3
ENDBRANCH   1   2
BRANCH   1  23
ATOM     23  O   UNL A   1      40.016  20.618  26.118  1.00  0.00    -0.377 OA
BRANCH  23  24
ATOM     24  C   UNL A   1      41.375  20.466  26.473  1.00  0.00     0.188 C 
BRANCH  24  25
ATOM     25  C   UNL A   1      42.382  21.402  25.778  1.00  0.00     0.188 C 
BRANCH  25  26
ATOM     26  O   UNL A   1      43.454  20.736  25.119  1.00  0.00    -0.376 OA
BRANCH  26  27
ATOM     27  C   UNL A   1      44.441  21.536  24.486  1.00  0.00     0.202 C 
BRANCH  27  28
ATOM     28  C   UNL A   1      44.114  23.020  24.247  1.00  0.00     0.261 C 
BRANCH  28  29
ATOM     29  O   UNL A   1      45.073  23.968  24.734  1.00  0.00    -0.460 OA
BRANCH  29  30
ATOM     30  C   UNL A   1      45.477  23.859  26.016  1.00  0.00     0.338 C 
ATOM     31  O   UNL A   1      46.486  23.317  26.434  1.00  0.00    -0.246 OA
BRANCH  30  32
ATOM     32  C   UNL A   1      44.589  24.719  26.825  1.00  0.00     0.060 A 
ATOM     33  C   UNL A   1      44.700  26.112  26.701  1.00  0.00     0.016 A 
ATOM     34  C   UNL A   1      43.603  24.154  27.638  1.00  0.00     0.016 A 
ATOM     35  C   UNL A   1      43.828  26.946  27.396  1.00  0.00     0.010 A 
ATOM     36  C   UNL A   1      42.766  24.990  28.378  1.00  0.00     0.010 A 
ATOM     37  C   UNL A   1      42.897  26.387  28.281  1.00  0.00    -0.014 A 
BRANCH  37  38
ATOM     38  C   UNL A   1      42.284  27.253  29.311  1.00  0.00     0.031 A 
ATOM     39  C   UNL A   1      42.942  27.275  30.665  1.00  0.00     0.074 A 
ATOM     40  C   UNL A   1      41.199  28.007  29.065  1.00  0.00     0.049 A 
ATOM     41  N   UNL A   1      42.594  27.916  31.749  1.00  0.00    -0.248 NA
ATOM     42  C   UNL A   1      44.164  26.462  30.813  1.00  0.00     0.031 C 
ATOM     43  C   UNL A   1      40.502  28.107  27.784  1.00  0.00     0.029 A 
ATOM     44  N   UNL A   1      40.490  28.832  29.902  1.00  0.00    -0.354 N 
ATOM     45  C   UNL A   1      43.544  27.575  32.703  1.00  0.00     0.074 A 
ATOM     46  C   UNL A   1      44.475  26.663  32.083  1.00  0.00     0.031 C 
ATOM     47  C   UNL A   1      39.450  28.936  27.927  1.00  0.00     0.029 A 
ATOM     48  C   UNL A   1      39.385  29.397  29.312  1.00  0.00     0.049 A 
ATOM     49  H   UNL A   1      40.748  29.001  30.836  1.00  0.00     0.167 HD
ATOM     50  C   UNL A   1      43.633  27.986  33.988  1.00  0.00     0.031 A 
ATOM     51  C   UNL A   1      38.423  30.175  29.848  1.00  0.00     0.031 A 
ATOM     52  C   UNL A   1      42.699  28.879  34.613  1.00  0.00     0.049 A 
ATOM     53  C   UNL A   1      38.504  30.551  31.306  1.00  0.00     0.074 A 
ATOM     54  C   UNL A   1      42.712  29.368  35.906  1.00  0.00     0.029 A 
ATOM     55  N   UNL A   1      41.579  29.405  33.991  1.00  0.00    -0.354 N 
ATOM     56  N   UNL A   1      39.432  30.262  32.188  1.00  0.00    -0.248 NA
ATOM     57  C   UNL A   1      37.405  31.370  31.842  1.00  0.00     0.031 C 
ATOM     58  C   UNL A   1      41.566  30.146  36.085  1.00  0.00     0.029 A 
ATOM     59  C   UNL A   1      40.875  30.191  34.884  1.00  0.00     0.049 A 
ATOM     60  H   UNL A   1      41.323  29.243  33.053  1.00  0.00     0.167 HD
ATOM     61  C   UNL A   1      39.046  30.891  33.367  1.00  0.00     0.074 A 
ATOM     62  C   UNL A   1      37.810  31.590  33.085  1.00  0.00     0.031 C 
ATOM     63  C   UNL A   1      39.656  30.891  34.577  1.00  0.00     0.031 A 
BRANCH  50  64
ATOM     64  C   UNL A   1      44.757  27.439  34.816  1.00  0.00    -0.014 A 
ATOM     65  C   UNL A   1      44.604  26.265  35.569  1.00  0.00     0.009 A 
ATOM     66  C   UNL A   1      46.003  28.084  34.801  1.00  0.00     0.009 A 
ATOM     67  C   UNL A   1      45.676  25.755  36.303  1.00  0.00     0.001 A 
ATOM     68  C   UNL A   1      47.079  27.559  35.516  1.00  0.00     0.001 A 
ATOM     69  C   UNL A   1      46.914  26.398  36.269  1.00  0.00     0.000 A 
ENDBRANCH  50  64
BRANCH  51  70
ATOM     70  C   UNL A   1      37.266  30.625  29.026  1.00  0.00    -0.014 A 
ATOM     71  C   UNL A   1      37.118  31.975  28.668  1.00  0.00     0.009 A 
ATOM     72  C   UNL A   1      36.262  29.716  28.657  1.00  0.00     0.009 A 
ATOM     73  C   UNL A   1      35.971  32.410  27.998  1.00  0.00     0.001 A 
ATOM     74  C   UNL A   1      35.132  30.147  27.957  1.00  0.00     0.001 A 
ATOM     75  C   UNL A   1      34.981  31.495  27.642  1.00  0.00     0.000 A 
ENDBRANCH  51  70
BRANCH  63  76
ATOM     76  C   UNL A   1      39.032  31.711  35.671  1.00  0.00    -0.014 A 
ATOM     77  C   UNL A   1      39.257  33.092  35.771  1.00  0.00     0.009 A 
ATOM     78  C   UNL A   1      38.158  31.095  36.582  1.00  0.00     0.009 A 
ATOM     79  C   UNL A   1      38.645  33.833  36.783  1.00  0.00     0.001 A 
ATOM     80  C   UNL A   1      37.523  31.844  37.571  1.00  0.00     0.001 A 
ATOM     81  C   UNL A   1      37.775  33.211  37.678  1.00  0.00     0.000 A 
ENDBRANCH  63  76
ENDBRANCH  37  38
ENDBRANCH  30  32
ENDBRANCH  29  30
ENDBRANCH  28  29
ENDBRANCH  27  28
ENDBRANCH  26  27
ENDBRANCH  25  26
ENDBRANCH  24  25
ENDBRANCH  23  24
ENDBRANCH   1  23
TORSDOF 25
ENDMDL
MODEL 2
REMARK VINA RESULT:      -8.8      1.254      6.003
REMARK SMILES C#CCOc1ccccc1/C=C(\C#N)C(=O)OCCOCCOCCOCCOC(=O)c1ccc(-c2c3nc(c(-c4ccccc4)c4ccc([nH]4)c(-c4ccccc4)c4nc(c(-c5ccccc5)c5ccc2[nH]5)C=C4)C=C3)cc1
REMARK SMILES IDX 22 1 21 2 20 3 19 4 18 5 17 6 15 7 16 8 12 9 11 10 10 11
REMARK SMILES IDX 5 12 6 13 7 14 9 15 8 16 4 17 3 18 2 19 1 20 13 21 14 22
REMARK SMILES IDX 23 23 24 24 25 25 26 26 27 27 28 28 29 29 30 30 31 31 32 32
REMARK SMILES IDX 33 33 79 34 34 35 78 36 35 37 36 38 37 39 72 40 38 41 77 42
REMARK SMILES IDX 71 43 73 44 39 45 76 46 70 47 69 48 40 50 62 51 47 52 61 53
REMARK SMILES IDX 48 54 51 55 60 56 74 57 49 58 50 59 59 61 75 62 52 63 41 64
REMARK SMILES IDX 42 65 46 66 43 67 45 68 44 69 63 70 64 71 68 72 65 73 67 74
REMARK SMILES IDX 66 75 53 76 54 77 58 78 55 79 57 80 56 81
REMARK H PARENT 73 49 51 60
REMARK Flexibility Score: inf
ROOT
ATOM      1  C   UNL A   1      41.998  20.941  26.560  1.00  0.00     0.188 C 
ENDROOT
BRANCH   1   2
ATOM      2  C   UNL A   1      40.599  21.395  27.055  1.00  0.00     0.188 C 
BRANCH   2   3
ATOM      3  O   UNL A   1      39.893  22.332  26.245  1.00  0.00    -0.376 OA
BRANCH   3   4
ATOM      4  C   UNL A   1      38.617  21.929  25.759  1.00  0.00     0.202 C 
BRANCH   4   5
ATOM      5  C   UNL A   1      37.507  22.958  25.979  1.00  0.00     0.261 C 
BRANCH   5   6
ATOM      6  O   UNL A   1      36.269  22.429  25.487  1.00  0.00    -0.459 OA
BRANCH   6   7
ATOM      7  C   UNL A   1      35.145  22.884  26.055  1.00  0.00     0.348 C 
ATOM      8  O   UNL A   1      34.615  22.414  27.056  1.00  0.00    -0.245 OA
BRANCH   7   9
ATOM      9  C   UNL A   1      34.593  24.144  25.335  1.00  0.00     0.138 C 
ATOM     10  C   UNL A   1      34.441  25.480  24.941  1.00  0.00     0.039 C 
BRANCH  10  11
ATOM     11  C   UNL A   1      33.314  25.961  23.998  1.00  0.00     0.018 A 
ATOM     12  C   UNL A   1      31.907  25.802  24.170  1.00  0.00     0.128 A 
ATOM     13  C   UNL A   1      31.015  26.192  23.144  1.00  0.00     0.047 A 
ATOM     14  C   UNL A   1      31.461  26.723  21.944  1.00  0.00     0.004 A 
ATOM     15  C   UNL A   1      33.720  26.570  22.788  1.00  0.00     0.012 A 
ATOM     16  C   UNL A   1      32.819  26.910  21.766  1.00  0.00     0.001 A 
BRANCH  12  17
ATOM     17  O   UNL A   1      31.158  25.250  25.179  1.00  0.00    -0.480 OA
BRANCH  17  18
ATOM     18  C   UNL A   1      31.452  25.485  26.540  1.00  0.00     0.318 C 
BRANCH  18  19
ATOM     19  C   UNL A   1      31.581  26.987  26.739  1.00  0.00    -0.065 C 
ATOM     20  C   UNL A   1      31.691  28.275  26.911  1.00  0.00     0.007 C 
ENDBRANCH  18  19
ENDBRANCH  17  18
ENDBRANCH  12  17
ENDBRANCH  10  11
BRANCH   9  21
ATOM     21  C   UNL A   1      34.951  23.590  23.964  1.00  0.00     0.107 C 
ATOM     22  N   UNL A   1      35.247  23.131  22.828  1.00  0.00    -0.192 NA
ENDBRANCH   9  21
ENDBRANCH   7   9
ENDBRANCH   6   7
ENDBRANCH   5   6
ENDBRANCH   4   5
ENDBRANCH   3   4
ENDBRANCH   2   3
ENDBRANCH   1   2
BRANCH   1  23
ATOM     23  O   UNL A   1      42.462  19.619  26.771  1.00  0.00    -0.377 OA
BRANCH  23  24
ATOM     24  C   UNL A   1      42.872  18.882  25.639  1.00  0.00     0.188 C 
BRANCH  24  25
ATOM     25  C   UNL A   1      44.342  19.037  25.206  1.00  0.00     0.188 C 
BRANCH  25  26
ATOM     26  O   UNL A   1      44.564  20.014  24.195  1.00  0.00    -0.376 OA
BRANCH  26  27
ATOM     27  C   UNL A   1      44.997  21.303  24.604  1.00  0.00     0.202 C 
BRANCH  27  28
ATOM     28  C   UNL A   1      44.410  22.521  23.870  1.00  0.00     0.261 C 
BRANCH  28  29
ATOM     29  O   UNL A   1      43.829  23.540  24.695  1.00  0.00    -0.460 OA
BRANCH  29  30
ATOM     30  C   UNL A   1      44.619  24.558  25.094  1.00  0.00     0.338 C 
ATOM     31  O   UNL A   1      45.664  24.930  24.588  1.00  0.00    -0.246 OA
BRANCH  30  32
ATOM     32  C   UNL A   1      43.877  25.302  26.131  1.00  0.00     0.060 A 
ATOM     33  C   UNL A   1      44.110  26.679  26.273  1.00  0.00     0.016 A 
ATOM     34  C   UNL A   1      42.903  24.663  26.903  1.00  0.00     0.016 A 
ATOM     35  C   UNL A   1      43.372  27.420  27.193  1.00  0.00     0.010 A 
ATOM     36  C   UNL A   1      42.203  25.394  27.863  1.00  0.00     0.010 A 
ATOM     37  C   UNL A   1      42.459  26.767  28.031  1.00  0.00    -0.014 A 
BRANCH  37  38
ATOM     38  C   UNL A   1      42.005  27.451  29.261  1.00  0.00     0.031 A 
ATOM     39  C   UNL A   1      40.711  28.217  29.179  1.00  0.00     0.074 A 
ATOM     40  C   UNL A   1      42.692  27.390  30.414  1.00  0.00     0.049 A 
ATOM     41  N   UNL A   1      40.107  28.929  30.093  1.00  0.00    -0.248 NA
ATOM     42  C   UNL A   1      40.002  28.169  27.886  1.00  0.00     0.031 C 
ATOM     43  C   UNL A   1      43.930  26.643  30.631  1.00  0.00     0.029 A 
ATOM     44  N   UNL A   1      42.436  27.982  31.626  1.00  0.00    -0.354 N 
ATOM     45  C   UNL A   1      38.959  29.418  29.483  1.00  0.00     0.074 A 
ATOM     46  C   UNL A   1      38.952  28.939  28.121  1.00  0.00     0.031 C 
ATOM     47  C   UNL A   1      44.336  26.838  31.900  1.00  0.00     0.029 A 
ATOM     48  C   UNL A   1      43.406  27.744  32.570  1.00  0.00     0.049 A 
ATOM     49  H   UNL A   1      41.636  28.526  31.800  1.00  0.00     0.167 HD
ATOM     50  C   UNL A   1      37.993  30.202  30.011  1.00  0.00     0.031 A 
ATOM     51  C   UNL A   1      43.531  28.231  33.821  1.00  0.00     0.031 A 
ATOM     52  C   UNL A   1      38.005  30.694  31.359  1.00  0.00     0.049 A 
ATOM     53  C   UNL A   1      42.478  29.169  34.357  1.00  0.00     0.074 A 
ATOM     54  C   UNL A   1      37.062  31.483  31.994  1.00  0.00     0.029 A 
ATOM     55  N   UNL A   1      39.017  30.456  32.273  1.00  0.00    -0.354 N 
ATOM     56  N   UNL A   1      41.373  29.588  33.788  1.00  0.00    -0.248 NA
ATOM     57  C   UNL A   1      42.689  29.696  35.714  1.00  0.00     0.031 C 
ATOM     58  C   UNL A   1      37.534  31.769  33.278  1.00  0.00     0.029 A 
ATOM     59  C   UNL A   1      38.738  31.107  33.460  1.00  0.00     0.049 A 
ATOM     60  H   UNL A   1      39.816  29.905  32.103  1.00  0.00     0.167 HD
ATOM     61  C   UNL A   1      40.743  30.396  34.729  1.00  0.00     0.074 A 
ATOM     62  C   UNL A   1      41.580  30.397  35.910  1.00  0.00     0.031 C 
ATOM     63  C   UNL A   1      39.577  31.079  34.628  1.00  0.00     0.031 A 
BRANCH  50  64
ATOM     64  C   UNL A   1      36.861  30.609  29.115  1.00  0.00    -0.014 A 
ATOM     65  C   UNL A   1      35.861  29.698  28.743  1.00  0.00     0.009 A 
ATOM     66  C   UNL A   1      36.772  31.939  28.677  1.00  0.00     0.009 A 
ATOM     67  C   UNL A   1      34.799  30.111  27.936  1.00  0.00     0.001 A 
ATOM     68  C   UNL A   1      35.697  32.354  27.892  1.00  0.00     0.001 A 
ATOM     69  C   UNL A   1      34.714  31.439  27.519  1.00  0.00     0.000 A 
ENDBRANCH  50  64
BRANCH  51  70
ATOM     70  C   UNL A   1      44.714  27.885  34.656  1.00  0.00    -0.014 A 
ATOM     71  C   UNL A   1      44.772  26.671  35.357  1.00  0.00     0.009 A 
ATOM     72  C   UNL A   1      45.763  28.805  34.814  1.00  0.00     0.009 A 
ATOM     73  C   UNL A   1      45.831  26.404  36.229  1.00  0.00     0.001 A 
ATOM     74  C   UNL A   1      46.837  28.523  35.660  1.00  0.00     0.001 A 
ATOM     75  C   UNL A   1      46.863  27.330  36.379  1.00  0.00     0.000 A 
ENDBRANCH  51  70
BRANCH  63  76
ATOM     76  C   UNL A   1      39.109  31.839  35.838  1.00  0.00    -0.014 A 
ATOM     77  C   UNL A   1      39.606  33.116  36.138  1.00  0.00     0.009 A 
ATOM     78  C   UNL A   1      38.110  31.286  36.656  1.00  0.00     0.009 A 
ATOM     79  C   UNL A   1      39.135  33.810  37.254  1.00  0.00     0.001 A 
ATOM     80  C   UNL A   1      37.619  31.995  37.751  1.00  0.00     0.001 A 
ATOM     81  C   UNL A   1      38.139  33.252  38.056  1.00  0.00     0.000 A 
ENDBRANCH  63  76
ENDBRANCH  37  38
ENDBRANCH  30  32
ENDBRANCH  29  30
ENDBRANCH  28  29
ENDBRANCH  27  28
ENDBRANCH  26  27
ENDBRANCH  25  26
ENDBRANCH  24  25
ENDBRANCH  23  24
ENDBRANCH   1  23
TORSDOF 25
ENDMDL
MODEL 3
REMARK VINA RESULT:      -8.7      1.971      6.431
REMARK SMILES C#CCOc1ccccc1/C=C(\C#N)C(=O)OCCOCCOCCOCCOC(=O)c1ccc(-c2c3nc(c(-c4ccccc4)c4ccc([nH]4)c(-c4ccccc4)c4nc(c(-c5ccccc5)c5ccc2[nH]5)C=C4)C=C3)cc1
REMARK SMILES IDX 22 1 21 2 20 3 19 4 18 5 17 6 15 7 16 8 12 9 11 10 10 11
REMARK SMILES IDX 5 12 6 13 7 14 9 15 8 16 4 17 3 18 2 19 1 20 13 21 14 22
REMARK SMILES IDX 23 23 24 24 25 25 26 26 27 27 28 28 29 29 30 30 31 31 32 32
REMARK SMILES IDX 33 33 79 34 34 35 78 36 35 37 36 38 37 39 72 40 38 41 77 42
REMARK SMILES IDX 71 43 73 44 39 45 76 46 70 47 69 48 40 50 62 51 47 52 61 53
REMARK SMILES IDX 48 54 51 55 60 56 74 57 49 58 50 59 59 61 75 62 52 63 41 64
REMARK SMILES IDX 42 65 46 66 43 67 45 68 44 69 63 70 64 71 68 72 65 73 67 74
REMARK SMILES IDX 66 75 53 76 54 77 58 78 55 79 57 80 56 81
REMARK H PARENT 73 49 51 60
REMARK Flexibility Score: inf
ROOT
ATOM      1  C   UNL A   1      37.305  22.440  24.886  1.00  0.00     0.188 C 
ENDROOT
BRANCH   1   2
ATOM      2  C   UNL A   1      36.739  23.337  26.020  1.00  0.00     0.188 C 
BRANCH   2   3
ATOM      3  O   UNL A   1      35.323  23.381  26.172  1.00  0.00    -0.376 OA
BRANCH   3   4
ATOM      4  C   UNL A   1      34.632  22.138  26.116  1.00  0.00     0.202 C 
BRANCH   4   5
ATOM      5  C   UNL A   1      33.402  22.062  27.022  1.00  0.00     0.261 C 
BRANCH   5   6
ATOM      6  O   UNL A   1      32.238  22.429  26.269  1.00  0.00    -0.459 OA
BRANCH   6   7
ATOM      7  C   UNL A   1      31.475  23.410  26.767  1.00  0.00     0.348 C 
ATOM      8  O   UNL A   1      30.517  23.254  27.515  1.00  0.00    -0.245 OA
BRANCH   7   9
ATOM      9  C   UNL A   1      31.978  24.816  26.339  1.00  0.00     0.138 C 
ATOM     10  C   UNL A   1      32.806  25.823  25.825  1.00  0.00     0.039 C 
BRANCH  10  11
ATOM     11  C   UNL A   1      32.438  27.323  25.866  1.00  0.00     0.018 A 
ATOM     12  C   UNL A   1      32.457  28.255  24.786  1.00  0.00     0.128 A 
ATOM     13  C   UNL A   1      32.211  29.627  25.024  1.00  0.00     0.047 A 
ATOM     14  C   UNL A   1      31.959  30.121  26.294  1.00  0.00     0.004 A 
ATOM     15  C   UNL A   1      32.108  27.859  27.133  1.00  0.00     0.012 A 
ATOM     16  C   UNL A   1      31.910  29.232  27.352  1.00  0.00     0.001 A 
BRANCH  12  17
ATOM     17  O   UNL A   1      32.744  28.113  23.451  1.00  0.00    -0.480 OA
BRANCH  17  18
ATOM     18  C   UNL A   1      31.847  27.489  22.558  1.00  0.00     0.318 C 
BRANCH  18  19
ATOM     19  C   UNL A   1      30.463  28.069  22.801  1.00  0.00    -0.065 C 
ATOM     20  C   UNL A   1      29.276  28.567  23.010  1.00  0.00     0.007 C 
ENDBRANCH  18  19
ENDBRANCH  17  18
ENDBRANCH  12  17
ENDBRANCH  10  11
BRANCH   9  21
ATOM     21  C   UNL A   1      30.847  24.980  25.336  1.00  0.00     0.107 C 
ATOM     22  N   UNL A   1      29.908  25.117  24.505  1.00  0.00    -0.192 NA
ENDBRANCH   9  21
ENDBRANCH   7   9
ENDBRANCH   6   7
ENDBRANCH   5   6
ENDBRANCH   4   5
ENDBRANCH   3   4
ENDBRANCH   2   3
ENDBRANCH   1   2
BRANCH   1  23
ATOM     23  O   UNL A   1      38.159  21.346  25.168  1.00  0.00    -0.377 OA
BRANCH  23  24
ATOM     24  C   UNL A   1      39.265  21.582  26.014  1.00  0.00     0.188 C 
BRANCH  24  25
ATOM     25  C   UNL A   1      40.237  20.406  26.227  1.00  0.00     0.188 C 
BRANCH  25  26
ATOM     26  O   UNL A   1      41.594  20.693  25.906  1.00  0.00    -0.376 OA
BRANCH  26  27
ATOM     27  C   UNL A   1      42.306  21.572  26.763  1.00  0.00     0.202 C 
BRANCH  27  28
ATOM     28  C   UNL A   1      42.789  22.909  26.175  1.00  0.00     0.261 C 
BRANCH  28  29
ATOM     29  O   UNL A   1      41.819  23.963  26.115  1.00  0.00    -0.460 OA
BRANCH  29  30
ATOM     30  C   UNL A   1      42.232  25.182  25.711  1.00  0.00     0.338 C 
ATOM     31  O   UNL A   1      42.704  25.485  24.629  1.00  0.00    -0.246 OA
BRANCH  30  32
ATOM     32  C   UNL A   1      41.800  26.150  26.739  1.00  0.00     0.060 A 
ATOM     33  C   UNL A   1      42.321  27.452  26.704  1.00  0.00     0.016 A 
ATOM     34  C   UNL A   1      40.830  25.798  27.682  1.00  0.00     0.016 A 
ATOM     35  C   UNL A   1      41.877  28.406  27.617  1.00  0.00     0.010 A 
ATOM     36  C   UNL A   1      40.426  26.737  28.631  1.00  0.00     0.010 A 
ATOM     37  C   UNL A   1      40.972  28.034  28.618  1.00  0.00    -0.014 A 
BRANCH  37  38
ATOM     38  C   UNL A   1      40.834  28.897  29.812  1.00  0.00     0.031 A 
ATOM     39  C   UNL A   1      39.689  29.875  29.818  1.00  0.00     0.074 A 
ATOM     40  C   UNL A   1      41.670  28.816  30.860  1.00  0.00     0.049 A 
ATOM     41  N   UNL A   1      39.360  30.765  30.716  1.00  0.00    -0.248 NA
ATOM     42  C   UNL A   1      38.792  29.841  28.647  1.00  0.00     0.031 C 
ATOM     43  C   UNL A   1      42.784  27.878  30.992  1.00  0.00     0.029 A 
ATOM     44  N   UNL A   1      41.707  29.551  32.018  1.00  0.00    -0.354 N 
ATOM     45  C   UNL A   1      38.231  31.398  30.215  1.00  0.00     0.074 A 
ATOM     46  C   UNL A   1      37.934  30.807  28.931  1.00  0.00     0.031 C 
ATOM     47  C   UNL A   1      43.408  28.110  32.163  1.00  0.00     0.029 A 
ATOM     48  C   UNL A   1      42.757  29.227  32.843  1.00  0.00     0.049 A 
ATOM     49  H   UNL A   1      41.045  30.246  32.236  1.00  0.00     0.167 HD
ATOM     50  C   UNL A   1      37.502  32.389  30.775  1.00  0.00     0.031 A 
ATOM     51  C   UNL A   1      43.152  29.794  34.001  1.00  0.00     0.031 A 
ATOM     52  C   UNL A   1      37.803  32.991  32.042  1.00  0.00     0.049 A 
ATOM     53  C   UNL A   1      42.366  30.952  34.562  1.00  0.00     0.074 A 
ATOM     54  C   UNL A   1      37.115  33.992  32.704  1.00  0.00     0.029 A 
ATOM     55  N   UNL A   1      38.890  32.655  32.832  1.00  0.00    -0.354 N 
ATOM     56  N   UNL A   1      41.272  31.513  34.104  1.00  0.00    -0.248 NA
ATOM     57  C   UNL A   1      42.869  31.553  35.808  1.00  0.00     0.031 C 
ATOM     58  C   UNL A   1      37.820  34.302  33.870  1.00  0.00     0.029 A 
ATOM     59  C   UNL A   1      38.910  33.451  33.962  1.00  0.00     0.049 A 
ATOM     60  H   UNL A   1      39.550  31.955  32.620  1.00  0.00     0.167 HD
ATOM     61  C   UNL A   1      40.939  32.504  35.022  1.00  0.00     0.074 A 
ATOM     62  C   UNL A   1      41.936  32.458  36.070  1.00  0.00     0.031 C 
ATOM     63  C   UNL A   1      39.902  33.376  35.001  1.00  0.00     0.031 A 
BRANCH  50  64
ATOM     64  C   UNL A   1      36.330  32.913  29.999  1.00  0.00    -0.014 A 
ATOM     65  C   UNL A   1      36.467  33.989  29.109  1.00  0.00     0.009 A 
ATOM     66  C   UNL A   1      35.081  32.287  30.127  1.00  0.00     0.009 A 
ATOM     67  C   UNL A   1      35.370  34.436  28.371  1.00  0.00     0.001 A 
ATOM     68  C   UNL A   1      33.993  32.720  29.371  1.00  0.00     0.001 A 
ATOM     69  C   UNL A   1      34.137  33.796  28.497  1.00  0.00     0.000 A 
ENDBRANCH  50  64
BRANCH  51  70
ATOM     70  C   UNL A   1      44.375  29.315  34.702  1.00  0.00    -0.014 A 
ATOM     71  C   UNL A   1      44.379  28.093  35.393  1.00  0.00     0.009 A 
ATOM     72  C   UNL A   1      45.528  30.117  34.744  1.00  0.00     0.009 A 
ATOM     73  C   UNL A   1      45.492  27.706  36.145  1.00  0.00     0.001 A 
ATOM     74  C   UNL A   1      46.651  29.713  35.468  1.00  0.00     0.001 A 
ATOM     75  C   UNL A   1      46.627  28.515  36.181  1.00  0.00     0.000 A 
ENDBRANCH  51  70
BRANCH  63  76
ATOM     76  C   UNL A   1      39.759  34.315  36.167  1.00  0.00    -0.014 A 
ATOM     77  C   UNL A   1      40.265  35.622  36.120  1.00  0.00     0.009 A 
ATOM     78  C   UNL A   1      39.054  33.896  37.307  1.00  0.00     0.009 A 
ATOM     79  C   UNL A   1      40.096  36.481  37.208  1.00  0.00     0.001 A 
ATOM     80  C   UNL A   1      38.860  34.767  38.378  1.00  0.00     0.001 A 
ATOM     81  C   UNL A   1      39.389  36.055  38.333  1.00  0.00     0.000 A 
ENDBRANCH  63  76
ENDBRANCH  37  38
ENDBRANCH  30  32
ENDBRANCH  29  30
ENDBRANCH  28  29
ENDBRANCH  27  28
ENDBRANCH  26  27
ENDBRANCH  25  26
ENDBRANCH  24  25
ENDBRANCH  23  24
ENDBRANCH   1  23
TORSDOF 25
ENDMDL
