MODEL 1
REMARK VINA RESULT:      -9.7      0.000      0.000
REMARK SMILES Cc1c(-c2nn(-c3ccccc3)cc2/C=N/O)nnn1-c1ccc(C(=O)OCCOCCOCCOCCOC(=O)c2ccc(-c3c4nc(c(-c5ccccc5)c5ccc([nH]5)c(-c5ccccc5)c5nc(c(-c6ccccc6)c6ccc3[nH]6)C=C5)C=C4)cc2)cc1
REMARK SMILES IDX 32 1 31 2 30 3 29 4 28 5 27 6 25 7 26 8 24 9 21 10 22 11
REMARK SMILES IDX 91 12 23 13 90 14 20 15 1 16 2 17 3 18 18 19 19 20 4 21 5 22
REMARK SMILES IDX 14 23 6 24 13 25 15 26 16 27 17 28 7 30 8 31 12 32 9 33
REMARK SMILES IDX 11 34 10 35 33 36 34 37 35 38 36 39 37 40 38 41 39 42 40 43
REMARK SMILES IDX 41 44 42 45 43 46 89 47 44 48 88 49 45 50 46 51 47 52 82 53
REMARK SMILES IDX 48 54 87 55 81 56 83 57 49 58 86 59 80 60 79 61 50 63 72 64
REMARK SMILES IDX 57 65 71 66 58 67 61 68 70 69 84 70 59 71 60 72 69 74 85 75
REMARK SMILES IDX 62 76 51 77 52 78 56 79 53 80 55 81 54 82 73 83 74 84 78 85
REMARK SMILES IDX 75 86 77 87 76 88 63 89 64 90 68 91 65 92 67 93 66 94
REMARK H PARENT 17 29 83 62 61 73
REMARK Flexibility Score: inf
ROOT
ATOM      1  C   UNL A   1      35.219  34.567  33.877  1.00  0.00     0.188 C 
ENDROOT
BRANCH   1   2
ATOM      2  C   UNL A   1      33.951  34.146  33.099  1.00  0.00     0.188 C 
BRANCH   2   3
ATOM      3  O   UNL A   1      33.118  35.231  32.739  1.00  0.00    -0.376 OA
BRANCH   3   4
ATOM      4  C   UNL A   1      33.468  36.040  31.640  1.00  0.00     0.202 C 
BRANCH   4   5
ATOM      5  C   UNL A   1      32.927  35.647  30.260  1.00  0.00     0.261 C 
BRANCH   5   6
ATOM      6  O   UNL A   1      33.320  34.356  29.773  1.00  0.00    -0.460 OA
BRANCH   6   7
ATOM      7  C   UNL A   1      33.815  34.306  28.522  1.00  0.00     0.338 C 
ATOM      8  O   UNL A   1      34.539  35.142  27.986  1.00  0.00    -0.246 OA
BRANCH   7   9
ATOM      9  C   UNL A   1      33.502  32.987  27.936  1.00  0.00     0.060 A 
ATOM     10  C   UNL A   1      32.766  30.471  27.004  1.00  0.00     0.067 A 
ATOM     11  C   UNL A   1      31.923  31.562  26.767  1.00  0.00     0.029 A 
ATOM     12  C   UNL A   1      34.028  30.659  27.586  1.00  0.00     0.029 A 
ATOM     13  C   UNL A   1      32.279  32.814  27.270  1.00  0.00     0.018 A 
ATOM     14  C   UNL A   1      34.405  31.924  28.038  1.00  0.00     0.018 A 
BRANCH  10  15
ATOM     15  N   UNL A   1      32.275  29.168  26.767  1.00  0.00    -0.217 N 
ATOM     16  C   UNL A   1      33.619  28.612  24.679  1.00  0.00     0.069 C 
ATOM     17  C   UNL A   1      32.602  28.326  25.718  1.00  0.00     0.071 A 
ATOM     18  C   UNL A   1      31.898  27.173  26.005  1.00  0.00     0.137 A 
ATOM     19  N   UNL A   1      31.243  27.304  27.195  1.00  0.00    -0.128 NA
ATOM     20  N   UNL A   1      31.536  28.503  27.688  1.00  0.00    -0.061 NA
BRANCH  18  21
ATOM     21  C   UNL A   1      31.885  25.928  25.243  1.00  0.00     0.124 A 
ATOM     22  N   UNL A   1      32.466  24.808  25.694  1.00  0.00    -0.165 NA
ATOM     23  C   UNL A   1      31.373  25.784  23.933  1.00  0.00     0.044 A 
ATOM     24  N   UNL A   1      32.440  23.968  24.635  1.00  0.00    -0.240 N 
ATOM     25  C   UNL A   1      31.795  24.525  23.555  1.00  0.00     0.125 A 
BRANCH  23  26
ATOM     26  C   UNL A   1      30.607  26.678  23.104  1.00  0.00     0.166 C 
ATOM     27  N   UNL A   1      31.206  27.563  22.378  1.00  0.00    -0.097 NA
BRANCH  27  28
ATOM     28  O   UNL A   1      30.253  28.331  21.702  1.00  0.00    -0.411 OA
ATOM     29  H   UNL A   1      29.935  29.125  22.086  1.00  0.00     0.330 HD
ENDBRANCH  27  28
ENDBRANCH  23  26
BRANCH  24  30
ATOM     30  C   UNL A   1      33.053  22.695  24.693  1.00  0.00     0.065 A 
ATOM     31  C   UNL A   1      32.334  21.566  24.284  1.00  0.00     0.028 A 
ATOM     32  C   UNL A   1      34.369  22.566  25.156  1.00  0.00     0.028 A 
ATOM     33  C   UNL A   1      32.950  20.313  24.300  1.00  0.00     0.002 A 
ATOM     34  C   UNL A   1      34.956  21.300  25.222  1.00  0.00     0.002 A 
ATOM     35  C   UNL A   1      34.253  20.179  24.780  1.00  0.00     0.000 A 
ENDBRANCH  24  30
ENDBRANCH  18  21
ENDBRANCH  10  15
ENDBRANCH   7   9
ENDBRANCH   6   7
ENDBRANCH   5   6
ENDBRANCH   4   5
ENDBRANCH   3   4
ENDBRANCH   2   3
ENDBRANCH   1   2
BRANCH   1  36
ATOM     36  O   UNL A   1      36.437  34.841  33.194  1.00  0.00    -0.377 OA
BRANCH  36  37
ATOM     37  C   UNL A   1      36.754  34.176  31.975  1.00  0.00     0.188 C 
BRANCH  37  38
ATOM     38  C   UNL A   1      37.806  33.035  31.898  1.00  0.00     0.188 C 
BRANCH  38  39
ATOM     39  O   UNL A   1      38.428  32.861  30.638  1.00  0.00    -0.376 OA
BRANCH  39  40
ATOM     40  C   UNL A   1      38.906  33.936  29.858  1.00  0.00     0.202 C 
BRANCH  40  41
ATOM     41  C   UNL A   1      40.192  34.638  30.272  1.00  0.00     0.261 C 
BRANCH  41  42
ATOM     42  O   UNL A   1      41.364  33.955  29.883  1.00  0.00    -0.460 OA
BRANCH  42  43
ATOM     43  C   UNL A   1      42.480  34.359  30.496  1.00  0.00     0.338 C 
ATOM     44  O   UNL A   1      42.609  35.325  31.255  1.00  0.00    -0.246 OA
BRANCH  43  45
ATOM     45  C   UNL A   1      43.586  33.548  30.002  1.00  0.00     0.060 A 
ATOM     46  C   UNL A   1      43.337  32.836  28.830  1.00  0.00     0.016 A 
ATOM     47  C   UNL A   1      44.569  33.170  30.931  1.00  0.00     0.016 A 
ATOM     48  C   UNL A   1      43.838  31.564  28.757  1.00  0.00     0.010 A 
ATOM     49  C   UNL A   1      45.035  31.887  30.877  1.00  0.00     0.010 A 
ATOM     50  C   UNL A   1      44.568  31.078  29.848  1.00  0.00    -0.014 A 
BRANCH  50  51
ATOM     51  C   UNL A   1      44.878  29.675  29.866  1.00  0.00     0.031 A 
ATOM     52  C   UNL A   1      45.948  29.329  28.925  1.00  0.00     0.074 A 
ATOM     53  C   UNL A   1      44.289  28.807  30.704  1.00  0.00     0.049 A 
ATOM     54  N   UNL A   1      45.813  28.759  27.778  1.00  0.00    -0.248 NA
ATOM     55  C   UNL A   1      47.289  29.862  29.200  1.00  0.00     0.031 C 
ATOM     56  C   UNL A   1      43.444  29.074  31.869  1.00  0.00     0.029 A 
ATOM     57  N   UNL A   1      44.431  27.459  30.723  1.00  0.00    -0.354 N 
ATOM     58  C   UNL A   1      47.097  28.677  27.266  1.00  0.00     0.074 A 
ATOM     59  C   UNL A   1      47.913  29.558  28.063  1.00  0.00     0.031 C 
ATOM     60  C   UNL A   1      43.347  27.940  32.607  1.00  0.00     0.029 A 
ATOM     61  C   UNL A   1      44.002  26.855  31.891  1.00  0.00     0.049 A 
ATOM     62  H   UNL A   1      44.809  26.952  29.967  1.00  0.00     0.167 HD
ATOM     63  C   UNL A   1      47.450  27.670  26.426  1.00  0.00     0.031 A 
ATOM     64  C   UNL A   1      44.254  25.574  32.250  1.00  0.00     0.031 A 
ATOM     65  C   UNL A   1      46.297  26.999  25.879  1.00  0.00     0.049 A 
ATOM     66  C   UNL A   1      44.628  24.829  31.021  1.00  0.00     0.074 A 
ATOM     67  C   UNL A   1      45.212  27.393  25.117  1.00  0.00     0.029 A 
ATOM     68  N   UNL A   1      45.941  25.800  26.452  1.00  0.00    -0.354 N 
ATOM     69  N   UNL A   1      43.790  24.564  30.060  1.00  0.00    -0.248 NA
ATOM     70  C   UNL A   1      46.034  24.768  30.649  1.00  0.00     0.031 C 
ATOM     71  C   UNL A   1      44.108  26.651  25.630  1.00  0.00     0.029 A 
ATOM     72  C   UNL A   1      44.582  25.808  26.637  1.00  0.00     0.049 A 
ATOM     73  H   UNL A   1      46.553  25.066  26.687  1.00  0.00     0.167 HD
ATOM     74  C   UNL A   1      44.518  24.743  28.892  1.00  0.00     0.074 A 
ATOM     75  C   UNL A   1      45.916  24.757  29.317  1.00  0.00     0.031 C 
ATOM     76  C   UNL A   1      43.909  25.153  27.739  1.00  0.00     0.031 A 
BRANCH  63  77
ATOM     77  C   UNL A   1      48.811  27.026  26.471  1.00  0.00    -0.014 A 
ATOM     78  C   UNL A   1      49.611  27.073  25.320  1.00  0.00     0.009 A 
ATOM     79  C   UNL A   1      49.220  26.146  27.492  1.00  0.00     0.009 A 
ATOM     80  C   UNL A   1      50.717  26.229  25.173  1.00  0.00     0.001 A 
ATOM     81  C   UNL A   1      50.349  25.335  27.369  1.00  0.00     0.001 A 
ATOM     82  C   UNL A   1      51.081  25.357  26.194  1.00  0.00     0.000 A 
ENDBRANCH  63  77
BRANCH  64  83
ATOM     83  C   UNL A   1      44.492  25.032  33.602  1.00  0.00    -0.014 A 
ATOM     84  C   UNL A   1      43.514  24.258  34.245  1.00  0.00     0.009 A 
ATOM     85  C   UNL A   1      45.788  25.040  34.151  1.00  0.00     0.009 A 
ATOM     86  C   UNL A   1      43.833  23.485  35.369  1.00  0.00     0.001 A 
ATOM     87  C   UNL A   1      46.106  24.272  35.276  1.00  0.00     0.001 A 
ATOM     88  C   UNL A   1      45.131  23.483  35.875  1.00  0.00     0.000 A 
ENDBRANCH  64  83
BRANCH  76  89
ATOM     89  C   UNL A   1      42.399  25.168  27.710  1.00  0.00    -0.014 A 
ATOM     90  C   UNL A   1      41.629  24.070  27.286  1.00  0.00     0.009 A 
ATOM     91  C   UNL A   1      41.734  26.272  28.261  1.00  0.00     0.009 A 
ATOM     92  C   UNL A   1      40.232  24.094  27.383  1.00  0.00     0.001 A 
ATOM     93  C   UNL A   1      40.342  26.287  28.377  1.00  0.00     0.001 A 
ATOM     94  C   UNL A   1      39.591  25.201  27.932  1.00  0.00     0.000 A 
ENDBRANCH  76  89
ENDBRANCH  50  51
ENDBRANCH  43  45
ENDBRANCH  42  43
ENDBRANCH  41  42
ENDBRANCH  40  41
ENDBRANCH  39  40
ENDBRANCH  38  39
ENDBRANCH  37  38
ENDBRANCH  36  37
ENDBRANCH   1  36
TORSDOF 25
ENDMDL
MODEL 2
REMARK VINA RESULT:      -9.7      2.137      5.240
REMARK SMILES Cc1c(-c2nn(-c3ccccc3)cc2/C=N/O)nnn1-c1ccc(C(=O)OCCOCCOCCOCCOC(=O)c2ccc(-c3c4nc(c(-c5ccccc5)c5ccc([nH]5)c(-c5ccccc5)c5nc(c(-c6ccccc6)c6ccc3[nH]6)C=C5)C=C4)cc2)cc1
REMARK SMILES IDX 32 1 31 2 30 3 29 4 28 5 27 6 25 7 26 8 24 9 21 10 22 11
REMARK SMILES IDX 91 12 23 13 90 14 20 15 1 16 2 17 3 18 18 19 19 20 4 21 5 22
REMARK SMILES IDX 14 23 6 24 13 25 15 26 16 27 17 28 7 30 8 31 12 32 9 33
REMARK SMILES IDX 11 34 10 35 33 36 34 37 35 38 36 39 37 40 38 41 39 42 40 43
REMARK SMILES IDX 41 44 42 45 43 46 89 47 44 48 88 49 45 50 46 51 47 52 82 53
REMARK SMILES IDX 48 54 87 55 81 56 83 57 49 58 86 59 80 60 79 61 50 63 72 64
REMARK SMILES IDX 57 65 71 66 58 67 61 68 70 69 84 70 59 71 60 72 69 74 85 75
REMARK SMILES IDX 62 76 51 77 52 78 56 79 53 80 55 81 54 82 73 83 74 84 78 85
REMARK SMILES IDX 75 86 77 87 76 88 63 89 64 90 68 91 65 92 67 93 66 94
REMARK H PARENT 17 29 83 62 61 73
REMARK Flexibility Score: inf
ROOT
ATOM      1  C   UNL A   1      35.825  34.403  34.075  1.00  0.00     0.188 C 
ENDROOT
BRANCH   1   2
ATOM      2  C   UNL A   1      34.513  34.169  33.294  1.00  0.00     0.188 C 
BRANCH   2   3
ATOM      3  O   UNL A   1      33.730  35.337  33.134  1.00  0.00    -0.376 OA
BRANCH   3   4
ATOM      4  C   UNL A   1      33.885  36.124  31.977  1.00  0.00     0.202 C 
BRANCH   4   5
ATOM      5  C   UNL A   1      33.016  35.787  30.759  1.00  0.00     0.261 C 
BRANCH   5   6
ATOM      6  O   UNL A   1      33.339  34.571  30.071  1.00  0.00    -0.460 OA
BRANCH   6   7
ATOM      7  C   UNL A   1      33.633  34.676  28.762  1.00  0.00     0.338 C 
ATOM      8  O   UNL A   1      34.166  35.633  28.204  1.00  0.00    -0.246 OA
BRANCH   7   9
ATOM      9  C   UNL A   1      33.378  33.375  28.109  1.00  0.00     0.060 A 
ATOM     10  C   UNL A   1      32.762  30.877  27.052  1.00  0.00     0.067 A 
ATOM     11  C   UNL A   1      31.849  31.926  26.906  1.00  0.00     0.029 A 
ATOM     12  C   UNL A   1      34.029  31.108  27.607  1.00  0.00     0.029 A 
ATOM     13  C   UNL A   1      32.147  33.167  27.470  1.00  0.00     0.018 A 
ATOM     14  C   UNL A   1      34.345  32.366  28.121  1.00  0.00     0.018 A 
BRANCH  10  15
ATOM     15  N   UNL A   1      32.341  29.561  26.754  1.00  0.00    -0.217 N 
ATOM     16  C   UNL A   1      34.216  28.897  25.167  1.00  0.00     0.069 C 
ATOM     17  C   UNL A   1      32.942  28.665  25.888  1.00  0.00     0.071 A 
ATOM     18  C   UNL A   1      32.170  27.528  26.022  1.00  0.00     0.137 A 
ATOM     19  N   UNL A   1      31.206  27.721  26.968  1.00  0.00    -0.128 NA
ATOM     20  N   UNL A   1      31.362  28.946  27.460  1.00  0.00    -0.061 NA
BRANCH  18  21
ATOM     21  C   UNL A   1      32.357  26.244  25.354  1.00  0.00     0.124 A 
ATOM     22  N   UNL A   1      32.984  25.217  25.943  1.00  0.00    -0.165 NA
ATOM     23  C   UNL A   1      32.010  25.970  24.011  1.00  0.00     0.044 A 
ATOM     24  N   UNL A   1      33.154  24.315  24.950  1.00  0.00    -0.240 N 
ATOM     25  C   UNL A   1      32.586  24.738  23.770  1.00  0.00     0.125 A 
BRANCH  23  26
ATOM     26  C   UNL A   1      31.262  26.731  23.043  1.00  0.00     0.166 C 
ATOM     27  N   UNL A   1      30.493  27.694  23.430  1.00  0.00    -0.097 NA
BRANCH  27  28
ATOM     28  O   UNL A   1      29.848  28.247  22.319  1.00  0.00    -0.411 OA
ATOM     29  H   UNL A   1      29.679  29.168  22.288  1.00  0.00     0.330 HD
ENDBRANCH  27  28
ENDBRANCH  23  26
BRANCH  24  30
ATOM     30  C   UNL A   1      33.872  23.116  25.163  1.00  0.00     0.065 A 
ATOM     31  C   UNL A   1      34.080  22.660  26.470  1.00  0.00     0.028 A 
ATOM     32  C   UNL A   1      34.372  22.390  24.074  1.00  0.00     0.028 A 
ATOM     33  C   UNL A   1      34.752  21.455  26.682  1.00  0.00     0.002 A 
ATOM     34  C   UNL A   1      35.093  21.215  24.300  1.00  0.00     0.002 A 
ATOM     35  C   UNL A   1      35.268  20.741  25.600  1.00  0.00     0.000 A 
ENDBRANCH  24  30
ENDBRANCH  18  21
ENDBRANCH  10  15
ENDBRANCH   7   9
ENDBRANCH   6   7
ENDBRANCH   5   6
ENDBRANCH   4   5
ENDBRANCH   3   4
ENDBRANCH   2   3
ENDBRANCH   1   2
BRANCH   1  36
ATOM     36  O   UNL A   1      37.017  34.790  33.402  1.00  0.00    -0.377 OA
BRANCH  36  37
ATOM     37  C   UNL A   1      38.278  34.244  33.781  1.00  0.00     0.188 C 
BRANCH  37  38
ATOM     38  C   UNL A   1      38.404  32.937  34.611  1.00  0.00     0.188 C 
BRANCH  38  39
ATOM     39  O   UNL A   1      39.057  31.861  33.962  1.00  0.00    -0.376 OA
BRANCH  39  40
ATOM     40  C   UNL A   1      39.443  31.899  32.605  1.00  0.00     0.202 C 
BRANCH  40  41
ATOM     41  C   UNL A   1      38.413  31.577  31.532  1.00  0.00     0.261 C 
BRANCH  41  42
ATOM     42  O   UNL A   1      37.816  30.306  31.680  1.00  0.00    -0.460 OA
BRANCH  42  43
ATOM     43  C   UNL A   1      37.047  29.924  30.656  1.00  0.00     0.338 C 
ATOM     44  O   UNL A   1      35.877  30.253  30.435  1.00  0.00    -0.246 OA
BRANCH  43  45
ATOM     45  C   UNL A   1      37.775  28.915  29.896  1.00  0.00     0.060 A 
ATOM     46  C   UNL A   1      38.439  27.951  30.652  1.00  0.00     0.016 A 
ATOM     47  C   UNL A   1      38.149  29.247  28.584  1.00  0.00     0.016 A 
ATOM     48  C   UNL A   1      39.679  27.565  30.218  1.00  0.00     0.010 A 
ATOM     49  C   UNL A   1      39.403  28.894  28.171  1.00  0.00     0.010 A 
ATOM     50  C   UNL A   1      40.181  28.152  29.050  1.00  0.00    -0.014 A 
BRANCH  50  51
ATOM     51  C   UNL A   1      41.566  27.927  28.739  1.00  0.00     0.031 A 
ATOM     52  C   UNL A   1      41.778  26.664  28.025  1.00  0.00     0.074 A 
ATOM     53  C   UNL A   1      42.532  28.815  29.020  1.00  0.00     0.049 A 
ATOM     54  N   UNL A   1      42.243  25.567  28.516  1.00  0.00    -0.248 NA
ATOM     55  C   UNL A   1      41.218  26.549  26.671  1.00  0.00     0.031 C 
ATOM     56  C   UNL A   1      42.411  30.209  29.448  1.00  0.00     0.029 A 
ATOM     57  N   UNL A   1      43.869  28.650  28.867  1.00  0.00    -0.354 N 
ATOM     58  C   UNL A   1      42.224  24.667  27.464  1.00  0.00     0.074 A 
ATOM     59  C   UNL A   1      41.389  25.248  26.443  1.00  0.00     0.031 C 
ATOM     60  C   UNL A   1      43.611  30.821  29.293  1.00  0.00     0.029 A 
ATOM     61  C   UNL A   1      44.597  29.826  28.894  1.00  0.00     0.049 A 
ATOM     62  H   UNL A   1      44.287  27.766  28.748  1.00  0.00     0.167 HD
ATOM     63  C   UNL A   1      43.133  23.660  27.391  1.00  0.00     0.031 A 
ATOM     64  C   UNL A   1      45.894  29.954  28.528  1.00  0.00     0.031 A 
ATOM     65  C   UNL A   1      43.796  23.444  28.653  1.00  0.00     0.049 A 
ATOM     66  C   UNL A   1      46.506  28.601  28.562  1.00  0.00     0.074 A 
ATOM     67  C   UNL A   1      43.378  23.112  29.928  1.00  0.00     0.029 A 
ATOM     68  N   UNL A   1      45.057  23.976  28.795  1.00  0.00    -0.354 N 
ATOM     69  N   UNL A   1      46.713  27.935  29.662  1.00  0.00    -0.248 NA
ATOM     70  C   UNL A   1      46.474  27.796  27.350  1.00  0.00     0.031 C 
ATOM     71  C   UNL A   1      44.209  23.872  30.802  1.00  0.00     0.029 A 
ATOM     72  C   UNL A   1      45.122  24.584  30.022  1.00  0.00     0.049 A 
ATOM     73  H   UNL A   1      45.784  23.927  28.133  1.00  0.00     0.167 HD
ATOM     74  C   UNL A   1      46.395  26.621  29.350  1.00  0.00     0.074 A 
ATOM     75  C   UNL A   1      46.365  26.577  27.889  1.00  0.00     0.031 C 
ATOM     76  C   UNL A   1      45.905  25.770  30.300  1.00  0.00     0.031 A 
BRANCH  63  77
ATOM     77  C   UNL A   1      43.722  23.204  26.082  1.00  0.00    -0.014 A 
ATOM     78  C   UNL A   1      43.623  21.846  25.742  1.00  0.00     0.009 A 
ATOM     79  C   UNL A   1      44.602  23.988  25.311  1.00  0.00     0.009 A 
ATOM     80  C   UNL A   1      44.418  21.294  24.733  1.00  0.00     0.001 A 
ATOM     81  C   UNL A   1      45.364  23.451  24.273  1.00  0.00     0.001 A 
ATOM     82  C   UNL A   1      45.293  22.094  24.004  1.00  0.00     0.000 A 
ENDBRANCH  63  77
BRANCH  64  83
ATOM     83  C   UNL A   1      46.551  31.097  27.863  1.00  0.00    -0.014 A 
ATOM     84  C   UNL A   1      46.013  31.647  26.690  1.00  0.00     0.009 A 
ATOM     85  C   UNL A   1      47.551  31.826  28.532  1.00  0.00     0.009 A 
ATOM     86  C   UNL A   1      46.430  32.903  26.228  1.00  0.00     0.001 A 
ATOM     87  C   UNL A   1      47.971  33.078  28.068  1.00  0.00     0.001 A 
ATOM     88  C   UNL A   1      47.398  33.622  26.924  1.00  0.00     0.000 A 
ENDBRANCH  64  83
BRANCH  76  89
ATOM     89  C   UNL A   1      45.949  26.226  31.739  1.00  0.00    -0.014 A 
ATOM     90  C   UNL A   1      44.975  27.068  32.307  1.00  0.00     0.009 A 
ATOM     91  C   UNL A   1      46.922  25.673  32.584  1.00  0.00     0.009 A 
ATOM     92  C   UNL A   1      44.998  27.372  33.673  1.00  0.00     0.001 A 
ATOM     93  C   UNL A   1      46.931  25.959  33.951  1.00  0.00     0.001 A 
ATOM     94  C   UNL A   1      45.975  26.814  34.494  1.00  0.00     0.000 A 
ENDBRANCH  76  89
ENDBRANCH  50  51
ENDBRANCH  43  45
ENDBRANCH  42  43
ENDBRANCH  41  42
ENDBRANCH  40  41
ENDBRANCH  39  40
ENDBRANCH  38  39
ENDBRANCH  37  38
ENDBRANCH  36  37
ENDBRANCH   1  36
TORSDOF 25
ENDMDL
MODEL 3
REMARK VINA RESULT:      -9.6      3.837      9.661
REMARK SMILES Cc1c(-c2nn(-c3ccccc3)cc2/C=N/O)nnn1-c1ccc(C(=O)OCCOCCOCCOCCOC(=O)c2ccc(-c3c4nc(c(-c5ccccc5)c5ccc([nH]5)c(-c5ccccc5)c5nc(c(-c6ccccc6)c6ccc3[nH]6)C=C5)C=C4)cc2)cc1
REMARK SMILES IDX 32 1 31 2 30 3 29 4 28 5 27 6 25 7 26 8 24 9 21 10 22 11
REMARK SMILES IDX 91 12 23 13 90 14 20 15 1 16 2 17 3 18 18 19 19 20 4 21 5 22
REMARK SMILES IDX 14 23 6 24 13 25 15 26 16 27 17 28 7 30 8 31 12 32 9 33
REMARK SMILES IDX 11 34 10 35 33 36 34 37 35 38 36 39 37 40 38 41 39 42 40 43
REMARK SMILES IDX 41 44 42 45 43 46 89 47 44 48 88 49 45 50 46 51 47 52 82 53
REMARK SMILES IDX 48 54 87 55 81 56 83 57 49 58 86 59 80 60 79 61 50 63 72 64
REMARK SMILES IDX 57 65 71 66 58 67 61 68 70 69 84 70 59 71 60 72 69 74 85 75
REMARK SMILES IDX 62 76 51 77 52 78 56 79 53 80 55 81 54 82 73 83 74 84 78 85
REMARK SMILES IDX 75 86 77 87 76 88 63 89 64 90 68 91 65 92 67 93 66 94
REMARK H PARENT 17 29 83 62 61 73
REMARK Flexibility Score: inf
ROOT
ATOM      1  C   UNL A   1      34.084  22.069  25.553  1.00  0.00     0.188 C 
ENDROOT
BRANCH   1   2
ATOM      2  C   UNL A   1      32.567  22.317  25.722  1.00  0.00     0.188 C 
BRANCH   2   3
ATOM      3  O   UNL A   1      32.170  23.640  25.417  1.00  0.00    -0.376 OA
BRANCH   3   4
ATOM      4  C   UNL A   1      30.868  23.879  24.937  1.00  0.00     0.202 C 
BRANCH   4   5
ATOM      5  C   UNL A   1      30.385  25.333  24.868  1.00  0.00     0.261 C 
BRANCH   5   6
ATOM      6  O   UNL A   1      31.294  26.272  24.277  1.00  0.00    -0.460 OA
BRANCH   6   7
ATOM      7  C   UNL A   1      30.934  27.569  24.316  1.00  0.00     0.338 C 
ATOM      8  O   UNL A   1      29.906  28.059  23.855  1.00  0.00    -0.246 OA
BRANCH   7   9
ATOM      9  C   UNL A   1      31.891  28.304  25.169  1.00  0.00     0.060 A 
ATOM     10  C   UNL A   1      33.834  29.515  26.750  1.00  0.00     0.067 A 
ATOM     11  C   UNL A   1      33.968  29.545  25.358  1.00  0.00     0.029 A 
ATOM     12  C   UNL A   1      32.673  28.998  27.343  1.00  0.00     0.029 A 
ATOM     13  C   UNL A   1      33.010  28.903  24.571  1.00  0.00     0.018 A 
ATOM     14  C   UNL A   1      31.689  28.408  26.548  1.00  0.00     0.018 A 
BRANCH  10  15
ATOM     15  N   UNL A   1      34.938  29.891  27.548  1.00  0.00    -0.217 N 
ATOM     16  C   UNL A   1      34.247  32.283  28.075  1.00  0.00     0.069 C 
ATOM     17  C   UNL A   1      35.175  31.127  28.121  1.00  0.00     0.071 A 
ATOM     18  C   UNL A   1      36.339  30.928  28.836  1.00  0.00     0.137 A 
ATOM     19  N   UNL A   1      36.732  29.624  28.744  1.00  0.00    -0.128 NA
ATOM     20  N   UNL A   1      35.830  28.981  28.010  1.00  0.00    -0.061 NA
BRANCH  18  21
ATOM     21  C   UNL A   1      37.048  31.896  29.666  1.00  0.00     0.124 A 
ATOM     22  N   UNL A   1      38.267  32.354  29.349  1.00  0.00    -0.165 NA
ATOM     23  C   UNL A   1      36.600  32.371  30.921  1.00  0.00     0.044 A 
ATOM     24  N   UNL A   1      38.667  33.032  30.447  1.00  0.00    -0.240 N 
ATOM     25  C   UNL A   1      37.692  33.057  31.418  1.00  0.00     0.125 A 
BRANCH  23  26
ATOM     26  C   UNL A   1      35.345  32.216  31.608  1.00  0.00     0.166 C 
ATOM     27  N   UNL A   1      34.724  33.251  32.067  1.00  0.00    -0.097 NA
BRANCH  27  28
ATOM     28  O   UNL A   1      33.560  32.841  32.726  1.00  0.00    -0.411 OA
ATOM     29  H   UNL A   1      32.972  32.244  32.306  1.00  0.00     0.330 HD
ENDBRANCH  27  28
ENDBRANCH  23  26
BRANCH  24  30
ATOM     30  C   UNL A   1      39.962  33.593  30.533  1.00  0.00     0.065 A 
ATOM     31  C   UNL A   1      40.436  34.393  29.487  1.00  0.00     0.028 A 
ATOM     32  C   UNL A   1      40.765  33.348  31.655  1.00  0.00     0.028 A 
ATOM     33  C   UNL A   1      41.698  34.982  29.586  1.00  0.00     0.002 A 
ATOM     34  C   UNL A   1      42.048  33.895  31.719  1.00  0.00     0.002 A 
ATOM     35  C   UNL A   1      42.507  34.724  30.694  1.00  0.00     0.000 A 
ENDBRANCH  24  30
ENDBRANCH  18  21
ENDBRANCH  10  15
ENDBRANCH   7   9
ENDBRANCH   6   7
ENDBRANCH   5   6
ENDBRANCH   4   5
ENDBRANCH   3   4
ENDBRANCH   2   3
ENDBRANCH   1   2
BRANCH   1  36
ATOM     36  O   UNL A   1      34.646  21.830  24.268  1.00  0.00    -0.377 OA
BRANCH  36  37
ATOM     37  C   UNL A   1      35.734  22.615  23.792  1.00  0.00     0.188 C 
BRANCH  37  38
ATOM     38  C   UNL A   1      36.733  23.323  24.750  1.00  0.00     0.188 C 
BRANCH  38  39
ATOM     39  O   UNL A   1      37.749  22.498  25.292  1.00  0.00    -0.376 OA
BRANCH  39  40
ATOM     40  C   UNL A   1      38.761  22.983  26.148  1.00  0.00     0.202 C 
BRANCH  40  41
ATOM     41  C   UNL A   1      38.767  24.456  26.529  1.00  0.00     0.261 C 
BRANCH  41  42
ATOM     42  O   UNL A   1      40.025  24.925  26.966  1.00  0.00    -0.460 OA
BRANCH  42  43
ATOM     43  C   UNL A   1      40.337  26.159  26.558  1.00  0.00     0.338 C 
ATOM     44  O   UNL A   1      41.080  26.473  25.623  1.00  0.00    -0.246 OA
BRANCH  43  45
ATOM     45  C   UNL A   1      39.764  27.106  27.508  1.00  0.00     0.060 A 
ATOM     46  C   UNL A   1      40.128  28.439  27.327  1.00  0.00     0.016 A 
ATOM     47  C   UNL A   1      39.328  26.593  28.740  1.00  0.00     0.016 A 
ATOM     48  C   UNL A   1      40.379  29.173  28.456  1.00  0.00     0.010 A 
ATOM     49  C   UNL A   1      39.617  27.312  29.865  1.00  0.00     0.010 A 
ATOM     50  C   UNL A   1      40.240  28.542  29.698  1.00  0.00    -0.014 A 
BRANCH  50  51
ATOM     51  C   UNL A   1      40.735  29.238  30.853  1.00  0.00     0.031 A 
ATOM     52  C   UNL A   1      42.095  29.751  30.655  1.00  0.00     0.074 A 
ATOM     53  C   UNL A   1      39.997  29.443  31.956  1.00  0.00     0.049 A 
ATOM     54  N   UNL A   1      43.185  29.251  31.127  1.00  0.00    -0.248 NA
ATOM     55  C   UNL A   1      42.280  30.809  29.654  1.00  0.00     0.031 C 
ATOM     56  C   UNL A   1      38.560  29.250  32.156  1.00  0.00     0.029 A 
ATOM     57  N   UNL A   1      40.406  29.986  33.128  1.00  0.00    -0.354 N 
ATOM     58  C   UNL A   1      44.193  30.067  30.639  1.00  0.00     0.074 A 
ATOM     59  C   UNL A   1      43.609  30.849  29.579  1.00  0.00     0.031 C 
ATOM     60  C   UNL A   1      38.187  29.887  33.293  1.00  0.00     0.029 A 
ATOM     61  C   UNL A   1      39.377  30.402  33.955  1.00  0.00     0.049 A 
ATOM     62  H   UNL A   1      41.356  30.077  33.371  1.00  0.00     0.167 HD
ATOM     63  C   UNL A   1      45.341  30.251  31.340  1.00  0.00     0.031 A 
ATOM     64  C   UNL A   1      39.520  31.182  35.053  1.00  0.00     0.031 A 
ATOM     65  C   UNL A   1      45.508  29.252  32.367  1.00  0.00     0.049 A 
ATOM     66  C   UNL A   1      40.943  31.110  35.473  1.00  0.00     0.074 A 
ATOM     67  C   UNL A   1      45.603  27.873  32.377  1.00  0.00     0.029 A 
ATOM     68  N   UNL A   1      45.187  29.618  33.653  1.00  0.00    -0.354 N 
ATOM     69  N   UNL A   1      41.492  30.037  35.966  1.00  0.00    -0.248 NA
ATOM     70  C   UNL A   1      41.875  32.087  34.930  1.00  0.00     0.031 C 
ATOM     71  C   UNL A   1      44.893  27.460  33.542  1.00  0.00     0.029 A 
ATOM     72  C   UNL A   1      44.450  28.604  34.210  1.00  0.00     0.049 A 
ATOM     73  H   UNL A   1      45.441  30.460  34.097  1.00  0.00     0.167 HD
ATOM     74  C   UNL A   1      42.761  29.995  35.406  1.00  0.00     0.074 A 
ATOM     75  C   UNL A   1      42.981  31.337  34.869  1.00  0.00     0.031 C 
ATOM     76  C   UNL A   1      43.391  28.805  35.175  1.00  0.00     0.031 A 
BRANCH  63  77
ATOM     77  C   UNL A   1      46.051  31.578  31.384  1.00  0.00    -0.014 A 
ATOM     78  C   UNL A   1      47.427  31.609  31.115  1.00  0.00     0.009 A 
ATOM     79  C   UNL A   1      45.488  32.743  31.944  1.00  0.00     0.009 A 
ATOM     80  C   UNL A   1      48.206  32.719  31.458  1.00  0.00     0.001 A 
ATOM     81  C   UNL A   1      46.253  33.869  32.245  1.00  0.00     0.001 A 
ATOM     82  C   UNL A   1      47.621  33.845  32.028  1.00  0.00     0.000 A 
ENDBRANCH  63  77
BRANCH  64  83
ATOM     83  C   UNL A   1      38.598  32.212  35.571  1.00  0.00    -0.014 A 
ATOM     84  C   UNL A   1      37.689  32.854  34.716  1.00  0.00     0.009 A 
ATOM     85  C   UNL A   1      38.417  32.367  36.958  1.00  0.00     0.009 A 
ATOM     86  C   UNL A   1      36.613  33.588  35.232  1.00  0.00     0.001 A 
ATOM     87  C   UNL A   1      37.345  33.104  37.473  1.00  0.00     0.001 A 
ATOM     88  C   UNL A   1      36.434  33.701  36.609  1.00  0.00     0.000 A 
ENDBRANCH  64  83
BRANCH  76  89
ATOM     89  C   UNL A   1      42.773  27.559  35.766  1.00  0.00    -0.014 A 
ATOM     90  C   UNL A   1      41.793  26.799  35.100  1.00  0.00     0.009 A 
ATOM     91  C   UNL A   1      43.300  27.059  36.965  1.00  0.00     0.009 A 
ATOM     92  C   UNL A   1      41.334  25.592  35.640  1.00  0.00     0.001 A 
ATOM     93  C   UNL A   1      42.856  25.844  37.492  1.00  0.00     0.001 A 
ATOM     94  C   UNL A   1      41.868  25.114  36.834  1.00  0.00     0.000 A 
ENDBRANCH  76  89
ENDBRANCH  50  51
ENDBRANCH  43  45
ENDBRANCH  42  43
ENDBRANCH  41  42
ENDBRANCH  40  41
ENDBRANCH  39  40
ENDBRANCH  38  39
ENDBRANCH  37  38
ENDBRANCH  36  37
ENDBRANCH   1  36
TORSDOF 25
ENDMDL
