MODEL 1
REMARK VINA RESULT:      -9.8      0.000      0.000
REMARK SMILES O=C(C[N@@H+]1CC[N@H+](Cc2cc(F)ccc2Cl)[C@H]2CS(=O)(=O)C[C@H]21)OCCOCCOCCOCCOC(=O)c1ccc(-c2c3nc(c(-c4ccccc4)c4ccc([nH]4)c(-c4ccccc4)c4nc(c(-c5ccccc5)c5ccc2[nH]5)C=C4)C=C3)cc1
REMARK SMILES IDX 29 1 28 2 27 3 26 4 25 5 24 6 2 7 1 8 3 9 4 10 5 11 23 12
REMARK SMILES IDX 6 14 17 15 22 16 7 17 18 18 19 19 20 21 21 22 8 23 9 24
REMARK SMILES IDX 10 25 15 26 11 27 14 28 16 29 12 30 13 31 30 32 31 33 32 34
REMARK SMILES IDX 33 35 34 36 35 37 36 38 37 39 38 40 39 41 40 42 86 43 41 44
REMARK SMILES IDX 85 45 42 46 43 47 44 48 79 49 45 50 84 51 78 52 80 53 46 54
REMARK SMILES IDX 83 55 77 56 76 57 47 59 69 60 54 61 68 62 55 63 58 64 67 65
REMARK SMILES IDX 81 66 56 67 57 68 66 70 82 71 59 72 48 73 49 74 53 75 50 76
REMARK SMILES IDX 52 77 51 78 70 79 71 80 75 81 72 82 74 83 73 84 60 85 61 86
REMARK SMILES IDX 65 87 62 88 64 89 63 90
REMARK H PARENT 4 13 7 20 80 58 58 69
REMARK Flexibility Score: inf
ROOT
ATOM      1  C   UNL A   1      35.480  29.647  27.808  1.00  0.00     0.188 C 
ENDROOT
BRANCH   1   2
ATOM      2  C   UNL A   1      34.106  29.133  27.404  1.00  0.00     0.188 C 
BRANCH   2   3
ATOM      3  O   UNL A   1      33.963  28.252  26.288  1.00  0.00    -0.376 OA
BRANCH   3   4
ATOM      4  C   UNL A   1      34.157  28.672  24.946  1.00  0.00     0.202 C 
BRANCH   4   5
ATOM      5  C   UNL A   1      32.951  29.133  24.136  1.00  0.00     0.261 C 
BRANCH   5   6
ATOM      6  O   UNL A   1      31.730  29.110  24.868  1.00  0.00    -0.459 OA
BRANCH   6   7
ATOM      7  C   UNL A   1      30.771  28.186  24.596  1.00  0.00     0.361 C 
ATOM      8  O   UNL A   1      29.809  28.515  23.904  1.00  0.00    -0.245 OA
BRANCH   7   9
ATOM      9  C   UNL A   1      30.763  26.873  25.390  1.00  0.00     0.387 C 
BRANCH   9  10
ATOM     10  N   UNL A   1      30.680  25.620  24.591  1.00  0.00    -0.313 N 
ATOM     11  C   UNL A   1      30.686  24.459  25.514  1.00  0.00     0.325 C 
ATOM     12  C   UNL A   1      31.853  25.471  23.694  1.00  0.00     0.259 C 
ATOM     13  H   UNL A   1      29.827  25.661  24.033  1.00  0.00     0.349 HD
ATOM     14  C   UNL A   1      32.027  24.269  26.260  1.00  0.00     0.325 C 
ATOM     15  C   UNL A   1      33.255  25.153  24.334  1.00  0.00     0.259 C 
ATOM     16  C   UNL A   1      31.616  24.445  22.591  1.00  0.00     0.208 C 
ATOM     17  N   UNL A   1      33.198  24.111  25.379  1.00  0.00    -0.318 N 
ATOM     18  C   UNL A   1      34.193  24.813  23.154  1.00  0.00     0.208 C 
ATOM     19  S   UNL A   1      33.170  24.453  21.738  1.00  0.00     0.162 S 
ATOM     20  H   UNL A   1      33.073  23.239  24.866  1.00  0.00     0.349 HD
ATOM     21  O   UNL A   1      33.186  25.611  20.863  1.00  0.00    -0.228 OA
ATOM     22  O   UNL A   1      33.450  23.120  21.248  1.00  0.00    -0.228 OA
BRANCH  17  23
ATOM     23  C   UNL A   1      34.463  23.905  26.131  1.00  0.00     0.301 C 
BRANCH  23  24
ATOM     24  C   UNL A   1      35.356  22.728  25.760  1.00  0.00     0.028 A 
ATOM     25  C   UNL A   1      34.768  21.531  25.301  1.00  0.00     0.050 A 
ATOM     26  C   UNL A   1      36.762  22.789  25.768  1.00  0.00     0.050 A 
ATOM     27  C   UNL A   1      35.545  20.429  24.951  1.00  0.00     0.123 A 
ATOM     28  C   UNL A   1      37.534  21.690  25.357  1.00  0.00     0.024 A 
ATOM     29  Cl  UNL A   1      37.625  24.211  26.237  1.00  0.00    -0.084 Cl
ATOM     30  F   UNL A   1      34.942  19.293  24.579  1.00  0.00    -0.207 F 
ATOM     31  C   UNL A   1      36.926  20.497  24.973  1.00  0.00     0.041 A 
ENDBRANCH  23  24
ENDBRANCH  17  23
ENDBRANCH   9  10
ENDBRANCH   7   9
ENDBRANCH   6   7
ENDBRANCH   5   6
ENDBRANCH   4   5
ENDBRANCH   3   4
ENDBRANCH   2   3
ENDBRANCH   1   2
BRANCH   1  32
ATOM     32  O   UNL A   1      35.465  30.899  28.466  1.00  0.00    -0.377 OA
BRANCH  32  33
ATOM     33  C   UNL A   1      34.306  31.672  28.241  1.00  0.00     0.188 C 
BRANCH  33  34
ATOM     34  C   UNL A   1      34.542  33.164  27.924  1.00  0.00     0.188 C 
BRANCH  34  35
ATOM     35  O   UNL A   1      33.550  34.155  28.157  1.00  0.00    -0.376 OA
BRANCH  35  36
ATOM     36  C   UNL A   1      33.878  35.389  28.766  1.00  0.00     0.202 C 
BRANCH  36  37
ATOM     37  C   UNL A   1      33.006  35.951  29.899  1.00  0.00     0.261 C 
BRANCH  37  38
ATOM     38  O   UNL A   1      33.639  36.091  31.173  1.00  0.00    -0.460 OA
BRANCH  38  39
ATOM     39  C   UNL A   1      33.071  35.408  32.193  1.00  0.00     0.338 C 
ATOM     40  O   UNL A   1      31.889  35.385  32.497  1.00  0.00    -0.246 OA
BRANCH  39  41
ATOM     41  C   UNL A   1      34.083  34.494  32.776  1.00  0.00     0.060 A 
ATOM     42  C   UNL A   1      34.693  34.877  33.980  1.00  0.00     0.016 A 
ATOM     43  C   UNL A   1      34.383  33.254  32.198  1.00  0.00     0.016 A 
ATOM     44  C   UNL A   1      35.652  34.063  34.570  1.00  0.00     0.010 A 
ATOM     45  C   UNL A   1      35.369  32.447  32.775  1.00  0.00     0.010 A 
ATOM     46  C   UNL A   1      36.051  32.888  33.923  1.00  0.00    -0.014 A 
BRANCH  46  47
ATOM     47  C   UNL A   1      37.396  32.356  34.239  1.00  0.00     0.031 A 
ATOM     48  C   UNL A   1      38.045  31.488  33.191  1.00  0.00     0.074 A 
ATOM     49  C   UNL A   1      38.062  32.701  35.352  1.00  0.00     0.049 A 
ATOM     50  N   UNL A   1      39.233  30.941  33.179  1.00  0.00    -0.248 NA
ATOM     51  C   UNL A   1      37.240  31.201  31.989  1.00  0.00     0.031 C 
ATOM     52  C   UNL A   1      37.567  33.587  36.404  1.00  0.00     0.029 A 
ATOM     53  N   UNL A   1      39.321  32.350  35.770  1.00  0.00    -0.354 N 
ATOM     54  C   UNL A   1      39.308  30.244  31.978  1.00  0.00     0.074 A 
ATOM     55  C   UNL A   1      38.040  30.401  31.307  1.00  0.00     0.031 C 
ATOM     56  C   UNL A   1      38.519  33.716  37.346  1.00  0.00     0.029 A 
ATOM     57  C   UNL A   1      39.675  32.902  36.976  1.00  0.00     0.049 A 
ATOM     58  H   UNL A   1      39.914  31.757  35.254  1.00  0.00     0.167 HD
ATOM     59  C   UNL A   1      40.345  29.540  31.471  1.00  0.00     0.031 A 
ATOM     60  C   UNL A   1      40.806  32.758  37.693  1.00  0.00     0.031 A 
ATOM     61  C   UNL A   1      41.602  29.375  32.144  1.00  0.00     0.049 A 
ATOM     62  C   UNL A   1      41.919  31.901  37.143  1.00  0.00     0.074 A 
ATOM     63  C   UNL A   1      42.723  28.687  31.719  1.00  0.00     0.029 A 
ATOM     64  N   UNL A   1      41.897  29.902  33.391  1.00  0.00    -0.354 N 
ATOM     65  N   UNL A   1      41.989  31.262  35.999  1.00  0.00    -0.248 NA
ATOM     66  C   UNL A   1      43.118  31.763  37.981  1.00  0.00     0.031 C 
ATOM     67  C   UNL A   1      43.676  28.743  32.740  1.00  0.00     0.029 A 
ATOM     68  C   UNL A   1      43.176  29.530  33.766  1.00  0.00     0.049 A 
ATOM     69  H   UNL A   1      41.288  30.457  33.931  1.00  0.00     0.167 HD
ATOM     70  C   UNL A   1      43.252  30.683  35.963  1.00  0.00     0.074 A 
ATOM     71  C   UNL A   1      43.917  31.056  37.194  1.00  0.00     0.031 C 
ATOM     72  C   UNL A   1      43.818  29.916  34.996  1.00  0.00     0.031 A 
BRANCH  59  73
ATOM     73  C   UNL A   1      40.132  28.858  30.147  1.00  0.00    -0.014 A 
ATOM     74  C   UNL A   1      40.477  29.476  28.935  1.00  0.00     0.009 A 
ATOM     75  C   UNL A   1      39.572  27.571  30.118  1.00  0.00     0.009 A 
ATOM     76  C   UNL A   1      40.232  28.833  27.719  1.00  0.00     0.001 A 
ATOM     77  C   UNL A   1      39.360  26.917  28.904  1.00  0.00     0.001 A 
ATOM     78  C   UNL A   1      39.680  27.553  27.705  1.00  0.00     0.000 A 
ENDBRANCH  59  73
BRANCH  60  79
ATOM     79  C   UNL A   1      40.952  33.431  39.011  1.00  0.00    -0.014 A 
ATOM     80  C   UNL A   1      40.103  33.109  40.082  1.00  0.00     0.009 A 
ATOM     81  C   UNL A   1      41.922  34.430  39.195  1.00  0.00     0.009 A 
ATOM     82  C   UNL A   1      40.202  33.794  41.296  1.00  0.00     0.001 A 
ATOM     83  C   UNL A   1      42.039  35.091  40.420  1.00  0.00     0.001 A 
ATOM     84  C   UNL A   1      41.172  34.780  41.466  1.00  0.00     0.000 A 
ENDBRANCH  60  79
BRANCH  72  85
ATOM     85  C   UNL A   1      45.243  29.483  35.205  1.00  0.00    -0.014 A 
ATOM     86  C   UNL A   1      45.563  28.288  35.867  1.00  0.00     0.009 A 
ATOM     87  C   UNL A   1      46.284  30.277  34.698  1.00  0.00     0.009 A 
ATOM     88  C   UNL A   1      46.897  27.923  36.058  1.00  0.00     0.001 A 
ATOM     89  C   UNL A   1      47.616  29.891  34.857  1.00  0.00     0.001 A 
ATOM     90  C   UNL A   1      47.922  28.722  35.550  1.00  0.00     0.000 A 
ENDBRANCH  72  85
ENDBRANCH  46  47
ENDBRANCH  39  41
ENDBRANCH  38  39
ENDBRANCH  37  38
ENDBRANCH  36  37
ENDBRANCH  35  36
ENDBRANCH  34  35
ENDBRANCH  33  34
ENDBRANCH  32  33
ENDBRANCH   1  32
TORSDOF 23
ENDMDL
MODEL 2
REMARK VINA RESULT:      -9.5      4.151      6.232
REMARK SMILES O=C(C[N@@H+]1CC[N@H+](Cc2cc(F)ccc2Cl)[C@H]2CS(=O)(=O)C[C@H]21)OCCOCCOCCOCCOC(=O)c1ccc(-c2c3nc(c(-c4ccccc4)c4ccc([nH]4)c(-c4ccccc4)c4nc(c(-c5ccccc5)c5ccc2[nH]5)C=C4)C=C3)cc1
REMARK SMILES IDX 29 1 28 2 27 3 26 4 25 5 24 6 2 7 1 8 3 9 4 10 5 11 23 12
REMARK SMILES IDX 6 14 17 15 22 16 7 17 18 18 19 19 20 21 21 22 8 23 9 24
REMARK SMILES IDX 10 25 15 26 11 27 14 28 16 29 12 30 13 31 30 32 31 33 32 34
REMARK SMILES IDX 33 35 34 36 35 37 36 38 37 39 38 40 39 41 40 42 86 43 41 44
REMARK SMILES IDX 85 45 42 46 43 47 44 48 79 49 45 50 84 51 78 52 80 53 46 54
REMARK SMILES IDX 83 55 77 56 76 57 47 59 69 60 54 61 68 62 55 63 58 64 67 65
REMARK SMILES IDX 81 66 56 67 57 68 66 70 82 71 59 72 48 73 49 74 53 75 50 76
REMARK SMILES IDX 52 77 51 78 70 79 71 80 75 81 72 82 74 83 73 84 60 85 61 86
REMARK SMILES IDX 65 87 62 88 64 89 63 90
REMARK H PARENT 4 13 7 20 80 58 58 69
REMARK Flexibility Score: inf
ROOT
ATOM      1  C   UNL A   1      35.412  29.436  27.509  1.00  0.00     0.188 C 
ENDROOT
BRANCH   1   2
ATOM      2  C   UNL A   1      33.997  29.030  27.123  1.00  0.00     0.188 C 
BRANCH   2   3
ATOM      3  O   UNL A   1      33.772  28.177  26.000  1.00  0.00    -0.376 OA
BRANCH   3   4
ATOM      4  C   UNL A   1      34.061  28.566  24.666  1.00  0.00     0.202 C 
BRANCH   4   5
ATOM      5  C   UNL A   1      33.032  29.383  23.896  1.00  0.00     0.261 C 
BRANCH   5   6
ATOM      6  O   UNL A   1      31.923  29.796  24.687  1.00  0.00    -0.459 OA
BRANCH   6   7
ATOM      7  C   UNL A   1      30.652  29.474  24.330  1.00  0.00     0.361 C 
ATOM      8  O   UNL A   1      29.898  30.369  23.949  1.00  0.00    -0.245 OA
BRANCH   7   9
ATOM      9  C   UNL A   1      30.112  28.084  24.688  1.00  0.00     0.387 C 
BRANCH   9  10
ATOM     10  N   UNL A   1      30.049  27.095  23.577  1.00  0.00    -0.313 N 
ATOM     11  C   UNL A   1      29.242  25.929  24.015  1.00  0.00     0.325 C 
ATOM     12  C   UNL A   1      31.398  26.585  23.228  1.00  0.00     0.259 C 
ATOM     13  H   UNL A   1      29.640  27.560  22.767  1.00  0.00     0.349 HD
ATOM     14  C   UNL A   1      29.911  25.101  25.137  1.00  0.00     0.325 C 
ATOM     15  C   UNL A   1      32.129  25.630  24.243  1.00  0.00     0.259 C 
ATOM     16  C   UNL A   1      31.430  25.904  21.864  1.00  0.00     0.208 C 
ATOM     17  N   UNL A   1      31.248  24.583  24.798  1.00  0.00    -0.318 N 
ATOM     18  C   UNL A   1      33.367  25.084  23.497  1.00  0.00     0.208 C 
ATOM     19  S   UNL A   1      33.117  25.371  21.755  1.00  0.00     0.162 S 
ATOM     20  H   UNL A   1      31.129  23.917  24.035  1.00  0.00     0.349 HD
ATOM     21  O   UNL A   1      33.917  26.519  21.367  1.00  0.00    -0.228 OA
ATOM     22  O   UNL A   1      33.174  24.119  21.031  1.00  0.00    -0.228 OA
BRANCH  17  23
ATOM     23  C   UNL A   1      31.846  23.771  25.890  1.00  0.00     0.301 C 
BRANCH  23  24
ATOM     24  C   UNL A   1      32.388  22.386  25.564  1.00  0.00     0.028 A 
ATOM     25  C   UNL A   1      32.029  21.770  24.346  1.00  0.00     0.050 A 
ATOM     26  C   UNL A   1      33.308  21.701  26.380  1.00  0.00     0.050 A 
ATOM     27  C   UNL A   1      32.499  20.504  24.007  1.00  0.00     0.123 A 
ATOM     28  C   UNL A   1      33.820  20.450  25.997  1.00  0.00     0.024 A 
ATOM     29  Cl  UNL A   1      33.896  22.358  27.865  1.00  0.00    -0.084 Cl
ATOM     30  F   UNL A   1      32.083  19.933  22.869  1.00  0.00    -0.207 F 
ATOM     31  C   UNL A   1      33.395  19.836  24.821  1.00  0.00     0.041 A 
ENDBRANCH  23  24
ENDBRANCH  17  23
ENDBRANCH   9  10
ENDBRANCH   7   9
ENDBRANCH   6   7
ENDBRANCH   5   6
ENDBRANCH   4   5
ENDBRANCH   3   4
ENDBRANCH   2   3
ENDBRANCH   1   2
BRANCH   1  32
ATOM     32  O   UNL A   1      35.490  30.621  28.279  1.00  0.00    -0.377 OA
BRANCH  32  33
ATOM     33  C   UNL A   1      34.299  31.376  28.326  1.00  0.00     0.188 C 
BRANCH  33  34
ATOM     34  C   UNL A   1      34.441  32.879  28.011  1.00  0.00     0.188 C 
BRANCH  34  35
ATOM     35  O   UNL A   1      33.674  33.872  28.680  1.00  0.00    -0.376 OA
BRANCH  35  36
ATOM     36  C   UNL A   1      34.294  34.860  29.478  1.00  0.00     0.202 C 
BRANCH  36  37
ATOM     37  C   UNL A   1      34.022  34.920  30.989  1.00  0.00     0.261 C 
BRANCH  37  38
ATOM     38  O   UNL A   1      35.157  34.750  31.842  1.00  0.00    -0.460 OA
BRANCH  38  39
ATOM     39  C   UNL A   1      35.229  33.569  32.500  1.00  0.00     0.338 C 
ATOM     40  O   UNL A   1      34.345  33.030  33.146  1.00  0.00    -0.246 OA
BRANCH  39  41
ATOM     41  C   UNL A   1      36.502  32.899  32.136  1.00  0.00     0.060 A 
ATOM     42  C   UNL A   1      37.544  32.925  33.074  1.00  0.00     0.016 A 
ATOM     43  C   UNL A   1      36.653  32.198  30.933  1.00  0.00     0.016 A 
ATOM     44  C   UNL A   1      38.761  32.319  32.786  1.00  0.00     0.010 A 
ATOM     45  C   UNL A   1      37.886  31.612  30.630  1.00  0.00     0.010 A 
ATOM     46  C   UNL A   1      38.959  31.735  31.530  1.00  0.00    -0.014 A 
BRANCH  46  47
ATOM     47  C   UNL A   1      40.353  31.612  31.045  1.00  0.00     0.031 A 
ATOM     48  C   UNL A   1      40.961  32.835  30.408  1.00  0.00     0.074 A 
ATOM     49  C   UNL A   1      41.089  30.506  31.245  1.00  0.00     0.049 A 
ATOM     50  N   UNL A   1      42.172  33.026  29.952  1.00  0.00    -0.248 NA
ATOM     51  C   UNL A   1      40.077  34.009  30.271  1.00  0.00     0.031 C 
ATOM     52  C   UNL A   1      40.633  29.286  31.908  1.00  0.00     0.029 A 
ATOM     53  N   UNL A   1      42.394  30.245  30.915  1.00  0.00    -0.354 N 
ATOM     54  C   UNL A   1      42.186  34.330  29.471  1.00  0.00     0.074 A 
ATOM     55  C   UNL A   1      40.861  34.873  29.651  1.00  0.00     0.031 C 
ATOM     56  C   UNL A   1      41.651  28.406  31.943  1.00  0.00     0.029 A 
ATOM     57  C   UNL A   1      42.816  28.992  31.282  1.00  0.00     0.049 A 
ATOM     58  H   UNL A   1      42.975  30.896  30.458  1.00  0.00     0.167 HD
ATOM     59  C   UNL A   1      43.215  35.023  28.934  1.00  0.00     0.031 A 
ATOM     60  C   UNL A   1      44.008  28.392  31.097  1.00  0.00     0.031 A 
ATOM     61  C   UNL A   1      44.530  34.480  28.744  1.00  0.00     0.049 A 
ATOM     62  C   UNL A   1      45.117  29.159  30.421  1.00  0.00     0.074 A 
ATOM     63  C   UNL A   1      45.648  35.095  28.214  1.00  0.00     0.029 A 
ATOM     64  N   UNL A   1      44.897  33.185  29.075  1.00  0.00    -0.354 N 
ATOM     65  N   UNL A   1      45.128  30.396  29.987  1.00  0.00    -0.248 NA
ATOM     66  C   UNL A   1      46.387  28.444  30.227  1.00  0.00     0.031 C 
ATOM     67  C   UNL A   1      46.678  34.149  28.164  1.00  0.00     0.029 A 
ATOM     68  C   UNL A   1      46.220  32.972  28.734  1.00  0.00     0.049 A 
ATOM     69  H   UNL A   1      44.305  32.517  29.491  1.00  0.00     0.167 HD
ATOM     70  C   UNL A   1      46.414  30.621  29.509  1.00  0.00     0.074 A 
ATOM     71  C   UNL A   1      47.156  29.395  29.716  1.00  0.00     0.031 C 
ATOM     72  C   UNL A   1      46.939  31.742  28.953  1.00  0.00     0.031 A 
BRANCH  59  73
ATOM     73  C   UNL A   1      42.932  36.425  28.468  1.00  0.00    -0.014 A 
ATOM     74  C   UNL A   1      42.395  36.686  27.198  1.00  0.00     0.009 A 
ATOM     75  C   UNL A   1      43.213  37.504  29.321  1.00  0.00     0.009 A 
ATOM     76  C   UNL A   1      42.178  38.001  26.778  1.00  0.00     0.001 A 
ATOM     77  C   UNL A   1      42.963  38.814  28.913  1.00  0.00     0.001 A 
ATOM     78  C   UNL A   1      42.457  39.063  27.638  1.00  0.00     0.000 A 
ENDBRANCH  59  73
BRANCH  60  79
ATOM     79  C   UNL A   1      44.224  26.993  31.551  1.00  0.00    -0.014 A 
ATOM     80  C   UNL A   1      44.614  26.715  32.871  1.00  0.00     0.009 A 
ATOM     81  C   UNL A   1      44.075  25.924  30.652  1.00  0.00     0.009 A 
ATOM     82  C   UNL A   1      44.881  25.403  33.271  1.00  0.00     0.001 A 
ATOM     83  C   UNL A   1      44.312  24.610  31.064  1.00  0.00     0.001 A 
ATOM     84  C   UNL A   1      44.725  24.351  32.370  1.00  0.00     0.000 A 
ENDBRANCH  60  79
BRANCH  72  85
ATOM     85  C   UNL A   1      48.398  31.713  28.589  1.00  0.00    -0.014 A 
ATOM     86  C   UNL A   1      48.835  31.306  27.319  1.00  0.00     0.009 A 
ATOM     87  C   UNL A   1      49.351  32.133  29.531  1.00  0.00     0.009 A 
ATOM     88  C   UNL A   1      50.198  31.275  27.018  1.00  0.00     0.001 A 
ATOM     89  C   UNL A   1      50.710  32.137  29.216  1.00  0.00     0.001 A 
ATOM     90  C   UNL A   1      51.134  31.695  27.965  1.00  0.00     0.000 A 
ENDBRANCH  72  85
ENDBRANCH  46  47
ENDBRANCH  39  41
ENDBRANCH  38  39
ENDBRANCH  37  38
ENDBRANCH  36  37
ENDBRANCH  35  36
ENDBRANCH  34  35
ENDBRANCH  33  34
ENDBRANCH  32  33
ENDBRANCH   1  32
TORSDOF 23
ENDMDL
MODEL 3
REMARK VINA RESULT:      -9.4      1.778      6.019
REMARK SMILES O=C(C[N@@H+]1CC[N@H+](Cc2cc(F)ccc2Cl)[C@H]2CS(=O)(=O)C[C@H]21)OCCOCCOCCOCCOC(=O)c1ccc(-c2c3nc(c(-c4ccccc4)c4ccc([nH]4)c(-c4ccccc4)c4nc(c(-c5ccccc5)c5ccc2[nH]5)C=C4)C=C3)cc1
REMARK SMILES IDX 29 1 28 2 27 3 26 4 25 5 24 6 2 7 1 8 3 9 4 10 5 11 23 12
REMARK SMILES IDX 6 14 17 15 22 16 7 17 18 18 19 19 20 21 21 22 8 23 9 24
REMARK SMILES IDX 10 25 15 26 11 27 14 28 16 29 12 30 13 31 30 32 31 33 32 34
REMARK SMILES IDX 33 35 34 36 35 37 36 38 37 39 38 40 39 41 40 42 86 43 41 44
REMARK SMILES IDX 85 45 42 46 43 47 44 48 79 49 45 50 84 51 78 52 80 53 46 54
REMARK SMILES IDX 83 55 77 56 76 57 47 59 69 60 54 61 68 62 55 63 58 64 67 65
REMARK SMILES IDX 81 66 56 67 57 68 66 70 82 71 59 72 48 73 49 74 53 75 50 76
REMARK SMILES IDX 52 77 51 78 70 79 71 80 75 81 72 82 74 83 73 84 60 85 61 86
REMARK SMILES IDX 65 87 62 88 64 89 63 90
REMARK H PARENT 4 13 7 20 80 58 58 69
REMARK Flexibility Score: inf
ROOT
ATOM      1  C   UNL A   1      35.413  29.681  27.508  1.00  0.00     0.188 C 
ENDROOT
BRANCH   1   2
ATOM      2  C   UNL A   1      34.036  29.243  27.031  1.00  0.00     0.188 C 
BRANCH   2   3
ATOM      3  O   UNL A   1      33.905  28.389  25.892  1.00  0.00    -0.376 OA
BRANCH   3   4
ATOM      4  C   UNL A   1      34.004  28.863  24.558  1.00  0.00     0.202 C 
BRANCH   4   5
ATOM      5  C   UNL A   1      32.740  28.958  23.713  1.00  0.00     0.261 C 
BRANCH   5   6
ATOM      6  O   UNL A   1      31.550  29.103  24.481  1.00  0.00    -0.459 OA
BRANCH   6   7
ATOM      7  C   UNL A   1      30.509  28.244  24.324  1.00  0.00     0.361 C 
ATOM      8  O   UNL A   1      29.511  28.624  23.713  1.00  0.00    -0.245 OA
BRANCH   7   9
ATOM      9  C   UNL A   1      30.484  26.953  25.154  1.00  0.00     0.387 C 
BRANCH   9  10
ATOM     10  N   UNL A   1      30.510  25.677  24.388  1.00  0.00    -0.313 N 
ATOM     11  C   UNL A   1      30.607  24.545  25.343  1.00  0.00     0.325 C 
ATOM     12  C   UNL A   1      31.697  25.602  23.501  1.00  0.00     0.259 C 
ATOM     13  H   UNL A   1      29.660  25.632  23.826  1.00  0.00     0.349 HD
ATOM     14  C   UNL A   1      31.954  24.488  26.099  1.00  0.00     0.325 C 
ATOM     15  C   UNL A   1      33.116  25.419  24.155  1.00  0.00     0.259 C 
ATOM     16  C   UNL A   1      31.553  24.531  22.425  1.00  0.00     0.208 C 
ATOM     17  N   UNL A   1      33.140  24.405  25.227  1.00  0.00    -0.318 N 
ATOM     18  C   UNL A   1      34.088  25.127  22.988  1.00  0.00     0.208 C 
ATOM     19  S   UNL A   1      33.106  24.646  21.578  1.00  0.00     0.162 S 
ATOM     20  H   UNL A   1      33.091  23.511  24.737  1.00  0.00     0.349 HD
ATOM     21  O   UNL A   1      33.032  25.778  20.673  1.00  0.00    -0.228 OA
ATOM     22  O   UNL A   1      33.499  23.328  21.125  1.00  0.00    -0.228 OA
BRANCH  17  23
ATOM     23  C   UNL A   1      34.412  24.324  25.990  1.00  0.00     0.301 C 
BRANCH  23  24
ATOM     24  C   UNL A   1      35.406  23.221  25.649  1.00  0.00     0.028 A 
ATOM     25  C   UNL A   1      36.755  23.359  26.038  1.00  0.00     0.050 A 
ATOM     26  C   UNL A   1      35.038  22.011  25.032  1.00  0.00     0.050 A 
ATOM     27  C   UNL A   1      37.698  22.376  25.747  1.00  0.00     0.123 A 
ATOM     28  C   UNL A   1      35.989  21.003  24.797  1.00  0.00     0.024 A 
ATOM     29  Cl  UNL A   1      33.412  21.666  24.563  1.00  0.00    -0.084 Cl
ATOM     30  F   UNL A   1      38.979  22.578  26.082  1.00  0.00    -0.207 F 
ATOM     31  C   UNL A   1      37.328  21.196  25.131  1.00  0.00     0.041 A 
ENDBRANCH  23  24
ENDBRANCH  17  23
ENDBRANCH   9  10
ENDBRANCH   7   9
ENDBRANCH   6   7
ENDBRANCH   5   6
ENDBRANCH   4   5
ENDBRANCH   3   4
ENDBRANCH   2   3
ENDBRANCH   1   2
BRANCH   1  32
ATOM     32  O   UNL A   1      35.424  30.907  28.213  1.00  0.00    -0.377 OA
BRANCH  32  33
ATOM     33  C   UNL A   1      34.188  31.590  28.233  1.00  0.00     0.188 C 
BRANCH  33  34
ATOM     34  C   UNL A   1      34.211  33.039  27.706  1.00  0.00     0.188 C 
BRANCH  34  35
ATOM     35  O   UNL A   1      33.219  33.993  28.062  1.00  0.00    -0.376 OA
BRANCH  35  36
ATOM     36  C   UNL A   1      33.540  35.124  28.847  1.00  0.00     0.202 C 
BRANCH  36  37
ATOM     37  C   UNL A   1      32.932  35.296  30.247  1.00  0.00     0.261 C 
BRANCH  37  38
ATOM     38  O   UNL A   1      33.848  35.604  31.300  1.00  0.00    -0.460 OA
BRANCH  38  39
ATOM     39  C   UNL A   1      34.078  34.613  32.192  1.00  0.00     0.338 C 
ATOM     40  O   UNL A   1      33.278  34.125  32.974  1.00  0.00    -0.246 OA
BRANCH  39  41
ATOM     41  C   UNL A   1      35.421  34.040  31.932  1.00  0.00     0.060 A 
ATOM     42  C   UNL A   1      35.491  32.855  31.185  1.00  0.00     0.016 A 
ATOM     43  C   UNL A   1      36.594  34.682  32.347  1.00  0.00     0.016 A 
ATOM     44  C   UNL A   1      36.722  32.269  30.915  1.00  0.00     0.010 A 
ATOM     45  C   UNL A   1      37.831  34.079  32.101  1.00  0.00     0.010 A 
ATOM     46  C   UNL A   1      37.886  32.837  31.444  1.00  0.00    -0.014 A 
BRANCH  46  47
ATOM     47  C   UNL A   1      39.057  31.949  31.630  1.00  0.00     0.031 A 
ATOM     48  C   UNL A   1      39.867  32.149  32.885  1.00  0.00     0.074 A 
ATOM     49  C   UNL A   1      39.338  30.944  30.785  1.00  0.00     0.049 A 
ATOM     50  N   UNL A   1      40.900  31.480  33.328  1.00  0.00    -0.248 NA
ATOM     51  C   UNL A   1      39.450  33.257  33.765  1.00  0.00     0.031 C 
ATOM     52  C   UNL A   1      38.588  30.609  29.576  1.00  0.00     0.029 A 
ATOM     53  N   UNL A   1      40.336  30.005  30.835  1.00  0.00    -0.354 N 
ATOM     54  C   UNL A   1      41.254  32.092  34.525  1.00  0.00     0.074 A 
ATOM     55  C   UNL A   1      40.358  33.206  34.722  1.00  0.00     0.031 C 
ATOM     56  C   UNL A   1      39.151  29.531  29.001  1.00  0.00     0.029 A 
ATOM     57  C   UNL A   1      40.314  29.119  29.786  1.00  0.00     0.049 A 
ATOM     58  H   UNL A   1      41.007  29.970  31.555  1.00  0.00     0.167 HD
ATOM     59  C   UNL A   1      42.234  31.754  35.392  1.00  0.00     0.031 A 
ATOM     60  C   UNL A   1      41.143  28.098  29.499  1.00  0.00     0.031 A 
ATOM     61  C   UNL A   1      43.133  30.653  35.190  1.00  0.00     0.049 A 
ATOM     62  C   UNL A   1      42.281  27.791  30.441  1.00  0.00     0.074 A 
ATOM     63  C   UNL A   1      44.159  30.217  36.007  1.00  0.00     0.029 A 
ATOM     64  N   UNL A   1      43.112  29.819  34.084  1.00  0.00    -0.354 N 
ATOM     65  N   UNL A   1      42.596  28.362  31.579  1.00  0.00    -0.248 NA
ATOM     66  C   UNL A   1      43.165  26.679  30.063  1.00  0.00     0.031 C 
ATOM     67  C   UNL A   1      44.802  29.156  35.362  1.00  0.00     0.029 A 
ATOM     68  C   UNL A   1      44.128  28.885  34.182  1.00  0.00     0.049 A 
ATOM     69  H   UNL A   1      42.471  29.881  33.339  1.00  0.00     0.167 HD
ATOM     70  C   UNL A   1      43.687  27.655  32.071  1.00  0.00     0.074 A 
ATOM     71  C   UNL A   1      43.971  26.606  31.114  1.00  0.00     0.031 C 
ATOM     72  C   UNL A   1      44.389  27.848  33.216  1.00  0.00     0.031 A 
BRANCH  59  73
ATOM     73  C   UNL A   1      42.409  32.623  36.607  1.00  0.00    -0.014 A 
ATOM     74  C   UNL A   1      41.734  32.356  37.809  1.00  0.00     0.009 A 
ATOM     75  C   UNL A   1      43.267  33.732  36.542  1.00  0.00     0.009 A 
ATOM     76  C   UNL A   1      41.887  33.204  38.909  1.00  0.00     0.001 A 
ATOM     77  C   UNL A   1      43.444  34.558  37.653  1.00  0.00     0.001 A 
ATOM     78  C   UNL A   1      42.745  34.300  38.832  1.00  0.00     0.000 A 
ENDBRANCH  59  73
BRANCH  60  79
ATOM     79  C   UNL A   1      40.942  27.289  28.268  1.00  0.00    -0.014 A 
ATOM     80  C   UNL A   1      40.160  26.124  28.291  1.00  0.00     0.009 A 
ATOM     81  C   UNL A   1      41.565  27.661  27.065  1.00  0.00     0.009 A 
ATOM     82  C   UNL A   1      40.031  25.333  27.146  1.00  0.00     0.001 A 
ATOM     83  C   UNL A   1      41.409  26.884  25.914  1.00  0.00     0.001 A 
ATOM     84  C   UNL A   1      40.651  25.715  25.958  1.00  0.00     0.000 A 
ENDBRANCH  60  79
BRANCH  72  85
ATOM     85  C   UNL A   1      45.490  26.871  33.524  1.00  0.00    -0.014 A 
ATOM     86  C   UNL A   1      45.249  25.683  34.232  1.00  0.00     0.009 A 
ATOM     87  C   UNL A   1      46.791  27.134  33.064  1.00  0.00     0.009 A 
ATOM     88  C   UNL A   1      46.297  24.805  34.515  1.00  0.00     0.001 A 
ATOM     89  C   UNL A   1      47.830  26.237  33.316  1.00  0.00     0.001 A 
ATOM     90  C   UNL A   1      47.585  25.080  34.053  1.00  0.00     0.000 A 
ENDBRANCH  72  85
ENDBRANCH  46  47
ENDBRANCH  39  41
ENDBRANCH  38  39
ENDBRANCH  37  38
ENDBRANCH  36  37
ENDBRANCH  35  36
ENDBRANCH  34  35
ENDBRANCH  33  34
ENDBRANCH  32  33
ENDBRANCH   1  32
TORSDOF 23
ENDMDL
