MODEL 1
REMARK VINA RESULT:      -8.7      0.000      0.000
REMARK SMILES CC[C@@H]1CCCN1C(=O)N(CC(=O)OCCOCCOCCOCCOC(=O)c1ccc(-c2c3nc(c(-c4ccccc4)c4ccc([nH]4)c(-c4ccccc4)c4nc(c(-c5ccccc5)c5ccc2[nH]5)C=C4)C=C3)cc1)CC(F)(F)F
REMARK SMILES IDX 19 1 18 2 17 3 16 4 15 5 14 6 12 7 13 8 11 9 10 10 8 11 9 12
REMARK SMILES IDX 7 13 3 14 4 15 5 16 6 17 2 18 1 19 77 20 78 21 79 22 80 23
REMARK SMILES IDX 81 24 20 25 21 26 22 27 23 28 24 29 25 30 26 31 27 32 28 33
REMARK SMILES IDX 29 34 30 35 76 36 31 37 75 38 32 39 33 40 34 41 69 42 35 43
REMARK SMILES IDX 74 44 68 45 70 46 36 47 73 48 67 49 66 50 37 52 59 53 44 54
REMARK SMILES IDX 58 55 45 56 48 57 57 58 71 59 46 60 47 61 56 63 72 64 49 65
REMARK SMILES IDX 38 66 39 67 43 68 40 69 42 70 41 71 60 72 61 73 65 74 62 75
REMARK SMILES IDX 64 76 63 77 50 78 51 79 55 80 52 81 54 82 53 83
REMARK H PARENT 70 51 48 62
REMARK Flexibility Score: inf
ROOT
ATOM      1  C   UNL A   1      32.961  27.353  25.165  1.00  0.00     0.188 C 
ENDROOT
BRANCH   1   2
ATOM      2  C   UNL A   1      32.661  25.969  24.562  1.00  0.00     0.188 C 
BRANCH   2   3
ATOM      3  O   UNL A   1      31.841  25.833  23.407  1.00  0.00    -0.376 OA
BRANCH   3   4
ATOM      4  C   UNL A   1      31.629  24.567  22.804  1.00  0.00     0.202 C 
BRANCH   4   5
ATOM      5  C   UNL A   1      32.810  23.855  22.120  1.00  0.00     0.261 C 
BRANCH   5   6
ATOM      6  O   UNL A   1      33.348  22.686  22.778  1.00  0.00    -0.462 OA
BRANCH   6   7
ATOM      7  C   UNL A   1      32.519  21.615  22.886  1.00  0.00     0.325 C 
ATOM      8  O   UNL A   1      31.799  21.210  21.976  1.00  0.00    -0.250 OA
BRANCH   7   9
ATOM      9  C   UNL A   1      32.539  20.906  24.267  1.00  0.00     0.244 C 
BRANCH   9  10
ATOM     10  N   UNL A   1      33.645  20.067  24.745  1.00  0.00    -0.304 N 
BRANCH  10  11
ATOM     11  C   UNL A   1      34.945  20.412  24.997  1.00  0.00     0.321 C 
ATOM     12  O   UNL A   1      35.769  19.483  24.950  1.00  0.00    -0.248 OA
BRANCH  11  13
ATOM     13  N   UNL A   1      35.421  21.657  25.303  1.00  0.00    -0.322 N 
ATOM     14  C   UNL A   1      35.232  22.751  26.299  1.00  0.00     0.086 C 
ATOM     15  C   UNL A   1      35.849  23.960  25.575  1.00  0.00     0.027 C 
ATOM     16  C   UNL A   1      37.069  23.380  24.911  1.00  0.00     0.024 C 
ATOM     17  C   UNL A   1      36.588  22.014  24.475  1.00  0.00     0.122 C 
BRANCH  14  18
ATOM     18  C   UNL A   1      33.847  23.131  26.787  1.00  0.00     0.022 C 
ATOM     19  C   UNL A   1      33.178  22.216  27.801  1.00  0.00     0.006 C 
ENDBRANCH  14  18
ENDBRANCH  11  13
ENDBRANCH  10  11
BRANCH  10  20
ATOM     20  C   UNL A   1      33.245  18.767  25.380  1.00  0.00     0.237 C 
BRANCH  20  21
ATOM     21  C   UNL A   1      32.988  17.534  24.481  1.00  0.00     0.406 C 
ATOM     22  F   UNL A   1      34.123  16.993  23.985  1.00  0.00    -0.169 F 
ATOM     23  F   UNL A   1      32.418  16.554  25.240  1.00  0.00    -0.169 F 
ATOM     24  F   UNL A   1      32.139  17.774  23.462  1.00  0.00    -0.169 F 
ENDBRANCH  20  21
ENDBRANCH  10  20
ENDBRANCH   9  10
ENDBRANCH   7   9
ENDBRANCH   6   7
ENDBRANCH   5   6
ENDBRANCH   4   5
ENDBRANCH   3   4
ENDBRANCH   2   3
ENDBRANCH   1   2
BRANCH   1  25
ATOM     25  O   UNL A   1      33.490  27.334  26.470  1.00  0.00    -0.377 OA
BRANCH  25  26
ATOM     26  C   UNL A   1      32.866  28.165  27.431  1.00  0.00     0.188 C 
BRANCH  26  27
ATOM     27  C   UNL A   1      31.689  29.033  26.957  1.00  0.00     0.188 C 
BRANCH  27  28
ATOM     28  O   UNL A   1      31.979  30.424  26.931  1.00  0.00    -0.376 OA
BRANCH  28  29
ATOM     29  C   UNL A   1      33.319  30.881  26.872  1.00  0.00     0.202 C 
BRANCH  29  30
ATOM     30  C   UNL A   1      33.779  32.066  27.740  1.00  0.00     0.261 C 
BRANCH  30  31
ATOM     31  O   UNL A   1      32.863  33.151  27.922  1.00  0.00    -0.460 OA
BRANCH  31  32
ATOM     32  C   UNL A   1      33.300  34.233  28.592  1.00  0.00     0.338 C 
ATOM     33  O   UNL A   1      32.715  35.296  28.729  1.00  0.00    -0.246 OA
BRANCH  32  34
ATOM     34  C   UNL A   1      34.534  33.861  29.319  1.00  0.00     0.060 A 
ATOM     35  C   UNL A   1      35.768  34.233  28.769  1.00  0.00     0.016 A 
ATOM     36  C   UNL A   1      34.484  33.146  30.519  1.00  0.00     0.016 A 
ATOM     37  C   UNL A   1      36.957  33.830  29.377  1.00  0.00     0.010 A 
ATOM     38  C   UNL A   1      35.676  32.716  31.113  1.00  0.00     0.010 A 
ATOM     39  C   UNL A   1      36.914  33.012  30.512  1.00  0.00    -0.014 A 
BRANCH  39  40
ATOM     40  C   UNL A   1      38.132  32.254  30.885  1.00  0.00     0.031 A 
ATOM     41  C   UNL A   1      38.945  32.761  32.048  1.00  0.00     0.074 A 
ATOM     42  C   UNL A   1      38.478  31.112  30.268  1.00  0.00     0.049 A 
ATOM     43  N   UNL A   1      40.036  32.271  32.580  1.00  0.00    -0.248 NA
ATOM     44  C   UNL A   1      38.453  33.985  32.703  1.00  0.00     0.031 C 
ATOM     45  C   UNL A   1      37.739  30.479  29.178  1.00  0.00     0.029 A 
ATOM     46  N   UNL A   1      39.545  30.276  30.487  1.00  0.00    -0.354 N 
ATOM     47  C   UNL A   1      40.361  33.130  33.624  1.00  0.00     0.074 A 
ATOM     48  C   UNL A   1      39.377  34.189  33.628  1.00  0.00     0.031 C 
ATOM     49  C   UNL A   1      38.377  29.350  28.822  1.00  0.00     0.029 A 
ATOM     50  C   UNL A   1      39.583  29.200  29.635  1.00  0.00     0.049 A 
ATOM     51  H   UNL A   1      40.218  30.434  31.187  1.00  0.00     0.167 HD
ATOM     52  C   UNL A   1      41.382  33.044  34.509  1.00  0.00     0.031 A 
ATOM     53  C   UNL A   1      40.497  28.217  29.520  1.00  0.00     0.031 A 
ATOM     54  C   UNL A   1      42.377  32.008  34.489  1.00  0.00     0.049 A 
ATOM     55  C   UNL A   1      41.687  28.200  30.446  1.00  0.00     0.074 A 
ATOM     56  C   UNL A   1      43.459  31.835  35.335  1.00  0.00     0.029 A 
ATOM     57  N   UNL A   1      42.418  30.973  33.567  1.00  0.00    -0.354 N 
ATOM     58  N   UNL A   1      41.980  29.010  31.437  1.00  0.00    -0.248 NA
ATOM     59  C   UNL A   1      42.666  27.122  30.244  1.00  0.00     0.031 C 
ATOM     60  C   UNL A   1      44.191  30.730  34.884  1.00  0.00     0.029 A 
ATOM     61  C   UNL A   1      43.522  30.172  33.807  1.00  0.00     0.049 A 
ATOM     62  H   UNL A   1      41.760  30.830  32.850  1.00  0.00     0.167 HD
ATOM     63  C   UNL A   1      43.152  28.516  31.998  1.00  0.00     0.074 A 
ATOM     64  C   UNL A   1      43.509  27.331  31.246  1.00  0.00     0.031 C 
ATOM     65  C   UNL A   1      43.864  28.994  33.050  1.00  0.00     0.031 A 
BRANCH  52  66
ATOM     66  C   UNL A   1      41.492  34.138  35.536  1.00  0.00    -0.014 A 
ATOM     67  C   UNL A   1      40.868  34.033  36.791  1.00  0.00     0.009 A 
ATOM     68  C   UNL A   1      42.232  35.293  35.243  1.00  0.00     0.009 A 
ATOM     69  C   UNL A   1      40.945  35.082  37.710  1.00  0.00     0.001 A 
ATOM     70  C   UNL A   1      42.336  36.326  36.176  1.00  0.00     0.001 A 
ATOM     71  C   UNL A   1      41.683  36.225  37.403  1.00  0.00     0.000 A 
ENDBRANCH  52  66
BRANCH  53  72
ATOM     72  C   UNL A   1      40.336  27.166  28.480  1.00  0.00    -0.014 A 
ATOM     73  C   UNL A   1      40.949  27.299  27.225  1.00  0.00     0.009 A 
ATOM     74  C   UNL A   1      39.545  26.034  28.729  1.00  0.00     0.009 A 
ATOM     75  C   UNL A   1      40.753  26.334  26.233  1.00  0.00     0.001 A 
ATOM     76  C   UNL A   1      39.377  25.055  27.748  1.00  0.00     0.001 A 
ATOM     77  C   UNL A   1      39.972  25.210  26.498  1.00  0.00     0.000 A 
ENDBRANCH  53  72
BRANCH  65  78
ATOM     78  C   UNL A   1      45.068  28.204  33.488  1.00  0.00    -0.014 A 
ATOM     79  C   UNL A   1      44.997  27.262  34.525  1.00  0.00     0.009 A 
ATOM     80  C   UNL A   1      46.290  28.383  32.818  1.00  0.00     0.009 A 
ATOM     81  C   UNL A   1      46.135  26.548  34.910  1.00  0.00     0.001 A 
ATOM     82  C   UNL A   1      47.416  27.643  33.180  1.00  0.00     0.001 A 
ATOM     83  C   UNL A   1      47.341  26.735  34.234  1.00  0.00     0.000 A 
ENDBRANCH  65  78
ENDBRANCH  39  40
ENDBRANCH  32  34
ENDBRANCH  31  32
ENDBRANCH  30  31
ENDBRANCH  29  30
ENDBRANCH  28  29
ENDBRANCH  27  28
ENDBRANCH  26  27
ENDBRANCH  25  26
ENDBRANCH   1  25
TORSDOF 26
ENDMDL
MODEL 2
REMARK VINA RESULT:      -8.5      4.486      9.501
REMARK SMILES CC[C@@H]1CCCN1C(=O)N(CC(=O)OCCOCCOCCOCCOC(=O)c1ccc(-c2c3nc(c(-c4ccccc4)c4ccc([nH]4)c(-c4ccccc4)c4nc(c(-c5ccccc5)c5ccc2[nH]5)C=C4)C=C3)cc1)CC(F)(F)F
REMARK SMILES IDX 19 1 18 2 17 3 16 4 15 5 14 6 12 7 13 8 11 9 10 10 8 11 9 12
REMARK SMILES IDX 7 13 3 14 4 15 5 16 6 17 2 18 1 19 77 20 78 21 79 22 80 23
REMARK SMILES IDX 81 24 20 25 21 26 22 27 23 28 24 29 25 30 26 31 27 32 28 33
REMARK SMILES IDX 29 34 30 35 76 36 31 37 75 38 32 39 33 40 34 41 69 42 35 43
REMARK SMILES IDX 74 44 68 45 70 46 36 47 73 48 67 49 66 50 37 52 59 53 44 54
REMARK SMILES IDX 58 55 45 56 48 57 57 58 71 59 46 60 47 61 56 63 72 64 49 65
REMARK SMILES IDX 38 66 39 67 43 68 40 69 42 70 41 71 60 72 61 73 65 74 62 75
REMARK SMILES IDX 64 76 63 77 50 78 51 79 55 80 52 81 54 82 53 83
REMARK H PARENT 70 51 48 62
REMARK Flexibility Score: inf
ROOT
ATOM      1  C   UNL A   1      38.948  21.453  25.869  1.00  0.00     0.188 C 
ENDROOT
BRANCH   1   2
ATOM      2  C   UNL A   1      37.774  21.100  24.939  1.00  0.00     0.188 C 
BRANCH   2   3
ATOM      3  O   UNL A   1      37.093  22.108  24.200  1.00  0.00    -0.376 OA
BRANCH   3   4
ATOM      4  C   UNL A   1      36.418  23.169  24.858  1.00  0.00     0.202 C 
BRANCH   4   5
ATOM      5  C   UNL A   1      35.243  23.864  24.148  1.00  0.00     0.261 C 
BRANCH   5   6
ATOM      6  O   UNL A   1      34.813  23.309  22.884  1.00  0.00    -0.462 OA
BRANCH   6   7
ATOM      7  C   UNL A   1      33.619  23.746  22.405  1.00  0.00     0.325 C 
ATOM      8  O   UNL A   1      33.327  23.778  21.212  1.00  0.00    -0.250 OA
BRANCH   7   9
ATOM      9  C   UNL A   1      32.608  24.213  23.488  1.00  0.00     0.244 C 
BRANCH   9  10
ATOM     10  N   UNL A   1      32.527  25.586  24.002  1.00  0.00    -0.304 N 
BRANCH  10  11
ATOM     11  C   UNL A   1      32.662  26.769  23.328  1.00  0.00     0.321 C 
ATOM     12  O   UNL A   1      33.685  26.880  22.632  1.00  0.00    -0.248 OA
BRANCH  11  13
ATOM     13  N   UNL A   1      31.803  27.833  23.354  1.00  0.00    -0.322 N 
ATOM     14  C   UNL A   1      31.616  29.148  24.031  1.00  0.00     0.086 C 
ATOM     15  C   UNL A   1      30.124  29.431  23.786  1.00  0.00     0.027 C 
ATOM     16  C   UNL A   1      29.913  28.971  22.368  1.00  0.00     0.024 C 
ATOM     17  C   UNL A   1      30.787  27.738  22.289  1.00  0.00     0.122 C 
BRANCH  14  18
ATOM     18  C   UNL A   1      31.905  29.311  25.512  1.00  0.00     0.022 C 
ATOM     19  C   UNL A   1      33.362  29.378  25.944  1.00  0.00     0.006 C 
ENDBRANCH  14  18
ENDBRANCH  11  13
ENDBRANCH  10  11
BRANCH  10  20
ATOM     20  C   UNL A   1      31.866  25.739  25.340  1.00  0.00     0.237 C 
BRANCH  20  21
ATOM     21  C   UNL A   1      30.400  25.276  25.517  1.00  0.00     0.406 C 
ATOM     22  F   UNL A   1      29.747  25.941  26.497  1.00  0.00    -0.169 F 
ATOM     23  F   UNL A   1      29.715  25.553  24.370  1.00  0.00    -0.169 F 
ATOM     24  F   UNL A   1      30.272  23.951  25.730  1.00  0.00    -0.169 F 
ENDBRANCH  20  21
ENDBRANCH  10  20
ENDBRANCH   9  10
ENDBRANCH   7   9
ENDBRANCH   6   7
ENDBRANCH   5   6
ENDBRANCH   4   5
ENDBRANCH   3   4
ENDBRANCH   2   3
ENDBRANCH   1   2
BRANCH   1  25
ATOM     25  O   UNL A   1      39.860  20.406  26.105  1.00  0.00    -0.377 OA
BRANCH  25  26
ATOM     26  C   UNL A   1      41.121  20.758  26.642  1.00  0.00     0.188 C 
BRANCH  26  27
ATOM     27  C   UNL A   1      41.952  19.637  27.287  1.00  0.00     0.188 C 
BRANCH  27  28
ATOM     28  O   UNL A   1      42.438  18.678  26.357  1.00  0.00    -0.376 OA
BRANCH  28  29
ATOM     29  C   UNL A   1      43.802  18.668  25.975  1.00  0.00     0.202 C 
BRANCH  29  30
ATOM     30  C   UNL A   1      44.227  19.180  24.587  1.00  0.00     0.261 C 
BRANCH  30  31
ATOM     31  O   UNL A   1      44.245  20.596  24.378  1.00  0.00    -0.460 OA
BRANCH  31  32
ATOM     32  C   UNL A   1      45.252  21.297  24.932  1.00  0.00     0.338 C 
ATOM     33  O   UNL A   1      46.448  21.082  24.811  1.00  0.00    -0.246 OA
BRANCH  32  34
ATOM     34  C   UNL A   1      44.682  22.511  25.557  1.00  0.00     0.060 A 
ATOM     35  C   UNL A   1      44.490  23.644  24.756  1.00  0.00     0.016 A 
ATOM     36  C   UNL A   1      44.353  22.544  26.915  1.00  0.00     0.016 A 
ATOM     37  C   UNL A   1      44.035  24.834  25.323  1.00  0.00     0.010 A 
ATOM     38  C   UNL A   1      43.926  23.746  27.490  1.00  0.00     0.010 A 
ATOM     39  C   UNL A   1      43.818  24.908  26.704  1.00  0.00    -0.014 A 
BRANCH  39  40
ATOM     40  C   UNL A   1      43.758  26.246  27.341  1.00  0.00     0.031 A 
ATOM     41  C   UNL A   1      45.059  26.954  27.613  1.00  0.00     0.074 A 
ATOM     42  C   UNL A   1      42.591  26.855  27.607  1.00  0.00     0.049 A 
ATOM     43  N   UNL A   1      45.275  28.131  28.141  1.00  0.00    -0.248 NA
ATOM     44  C   UNL A   1      46.286  26.233  27.228  1.00  0.00     0.031 C 
ATOM     45  C   UNL A   1      41.265  26.309  27.328  1.00  0.00     0.029 A 
ATOM     46  N   UNL A   1      42.342  28.083  28.169  1.00  0.00    -0.354 N 
ATOM     47  C   UNL A   1      46.656  28.287  28.157  1.00  0.00     0.074 A 
ATOM     48  C   UNL A   1      47.229  27.072  27.622  1.00  0.00     0.031 C 
ATOM     49  C   UNL A   1      40.338  27.202  27.720  1.00  0.00     0.029 A 
ATOM     50  C   UNL A   1      41.005  28.364  28.306  1.00  0.00     0.049 A 
ATOM     51  H   UNL A   1      43.055  28.703  28.447  1.00  0.00     0.167 HD
ATOM     52  C   UNL A   1      47.387  29.348  28.572  1.00  0.00     0.031 A 
ATOM     53  C   UNL A   1      40.395  29.431  28.857  1.00  0.00     0.031 A 
ATOM     54  C   UNL A   1      46.821  30.545  29.131  1.00  0.00     0.049 A 
ATOM     55  C   UNL A   1      41.231  30.556  29.412  1.00  0.00     0.074 A 
ATOM     56  C   UNL A   1      47.473  31.675  29.591  1.00  0.00     0.029 A 
ATOM     57  N   UNL A   1      45.463  30.762  29.316  1.00  0.00    -0.354 N 
ATOM     58  N   UNL A   1      42.536  30.700  29.414  1.00  0.00    -0.248 NA
ATOM     59  C   UNL A   1      40.505  31.675  30.032  1.00  0.00     0.031 C 
ATOM     60  C   UNL A   1      46.513  32.549  30.113  1.00  0.00     0.029 A 
ATOM     61  C   UNL A   1      45.259  31.997  29.908  1.00  0.00     0.049 A 
ATOM     62  H   UNL A   1      44.752  30.131  29.063  1.00  0.00     0.167 HD
ATOM     63  C   UNL A   1      42.782  31.939  29.995  1.00  0.00     0.074 A 
ATOM     64  C   UNL A   1      41.492  32.510  30.323  1.00  0.00     0.031 C 
ATOM     65  C   UNL A   1      43.969  32.553  30.227  1.00  0.00     0.031 A 
BRANCH  52  66
ATOM     66  C   UNL A   1      48.884  29.227  28.481  1.00  0.00    -0.014 A 
ATOM     67  C   UNL A   1      49.644  28.694  29.536  1.00  0.00     0.009 A 
ATOM     68  C   UNL A   1      49.545  29.654  27.319  1.00  0.00     0.009 A 
ATOM     69  C   UNL A   1      51.036  28.636  29.446  1.00  0.00     0.001 A 
ATOM     70  C   UNL A   1      50.934  29.562  27.218  1.00  0.00     0.001 A 
ATOM     71  C   UNL A   1      51.679  29.066  28.285  1.00  0.00     0.000 A 
ENDBRANCH  52  66
BRANCH  53  72
ATOM     72  C   UNL A   1      38.911  29.491  28.923  1.00  0.00    -0.014 A 
ATOM     73  C   UNL A   1      38.159  29.917  27.817  1.00  0.00     0.009 A 
ATOM     74  C   UNL A   1      38.236  29.148  30.106  1.00  0.00     0.009 A 
ATOM     75  C   UNL A   1      36.769  30.020  27.901  1.00  0.00     0.001 A 
ATOM     76  C   UNL A   1      36.844  29.222  30.177  1.00  0.00     0.001 A 
ATOM     77  C   UNL A   1      36.112  29.667  29.079  1.00  0.00     0.000 A 
ENDBRANCH  53  72
BRANCH  65  78
ATOM     78  C   UNL A   1      43.929  33.940  30.813  1.00  0.00    -0.014 A 
ATOM     79  C   UNL A   1      43.820  35.081  30.004  1.00  0.00     0.009 A 
ATOM     80  C   UNL A   1      43.962  34.099  32.208  1.00  0.00     0.009 A 
ATOM     81  C   UNL A   1      43.790  36.354  30.580  1.00  0.00     0.001 A 
ATOM     82  C   UNL A   1      43.895  35.369  32.782  1.00  0.00     0.001 A 
ATOM     83  C   UNL A   1      43.822  36.497  31.966  1.00  0.00     0.000 A 
ENDBRANCH  65  78
ENDBRANCH  39  40
ENDBRANCH  32  34
ENDBRANCH  31  32
ENDBRANCH  30  31
ENDBRANCH  29  30
ENDBRANCH  28  29
ENDBRANCH  27  28
ENDBRANCH  26  27
ENDBRANCH  25  26
ENDBRANCH   1  25
TORSDOF 26
ENDMDL
MODEL 3
REMARK VINA RESULT:      -7.7      2.379      3.652
REMARK SMILES CC[C@@H]1CCCN1C(=O)N(CC(=O)OCCOCCOCCOCCOC(=O)c1ccc(-c2c3nc(c(-c4ccccc4)c4ccc([nH]4)c(-c4ccccc4)c4nc(c(-c5ccccc5)c5ccc2[nH]5)C=C4)C=C3)cc1)CC(F)(F)F
REMARK SMILES IDX 19 1 18 2 17 3 16 4 15 5 14 6 12 7 13 8 11 9 10 10 8 11 9 12
REMARK SMILES IDX 7 13 3 14 4 15 5 16 6 17 2 18 1 19 77 20 78 21 79 22 80 23
REMARK SMILES IDX 81 24 20 25 21 26 22 27 23 28 24 29 25 30 26 31 27 32 28 33
REMARK SMILES IDX 29 34 30 35 76 36 31 37 75 38 32 39 33 40 34 41 69 42 35 43
REMARK SMILES IDX 74 44 68 45 70 46 36 47 73 48 67 49 66 50 37 52 59 53 44 54
REMARK SMILES IDX 58 55 45 56 48 57 57 58 71 59 46 60 47 61 56 63 72 64 49 65
REMARK SMILES IDX 38 66 39 67 43 68 40 69 42 70 41 71 60 72 61 73 65 74 62 75
REMARK SMILES IDX 64 76 63 77 50 78 51 79 55 80 52 81 54 82 53 83
REMARK H PARENT 70 51 48 62
REMARK Flexibility Score: inf
ROOT
ATOM      1  C   UNL A   1      31.908  29.240  25.506  1.00  0.00     0.188 C 
ENDROOT
BRANCH   1   2
ATOM      2  C   UNL A   1      31.437  27.788  25.704  1.00  0.00     0.188 C 
BRANCH   2   3
ATOM      3  O   UNL A   1      30.680  27.119  24.703  1.00  0.00    -0.376 OA
BRANCH   3   4
ATOM      4  C   UNL A   1      31.309  26.290  23.739  1.00  0.00     0.202 C 
BRANCH   4   5
ATOM      5  C   UNL A   1      32.822  26.032  23.846  1.00  0.00     0.261 C 
BRANCH   5   6
ATOM      6  O   UNL A   1      33.243  24.856  24.574  1.00  0.00    -0.462 OA
BRANCH   6   7
ATOM      7  C   UNL A   1      34.087  25.059  25.618  1.00  0.00     0.325 C 
ATOM      8  O   UNL A   1      34.467  26.168  25.990  1.00  0.00    -0.250 OA
BRANCH   7   9
ATOM      9  C   UNL A   1      34.556  23.769  26.344  1.00  0.00     0.244 C 
BRANCH   9  10
ATOM     10  N   UNL A   1      35.272  22.669  25.687  1.00  0.00    -0.304 N 
BRANCH  10  11
ATOM     11  C   UNL A   1      34.997  22.047  24.500  1.00  0.00     0.321 C 
ATOM     12  O   UNL A   1      35.649  22.443  23.519  1.00  0.00    -0.248 OA
BRANCH  11  13
ATOM     13  N   UNL A   1      34.079  21.056  24.283  1.00  0.00    -0.322 N 
ATOM     14  C   UNL A   1      32.993  20.677  23.335  1.00  0.00     0.086 C 
ATOM     15  C   UNL A   1      32.191  19.651  24.151  1.00  0.00     0.027 C 
ATOM     16  C   UNL A   1      33.260  18.856  24.853  1.00  0.00     0.024 C 
ATOM     17  C   UNL A   1      34.286  19.913  25.193  1.00  0.00     0.122 C 
BRANCH  14  18
ATOM     18  C   UNL A   1      32.036  21.720  22.789  1.00  0.00     0.022 C 
ATOM     19  C   UNL A   1      32.604  22.790  21.869  1.00  0.00     0.006 C 
ENDBRANCH  14  18
ENDBRANCH  11  13
ENDBRANCH  10  11
BRANCH  10  20
ATOM     20  C   UNL A   1      36.670  22.423  26.173  1.00  0.00     0.237 C 
BRANCH  20  21
ATOM     21  C   UNL A   1      37.752  23.504  25.940  1.00  0.00     0.406 C 
ATOM     22  F   UNL A   1      37.631  24.128  24.746  1.00  0.00    -0.169 F 
ATOM     23  F   UNL A   1      37.600  24.481  26.879  1.00  0.00    -0.169 F 
ATOM     24  F   UNL A   1      39.013  23.044  26.065  1.00  0.00    -0.169 F 
ENDBRANCH  20  21
ENDBRANCH  10  20
ENDBRANCH   9  10
ENDBRANCH   7   9
ENDBRANCH   6   7
ENDBRANCH   5   6
ENDBRANCH   4   5
ENDBRANCH   3   4
ENDBRANCH   2   3
ENDBRANCH   1   2
BRANCH   1  25
ATOM     25  O   UNL A   1      31.895  30.036  26.668  1.00  0.00    -0.377 OA
BRANCH  25  26
ATOM     26  C   UNL A   1      33.098  30.697  27.011  1.00  0.00     0.188 C 
BRANCH  26  27
ATOM     27  C   UNL A   1      32.981  32.075  27.684  1.00  0.00     0.188 C 
BRANCH  27  28
ATOM     28  O   UNL A   1      34.235  32.699  27.929  1.00  0.00    -0.376 OA
BRANCH  28  29
ATOM     29  C   UNL A   1      34.422  33.520  29.069  1.00  0.00     0.202 C 
BRANCH  29  30
ATOM     30  C   UNL A   1      33.546  34.766  29.285  1.00  0.00     0.261 C 
BRANCH  30  31
ATOM     31  O   UNL A   1      32.635  34.754  30.390  1.00  0.00    -0.460 OA
BRANCH  31  32
ATOM     32  C   UNL A   1      32.948  35.499  31.466  1.00  0.00     0.338 C 
ATOM     33  O   UNL A   1      32.319  36.448  31.908  1.00  0.00    -0.246 OA
BRANCH  32  34
ATOM     34  C   UNL A   1      34.083  34.854  32.163  1.00  0.00     0.060 A 
ATOM     35  C   UNL A   1      35.314  35.522  32.190  1.00  0.00     0.016 A 
ATOM     36  C   UNL A   1      33.947  33.603  32.772  1.00  0.00     0.016 A 
ATOM     37  C   UNL A   1      36.430  34.913  32.762  1.00  0.00     0.010 A 
ATOM     38  C   UNL A   1      35.073  32.979  33.319  1.00  0.00     0.010 A 
ATOM     39  C   UNL A   1      36.329  33.611  33.266  1.00  0.00    -0.014 A 
BRANCH  39  40
ATOM     40  C   UNL A   1      37.574  32.832  33.469  1.00  0.00     0.031 A 
ATOM     41  C   UNL A   1      38.336  33.047  34.750  1.00  0.00     0.074 A 
ATOM     42  C   UNL A   1      37.986  31.906  32.587  1.00  0.00     0.049 A 
ATOM     43  N   UNL A   1      39.437  32.479  35.172  1.00  0.00    -0.248 NA
ATOM     44  C   UNL A   1      37.772  34.036  35.686  1.00  0.00     0.031 C 
ATOM     45  C   UNL A   1      37.302  31.553  31.345  1.00  0.00     0.029 A 
ATOM     46  N   UNL A   1      39.087  31.086  32.615  1.00  0.00    -0.354 N 
ATOM     47  C   UNL A   1      39.698  33.046  36.415  1.00  0.00     0.074 A 
ATOM     48  C   UNL A   1      38.665  34.027  36.662  1.00  0.00     0.031 C 
ATOM     49  C   UNL A   1      38.001  30.583  30.728  1.00  0.00     0.029 A 
ATOM     50  C   UNL A   1      39.195  30.273  31.514  1.00  0.00     0.049 A 
ATOM     51  H   UNL A   1      39.737  31.082  33.354  1.00  0.00     0.167 HD
ATOM     52  C   UNL A   1      40.703  32.772  37.280  1.00  0.00     0.031 A 
ATOM     53  C   UNL A   1      40.157  29.393  31.176  1.00  0.00     0.031 A 
ATOM     54  C   UNL A   1      41.747  31.819  37.024  1.00  0.00     0.049 A 
ATOM     55  C   UNL A   1      41.325  29.182  32.105  1.00  0.00     0.074 A 
ATOM     56  C   UNL A   1      42.817  31.473  37.830  1.00  0.00     0.029 A 
ATOM     57  N   UNL A   1      41.857  31.064  35.865  1.00  0.00    -0.354 N 
ATOM     58  N   UNL A   1      41.559  29.714  33.282  1.00  0.00    -0.248 NA
ATOM     59  C   UNL A   1      42.359  28.234  31.661  1.00  0.00     0.031 C 
ATOM     60  C   UNL A   1      43.610  30.556  37.131  1.00  0.00     0.029 A 
ATOM     61  C   UNL A   1      42.992  30.273  35.923  1.00  0.00     0.049 A 
ATOM     62  H   UNL A   1      41.222  31.089  35.113  1.00  0.00     0.167 HD
ATOM     63  C   UNL A   1      42.740  29.137  33.733  1.00  0.00     0.074 A 
ATOM     64  C   UNL A   1      43.169  28.207  32.710  1.00  0.00     0.031 C 
ATOM     65  C   UNL A   1      43.406  29.351  34.897  1.00  0.00     0.031 A 
BRANCH  52  66
ATOM     66  C   UNL A   1      40.738  33.561  38.560  1.00  0.00    -0.014 A 
ATOM     67  C   UNL A   1      41.428  34.782  38.652  1.00  0.00     0.009 A 
ATOM     68  C   UNL A   1      40.070  33.075  39.694  1.00  0.00     0.009 A 
ATOM     69  C   UNL A   1      41.487  35.473  39.865  1.00  0.00     0.001 A 
ATOM     70  C   UNL A   1      40.100  33.785  40.895  1.00  0.00     0.001 A 
ATOM     71  C   UNL A   1      40.819  34.975  40.984  1.00  0.00     0.000 A 
ENDBRANCH  52  66
BRANCH  53  72
ATOM     72  C   UNL A   1      40.069  28.646  29.893  1.00  0.00    -0.014 A 
ATOM     73  C   UNL A   1      40.521  29.222  28.695  1.00  0.00     0.009 A 
ATOM     74  C   UNL A   1      39.506  27.361  29.855  1.00  0.00     0.009 A 
ATOM     75  C   UNL A   1      40.388  28.537  27.485  1.00  0.00     0.001 A 
ATOM     76  C   UNL A   1      39.405  26.665  28.649  1.00  0.00     0.001 A 
ATOM     77  C   UNL A   1      39.836  27.257  27.463  1.00  0.00     0.000 A 
ENDBRANCH  53  72
BRANCH  65  78
ATOM     78  C   UNL A   1      44.636  28.522  35.153  1.00  0.00    -0.014 A 
ATOM     79  C   UNL A   1      45.916  28.965  34.788  1.00  0.00     0.009 A 
ATOM     80  C   UNL A   1      44.509  27.287  35.811  1.00  0.00     0.009 A 
ATOM     81  C   UNL A   1      47.037  28.169  35.037  1.00  0.00     0.001 A 
ATOM     82  C   UNL A   1      45.634  26.510  36.091  1.00  0.00     0.001 A 
ATOM     83  C   UNL A   1      46.896  26.946  35.693  1.00  0.00     0.000 A 
ENDBRANCH  65  78
ENDBRANCH  39  40
ENDBRANCH  32  34
ENDBRANCH  31  32
ENDBRANCH  30  31
ENDBRANCH  29  30
ENDBRANCH  28  29
ENDBRANCH  27  28
ENDBRANCH  26  27
ENDBRANCH  25  26
ENDBRANCH   1  25
TORSDOF 26
ENDMDL
