MODEL 1
REMARK VINA RESULT:     -10.2      0.000      0.000
REMARK SMILES CCN(CC)S(=O)(=O)c1ccc2nc(-c3ccncc3)cc(C(=O)OCCOCCOCCOCCOC(=O)c3ccc(-c4c5nc(c(-c6ccccc6)c6ccc([nH]6)c(-c6ccccc6)c6nc(c(-c7ccccc7)c7ccc4[nH]7)C=C6)C=C5)cc3)c2c1
REMARK SMILES IDX 30 1 29 2 28 3 27 4 26 5 25 6 23 7 24 8 22 9 9 10 10 11
REMARK SMILES IDX 89 12 11 13 88 14 12 15 13 16 21 17 14 18 6 19 7 20 8 21
REMARK SMILES IDX 3 22 2 23 1 24 4 25 5 26 15 27 16 28 20 29 17 30 19 31 18 32
REMARK SMILES IDX 31 33 32 34 33 35 34 36 35 37 36 38 37 39 38 40 39 41 40 42
REMARK SMILES IDX 41 43 87 44 42 45 86 46 43 47 44 48 45 49 80 50 46 51 85 52
REMARK SMILES IDX 79 53 81 54 47 55 84 56 78 57 77 58 48 60 70 61 55 62 69 63
REMARK SMILES IDX 56 64 59 65 68 66 82 67 57 68 58 69 67 71 83 72 60 73 49 74
REMARK SMILES IDX 50 75 54 76 51 77 53 78 52 79 71 80 72 81 76 82 73 83 75 84
REMARK SMILES IDX 74 85 61 86 62 87 66 88 63 89 65 90 64 91
REMARK H PARENT 81 59 59 70
REMARK Flexibility Score: inf
ROOT
ATOM      1  C   UNL A   1      38.684  23.579  26.282  1.00  0.00     0.188 C 
ENDROOT
BRANCH   1   2
ATOM      2  C   UNL A   1      37.164  23.737  26.540  1.00  0.00     0.188 C 
BRANCH   2   3
ATOM      3  O   UNL A   1      36.341  22.955  25.692  1.00  0.00    -0.376 OA
BRANCH   3   4
ATOM      4  C   UNL A   1      36.564  22.998  24.297  1.00  0.00     0.202 C 
BRANCH   4   5
ATOM      5  C   UNL A   1      35.486  23.679  23.449  1.00  0.00     0.261 C 
BRANCH   5   6
ATOM      6  O   UNL A   1      34.921  22.851  22.426  1.00  0.00    -0.460 OA
BRANCH   6   7
ATOM      7  C   UNL A   1      33.589  22.945  22.218  1.00  0.00     0.338 C 
ATOM      8  O   UNL A   1      33.045  23.422  21.239  1.00  0.00    -0.246 OA
BRANCH   7   9
ATOM      9  C   UNL A   1      32.885  22.170  23.269  1.00  0.00     0.071 A 
ATOM     10  C   UNL A   1      30.892  24.597  25.374  1.00  0.00     0.083 A 
ATOM     11  C   UNL A   1      30.359  23.703  26.296  1.00  0.00     0.024 A 
ATOM     12  C   UNL A   1      31.658  24.121  24.310  1.00  0.00     0.033 A 
ATOM     13  C   UNL A   1      30.652  22.344  26.183  1.00  0.00     0.030 A 
ATOM     14  C   UNL A   1      32.017  22.746  24.232  1.00  0.00     0.016 A 
ATOM     15  C   UNL A   1      31.499  21.856  25.198  1.00  0.00     0.072 A 
ATOM     16  N   UNL A   1      31.795  20.547  25.231  1.00  0.00    -0.248 NA
ATOM     17  C   UNL A   1      33.209  20.809  23.320  1.00  0.00     0.045 A 
ATOM     18  C   UNL A   1      32.651  20.038  24.321  1.00  0.00     0.072 A 
BRANCH  10  19
ATOM     19  S   UNL A   1      30.535  26.324  25.597  1.00  0.00     0.243 S 
ATOM     20  O   UNL A   1      30.722  26.626  27.000  1.00  0.00    -0.207 OA
ATOM     21  O   UNL A   1      29.245  26.506  24.967  1.00  0.00    -0.207 OA
BRANCH  19  22
ATOM     22  N   UNL A   1      31.713  27.212  24.719  1.00  0.00    -0.198 NA
BRANCH  22  23
ATOM     23  C   UNL A   1      31.200  27.947  23.511  1.00  0.00     0.099 C 
ATOM     24  C   UNL A   1      31.246  27.156  22.218  1.00  0.00     0.022 C 
ENDBRANCH  22  23
BRANCH  22  25
ATOM     25  C   UNL A   1      32.664  28.082  25.494  1.00  0.00     0.099 C 
ATOM     26  C   UNL A   1      32.874  29.476  24.929  1.00  0.00     0.022 C 
ENDBRANCH  22  25
ENDBRANCH  19  22
ENDBRANCH  10  19
BRANCH  18  27
ATOM     27  C   UNL A   1      32.935  18.609  24.447  1.00  0.00     0.003 A 
ATOM     28  C   UNL A   1      33.464  17.901  23.364  1.00  0.00     0.030 A 
ATOM     29  C   UNL A   1      32.701  17.914  25.639  1.00  0.00     0.030 A 
ATOM     30  C   UNL A   1      33.757  16.557  23.522  1.00  0.00     0.111 A 
ATOM     31  C   UNL A   1      33.021  16.565  25.698  1.00  0.00     0.111 A 
ATOM     32  N   UNL A   1      33.555  15.875  24.668  1.00  0.00    -0.265 NA
ENDBRANCH  18  27
ENDBRANCH   7   9
ENDBRANCH   6   7
ENDBRANCH   5   6
ENDBRANCH   4   5
ENDBRANCH   3   4
ENDBRANCH   2   3
ENDBRANCH   1   2
BRANCH   1  33
ATOM     33  O   UNL A   1      39.425  22.476  26.797  1.00  0.00    -0.377 OA
BRANCH  33  34
ATOM     34  C   UNL A   1      39.383  21.219  26.133  1.00  0.00     0.188 C 
BRANCH  34  35
ATOM     35  C   UNL A   1      40.694  20.440  25.907  1.00  0.00     0.188 C 
BRANCH  35  36
ATOM     36  O   UNL A   1      41.839  21.273  25.852  1.00  0.00    -0.376 OA
BRANCH  36  37
ATOM     37  C   UNL A   1      43.111  20.659  25.961  1.00  0.00     0.202 C 
BRANCH  37  38
ATOM     38  C   UNL A   1      44.342  21.391  25.404  1.00  0.00     0.261 C 
BRANCH  38  39
ATOM     39  O   UNL A   1      44.741  22.601  26.065  1.00  0.00    -0.460 OA
BRANCH  39  40
ATOM     40  C   UNL A   1      44.595  23.762  25.394  1.00  0.00     0.338 C 
ATOM     41  O   UNL A   1      44.880  23.985  24.229  1.00  0.00    -0.246 OA
BRANCH  40  42
ATOM     42  C   UNL A   1      43.852  24.689  26.274  1.00  0.00     0.060 A 
ATOM     43  C   UNL A   1      44.218  26.042  26.312  1.00  0.00     0.016 A 
ATOM     44  C   UNL A   1      42.787  24.223  27.047  1.00  0.00     0.016 A 
ATOM     45  C   UNL A   1      43.535  26.927  27.149  1.00  0.00     0.010 A 
ATOM     46  C   UNL A   1      42.119  25.105  27.900  1.00  0.00     0.010 A 
ATOM     47  C   UNL A   1      42.510  26.454  27.978  1.00  0.00    -0.014 A 
BRANCH  47  48
ATOM     48  C   UNL A   1      41.980  27.312  29.066  1.00  0.00     0.031 A 
ATOM     49  C   UNL A   1      42.706  27.322  30.384  1.00  0.00     0.074 A 
ATOM     50  C   UNL A   1      40.886  28.076  28.895  1.00  0.00     0.049 A 
ATOM     51  N   UNL A   1      42.407  27.949  31.493  1.00  0.00    -0.248 NA
ATOM     52  C   UNL A   1      43.939  26.521  30.457  1.00  0.00     0.031 C 
ATOM     53  C   UNL A   1      40.128  28.212  27.654  1.00  0.00     0.029 A 
ATOM     54  N   UNL A   1      40.217  28.878  29.787  1.00  0.00    -0.354 N 
ATOM     55  C   UNL A   1      43.410  27.613  32.394  1.00  0.00     0.074 A 
ATOM     56  C   UNL A   1      44.306  26.703  31.716  1.00  0.00     0.031 C 
ATOM     57  C   UNL A   1      39.079  29.026  27.870  1.00  0.00     0.029 A 
ATOM     58  C   UNL A   1      39.080  29.446  29.268  1.00  0.00     0.049 A 
ATOM     59  H   UNL A   1      40.524  29.030  30.709  1.00  0.00     0.167 HD
ATOM     60  C   UNL A   1      43.577  28.032  33.671  1.00  0.00     0.031 A 
ATOM     61  C   UNL A   1      38.136  30.201  29.862  1.00  0.00     0.031 A 
ATOM     62  C   UNL A   1      42.675  28.918  34.355  1.00  0.00     0.049 A 
ATOM     63  C   UNL A   1      38.284  30.565  31.316  1.00  0.00     0.074 A 
ATOM     64  C   UNL A   1      42.766  29.413  35.644  1.00  0.00     0.029 A 
ATOM     65  N   UNL A   1      41.507  29.428  33.810  1.00  0.00    -0.354 N 
ATOM     66  N   UNL A   1      39.254  30.271  32.148  1.00  0.00    -0.248 NA
ATOM     67  C   UNL A   1      37.211  31.378  31.907  1.00  0.00     0.031 C 
ATOM     68  C   UNL A   1      41.617  30.168  35.902  1.00  0.00     0.029 A 
ATOM     69  C   UNL A   1      40.849  30.204  34.750  1.00  0.00     0.049 A 
ATOM     70  H   UNL A   1      41.193  29.265  32.891  1.00  0.00     0.167 HD
ATOM     71  C   UNL A   1      38.925  30.891  33.348  1.00  0.00     0.074 A 
ATOM     72  C   UNL A   1      37.675  31.588  33.131  1.00  0.00     0.031 C 
ATOM     73  C   UNL A   1      39.602  30.888  34.523  1.00  0.00     0.031 A 
BRANCH  60  74
ATOM     74  C   UNL A   1      44.765  27.498  34.423  1.00  0.00    -0.014 A 
ATOM     75  C   UNL A   1      45.994  28.177  34.431  1.00  0.00     0.009 A 
ATOM     76  C   UNL A   1      44.643  26.309  35.159  1.00  0.00     0.009 A 
ATOM     77  C   UNL A   1      47.085  27.658  35.130  1.00  0.00     0.001 A 
ATOM     78  C   UNL A   1      45.726  25.809  35.884  1.00  0.00     0.001 A 
ATOM     79  C   UNL A   1      46.949  26.478  35.860  1.00  0.00     0.000 A 
ENDBRANCH  60  74
BRANCH  61  80
ATOM     80  C   UNL A   1      36.945  30.656  29.096  1.00  0.00    -0.014 A 
ATOM     81  C   UNL A   1      35.938  29.750  28.733  1.00  0.00     0.009 A 
ATOM     82  C   UNL A   1      36.835  31.994  28.685  1.00  0.00     0.009 A 
ATOM     83  C   UNL A   1      34.858  30.167  27.951  1.00  0.00     0.001 A 
ATOM     84  C   UNL A   1      35.744  32.413  27.922  1.00  0.00     0.001 A 
ATOM     85  C   UNL A   1      34.761  31.498  27.549  1.00  0.00     0.000 A 
ENDBRANCH  61  80
BRANCH  73  86
ATOM     86  C   UNL A   1      39.026  31.694  35.655  1.00  0.00    -0.014 A 
ATOM     87  C   UNL A   1      38.180  31.114  36.612  1.00  0.00     0.009 A 
ATOM     88  C   UNL A   1      39.375  33.048  35.788  1.00  0.00     0.009 A 
ATOM     89  C   UNL A   1      37.667  31.883  37.659  1.00  0.00     0.001 A 
ATOM     90  C   UNL A   1      38.888  33.805  36.855  1.00  0.00     0.001 A 
ATOM     91  C   UNL A   1      38.026  33.225  37.784  1.00  0.00     0.000 A 
ENDBRANCH  73  86
ENDBRANCH  47  48
ENDBRANCH  40  42
ENDBRANCH  39  40
ENDBRANCH  38  39
ENDBRANCH  37  38
ENDBRANCH  36  37
ENDBRANCH  35  36
ENDBRANCH  34  35
ENDBRANCH  33  34
ENDBRANCH   1  33
TORSDOF 25
ENDMDL
MODEL 2
REMARK VINA RESULT:     -10.1      1.209      2.152
REMARK SMILES CCN(CC)S(=O)(=O)c1ccc2nc(-c3ccncc3)cc(C(=O)OCCOCCOCCOCCOC(=O)c3ccc(-c4c5nc(c(-c6ccccc6)c6ccc([nH]6)c(-c6ccccc6)c6nc(c(-c7ccccc7)c7ccc4[nH]7)C=C6)C=C5)cc3)c2c1
REMARK SMILES IDX 30 1 29 2 28 3 27 4 26 5 25 6 23 7 24 8 22 9 9 10 10 11
REMARK SMILES IDX 89 12 11 13 88 14 12 15 13 16 21 17 14 18 6 19 7 20 8 21
REMARK SMILES IDX 3 22 2 23 1 24 4 25 5 26 15 27 16 28 20 29 17 30 19 31 18 32
REMARK SMILES IDX 31 33 32 34 33 35 34 36 35 37 36 38 37 39 38 40 39 41 40 42
REMARK SMILES IDX 41 43 87 44 42 45 86 46 43 47 44 48 45 49 80 50 46 51 85 52
REMARK SMILES IDX 79 53 81 54 47 55 84 56 78 57 77 58 48 60 70 61 55 62 69 63
REMARK SMILES IDX 56 64 59 65 68 66 82 67 57 68 58 69 67 71 83 72 60 73 49 74
REMARK SMILES IDX 50 75 54 76 51 77 53 78 52 79 71 80 72 81 76 82 73 83 75 84
REMARK SMILES IDX 74 85 61 86 62 87 66 88 63 89 65 90 64 91
REMARK H PARENT 81 59 59 70
REMARK Flexibility Score: inf
ROOT
ATOM      1  C   UNL A   1      41.850  19.835  25.701  1.00  0.00     0.188 C 
ENDROOT
BRANCH   1   2
ATOM      2  C   UNL A   1      40.422  20.075  26.252  1.00  0.00     0.188 C 
BRANCH   2   3
ATOM      3  O   UNL A   1      39.416  19.289  25.638  1.00  0.00    -0.376 OA
BRANCH   3   4
ATOM      4  C   UNL A   1      38.315  19.942  25.036  1.00  0.00     0.202 C 
BRANCH   4   5
ATOM      5  C   UNL A   1      38.168  21.440  25.313  1.00  0.00     0.261 C 
BRANCH   5   6
ATOM      6  O   UNL A   1      36.861  21.842  25.741  1.00  0.00    -0.460 OA
BRANCH   6   7
ATOM      7  C   UNL A   1      36.049  22.394  24.813  1.00  0.00     0.338 C 
ATOM      8  O   UNL A   1      36.383  23.161  23.929  1.00  0.00    -0.246 OA
BRANCH   7   9
ATOM      9  C   UNL A   1      34.717  21.746  24.896  1.00  0.00     0.071 A 
ATOM     10  C   UNL A   1      32.158  24.423  25.659  1.00  0.00     0.083 A 
ATOM     11  C   UNL A   1      31.021  23.626  25.735  1.00  0.00     0.024 A 
ATOM     12  C   UNL A   1      33.380  23.854  25.299  1.00  0.00     0.033 A 
ATOM     13  C   UNL A   1      31.129  22.253  25.513  1.00  0.00     0.030 A 
ATOM     14  C   UNL A   1      33.508  22.446  25.142  1.00  0.00     0.016 A 
ATOM     15  C   UNL A   1      32.351  21.646  25.260  1.00  0.00     0.072 A 
ATOM     16  N   UNL A   1      32.365  20.307  25.156  1.00  0.00    -0.248 NA
ATOM     17  C   UNL A   1      34.731  20.348  24.810  1.00  0.00     0.045 A 
ATOM     18  C   UNL A   1      33.537  19.669  24.956  1.00  0.00     0.072 A 
BRANCH  10  19
ATOM     19  S   UNL A   1      31.976  26.156  26.006  1.00  0.00     0.243 S 
ATOM     20  O   UNL A   1      33.269  26.652  26.428  1.00  0.00    -0.207 OA
ATOM     21  O   UNL A   1      30.834  26.226  26.891  1.00  0.00    -0.207 OA
BRANCH  19  22
ATOM     22  N   UNL A   1      31.583  26.940  24.529  1.00  0.00    -0.198 NA
BRANCH  22  23
ATOM     23  C   UNL A   1      32.752  27.502  23.767  1.00  0.00     0.099 C 
ATOM     24  C   UNL A   1      33.485  26.499  22.897  1.00  0.00     0.022 C 
ENDBRANCH  22  23
BRANCH  22  25
ATOM     25  C   UNL A   1      30.635  26.245  23.591  1.00  0.00     0.099 C 
ATOM     26  C   UNL A   1      29.169  26.323  23.977  1.00  0.00     0.022 C 
ENDBRANCH  22  25
ENDBRANCH  19  22
ENDBRANCH  10  19
BRANCH  18  27
ATOM     27  C   UNL A   1      33.461  18.211  24.880  1.00  0.00     0.003 A 
ATOM     28  C   UNL A   1      32.601  17.510  25.732  1.00  0.00     0.030 A 
ATOM     29  C   UNL A   1      34.225  17.480  23.964  1.00  0.00     0.030 A 
ATOM     30  C   UNL A   1      32.523  16.132  25.615  1.00  0.00     0.111 A 
ATOM     31  C   UNL A   1      34.081  16.100  23.928  1.00  0.00     0.111 A 
ATOM     32  N   UNL A   1      33.238  15.413  24.726  1.00  0.00    -0.265 NA
ENDBRANCH  18  27
ENDBRANCH   7   9
ENDBRANCH   6   7
ENDBRANCH   5   6
ENDBRANCH   4   5
ENDBRANCH   3   4
ENDBRANCH   2   3
ENDBRANCH   1   2
BRANCH   1  33
ATOM     33  O   UNL A   1      42.754  18.922  26.320  1.00  0.00    -0.377 OA
BRANCH  33  34
ATOM     34  C   UNL A   1      43.908  18.478  25.617  1.00  0.00     0.188 C 
BRANCH  34  35
ATOM     35  C   UNL A   1      44.595  19.429  24.617  1.00  0.00     0.188 C 
BRANCH  35  36
ATOM     36  O   UNL A   1      45.134  20.590  25.225  1.00  0.00    -0.376 OA
BRANCH  36  37
ATOM     37  C   UNL A   1      44.370  21.781  25.170  1.00  0.00     0.202 C 
BRANCH  37  38
ATOM     38  C   UNL A   1      44.595  22.757  24.004  1.00  0.00     0.261 C 
BRANCH  38  39
ATOM     39  O   UNL A   1      44.562  24.160  24.306  1.00  0.00    -0.460 OA
BRANCH  39  40
ATOM     40  C   UNL A   1      45.354  24.607  25.302  1.00  0.00     0.338 C 
ATOM     41  O   UNL A   1      46.567  24.504  25.386  1.00  0.00    -0.246 OA
BRANCH  40  42
ATOM     42  C   UNL A   1      44.511  25.416  26.207  1.00  0.00     0.060 A 
ATOM     43  C   UNL A   1      44.615  26.813  26.178  1.00  0.00     0.016 A 
ATOM     44  C   UNL A   1      43.609  24.792  27.071  1.00  0.00     0.016 A 
ATOM     45  C   UNL A   1      43.835  27.590  27.038  1.00  0.00     0.010 A 
ATOM     46  C   UNL A   1      42.846  25.569  27.946  1.00  0.00     0.010 A 
ATOM     47  C   UNL A   1      42.978  26.970  27.955  1.00  0.00    -0.014 A 
BRANCH  47  48
ATOM     48  C   UNL A   1      42.371  27.759  29.055  1.00  0.00     0.031 A 
ATOM     49  C   UNL A   1      43.065  27.774  30.390  1.00  0.00     0.074 A 
ATOM     50  C   UNL A   1      41.235  28.458  28.880  1.00  0.00     0.049 A 
ATOM     51  N   UNL A   1      42.701  28.345  31.509  1.00  0.00    -0.248 NA
ATOM     52  C   UNL A   1      44.344  27.048  30.469  1.00  0.00     0.031 C 
ATOM     53  C   UNL A   1      40.498  28.585  27.625  1.00  0.00     0.029 A 
ATOM     54  N   UNL A   1      40.497  29.189  29.778  1.00  0.00    -0.354 N 
ATOM     55  C   UNL A   1      43.704  28.046  32.425  1.00  0.00     0.074 A 
ATOM     56  C   UNL A   1      44.669  27.214  31.742  1.00  0.00     0.031 C 
ATOM     57  C   UNL A   1      39.395  29.325  27.839  1.00  0.00     0.029 A 
ATOM     58  C   UNL A   1      39.338  29.701  29.249  1.00  0.00     0.049 A 
ATOM     59  H   UNL A   1      40.772  29.332  30.712  1.00  0.00     0.167 HD
ATOM     60  C   UNL A   1      43.815  28.434  33.717  1.00  0.00     0.031 A 
ATOM     61  C   UNL A   1      38.335  30.377  29.841  1.00  0.00     0.031 A 
ATOM     62  C   UNL A   1      42.843  29.241  34.405  1.00  0.00     0.049 A 
ATOM     63  C   UNL A   1      38.427  30.705  31.309  1.00  0.00     0.074 A 
ATOM     64  C   UNL A   1      42.874  29.701  35.709  1.00  0.00     0.029 A 
ATOM     65  N   UNL A   1      41.659  29.694  33.846  1.00  0.00    -0.354 N 
ATOM     66  N   UNL A   1      39.395  30.446  32.155  1.00  0.00    -0.248 NA
ATOM     67  C   UNL A   1      37.293  31.431  31.896  1.00  0.00     0.031 C 
ATOM     68  C   UNL A   1      41.674  30.374  35.961  1.00  0.00     0.029 A 
ATOM     69  C   UNL A   1      40.932  30.398  34.792  1.00  0.00     0.049 A 
ATOM     70  H   UNL A   1      41.376  29.540  32.916  1.00  0.00     0.167 HD
ATOM     71  C   UNL A   1      39.001  31.007  33.364  1.00  0.00     0.074 A 
ATOM     72  C   UNL A   1      37.714  31.631  33.137  1.00  0.00     0.031 C 
ATOM     73  C   UNL A   1      39.650  31.010  34.555  1.00  0.00     0.031 A 
BRANCH  60  74
ATOM     74  C   UNL A   1      45.017  27.952  34.482  1.00  0.00    -0.014 A 
ATOM     75  C   UNL A   1      46.149  28.763  34.656  1.00  0.00     0.009 A 
ATOM     76  C   UNL A   1      45.003  26.674  35.062  1.00  0.00     0.009 A 
ATOM     77  C   UNL A   1      47.256  28.291  35.363  1.00  0.00     0.001 A 
ATOM     78  C   UNL A   1      46.098  26.216  35.796  1.00  0.00     0.001 A 
ATOM     79  C   UNL A   1      47.227  27.021  35.938  1.00  0.00     0.000 A 
ENDBRANCH  60  74
BRANCH  61  80
ATOM     80  C   UNL A   1      37.137  30.781  29.060  1.00  0.00    -0.014 A 
ATOM     81  C   UNL A   1      36.978  32.104  28.622  1.00  0.00     0.009 A 
ATOM     82  C   UNL A   1      36.122  29.849  28.788  1.00  0.00     0.009 A 
ATOM     83  C   UNL A   1      35.816  32.494  27.952  1.00  0.00     0.001 A 
ATOM     84  C   UNL A   1      34.971  30.237  28.099  1.00  0.00     0.001 A 
ATOM     85  C   UNL A   1      34.816  31.560  27.688  1.00  0.00     0.000 A 
ENDBRANCH  61  80
BRANCH  73  86
ATOM     86  C   UNL A   1      38.999  31.743  35.695  1.00  0.00    -0.014 A 
ATOM     87  C   UNL A   1      39.145  33.129  35.856  1.00  0.00     0.009 A 
ATOM     88  C   UNL A   1      38.188  31.037  36.599  1.00  0.00     0.009 A 
ATOM     89  C   UNL A   1      38.521  33.787  36.919  1.00  0.00     0.001 A 
ATOM     90  C   UNL A   1      37.537  31.702  37.640  1.00  0.00     0.001 A 
ATOM     91  C   UNL A   1      37.713  33.074  37.805  1.00  0.00     0.000 A 
ENDBRANCH  73  86
ENDBRANCH  47  48
ENDBRANCH  40  42
ENDBRANCH  39  40
ENDBRANCH  38  39
ENDBRANCH  37  38
ENDBRANCH  36  37
ENDBRANCH  35  36
ENDBRANCH  34  35
ENDBRANCH  33  34
ENDBRANCH   1  33
TORSDOF 25
ENDMDL
MODEL 3
REMARK VINA RESULT:      -9.6      6.385      8.590
REMARK SMILES CCN(CC)S(=O)(=O)c1ccc2nc(-c3ccncc3)cc(C(=O)OCCOCCOCCOCCOC(=O)c3ccc(-c4c5nc(c(-c6ccccc6)c6ccc([nH]6)c(-c6ccccc6)c6nc(c(-c7ccccc7)c7ccc4[nH]7)C=C6)C=C5)cc3)c2c1
REMARK SMILES IDX 30 1 29 2 28 3 27 4 26 5 25 6 23 7 24 8 22 9 9 10 10 11
REMARK SMILES IDX 89 12 11 13 88 14 12 15 13 16 21 17 14 18 6 19 7 20 8 21
REMARK SMILES IDX 3 22 2 23 1 24 4 25 5 26 15 27 16 28 20 29 17 30 19 31 18 32
REMARK SMILES IDX 31 33 32 34 33 35 34 36 35 37 36 38 37 39 38 40 39 41 40 42
REMARK SMILES IDX 41 43 87 44 42 45 86 46 43 47 44 48 45 49 80 50 46 51 85 52
REMARK SMILES IDX 79 53 81 54 47 55 84 56 78 57 77 58 48 60 70 61 55 62 69 63
REMARK SMILES IDX 56 64 59 65 68 66 82 67 57 68 58 69 67 71 83 72 60 73 49 74
REMARK SMILES IDX 50 75 54 76 51 77 53 78 52 79 71 80 72 81 76 82 73 83 75 84
REMARK SMILES IDX 74 85 61 86 62 87 66 88 63 89 65 90 64 91
REMARK H PARENT 81 59 59 70
REMARK Flexibility Score: inf
ROOT
ATOM      1  C   UNL A   1      41.421  20.709  27.404  1.00  0.00     0.188 C 
ENDROOT
BRANCH   1   2
ATOM      2  C   UNL A   1      40.655  21.256  26.174  1.00  0.00     0.188 C 
BRANCH   2   3
ATOM      3  O   UNL A   1      39.340  21.703  26.453  1.00  0.00    -0.376 OA
BRANCH   3   4
ATOM      4  C   UNL A   1      38.388  21.714  25.407  1.00  0.00     0.202 C 
BRANCH   4   5
ATOM      5  C   UNL A   1      36.928  21.946  25.808  1.00  0.00     0.261 C 
BRANCH   5   6
ATOM      6  O   UNL A   1      36.294  23.044  25.142  1.00  0.00    -0.460 OA
BRANCH   6   7
ATOM      7  C   UNL A   1      35.590  22.766  24.023  1.00  0.00     0.338 C 
ATOM      8  O   UNL A   1      35.978  22.898  22.876  1.00  0.00    -0.246 OA
BRANCH   7   9
ATOM      9  C   UNL A   1      34.344  22.057  24.405  1.00  0.00     0.071 A 
ATOM     10  C   UNL A   1      31.889  24.625  25.700  1.00  0.00     0.083 A 
ATOM     11  C   UNL A   1      30.838  23.777  26.033  1.00  0.00     0.024 A 
ATOM     12  C   UNL A   1      33.027  24.107  25.081  1.00  0.00     0.033 A 
ATOM     13  C   UNL A   1      30.963  22.406  25.804  1.00  0.00     0.030 A 
ATOM     14  C   UNL A   1      33.186  22.704  24.910  1.00  0.00     0.016 A 
ATOM     15  C   UNL A   1      32.126  21.853  25.289  1.00  0.00     0.072 A 
ATOM     16  N   UNL A   1      32.183  20.514  25.194  1.00  0.00    -0.248 NA
ATOM     17  C   UNL A   1      34.408  20.660  24.330  1.00  0.00     0.045 A 
ATOM     18  C   UNL A   1      33.311  19.929  24.743  1.00  0.00     0.072 A 
BRANCH  10  19
ATOM     19  S   UNL A   1      31.702  26.354  26.065  1.00  0.00     0.243 S 
ATOM     20  O   UNL A   1      32.975  26.831  26.563  1.00  0.00    -0.207 OA
ATOM     21  O   UNL A   1      30.515  26.419  26.890  1.00  0.00    -0.207 OA
BRANCH  19  22
ATOM     22  N   UNL A   1      31.395  27.165  24.583  1.00  0.00    -0.198 NA
BRANCH  22  23
ATOM     23  C   UNL A   1      32.603  27.753  23.907  1.00  0.00     0.099 C 
ATOM     24  C   UNL A   1      32.758  27.380  22.445  1.00  0.00     0.022 C 
ENDBRANCH  22  23
BRANCH  22  25
ATOM     25  C   UNL A   1      30.514  26.481  23.573  1.00  0.00     0.099 C 
ATOM     26  C   UNL A   1      29.036  26.448  23.921  1.00  0.00     0.022 C 
ENDBRANCH  22  25
ENDBRANCH  19  22
ENDBRANCH  10  19
BRANCH  18  27
ATOM     27  C   UNL A   1      33.293  18.467  24.697  1.00  0.00     0.003 A 
ATOM     28  C   UNL A   1      32.781  17.740  25.776  1.00  0.00     0.030 A 
ATOM     29  C   UNL A   1      33.771  17.758  23.590  1.00  0.00     0.030 A 
ATOM     30  C   UNL A   1      32.743  16.358  25.692  1.00  0.00     0.111 A 
ATOM     31  C   UNL A   1      33.697  16.373  23.602  1.00  0.00     0.111 A 
ATOM     32  N   UNL A   1      33.182  15.659  24.626  1.00  0.00    -0.265 NA
ENDBRANCH  18  27
ENDBRANCH   7   9
ENDBRANCH   6   7
ENDBRANCH   5   6
ENDBRANCH   4   5
ENDBRANCH   3   4
ENDBRANCH   2   3
ENDBRANCH   1   2
BRANCH   1  33
ATOM     33  O   UNL A   1      42.099  19.455  27.374  1.00  0.00    -0.377 OA
BRANCH  33  34
ATOM     34  C   UNL A   1      42.251  18.758  26.144  1.00  0.00     0.188 C 
BRANCH  34  35
ATOM     35  C   UNL A   1      43.653  18.631  25.515  1.00  0.00     0.188 C 
BRANCH  35  36
ATOM     36  O   UNL A   1      43.817  19.417  24.347  1.00  0.00    -0.376 OA
BRANCH  36  37
ATOM     37  C   UNL A   1      44.541  20.628  24.460  1.00  0.00     0.202 C 
BRANCH  37  38
ATOM     38  C   UNL A   1      45.172  20.995  25.813  1.00  0.00     0.261 C 
BRANCH  38  39
ATOM     39  O   UNL A   1      45.558  22.364  26.007  1.00  0.00    -0.460 OA
BRANCH  39  40
ATOM     40  C   UNL A   1      44.886  23.082  26.930  1.00  0.00     0.338 C 
ATOM     41  O   UNL A   1      44.147  22.658  27.804  1.00  0.00    -0.246 OA
BRANCH  40  42
ATOM     42  C   UNL A   1      45.342  24.483  26.818  1.00  0.00     0.060 A 
ATOM     43  C   UNL A   1      45.328  25.113  25.565  1.00  0.00     0.016 A 
ATOM     44  C   UNL A   1      45.769  25.177  27.952  1.00  0.00     0.016 A 
ATOM     45  C   UNL A   1      45.769  26.432  25.441  1.00  0.00     0.010 A 
ATOM     46  C   UNL A   1      46.230  26.489  27.822  1.00  0.00     0.010 A 
ATOM     47  C   UNL A   1      46.262  27.112  26.561  1.00  0.00    -0.014 A 
BRANCH  47  48
ATOM     48  C   UNL A   1      46.993  28.391  26.391  1.00  0.00     0.031 A 
ATOM     49  C   UNL A   1      48.477  28.338  26.149  1.00  0.00     0.074 A 
ATOM     50  C   UNL A   1      46.362  29.578  26.438  1.00  0.00     0.049 A 
ATOM     51  N   UNL A   1      49.334  29.319  26.021  1.00  0.00    -0.248 NA
ATOM     52  C   UNL A   1      49.072  26.997  26.031  1.00  0.00     0.031 C 
ATOM     53  C   UNL A   1      44.922  29.771  26.598  1.00  0.00     0.029 A 
ATOM     54  N   UNL A   1      46.865  30.853  26.364  1.00  0.00    -0.354 N 
ATOM     55  C   UNL A   1      50.567  28.713  25.811  1.00  0.00     0.074 A 
ATOM     56  C   UNL A   1      50.354  27.284  25.865  1.00  0.00     0.031 C 
ATOM     57  C   UNL A   1      44.660  31.090  26.640  1.00  0.00     0.029 A 
ATOM     58  C   UNL A   1      45.915  31.830  26.535  1.00  0.00     0.049 A 
ATOM     59  H   UNL A   1      47.816  31.049  26.205  1.00  0.00     0.167 HD
ATOM     60  C   UNL A   1      51.769  29.293  25.587  1.00  0.00     0.031 A 
ATOM     61  C   UNL A   1      46.047  33.168  26.619  1.00  0.00     0.031 A 
ATOM     62  C   UNL A   1      51.988  30.714  25.558  1.00  0.00     0.049 A 
ATOM     63  C   UNL A   1      47.412  33.788  26.476  1.00  0.00     0.074 A 
ATOM     64  C   UNL A   1      53.166  31.400  25.322  1.00  0.00     0.029 A 
ATOM     65  N   UNL A   1      51.008  31.667  25.787  1.00  0.00    -0.354 N 
ATOM     66  N   UNL A   1      48.564  33.207  26.244  1.00  0.00    -0.248 NA
ATOM     67  C   UNL A   1      47.489  35.251  26.592  1.00  0.00     0.031 C 
ATOM     68  C   UNL A   1      52.913  32.767  25.477  1.00  0.00     0.029 A 
ATOM     69  C   UNL A   1      51.562  32.935  25.735  1.00  0.00     0.049 A 
ATOM     70  H   UNL A   1      50.058  31.471  25.961  1.00  0.00     0.167 HD
ATOM     71  C   UNL A   1      49.496  34.236  26.154  1.00  0.00     0.074 A 
ATOM     72  C   UNL A   1      48.771  35.475  26.341  1.00  0.00     0.031 C 
ATOM     73  C   UNL A   1      50.831  34.160  25.929  1.00  0.00     0.031 A 
BRANCH  60  74
ATOM     74  C   UNL A   1      52.952  28.383  25.396  1.00  0.00    -0.014 A 
ATOM     75  C   UNL A   1      53.329  27.928  24.123  1.00  0.00     0.009 A 
ATOM     76  C   UNL A   1      53.716  27.997  26.508  1.00  0.00     0.009 A 
ATOM     77  C   UNL A   1      54.425  27.076  23.971  1.00  0.00     0.001 A 
ATOM     78  C   UNL A   1      54.831  27.171  26.350  1.00  0.00     0.001 A 
ATOM     79  C   UNL A   1      55.178  26.704  25.084  1.00  0.00     0.000 A 
ENDBRANCH  60  74
BRANCH  61  80
ATOM     80  C   UNL A   1      44.859  34.026  26.870  1.00  0.00    -0.014 A 
ATOM     81  C   UNL A   1      44.427  34.285  28.179  1.00  0.00     0.009 A 
ATOM     82  C   UNL A   1      44.125  34.553  25.796  1.00  0.00     0.009 A 
ATOM     83  C   UNL A   1      43.268  35.031  28.408  1.00  0.00     0.001 A 
ATOM     84  C   UNL A   1      42.980  35.317  26.028  1.00  0.00     0.001 A 
ATOM     85  C   UNL A   1      42.548  35.549  27.332  1.00  0.00     0.000 A 
ENDBRANCH  61  80
BRANCH  73  86
ATOM     86  C   UNL A   1      51.590  35.455  25.834  1.00  0.00    -0.014 A 
ATOM     87  C   UNL A   1      52.137  36.070  26.970  1.00  0.00     0.009 A 
ATOM     88  C   UNL A   1      51.800  36.044  24.576  1.00  0.00     0.009 A 
ATOM     89  C   UNL A   1      52.846  37.268  26.853  1.00  0.00     0.001 A 
ATOM     90  C   UNL A   1      52.540  37.222  24.458  1.00  0.00     0.001 A 
ATOM     91  C   UNL A   1      53.053  37.839  25.597  1.00  0.00     0.000 A 
ENDBRANCH  73  86
ENDBRANCH  47  48
ENDBRANCH  40  42
ENDBRANCH  39  40
ENDBRANCH  38  39
ENDBRANCH  37  38
ENDBRANCH  36  37
ENDBRANCH  35  36
ENDBRANCH  34  35
ENDBRANCH  33  34
ENDBRANCH   1  33
TORSDOF 25
ENDMDL
