MODEL 1
REMARK VINA RESULT:     -10.1      0.000      0.000
REMARK SMILES Cc1c(CC(=O)OCCOCCOCCOCCOC(=O)c2ccc(-c3c4nc(c(-c5ccccc5)c5ccc([nH]5)c(-c5ccccc5)c5nc(c(-c6ccccc6)c6ccc3[nH]6)C=C5)C=C4)cc2)c2ccccc2n1C(=O)c1ccc(Cl)cc1
REMARK SMILES IDX 12 1 11 2 10 3 9 4 8 5 7 6 5 7 6 8 4 9 3 10 1 11 2 12 76 13
REMARK SMILES IDX 70 14 75 15 71 16 74 17 72 18 73 19 77 20 78 21 79 22 80 23
REMARK SMILES IDX 85 24 81 25 84 26 82 27 83 28 13 29 14 30 15 31 16 32 17 33
REMARK SMILES IDX 18 34 19 35 20 36 21 37 22 38 23 39 69 40 24 41 68 42 25 43
REMARK SMILES IDX 26 44 27 45 62 46 28 47 67 48 61 49 63 50 29 51 66 52 60 53
REMARK SMILES IDX 59 54 30 56 52 57 37 58 51 59 38 60 41 61 50 62 64 63 39 64
REMARK SMILES IDX 40 65 49 67 65 68 42 69 31 70 32 71 36 72 33 73 35 74 34 75
REMARK SMILES IDX 53 76 54 77 58 78 55 79 57 80 56 81 43 82 44 83 48 84 45 85
REMARK SMILES IDX 47 86 46 87
REMARK H PARENT 63 55 41 66
REMARK Flexibility Score: inf
ROOT
ATOM      1  C   UNL A   1      39.425  22.597  26.803  1.00  0.00     0.188 C 
ENDROOT
BRANCH   1   2
ATOM      2  C   UNL A   1      38.733  23.878  26.339  1.00  0.00     0.188 C 
BRANCH   2   3
ATOM      3  O   UNL A   1      37.353  23.745  26.080  1.00  0.00    -0.376 OA
BRANCH   3   4
ATOM      4  C   UNL A   1      36.848  22.769  25.185  1.00  0.00     0.202 C 
BRANCH   4   5
ATOM      5  C   UNL A   1      35.407  22.746  24.633  1.00  0.00     0.261 C 
BRANCH   5   6
ATOM      6  O   UNL A   1      34.394  22.054  25.378  1.00  0.00    -0.463 OA
BRANCH   6   7
ATOM      7  C   UNL A   1      33.722  21.046  24.780  1.00  0.00     0.310 C 
ATOM      8  O   UNL A   1      34.205  19.929  24.615  1.00  0.00    -0.252 OA
BRANCH   7   9
ATOM      9  C   UNL A   1      32.293  21.379  24.348  1.00  0.00     0.160 C 
BRANCH   9  10
ATOM     10  C   UNL A   1      31.877  22.822  24.116  1.00  0.00    -0.008 A 
ATOM     11  C   UNL A   1      30.523  23.255  26.277  1.00  0.00     0.065 C 
ATOM     12  C   UNL A   1      31.104  23.624  24.949  1.00  0.00     0.028 A 
ATOM     13  N   UNL A   1      30.971  24.904  24.380  1.00  0.00    -0.280 N 
ATOM     14  C   UNL A   1      32.286  23.658  23.025  1.00  0.00     0.004 A 
ATOM     15  C   UNL A   1      31.588  24.869  23.118  1.00  0.00     0.056 A 
ATOM     16  C   UNL A   1      33.133  23.448  21.907  1.00  0.00     0.010 A 
ATOM     17  C   UNL A   1      31.634  25.798  22.054  1.00  0.00     0.027 A 
ATOM     18  C   UNL A   1      33.173  24.377  20.861  1.00  0.00     0.001 A 
ATOM     19  C   UNL A   1      32.408  25.527  20.925  1.00  0.00     0.002 A 
BRANCH  13  20
ATOM     20  C   UNL A   1      30.375  26.048  24.994  1.00  0.00     0.262 C 
ATOM     21  O   UNL A   1      29.154  26.083  25.140  1.00  0.00    -0.268 OA
BRANCH  20  22
ATOM     22  C   UNL A   1      31.118  27.201  25.535  1.00  0.00     0.040 A 
ATOM     23  C   UNL A   1      31.625  27.153  26.839  1.00  0.00     0.015 A 
ATOM     24  C   UNL A   1      31.274  28.348  24.748  1.00  0.00     0.015 A 
ATOM     25  C   UNL A   1      32.227  28.291  27.383  1.00  0.00     0.021 A 
ATOM     26  C   UNL A   1      31.883  29.481  25.297  1.00  0.00     0.021 A 
ATOM     27  C   UNL A   1      32.341  29.452  26.616  1.00  0.00     0.041 A 
ATOM     28  Cl  UNL A   1      33.029  30.869  27.308  1.00  0.00    -0.084 Cl
ENDBRANCH  20  22
ENDBRANCH  13  20
ENDBRANCH   9  10
ENDBRANCH   7   9
ENDBRANCH   6   7
ENDBRANCH   5   6
ENDBRANCH   4   5
ENDBRANCH   3   4
ENDBRANCH   2   3
ENDBRANCH   1   2
BRANCH   1  29
ATOM     29  O   UNL A   1      40.608  22.100  26.234  1.00  0.00    -0.377 OA
BRANCH  29  30
ATOM     30  C   UNL A   1      41.512  21.444  27.072  1.00  0.00     0.188 C 
BRANCH  30  31
ATOM     31  C   UNL A   1      41.296  19.932  27.161  1.00  0.00     0.188 C 
BRANCH  31  32
ATOM     32  O   UNL A   1      41.578  19.059  26.072  1.00  0.00    -0.376 OA
BRANCH  32  33
ATOM     33  C   UNL A   1      42.843  18.431  25.924  1.00  0.00     0.202 C 
BRANCH  33  34
ATOM     34  C   UNL A   1      43.986  19.123  25.153  1.00  0.00     0.261 C 
BRANCH  34  35
ATOM     35  O   UNL A   1      44.197  20.490  25.507  1.00  0.00    -0.460 OA
BRANCH  35  36
ATOM     36  C   UNL A   1      44.623  21.338  24.532  1.00  0.00     0.338 C 
ATOM     37  O   UNL A   1      44.713  21.139  23.348  1.00  0.00    -0.246 OA
BRANCH  36  38
ATOM     38  C   UNL A   1      44.627  22.669  25.182  1.00  0.00     0.060 A 
ATOM     39  C   UNL A   1      45.344  22.892  26.362  1.00  0.00     0.016 A 
ATOM     40  C   UNL A   1      43.607  23.537  24.776  1.00  0.00     0.016 A 
ATOM     41  C   UNL A   1      44.934  23.921  27.207  1.00  0.00     0.010 A 
ATOM     42  C   UNL A   1      43.177  24.538  25.641  1.00  0.00     0.010 A 
ATOM     43  C   UNL A   1      43.812  24.704  26.874  1.00  0.00    -0.014 A 
BRANCH  43  44
ATOM     44  C   UNL A   1      43.524  25.885  27.696  1.00  0.00     0.031 A 
ATOM     45  C   UNL A   1      44.550  26.947  27.517  1.00  0.00     0.074 A 
ATOM     46  C   UNL A   1      42.390  26.148  28.377  1.00  0.00     0.049 A 
ATOM     47  N   UNL A   1      45.222  27.578  28.423  1.00  0.00    -0.248 NA
ATOM     48  C   UNL A   1      44.944  27.257  26.130  1.00  0.00     0.031 C 
ATOM     49  C   UNL A   1      41.164  25.351  28.403  1.00  0.00     0.029 A 
ATOM     50  N   UNL A   1      42.052  27.267  29.099  1.00  0.00    -0.354 N 
ATOM     51  C   UNL A   1      46.023  28.472  27.721  1.00  0.00     0.074 A 
ATOM     52  C   UNL A   1      45.930  28.127  26.327  1.00  0.00     0.031 C 
ATOM     53  C   UNL A   1      40.162  26.093  28.925  1.00  0.00     0.029 A 
ATOM     54  C   UNL A   1      40.685  27.392  29.325  1.00  0.00     0.049 A 
ATOM     55  H   UNL A   1      42.713  27.919  29.425  1.00  0.00     0.167 HD
ATOM     56  C   UNL A   1      46.544  29.589  28.288  1.00  0.00     0.031 A 
ATOM     57  C   UNL A   1      40.006  28.502  29.715  1.00  0.00     0.031 A 
ATOM     58  C   UNL A   1      46.595  29.511  29.718  1.00  0.00     0.049 A 
ATOM     59  C   UNL A   1      40.968  29.459  30.305  1.00  0.00     0.074 A 
ATOM     60  C   UNL A   1      47.215  28.663  30.614  1.00  0.00     0.029 A 
ATOM     61  N   UNL A   1      45.654  30.207  30.432  1.00  0.00    -0.354 N 
ATOM     62  N   UNL A   1      41.547  29.297  31.458  1.00  0.00    -0.248 NA
ATOM     63  C   UNL A   1      41.556  30.480  29.452  1.00  0.00     0.031 C 
ATOM     64  C   UNL A   1      46.335  28.584  31.727  1.00  0.00     0.029 A 
ATOM     65  C   UNL A   1      45.237  29.407  31.466  1.00  0.00     0.049 A 
ATOM     66  H   UNL A   1      45.333  31.117  30.238  1.00  0.00     0.167 HD
ATOM     67  C   UNL A   1      42.803  29.858  31.300  1.00  0.00     0.074 A 
ATOM     68  C   UNL A   1      42.697  30.694  30.110  1.00  0.00     0.031 C 
ATOM     69  C   UNL A   1      43.882  29.363  31.974  1.00  0.00     0.031 A 
BRANCH  56  70
ATOM     70  C   UNL A   1      46.679  30.872  27.517  1.00  0.00    -0.014 A 
ATOM     71  C   UNL A   1      45.564  31.636  27.113  1.00  0.00     0.009 A 
ATOM     72  C   UNL A   1      47.940  31.468  27.381  1.00  0.00     0.009 A 
ATOM     73  C   UNL A   1      45.694  32.910  26.560  1.00  0.00     0.001 A 
ATOM     74  C   UNL A   1      48.071  32.767  26.874  1.00  0.00     0.001 A 
ATOM     75  C   UNL A   1      46.951  33.483  26.459  1.00  0.00     0.000 A 
ENDBRANCH  56  70
BRANCH  57  76
ATOM     76  C   UNL A   1      38.614  28.900  29.389  1.00  0.00    -0.014 A 
ATOM     77  C   UNL A   1      38.256  29.248  28.074  1.00  0.00     0.009 A 
ATOM     78  C   UNL A   1      37.684  29.184  30.406  1.00  0.00     0.009 A 
ATOM     79  C   UNL A   1      37.042  29.877  27.784  1.00  0.00     0.001 A 
ATOM     80  C   UNL A   1      36.471  29.829  30.118  1.00  0.00     0.001 A 
ATOM     81  C   UNL A   1      36.156  30.185  28.809  1.00  0.00     0.000 A 
ENDBRANCH  57  76
BRANCH  69  82
ATOM     82  C   UNL A   1      43.635  28.437  33.144  1.00  0.00    -0.014 A 
ATOM     83  C   UNL A   1      43.712  28.967  34.442  1.00  0.00     0.009 A 
ATOM     84  C   UNL A   1      43.497  27.044  33.005  1.00  0.00     0.009 A 
ATOM     85  C   UNL A   1      43.664  28.135  35.563  1.00  0.00     0.001 A 
ATOM     86  C   UNL A   1      43.418  26.214  34.127  1.00  0.00     0.001 A 
ATOM     87  C   UNL A   1      43.513  26.759  35.406  1.00  0.00     0.000 A 
ENDBRANCH  69  82
ENDBRANCH  43  44
ENDBRANCH  36  38
ENDBRANCH  35  36
ENDBRANCH  34  35
ENDBRANCH  33  34
ENDBRANCH  32  33
ENDBRANCH  31  32
ENDBRANCH  30  31
ENDBRANCH  29  30
ENDBRANCH   1  29
TORSDOF 23
ENDMDL
MODEL 2
REMARK VINA RESULT:      -9.5      3.887      9.335
REMARK SMILES Cc1c(CC(=O)OCCOCCOCCOCCOC(=O)c2ccc(-c3c4nc(c(-c5ccccc5)c5ccc([nH]5)c(-c5ccccc5)c5nc(c(-c6ccccc6)c6ccc3[nH]6)C=C5)C=C4)cc2)c2ccccc2n1C(=O)c1ccc(Cl)cc1
REMARK SMILES IDX 12 1 11 2 10 3 9 4 8 5 7 6 5 7 6 8 4 9 3 10 1 11 2 12 76 13
REMARK SMILES IDX 70 14 75 15 71 16 74 17 72 18 73 19 77 20 78 21 79 22 80 23
REMARK SMILES IDX 85 24 81 25 84 26 82 27 83 28 13 29 14 30 15 31 16 32 17 33
REMARK SMILES IDX 18 34 19 35 20 36 21 37 22 38 23 39 69 40 24 41 68 42 25 43
REMARK SMILES IDX 26 44 27 45 62 46 28 47 67 48 61 49 63 50 29 51 66 52 60 53
REMARK SMILES IDX 59 54 30 56 52 57 37 58 51 59 38 60 41 61 50 62 64 63 39 64
REMARK SMILES IDX 40 65 49 67 65 68 42 69 31 70 32 71 36 72 33 73 35 74 34 75
REMARK SMILES IDX 53 76 54 77 58 78 55 79 57 80 56 81 43 82 44 83 48 84 45 85
REMARK SMILES IDX 47 86 46 87
REMARK H PARENT 63 55 41 66
REMARK Flexibility Score: inf
ROOT
ATOM      1  C   UNL A   1      34.725  31.740  27.917  1.00  0.00     0.188 C 
ENDROOT
BRANCH   1   2
ATOM      2  C   UNL A   1      33.434  31.051  27.480  1.00  0.00     0.188 C 
BRANCH   2   3
ATOM      3  O   UNL A   1      33.496  29.642  27.447  1.00  0.00    -0.376 OA
BRANCH   3   4
ATOM      4  C   UNL A   1      33.928  28.937  26.296  1.00  0.00     0.202 C 
BRANCH   4   5
ATOM      5  C   UNL A   1      33.044  28.634  25.068  1.00  0.00     0.261 C 
BRANCH   5   6
ATOM      6  O   UNL A   1      31.649  28.970  25.122  1.00  0.00    -0.463 OA
BRANCH   6   7
ATOM      7  C   UNL A   1      30.851  28.598  24.099  1.00  0.00     0.310 C 
ATOM      8  O   UNL A   1      30.642  29.315  23.123  1.00  0.00    -0.252 OA
BRANCH   7   9
ATOM      9  C   UNL A   1      30.243  27.201  24.218  1.00  0.00     0.160 C 
BRANCH   9  10
ATOM     10  C   UNL A   1      31.098  25.968  23.976  1.00  0.00    -0.008 A 
ATOM     11  C   UNL A   1      31.101  24.948  26.353  1.00  0.00     0.065 C 
ATOM     12  C   UNL A   1      31.474  25.004  24.905  1.00  0.00     0.028 A 
ATOM     13  N   UNL A   1      32.244  24.013  24.270  1.00  0.00    -0.280 N 
ATOM     14  C   UNL A   1      31.605  25.522  22.711  1.00  0.00     0.004 A 
ATOM     15  C   UNL A   1      32.440  24.421  22.940  1.00  0.00     0.056 A 
ATOM     16  C   UNL A   1      31.492  26.024  21.389  1.00  0.00     0.010 A 
ATOM     17  C   UNL A   1      33.245  23.912  21.895  1.00  0.00     0.027 A 
ATOM     18  C   UNL A   1      32.292  25.509  20.363  1.00  0.00     0.001 A 
ATOM     19  C   UNL A   1      33.179  24.481  20.623  1.00  0.00     0.002 A 
BRANCH  13  20
ATOM     20  C   UNL A   1      32.695  22.787  24.849  1.00  0.00     0.262 C 
ATOM     21  O   UNL A   1      31.874  21.904  25.100  1.00  0.00    -0.268 OA
BRANCH  20  22
ATOM     22  C   UNL A   1      34.102  22.451  25.131  1.00  0.00     0.040 A 
ATOM     23  C   UNL A   1      34.978  23.447  25.580  1.00  0.00     0.015 A 
ATOM     24  C   UNL A   1      34.555  21.146  24.907  1.00  0.00     0.015 A 
ATOM     25  C   UNL A   1      36.335  23.147  25.735  1.00  0.00     0.021 A 
ATOM     26  C   UNL A   1      35.912  20.852  25.071  1.00  0.00     0.021 A 
ATOM     27  C   UNL A   1      36.798  21.857  25.467  1.00  0.00     0.041 A 
ATOM     28  Cl  UNL A   1      38.477  21.507  25.602  1.00  0.00    -0.084 Cl
ENDBRANCH  20  22
ENDBRANCH  13  20
ENDBRANCH   9  10
ENDBRANCH   7   9
ENDBRANCH   6   7
ENDBRANCH   5   6
ENDBRANCH   4   5
ENDBRANCH   3   4
ENDBRANCH   2   3
ENDBRANCH   1   2
BRANCH   1  29
ATOM     29  O   UNL A   1      35.026  33.082  27.640  1.00  0.00    -0.377 OA
BRANCH  29  30
ATOM     30  C   UNL A   1      35.120  33.968  28.714  1.00  0.00     0.188 C 
BRANCH  30  31
ATOM     31  C   UNL A   1      33.835  34.750  28.992  1.00  0.00     0.188 C 
BRANCH  31  32
ATOM     32  O   UNL A   1      33.824  36.166  29.144  1.00  0.00    -0.376 OA
BRANCH  32  33
ATOM     33  C   UNL A   1      33.040  36.807  30.139  1.00  0.00     0.202 C 
BRANCH  33  34
ATOM     34  C   UNL A   1      32.902  36.201  31.551  1.00  0.00     0.261 C 
BRANCH  34  35
ATOM     35  O   UNL A   1      34.090  35.587  32.051  1.00  0.00    -0.460 OA
BRANCH  35  36
ATOM     36  C   UNL A   1      33.960  34.415  32.729  1.00  0.00     0.338 C 
ATOM     37  O   UNL A   1      32.952  33.842  33.055  1.00  0.00    -0.246 OA
BRANCH  36  38
ATOM     38  C   UNL A   1      35.312  33.814  32.682  1.00  0.00     0.060 A 
ATOM     39  C   UNL A   1      36.424  34.571  32.295  1.00  0.00     0.016 A 
ATOM     40  C   UNL A   1      35.347  32.414  32.672  1.00  0.00     0.016 A 
ATOM     41  C   UNL A   1      37.529  33.909  31.763  1.00  0.00     0.010 A 
ATOM     42  C   UNL A   1      36.436  31.761  32.105  1.00  0.00     0.010 A 
ATOM     43  C   UNL A   1      37.509  32.509  31.612  1.00  0.00    -0.014 A 
BRANCH  43  44
ATOM     44  C   UNL A   1      38.753  31.837  31.219  1.00  0.00     0.031 A 
ATOM     45  C   UNL A   1      39.711  31.739  32.351  1.00  0.00     0.074 A 
ATOM     46  C   UNL A   1      38.992  31.170  30.071  1.00  0.00     0.049 A 
ATOM     47  N   UNL A   1      40.954  32.090  32.388  1.00  0.00    -0.248 NA
ATOM     48  C   UNL A   1      39.162  31.285  33.643  1.00  0.00     0.031 C 
ATOM     49  C   UNL A   1      38.050  30.907  28.984  1.00  0.00     0.029 A 
ATOM     50  N   UNL A   1      40.112  30.471  29.692  1.00  0.00    -0.354 N 
ATOM     51  C   UNL A   1      41.384  31.766  33.669  1.00  0.00     0.074 A 
ATOM     52  C   UNL A   1      40.216  31.425  34.439  1.00  0.00     0.031 C 
ATOM     53  C   UNL A   1      38.559  29.950  28.176  1.00  0.00     0.029 A 
ATOM     54  C   UNL A   1      39.884  29.577  28.650  1.00  0.00     0.049 A 
ATOM     55  H   UNL A   1      40.992  30.590  30.116  1.00  0.00     0.167 HD
ATOM     56  C   UNL A   1      42.691  31.572  33.976  1.00  0.00     0.031 A 
ATOM     57  C   UNL A   1      40.669  28.540  28.260  1.00  0.00     0.031 A 
ATOM     58  C   UNL A   1      43.577  32.180  33.028  1.00  0.00     0.049 A 
ATOM     59  C   UNL A   1      42.030  28.749  28.802  1.00  0.00     0.074 A 
ATOM     60  C   UNL A   1      43.781  33.474  32.594  1.00  0.00     0.029 A 
ATOM     61  N   UNL A   1      44.199  31.363  32.118  1.00  0.00    -0.354 N 
ATOM     62  N   UNL A   1      42.857  29.656  28.372  1.00  0.00    -0.248 NA
ATOM     63  C   UNL A   1      42.378  28.145  30.079  1.00  0.00     0.031 C 
ATOM     64  C   UNL A   1      44.150  33.357  31.225  1.00  0.00     0.029 A 
ATOM     65  C   UNL A   1      44.178  31.999  30.902  1.00  0.00     0.049 A 
ATOM     66  H   UNL A   1      44.592  30.479  32.303  1.00  0.00     0.167 HD
ATOM     67  C   UNL A   1      43.562  30.047  29.498  1.00  0.00     0.074 A 
ATOM     68  C   UNL A   1      43.333  28.990  30.475  1.00  0.00     0.031 C 
ATOM     69  C   UNL A   1      44.020  31.327  29.629  1.00  0.00     0.031 A 
BRANCH  56  70
ATOM     70  C   UNL A   1      43.120  30.529  34.970  1.00  0.00    -0.014 A 
ATOM     71  C   UNL A   1      42.772  29.167  34.839  1.00  0.00     0.009 A 
ATOM     72  C   UNL A   1      44.083  30.847  35.936  1.00  0.00     0.009 A 
ATOM     73  C   UNL A   1      43.317  28.177  35.655  1.00  0.00     0.001 A 
ATOM     74  C   UNL A   1      44.671  29.849  36.723  1.00  0.00     0.001 A 
ATOM     75  C   UNL A   1      44.284  28.518  36.586  1.00  0.00     0.000 A 
ENDBRANCH  56  70
BRANCH  57  76
ATOM     76  C   UNL A   1      40.265  27.246  27.654  1.00  0.00    -0.014 A 
ATOM     77  C   UNL A   1      39.465  26.338  28.370  1.00  0.00     0.009 A 
ATOM     78  C   UNL A   1      40.863  26.783  26.468  1.00  0.00     0.009 A 
ATOM     79  C   UNL A   1      39.291  25.017  27.943  1.00  0.00     0.001 A 
ATOM     80  C   UNL A   1      40.701  25.454  26.048  1.00  0.00     0.001 A 
ATOM     81  C   UNL A   1      39.925  24.569  26.792  1.00  0.00     0.000 A 
ENDBRANCH  57  76
BRANCH  69  82
ATOM     82  C   UNL A   1      44.055  32.206  28.399  1.00  0.00    -0.014 A 
ATOM     83  C   UNL A   1      44.904  31.841  27.342  1.00  0.00     0.009 A 
ATOM     84  C   UNL A   1      43.410  33.454  28.328  1.00  0.00     0.009 A 
ATOM     85  C   UNL A   1      45.112  32.695  26.257  1.00  0.00     0.001 A 
ATOM     86  C   UNL A   1      43.593  34.296  27.227  1.00  0.00     0.001 A 
ATOM     87  C   UNL A   1      44.454  33.921  26.197  1.00  0.00     0.000 A 
ENDBRANCH  69  82
ENDBRANCH  43  44
ENDBRANCH  36  38
ENDBRANCH  35  36
ENDBRANCH  34  35
ENDBRANCH  33  34
ENDBRANCH  32  33
ENDBRANCH  31  32
ENDBRANCH  30  31
ENDBRANCH  29  30
ENDBRANCH   1  29
TORSDOF 23
ENDMDL
MODEL 3
REMARK VINA RESULT:      -9.0      1.775      5.008
REMARK SMILES Cc1c(CC(=O)OCCOCCOCCOCCOC(=O)c2ccc(-c3c4nc(c(-c5ccccc5)c5ccc([nH]5)c(-c5ccccc5)c5nc(c(-c6ccccc6)c6ccc3[nH]6)C=C5)C=C4)cc2)c2ccccc2n1C(=O)c1ccc(Cl)cc1
REMARK SMILES IDX 12 1 11 2 10 3 9 4 8 5 7 6 5 7 6 8 4 9 3 10 1 11 2 12 76 13
REMARK SMILES IDX 70 14 75 15 71 16 74 17 72 18 73 19 77 20 78 21 79 22 80 23
REMARK SMILES IDX 85 24 81 25 84 26 82 27 83 28 13 29 14 30 15 31 16 32 17 33
REMARK SMILES IDX 18 34 19 35 20 36 21 37 22 38 23 39 69 40 24 41 68 42 25 43
REMARK SMILES IDX 26 44 27 45 62 46 28 47 67 48 61 49 63 50 29 51 66 52 60 53
REMARK SMILES IDX 59 54 30 56 52 57 37 58 51 59 38 60 41 61 50 62 64 63 39 64
REMARK SMILES IDX 40 65 49 67 65 68 42 69 31 70 32 71 36 72 33 73 35 74 34 75
REMARK SMILES IDX 53 76 54 77 58 78 55 79 57 80 56 81 43 82 44 83 48 84 45 85
REMARK SMILES IDX 47 86 46 87
REMARK H PARENT 63 55 41 66
REMARK Flexibility Score: inf
ROOT
ATOM      1  C   UNL A   1      39.650  22.334  26.761  1.00  0.00     0.188 C 
ENDROOT
BRANCH   1   2
ATOM      2  C   UNL A   1      38.761  23.534  26.443  1.00  0.00     0.188 C 
BRANCH   2   3
ATOM      3  O   UNL A   1      37.425  23.213  26.123  1.00  0.00    -0.376 OA
BRANCH   3   4
ATOM      4  C   UNL A   1      37.038  21.903  25.745  1.00  0.00     0.202 C 
BRANCH   4   5
ATOM      5  C   UNL A   1      36.031  21.575  24.622  1.00  0.00     0.261 C 
BRANCH   5   6
ATOM      6  O   UNL A   1      34.687  22.066  24.735  1.00  0.00    -0.463 OA
BRANCH   6   7
ATOM      7  C   UNL A   1      33.670  21.178  24.771  1.00  0.00     0.310 C 
ATOM      8  O   UNL A   1      33.693  20.168  25.470  1.00  0.00    -0.252 OA
BRANCH   7   9
ATOM      9  C   UNL A   1      32.464  21.529  23.901  1.00  0.00     0.160 C 
BRANCH   9  10
ATOM     10  C   UNL A   1      31.964  22.962  23.823  1.00  0.00    -0.008 A 
ATOM     11  C   UNL A   1      30.780  23.152  26.115  1.00  0.00     0.065 C 
ATOM     12  C   UNL A   1      31.228  23.654  24.779  1.00  0.00     0.028 A 
ATOM     13  N   UNL A   1      30.989  24.966  24.331  1.00  0.00    -0.280 N 
ATOM     14  C   UNL A   1      32.239  23.901  22.775  1.00  0.00     0.004 A 
ATOM     15  C   UNL A   1      31.497  25.063  23.024  1.00  0.00     0.056 A 
ATOM     16  C   UNL A   1      32.996  23.825  21.578  1.00  0.00     0.010 A 
ATOM     17  C   UNL A   1      31.409  26.073  22.040  1.00  0.00     0.027 A 
ATOM     18  C   UNL A   1      32.904  24.834  20.613  1.00  0.00     0.001 A 
ATOM     19  C   UNL A   1      32.096  25.934  20.833  1.00  0.00     0.002 A 
BRANCH  13  20
ATOM     20  C   UNL A   1      30.396  26.026  25.083  1.00  0.00     0.262 C 
ATOM     21  O   UNL A   1      29.207  25.952  25.390  1.00  0.00    -0.268 OA
BRANCH  20  22
ATOM     22  C   UNL A   1      31.115  27.210  25.589  1.00  0.00     0.040 A 
ATOM     23  C   UNL A   1      31.684  27.184  26.868  1.00  0.00     0.015 A 
ATOM     24  C   UNL A   1      31.185  28.361  24.796  1.00  0.00     0.015 A 
ATOM     25  C   UNL A   1      32.263  28.348  27.383  1.00  0.00     0.021 A 
ATOM     26  C   UNL A   1      31.771  29.519  25.316  1.00  0.00     0.021 A 
ATOM     27  C   UNL A   1      32.292  29.511  26.612  1.00  0.00     0.041 A 
ATOM     28  Cl  UNL A   1      32.953  30.957  27.272  1.00  0.00    -0.084 Cl
ENDBRANCH  20  22
ENDBRANCH  13  20
ENDBRANCH   9  10
ENDBRANCH   7   9
ENDBRANCH   6   7
ENDBRANCH   5   6
ENDBRANCH   4   5
ENDBRANCH   3   4
ENDBRANCH   2   3
ENDBRANCH   1   2
BRANCH   1  29
ATOM     29  O   UNL A   1      40.585  21.796  25.863  1.00  0.00    -0.377 OA
BRANCH  29  30
ATOM     30  C   UNL A   1      41.941  21.969  26.147  1.00  0.00     0.188 C 
BRANCH  30  31
ATOM     31  C   UNL A   1      42.738  20.664  26.201  1.00  0.00     0.188 C 
BRANCH  31  32
ATOM     32  O   UNL A   1      43.334  20.089  25.043  1.00  0.00    -0.376 OA
BRANCH  32  33
ATOM     33  C   UNL A   1      44.720  19.785  24.987  1.00  0.00     0.202 C 
BRANCH  33  34
ATOM     34  C   UNL A   1      45.732  20.801  24.418  1.00  0.00     0.261 C 
BRANCH  34  35
ATOM     35  O   UNL A   1      46.194  21.769  25.361  1.00  0.00    -0.460 OA
BRANCH  35  36
ATOM     36  C   UNL A   1      46.348  23.050  24.929  1.00  0.00     0.338 C 
ATOM     37  O   UNL A   1      46.777  23.442  23.874  1.00  0.00    -0.246 OA
BRANCH  36  38
ATOM     38  C   UNL A   1      45.560  23.856  25.888  1.00  0.00     0.060 A 
ATOM     39  C   UNL A   1      45.413  25.238  25.717  1.00  0.00     0.016 A 
ATOM     40  C   UNL A   1      45.312  23.246  27.123  1.00  0.00     0.016 A 
ATOM     41  C   UNL A   1      45.149  26.024  26.837  1.00  0.00     0.010 A 
ATOM     42  C   UNL A   1      45.087  24.039  28.244  1.00  0.00     0.010 A 
ATOM     43  C   UNL A   1      45.047  25.429  28.110  1.00  0.00    -0.014 A 
BRANCH  43  44
ATOM     44  C   UNL A   1      44.592  26.262  29.228  1.00  0.00     0.031 A 
ATOM     45  C   UNL A   1      43.325  26.972  28.910  1.00  0.00     0.074 A 
ATOM     46  C   UNL A   1      45.073  26.269  30.488  1.00  0.00     0.049 A 
ATOM     47  N   UNL A   1      43.057  28.231  29.021  1.00  0.00    -0.248 NA
ATOM     48  C   UNL A   1      42.258  26.170  28.282  1.00  0.00     0.031 C 
ATOM     49  C   UNL A   1      46.113  25.406  31.047  1.00  0.00     0.029 A 
ATOM     50  N   UNL A   1      44.635  26.979  31.580  1.00  0.00    -0.354 N 
ATOM     51  C   UNL A   1      41.735  28.357  28.612  1.00  0.00     0.074 A 
ATOM     52  C   UNL A   1      41.347  27.102  28.026  1.00  0.00     0.031 C 
ATOM     53  C   UNL A   1      46.086  25.493  32.396  1.00  0.00     0.029 A 
ATOM     54  C   UNL A   1      45.073  26.460  32.794  1.00  0.00     0.049 A 
ATOM     55  H   UNL A   1      44.064  27.778  31.510  1.00  0.00     0.167 HD
ATOM     56  C   UNL A   1      40.952  29.404  28.976  1.00  0.00     0.031 A 
ATOM     57  C   UNL A   1      44.582  26.721  34.033  1.00  0.00     0.031 A 
ATOM     58  C   UNL A   1      41.713  30.546  29.389  1.00  0.00     0.049 A 
ATOM     59  C   UNL A   1      43.803  27.977  33.977  1.00  0.00     0.074 A 
ATOM     60  C   UNL A   1      42.652  31.350  28.775  1.00  0.00     0.029 A 
ATOM     61  N   UNL A   1      41.801  30.806  30.733  1.00  0.00    -0.354 N 
ATOM     62  N   UNL A   1      44.329  29.158  33.838  1.00  0.00    -0.248 NA
ATOM     63  C   UNL A   1      42.368  27.904  33.748  1.00  0.00     0.031 C 
ATOM     64  C   UNL A   1      43.546  31.740  29.809  1.00  0.00     0.029 A 
ATOM     65  C   UNL A   1      43.093  31.177  31.004  1.00  0.00     0.049 A 
ATOM     66  H   UNL A   1      41.068  30.738  31.387  1.00  0.00     0.167 HD
ATOM     67  C   UNL A   1      43.405  29.866  33.088  1.00  0.00     0.074 A 
ATOM     68  C   UNL A   1      42.168  29.101  33.191  1.00  0.00     0.031 C 
ATOM     69  C   UNL A   1      43.805  30.841  32.220  1.00  0.00     0.031 A 
BRANCH  56  70
ATOM     70  C   UNL A   1      39.488  29.228  29.265  1.00  0.00    -0.014 A 
ATOM     71  C   UNL A   1      39.002  28.891  30.546  1.00  0.00     0.009 A 
ATOM     72  C   UNL A   1      38.541  29.628  28.313  1.00  0.00     0.009 A 
ATOM     73  C   UNL A   1      37.642  28.906  30.856  1.00  0.00     0.001 A 
ATOM     74  C   UNL A   1      37.179  29.694  28.634  1.00  0.00     0.001 A 
ATOM     75  C   UNL A   1      36.731  29.328  29.901  1.00  0.00     0.000 A 
ENDBRANCH  56  70
BRANCH  57  76
ATOM     76  C   UNL A   1      44.532  25.827  35.218  1.00  0.00    -0.014 A 
ATOM     77  C   UNL A   1      45.164  26.194  36.420  1.00  0.00     0.009 A 
ATOM     78  C   UNL A   1      44.080  24.500  35.107  1.00  0.00     0.009 A 
ATOM     79  C   UNL A   1      45.365  25.276  37.455  1.00  0.00     0.001 A 
ATOM     80  C   UNL A   1      44.295  23.574  36.139  1.00  0.00     0.001 A 
ATOM     81  C   UNL A   1      44.947  23.959  37.307  1.00  0.00     0.000 A 
ENDBRANCH  57  76
BRANCH  69  82
ATOM     82  C   UNL A   1      45.215  31.374  32.340  1.00  0.00    -0.014 A 
ATOM     83  C   UNL A   1      45.407  32.614  32.971  1.00  0.00     0.009 A 
ATOM     84  C   UNL A   1      46.319  30.776  31.707  1.00  0.00     0.009 A 
ATOM     85  C   UNL A   1      46.655  33.240  32.963  1.00  0.00     0.001 A 
ATOM     86  C   UNL A   1      47.577  31.387  31.725  1.00  0.00     0.001 A 
ATOM     87  C   UNL A   1      47.741  32.626  32.343  1.00  0.00     0.000 A 
ENDBRANCH  69  82
ENDBRANCH  43  44
ENDBRANCH  36  38
ENDBRANCH  35  36
ENDBRANCH  34  35
ENDBRANCH  33  34
ENDBRANCH  32  33
ENDBRANCH  31  32
ENDBRANCH  30  31
ENDBRANCH  29  30
ENDBRANCH   1  29
TORSDOF 23
ENDMDL
