MODEL 1
REMARK VINA RESULT:     -11.1      0.000      0.000
REMARK SMILES O=C(OCCOCCOCCOCCOC(=O)c1ccc(-c2c3nc(c(-c4ccccc4)c4ccc([nH]4)c(-c4ccccc4)c4nc(c(-c5ccccc5)c5ccc2[nH]5)C=C4)C=C3)cc1)C1=Cc2cc(OC(F)(F)F)ccc2O[C@@H]1C(F)(F)F
REMARK SMILES IDX 9 1 8 2 7 3 6 4 5 5 4 6 3 7 2 8 1 9 66 10 67 11 80 12 68 13
REMARK SMILES IDX 79 14 69 15 78 16 70 17 77 18 76 19 81 20 82 21 83 22 84 23
REMARK SMILES IDX 71 24 72 25 73 26 74 27 75 28 10 29 11 30 12 31 13 32 14 33
REMARK SMILES IDX 15 34 16 35 17 36 18 37 19 38 65 39 20 40 64 41 21 42 22 43
REMARK SMILES IDX 23 44 58 45 24 46 63 47 57 48 59 49 25 50 62 51 56 52 55 53
REMARK SMILES IDX 26 55 48 56 33 57 47 58 34 59 37 60 46 61 60 62 35 63 36 64
REMARK SMILES IDX 45 66 61 67 38 68 27 69 28 70 32 71 29 72 31 73 30 74 49 75
REMARK SMILES IDX 50 76 54 77 51 78 53 79 52 80 39 81 40 82 44 83 41 84 43 85
REMARK SMILES IDX 42 86
REMARK H PARENT 59 54 37 65
REMARK Flexibility Score: inf
ROOT
ATOM      1  O   UNL A   1      33.215  34.825  30.302  1.00  0.00    -0.377 OA
ENDROOT
BRANCH   1   2
ATOM      2  C   UNL A   1      33.950  35.150  29.146  1.00  0.00     0.188 C 
BRANCH   2   3
ATOM      3  C   UNL A   1      33.975  34.080  28.041  1.00  0.00     0.188 C 
BRANCH   3   4
ATOM      4  O   UNL A   1      33.916  32.623  28.263  1.00  0.00    -0.376 OA
BRANCH   4   5
ATOM      5  C   UNL A   1      34.781  31.329  27.626  1.00  0.00     0.202 C 
BRANCH   5   6
ATOM      6  C   UNL A   1      33.972  29.354  27.164  1.00  0.00     0.261 C 
BRANCH   6   7
ATOM      7  O   UNL A   1      33.939  28.694  25.807  1.00  0.00    -0.460 OA
BRANCH   7   8
ATOM      8  C   UNL A   1      32.933  29.150  25.053  1.00  0.00     0.338 C 
ATOM      9  O   UNL A   1      32.169  30.050  25.302  1.00  0.00    -0.246 OA
BRANCH   8  10
ATOM     10  C   UNL A   1      32.777  27.975  24.203  1.00  0.00     0.087 C 
ATOM     11  C   UNL A   1      33.833  26.973  24.355  1.00  0.00     0.027 C 
ATOM     12  C   UNL A   1      30.954  27.724  24.748  1.00  0.00     0.316 C 
ATOM     13  C   UNL A   1      33.661  25.445  25.278  1.00  0.00     0.021 A 
ATOM     14  O   UNL A   1      30.768  26.148  25.889  1.00  0.00    -0.475 OA
ATOM     15  C   UNL A   1      34.734  24.604  25.374  1.00  0.00     0.058 A 
ATOM     16  C   UNL A   1      32.220  25.036  26.129  1.00  0.00     0.128 A 
ATOM     17  C   UNL A   1      34.558  23.439  26.149  1.00  0.00     0.130 A 
ATOM     18  C   UNL A   1      32.127  23.893  26.882  1.00  0.00     0.051 A 
ATOM     19  C   UNL A   1      33.326  23.106  26.857  1.00  0.00     0.050 A 
BRANCH  12  20
ATOM     20  C   UNL A   1      30.382  28.077  23.195  1.00  0.00     0.430 C 
ATOM     21  F   UNL A   1      30.881  27.383  22.157  1.00  0.00    -0.167 F 
ATOM     22  F   UNL A   1      29.051  27.753  23.194  1.00  0.00    -0.167 F 
ATOM     23  F   UNL A   1      30.403  29.388  22.852  1.00  0.00    -0.167 F 
ENDBRANCH  12  20
BRANCH  17  24
ATOM     24  O   UNL A   1      35.715  22.692  26.136  1.00  0.00    -0.406 OA
BRANCH  24  25
ATOM     25  C   UNL A   1      36.022  21.862  25.036  1.00  0.00     0.573 C 
ATOM     26  F   UNL A   1      36.798  22.513  24.146  1.00  0.00    -0.132 F 
ATOM     27  F   UNL A   1      36.636  20.733  25.441  1.00  0.00    -0.132 F 
ATOM     28  F   UNL A   1      34.866  21.523  24.423  1.00  0.00    -0.132 F 
ENDBRANCH  24  25
ENDBRANCH  17  24
ENDBRANCH   8  10
ENDBRANCH   7   8
ENDBRANCH   6   7
ENDBRANCH   5   6
ENDBRANCH   4   5
ENDBRANCH   3   4
ENDBRANCH   2   3
ENDBRANCH   1   2
BRANCH   1  29
ATOM     29  C   UNL A   1      32.725  35.975  30.946  1.00  0.00     0.188 C 
BRANCH  29  30
ATOM     30  C   UNL A   1      33.281  36.269  32.346  1.00  0.00     0.188 C 
BRANCH  30  31
ATOM     31  O   UNL A   1      34.628  36.051  32.729  1.00  0.00    -0.376 OA
BRANCH  31  32
ATOM     32  C   UNL A   1      34.999  35.074  33.681  1.00  0.00     0.202 C 
BRANCH  32  33
ATOM     33  C   UNL A   1      34.472  33.636  33.607  1.00  0.00     0.261 C 
BRANCH  33  34
ATOM     34  O   UNL A   1      35.444  32.620  33.341  1.00  0.00    -0.460 OA
BRANCH  34  35
ATOM     35  C   UNL A   1      35.444  32.158  32.074  1.00  0.00     0.338 C 
ATOM     36  O   UNL A   1      34.486  32.051  31.328  1.00  0.00    -0.246 OA
BRANCH  35  37
ATOM     37  C   UNL A   1      36.837  31.953  31.622  1.00  0.00     0.060 A 
ATOM     38  C   UNL A   1      37.145  32.312  30.302  1.00  0.00     0.016 A 
ATOM     39  C   UNL A   1      37.814  31.400  32.452  1.00  0.00     0.016 A 
ATOM     40  C   UNL A   1      38.407  32.062  29.783  1.00  0.00     0.010 A 
ATOM     41  C   UNL A   1      39.071  31.104  31.917  1.00  0.00     0.010 A 
ATOM     42  C   UNL A   1      39.346  31.383  30.565  1.00  0.00    -0.014 A 
BRANCH  42  43
ATOM     43  C   UNL A   1      40.485  30.745  29.871  1.00  0.00     0.031 A 
ATOM     44  C   UNL A   1      41.782  31.507  29.794  1.00  0.00     0.074 A 
ATOM     45  C   UNL A   1      40.403  29.482  29.420  1.00  0.00     0.049 A 
ATOM     46  N   UNL A   1      42.919  31.154  29.252  1.00  0.00    -0.248 NA
ATOM     47  C   UNL A   1      41.799  32.842  30.415  1.00  0.00     0.031 C 
ATOM     48  C   UNL A   1      39.222  28.627  29.509  1.00  0.00     0.029 A 
ATOM     49  N   UNL A   1      41.344  28.702  28.802  1.00  0.00    -0.354 N 
ATOM     50  C   UNL A   1      43.780  32.225  29.462  1.00  0.00     0.074 A 
ATOM     51  C   UNL A   1      43.025  33.255  30.138  1.00  0.00     0.031 C 
ATOM     52  C   UNL A   1      39.509  27.435  28.957  1.00  0.00     0.029 A 
ATOM     53  C   UNL A   1      40.876  27.463  28.442  1.00  0.00     0.049 A 
ATOM     54  H   UNL A   1      42.267  29.000  28.634  1.00  0.00     0.167 HD
ATOM     55  C   UNL A   1      45.089  32.335  29.135  1.00  0.00     0.031 A 
ATOM     56  C   UNL A   1      41.478  26.480  27.746  1.00  0.00     0.031 A 
ATOM     57  C   UNL A   1      45.829  31.314  28.444  1.00  0.00     0.049 A 
ATOM     58  C   UNL A   1      42.902  26.673  27.292  1.00  0.00     0.074 A 
ATOM     59  C   UNL A   1      47.155  31.328  28.050  1.00  0.00     0.029 A 
ATOM     60  N   UNL A   1      45.302  30.097  28.038  1.00  0.00    -0.354 N 
ATOM     61  N   UNL A   1      43.711  27.686  27.501  1.00  0.00    -0.248 NA
ATOM     62  C   UNL A   1      43.500  25.578  26.517  1.00  0.00     0.031 C 
ATOM     63  C   UNL A   1      47.410  30.149  27.342  1.00  0.00     0.029 A 
ATOM     64  C   UNL A   1      46.269  29.364  27.373  1.00  0.00     0.049 A 
ATOM     65  H   UNL A   1      44.377  29.800  28.200  1.00  0.00     0.167 HD
ATOM     66  C   UNL A   1      44.922  27.332  26.915  1.00  0.00     0.074 A 
ATOM     67  C   UNL A   1      44.746  26.002  26.370  1.00  0.00     0.031 C 
ATOM     68  C   UNL A   1      46.076  28.041  26.835  1.00  0.00     0.031 A 
BRANCH  55  69
ATOM     69  C   UNL A   1      45.790  33.618  29.492  1.00  0.00    -0.014 A 
ATOM     70  C   UNL A   1      45.796  34.717  28.618  1.00  0.00     0.009 A 
ATOM     71  C   UNL A   1      46.427  33.741  30.737  1.00  0.00     0.009 A 
ATOM     72  C   UNL A   1      46.453  35.899  28.969  1.00  0.00     0.001 A 
ATOM     73  C   UNL A   1      47.052  34.935  31.100  1.00  0.00     0.001 A 
ATOM     74  C   UNL A   1      47.073  36.009  30.213  1.00  0.00     0.000 A 
ENDBRANCH  55  69
BRANCH  56  75
ATOM     75  C   UNL A   1      40.730  25.244  27.391  1.00  0.00    -0.014 A 
ATOM     76  C   UNL A   1      39.610  25.291  26.547  1.00  0.00     0.009 A 
ATOM     77  C   UNL A   1      41.106  24.008  27.944  1.00  0.00     0.009 A 
ATOM     78  C   UNL A   1      38.859  24.138  26.303  1.00  0.00     0.001 A 
ATOM     79  C   UNL A   1      40.379  22.851  27.664  1.00  0.00     0.001 A 
ATOM     80  C   UNL A   1      39.246  22.920  26.858  1.00  0.00     0.000 A 
ENDBRANCH  56  75
BRANCH  68  81
ATOM     81  C   UNL A   1      47.253  27.366  26.182  1.00  0.00    -0.014 A 
ATOM     82  C   UNL A   1      48.157  26.582  26.915  1.00  0.00     0.009 A 
ATOM     83  C   UNL A   1      47.450  27.508  24.798  1.00  0.00     0.009 A 
ATOM     84  C   UNL A   1      49.263  26.004  26.288  1.00  0.00     0.001 A 
ATOM     85  C   UNL A   1      48.529  26.892  24.165  1.00  0.00     0.001 A 
ATOM     86  C   UNL A   1      49.444  26.155  24.914  1.00  0.00     0.000 A 
ENDBRANCH  68  81
ENDBRANCH  42  43
ENDBRANCH  35  37
ENDBRANCH  34  35
ENDBRANCH  33  34
ENDBRANCH  32  33
ENDBRANCH  31  32
ENDBRANCH  30  31
ENDBRANCH  29  30
ENDBRANCH   1  29
TORSDOF 23
ENDMDL
MODEL 2
REMARK VINA RESULT:     -10.7      2.296      3.402
REMARK SMILES O=C(OCCOCCOCCOCCOC(=O)c1ccc(-c2c3nc(c(-c4ccccc4)c4ccc([nH]4)c(-c4ccccc4)c4nc(c(-c5ccccc5)c5ccc2[nH]5)C=C4)C=C3)cc1)C1=Cc2cc(OC(F)(F)F)ccc2O[C@@H]1C(F)(F)F
REMARK SMILES IDX 9 1 8 2 7 3 6 4 5 5 4 6 3 7 2 8 1 9 66 10 67 11 80 12 68 13
REMARK SMILES IDX 79 14 69 15 78 16 70 17 77 18 76 19 81 20 82 21 83 22 84 23
REMARK SMILES IDX 71 24 72 25 73 26 74 27 75 28 10 29 11 30 12 31 13 32 14 33
REMARK SMILES IDX 15 34 16 35 17 36 18 37 19 38 65 39 20 40 64 41 21 42 22 43
REMARK SMILES IDX 23 44 58 45 24 46 63 47 57 48 59 49 25 50 62 51 56 52 55 53
REMARK SMILES IDX 26 55 48 56 33 57 47 58 34 59 37 60 46 61 60 62 35 63 36 64
REMARK SMILES IDX 45 66 61 67 38 68 27 69 28 70 32 71 29 72 31 73 30 74 49 75
REMARK SMILES IDX 50 76 54 77 51 78 53 79 52 80 39 81 40 82 44 83 41 84 43 85
REMARK SMILES IDX 42 86
REMARK H PARENT 59 54 37 65
REMARK Flexibility Score: inf
ROOT
ATOM      1  O   UNL A   1      34.999  31.779  27.410  1.00  0.00    -0.377 OA
ENDROOT
BRANCH   1   2
ATOM      2  C   UNL A   1      33.878  31.114  27.942  1.00  0.00     0.188 C 
BRANCH   2   3
ATOM      3  C   UNL A   1      32.653  31.014  27.018  1.00  0.00     0.188 C 
BRANCH   3   4
ATOM      4  O   UNL A   1      31.981  29.760  26.625  1.00  0.00    -0.376 OA
BRANCH   4   5
ATOM      5  C   UNL A   1      31.594  28.354  27.463  1.00  0.00     0.202 C 
BRANCH   5   6
ATOM      6  C   UNL A   1      31.180  26.406  26.567  1.00  0.00     0.261 C 
BRANCH   6   7
ATOM      7  O   UNL A   1      31.956  25.132  26.793  1.00  0.00    -0.460 OA
BRANCH   7   8
ATOM      8  C   UNL A   1      31.478  24.118  26.063  1.00  0.00     0.338 C 
ATOM      9  O   UNL A   1      30.384  23.614  26.124  1.00  0.00    -0.246 OA
BRANCH   8  10
ATOM     10  C   UNL A   1      32.756  23.570  25.627  1.00  0.00     0.087 C 
ATOM     11  C   UNL A   1      32.978  22.174  26.006  1.00  0.00     0.027 C 
ATOM     12  C   UNL A   1      32.493  24.177  23.826  1.00  0.00     0.316 C 
ATOM     13  C   UNL A   1      32.811  20.777  24.894  1.00  0.00     0.021 A 
ATOM     14  O   UNL A   1      32.151  22.679  22.617  1.00  0.00    -0.475 OA
ATOM     15  C   UNL A   1      33.015  19.516  25.379  1.00  0.00     0.058 A 
ATOM     16  C   UNL A   1      32.315  20.956  23.254  1.00  0.00     0.128 A 
ATOM     17  C   UNL A   1      32.826  18.451  24.473  1.00  0.00     0.130 A 
ATOM     18  C   UNL A   1      32.131  19.871  22.434  1.00  0.00     0.051 A 
ATOM     19  C   UNL A   1      32.412  18.624  23.084  1.00  0.00     0.050 A 
BRANCH  12  20
ATOM     20  C   UNL A   1      33.779  25.270  23.945  1.00  0.00     0.430 C 
ATOM     21  F   UNL A   1      34.919  24.854  24.526  1.00  0.00    -0.167 F 
ATOM     22  F   UNL A   1      34.155  25.562  22.661  1.00  0.00    -0.167 F 
ATOM     23  F   UNL A   1      33.469  26.476  24.482  1.00  0.00    -0.167 F 
ENDBRANCH  12  20
BRANCH  17  24
ATOM     24  O   UNL A   1      33.081  17.254  25.102  1.00  0.00    -0.406 OA
BRANCH  24  25
ATOM     25  C   UNL A   1      34.215  16.487  24.756  1.00  0.00     0.573 C 
ATOM     26  F   UNL A   1      35.338  17.228  24.839  1.00  0.00    -0.132 F 
ATOM     27  F   UNL A   1      34.323  15.402  25.547  1.00  0.00    -0.132 F 
ATOM     28  F   UNL A   1      34.074  16.072  23.478  1.00  0.00    -0.132 F 
ENDBRANCH  24  25
ENDBRANCH  17  24
ENDBRANCH   8  10
ENDBRANCH   7   8
ENDBRANCH   6   7
ENDBRANCH   5   6
ENDBRANCH   4   5
ENDBRANCH   3   4
ENDBRANCH   2   3
ENDBRANCH   1   2
BRANCH   1  29
ATOM     29  C   UNL A   1      35.157  33.059  27.969  1.00  0.00     0.188 C 
BRANCH  29  30
ATOM     30  C   UNL A   1      34.929  33.182  29.482  1.00  0.00     0.188 C 
BRANCH  30  31
ATOM     31  O   UNL A   1      34.799  34.415  30.170  1.00  0.00    -0.376 OA
BRANCH  31  32
ATOM     32  C   UNL A   1      34.727  34.495  31.578  1.00  0.00     0.202 C 
BRANCH  32  33
ATOM     33  C   UNL A   1      34.119  33.366  32.420  1.00  0.00     0.261 C 
BRANCH  33  34
ATOM     34  O   UNL A   1      34.739  32.082  32.296  1.00  0.00    -0.460 OA
BRANCH  34  35
ATOM     35  C   UNL A   1      35.948  31.981  32.886  1.00  0.00     0.338 C 
ATOM     36  O   UNL A   1      36.266  32.390  33.989  1.00  0.00    -0.246 OA
BRANCH  35  37
ATOM     37  C   UNL A   1      36.828  31.122  32.067  1.00  0.00     0.060 A 
ATOM     38  C   UNL A   1      37.843  30.418  32.732  1.00  0.00     0.016 A 
ATOM     39  C   UNL A   1      36.688  31.021  30.681  1.00  0.00     0.016 A 
ATOM     40  C   UNL A   1      38.761  29.666  32.015  1.00  0.00     0.010 A 
ATOM     41  C   UNL A   1      37.641  30.301  29.954  1.00  0.00     0.010 A 
ATOM     42  C   UNL A   1      38.710  29.673  30.619  1.00  0.00    -0.014 A 
BRANCH  42  43
ATOM     43  C   UNL A   1      39.923  29.252  29.885  1.00  0.00     0.031 A 
ATOM     44  C   UNL A   1      41.035  30.254  29.724  1.00  0.00     0.074 A 
ATOM     45  C   UNL A   1      40.078  27.984  29.471  1.00  0.00     0.049 A 
ATOM     46  N   UNL A   1      42.195  30.118  29.135  1.00  0.00    -0.248 NA
ATOM     47  C   UNL A   1      40.810  31.587  30.309  1.00  0.00     0.031 C 
ATOM     48  C   UNL A   1      39.098  26.912  29.641  1.00  0.00     0.029 A 
ATOM     49  N   UNL A   1      41.129  27.386  28.827  1.00  0.00    -0.354 N 
ATOM     50  C   UNL A   1      42.831  31.346  29.275  1.00  0.00     0.074 A 
ATOM     51  C   UNL A   1      41.915  32.227  29.961  1.00  0.00     0.031 C 
ATOM     52  C   UNL A   1      39.594  25.784  29.105  1.00  0.00     0.029 A 
ATOM     53  C   UNL A   1      40.904  26.067  28.521  1.00  0.00     0.049 A 
ATOM     54  H   UNL A   1      41.964  27.856  28.605  1.00  0.00     0.167 HD
ATOM     55  C   UNL A   1      44.076  31.704  28.880  1.00  0.00     0.031 A 
ATOM     56  C   UNL A   1      41.660  25.200  27.822  1.00  0.00     0.031 A 
ATOM     57  C   UNL A   1      44.975  30.828  28.179  1.00  0.00     0.049 A 
ATOM     58  C   UNL A   1      42.995  25.658  27.292  1.00  0.00     0.074 A 
ATOM     59  C   UNL A   1      46.253  31.093  27.719  1.00  0.00     0.029 A 
ATOM     60  N   UNL A   1      44.687  29.517  27.831  1.00  0.00    -0.354 N 
ATOM     61  N   UNL A   1      43.592  26.819  27.435  1.00  0.00    -0.248 NA
ATOM     62  C   UNL A   1      43.767  24.678  26.516  1.00  0.00     0.031 C 
ATOM     63  C   UNL A   1      46.709  29.965  27.029  1.00  0.00     0.029 A 
ATOM     64  C   UNL A   1      45.751  28.969  27.137  1.00  0.00     0.049 A 
ATOM     65  H   UNL A   1      43.848  29.046  28.046  1.00  0.00     0.167 HD
ATOM     66  C   UNL A   1      44.822  26.694  26.799  1.00  0.00     0.074 A 
ATOM     67  C   UNL A   1      44.894  25.338  26.297  1.00  0.00     0.031 C 
ATOM     68  C   UNL A   1      45.806  27.616  26.643  1.00  0.00     0.031 A 
BRANCH  55  69
ATOM     69  C   UNL A   1      44.519  33.112  29.169  1.00  0.00    -0.014 A 
ATOM     70  C   UNL A   1      45.150  33.449  30.378  1.00  0.00     0.009 A 
ATOM     71  C   UNL A   1      44.334  34.114  28.203  1.00  0.00     0.009 A 
ATOM     72  C   UNL A   1      45.554  34.763  30.626  1.00  0.00     0.001 A 
ATOM     73  C   UNL A   1      44.770  35.418  28.439  1.00  0.00     0.001 A 
ATOM     74  C   UNL A   1      45.371  35.743  29.653  1.00  0.00     0.000 A 
ENDBRANCH  55  69
BRANCH  56  75
ATOM     75  C   UNL A   1      41.162  23.827  27.536  1.00  0.00    -0.014 A 
ATOM     76  C   UNL A   1      41.839  22.696  28.015  1.00  0.00     0.009 A 
ATOM     77  C   UNL A   1      40.025  23.643  26.732  1.00  0.00     0.009 A 
ATOM     78  C   UNL A   1      41.417  21.414  27.655  1.00  0.00     0.001 A 
ATOM     79  C   UNL A   1      39.579  22.361  26.410  1.00  0.00     0.001 A 
ATOM     80  C   UNL A   1      40.286  21.247  26.857  1.00  0.00     0.000 A 
ENDBRANCH  56  75
BRANCH  68  81
ATOM     81  C   UNL A   1      47.065  27.168  25.949  1.00  0.00    -0.014 A 
ATOM     82  C   UNL A   1      47.235  27.310  24.562  1.00  0.00     0.009 A 
ATOM     83  C   UNL A   1      48.108  26.607  26.704  1.00  0.00     0.009 A 
ATOM     84  C   UNL A   1      48.397  26.847  23.941  1.00  0.00     0.001 A 
ATOM     85  C   UNL A   1      49.286  26.187  26.088  1.00  0.00     0.001 A 
ATOM     86  C   UNL A   1      49.423  26.291  24.705  1.00  0.00     0.000 A 
ENDBRANCH  68  81
ENDBRANCH  42  43
ENDBRANCH  35  37
ENDBRANCH  34  35
ENDBRANCH  33  34
ENDBRANCH  32  33
ENDBRANCH  31  32
ENDBRANCH  30  31
ENDBRANCH  29  30
ENDBRANCH   1  29
TORSDOF 23
ENDMDL
MODEL 3
REMARK VINA RESULT:     -10.4      2.310      6.481
REMARK SMILES O=C(OCCOCCOCCOCCOC(=O)c1ccc(-c2c3nc(c(-c4ccccc4)c4ccc([nH]4)c(-c4ccccc4)c4nc(c(-c5ccccc5)c5ccc2[nH]5)C=C4)C=C3)cc1)C1=Cc2cc(OC(F)(F)F)ccc2O[C@@H]1C(F)(F)F
REMARK SMILES IDX 9 1 8 2 7 3 6 4 5 5 4 6 3 7 2 8 1 9 66 10 67 11 80 12 68 13
REMARK SMILES IDX 79 14 69 15 78 16 70 17 77 18 76 19 81 20 82 21 83 22 84 23
REMARK SMILES IDX 71 24 72 25 73 26 74 27 75 28 10 29 11 30 12 31 13 32 14 33
REMARK SMILES IDX 15 34 16 35 17 36 18 37 19 38 65 39 20 40 64 41 21 42 22 43
REMARK SMILES IDX 23 44 58 45 24 46 63 47 57 48 59 49 25 50 62 51 56 52 55 53
REMARK SMILES IDX 26 55 48 56 33 57 47 58 34 59 37 60 46 61 60 62 35 63 36 64
REMARK SMILES IDX 45 66 61 67 38 68 27 69 28 70 32 71 29 72 31 73 30 74 49 75
REMARK SMILES IDX 50 76 54 77 51 78 53 79 52 80 39 81 40 82 44 83 41 84 43 85
REMARK SMILES IDX 42 86
REMARK H PARENT 59 54 37 65
REMARK Flexibility Score: inf
ROOT
ATOM      1  O   UNL A   1      35.008  31.651  27.316  1.00  0.00    -0.377 OA
ENDROOT
BRANCH   1   2
ATOM      2  C   UNL A   1      33.943  30.869  27.801  1.00  0.00     0.188 C 
BRANCH   2   3
ATOM      3  C   UNL A   1      32.678  30.838  26.928  1.00  0.00     0.188 C 
BRANCH   3   4
ATOM      4  O   UNL A   1      31.908  29.627  26.583  1.00  0.00    -0.376 OA
BRANCH   4   5
ATOM      5  C   UNL A   1      31.503  28.242  27.447  1.00  0.00     0.202 C 
BRANCH   5   6
ATOM      6  C   UNL A   1      31.018  26.295  26.584  1.00  0.00     0.261 C 
BRANCH   6   7
ATOM      7  O   UNL A   1      31.800  25.016  26.761  1.00  0.00    -0.460 OA
BRANCH   7   8
ATOM      8  C   UNL A   1      31.338  24.034  25.979  1.00  0.00     0.338 C 
ATOM      9  O   UNL A   1      30.246  23.523  26.001  1.00  0.00    -0.246 OA
BRANCH   8  10
ATOM     10  C   UNL A   1      32.626  23.512  25.538  1.00  0.00     0.087 C 
ATOM     11  C   UNL A   1      32.869  22.115  25.900  1.00  0.00     0.027 C 
ATOM     12  C   UNL A   1      32.357  24.139  23.745  1.00  0.00     0.316 C 
ATOM     13  C   UNL A   1      32.725  20.730  24.769  1.00  0.00     0.021 A 
ATOM     14  O   UNL A   1      32.040  22.651  22.516  1.00  0.00    -0.475 OA
ATOM     15  C   UNL A   1      32.947  19.465  25.237  1.00  0.00     0.058 A 
ATOM     16  C   UNL A   1      32.229  20.923  23.130  1.00  0.00     0.128 A 
ATOM     17  C   UNL A   1      32.776  18.410  24.316  1.00  0.00     0.130 A 
ATOM     18  C   UNL A   1      32.064  19.847  22.295  1.00  0.00     0.051 A 
ATOM     19  C   UNL A   1      32.362  18.595  22.929  1.00  0.00     0.050 A 
BRANCH  12  20
ATOM     20  C   UNL A   1      33.626  25.249  23.881  1.00  0.00     0.430 C 
ATOM     21  F   UNL A   1      34.339  25.543  22.780  1.00  0.00    -0.167 F 
ATOM     22  F   UNL A   1      33.055  26.444  24.229  1.00  0.00    -0.167 F 
ATOM     23  F   UNL A   1      34.509  25.002  24.880  1.00  0.00    -0.167 F 
ENDBRANCH  12  20
BRANCH  17  24
ATOM     24  O   UNL A   1      33.048  17.209  24.930  1.00  0.00    -0.406 OA
BRANCH  24  25
ATOM     25  C   UNL A   1      34.197  16.467  24.580  1.00  0.00     0.573 C 
ATOM     26  F   UNL A   1      35.315  17.194  24.773  1.00  0.00    -0.132 F 
ATOM     27  F   UNL A   1      34.267  15.322  25.288  1.00  0.00    -0.132 F 
ATOM     28  F   UNL A   1      34.117  16.152  23.268  1.00  0.00    -0.132 F 
ENDBRANCH  24  25
ENDBRANCH  17  24
ENDBRANCH   8  10
ENDBRANCH   7   8
ENDBRANCH   6   7
ENDBRANCH   5   6
ENDBRANCH   4   5
ENDBRANCH   3   4
ENDBRANCH   2   3
ENDBRANCH   1   2
BRANCH   1  29
ATOM     29  C   UNL A   1      35.191  32.815  28.084  1.00  0.00     0.188 C 
BRANCH  29  30
ATOM     30  C   UNL A   1      34.523  32.838  29.466  1.00  0.00     0.188 C 
BRANCH  30  31
ATOM     31  O   UNL A   1      34.251  34.021  30.199  1.00  0.00    -0.376 OA
BRANCH  31  32
ATOM     32  C   UNL A   1      34.685  34.205  31.531  1.00  0.00     0.202 C 
BRANCH  32  33
ATOM     33  C   UNL A   1      34.607  33.078  32.568  1.00  0.00     0.261 C 
BRANCH  33  34
ATOM     34  O   UNL A   1      35.483  31.967  32.358  1.00  0.00    -0.460 OA
BRANCH  34  35
ATOM     35  C   UNL A   1      36.748  32.157  32.787  1.00  0.00     0.338 C 
ATOM     36  O   UNL A   1      37.106  32.768  33.779  1.00  0.00    -0.246 OA
BRANCH  35  37
ATOM     37  C   UNL A   1      37.676  31.353  31.965  1.00  0.00     0.060 A 
ATOM     38  C   UNL A   1      38.649  30.601  32.639  1.00  0.00     0.016 A 
ATOM     39  C   UNL A   1      37.620  31.349  30.569  1.00  0.00     0.016 A 
ATOM     40  C   UNL A   1      39.608  29.896  31.929  1.00  0.00     0.010 A 
ATOM     41  C   UNL A   1      38.615  30.678  29.853  1.00  0.00     0.010 A 
ATOM     42  C   UNL A   1      39.642  30.000  30.536  1.00  0.00    -0.014 A 
BRANCH  42  43
ATOM     43  C   UNL A   1      40.897  29.625  29.849  1.00  0.00     0.031 A 
ATOM     44  C   UNL A   1      41.007  28.231  29.290  1.00  0.00     0.074 A 
ATOM     45  C   UNL A   1      41.865  30.530  29.632  1.00  0.00     0.049 A 
ATOM     46  N   UNL A   1      41.996  27.676  28.639  1.00  0.00    -0.248 NA
ATOM     47  C   UNL A   1      39.844  27.349  29.487  1.00  0.00     0.031 C 
ATOM     48  C   UNL A   1      41.832  31.926  30.063  1.00  0.00     0.029 A 
ATOM     49  N   UNL A   1      43.065  30.402  28.983  1.00  0.00    -0.354 N 
ATOM     50  C   UNL A   1      41.576  26.381  28.357  1.00  0.00     0.074 A 
ATOM     51  C   UNL A   1      40.266  26.218  28.945  1.00  0.00     0.031 C 
ATOM     52  C   UNL A   1      42.968  32.527  29.671  1.00  0.00     0.029 A 
ATOM     53  C   UNL A   1      43.821  31.548  29.000  1.00  0.00     0.049 A 
ATOM     54  H   UNL A   1      43.357  29.570  28.547  1.00  0.00     0.167 HD
ATOM     55  C   UNL A   1      42.218  25.417  27.656  1.00  0.00     0.031 A 
ATOM     56  C   UNL A   1      45.071  31.765  28.552  1.00  0.00     0.031 A 
ATOM     57  C   UNL A   1      43.531  25.578  27.091  1.00  0.00     0.049 A 
ATOM     58  C   UNL A   1      45.811  30.639  27.876  1.00  0.00     0.074 A 
ATOM     59  C   UNL A   1      44.280  24.661  26.376  1.00  0.00     0.029 A 
ATOM     60  N   UNL A   1      44.291  26.734  27.184  1.00  0.00    -0.354 N 
ATOM     61  N   UNL A   1      45.404  29.421  27.608  1.00  0.00    -0.248 NA
ATOM     62  C   UNL A   1      47.180  30.926  27.428  1.00  0.00     0.031 C 
ATOM     63  C   UNL A   1      45.523  25.239  26.099  1.00  0.00     0.029 A 
ATOM     64  C   UNL A   1      45.513  26.544  26.564  1.00  0.00     0.049 A 
ATOM     65  H   UNL A   1      44.004  27.566  27.627  1.00  0.00     0.167 HD
ATOM     66  C   UNL A   1      46.453  28.810  26.928  1.00  0.00     0.074 A 
ATOM     67  C   UNL A   1      47.499  29.804  26.803  1.00  0.00     0.031 C 
ATOM     68  C   UNL A   1      46.545  27.544  26.449  1.00  0.00     0.031 A 
BRANCH  55  69
ATOM     69  C   UNL A   1      41.521  24.093  27.494  1.00  0.00    -0.014 A 
ATOM     70  C   UNL A   1      40.480  23.922  26.566  1.00  0.00     0.009 A 
ATOM     71  C   UNL A   1      41.933  22.990  28.258  1.00  0.00     0.009 A 
ATOM     72  C   UNL A   1      39.846  22.684  26.432  1.00  0.00     0.001 A 
ATOM     73  C   UNL A   1      41.322  21.746  28.096  1.00  0.00     0.001 A 
ATOM     74  C   UNL A   1      40.274  21.596  27.191  1.00  0.00     0.000 A 
ENDBRANCH  55  69
BRANCH  56  75
ATOM     75  C   UNL A   1      45.728  33.084  28.766  1.00  0.00    -0.014 A 
ATOM     76  C   UNL A   1      46.569  33.305  29.867  1.00  0.00     0.009 A 
ATOM     77  C   UNL A   1      45.471  34.150  27.888  1.00  0.00     0.009 A 
ATOM     78  C   UNL A   1      47.098  34.575  30.109  1.00  0.00     0.001 A 
ATOM     79  C   UNL A   1      46.036  35.407  28.108  1.00  0.00     0.001 A 
ATOM     80  C   UNL A   1      46.834  35.623  29.229  1.00  0.00     0.000 A 
ENDBRANCH  56  75
BRANCH  68  81
ATOM     81  C   UNL A   1      47.799  27.182  25.698  1.00  0.00    -0.014 A 
ATOM     82  C   UNL A   1      47.916  27.386  24.314  1.00  0.00     0.009 A 
ATOM     83  C   UNL A   1      48.890  26.640  26.396  1.00  0.00     0.009 A 
ATOM     84  C   UNL A   1      49.076  27.001  23.638  1.00  0.00     0.001 A 
ATOM     85  C   UNL A   1      50.065  26.299  25.726  1.00  0.00     0.001 A 
ATOM     86  C   UNL A   1      50.150  26.463  24.346  1.00  0.00     0.000 A 
ENDBRANCH  68  81
ENDBRANCH  42  43
ENDBRANCH  35  37
ENDBRANCH  34  35
ENDBRANCH  33  34
ENDBRANCH  32  33
ENDBRANCH  31  32
ENDBRANCH  30  31
ENDBRANCH  29  30
ENDBRANCH   1  29
TORSDOF 23
ENDMDL
