MODEL 1
REMARK VINA RESULT:     -10.2      0.000      0.000
REMARK SMILES CC1(C)CCCC[C@H]1NC(=O)Nc1ccccc1C(=O)OCCOCCOCCOCCOC(=O)c1ccc(-c2c3nc(c(-c4ccccc4)c4ccc([nH]4)c(-c4ccccc4)c4nc(c(-c5ccccc5)c5ccc2[nH]5)C=C4)C=C3)cc1
REMARK SMILES IDX 27 1 26 2 25 3 24 4 23 5 22 6 21 7 19 8 20 9 18 10 13 11
REMARK SMILES IDX 14 12 15 13 17 14 16 15 12 16 9 17 10 18 11 20 8 22 1 23
REMARK SMILES IDX 2 24 3 25 4 26 5 27 7 28 6 29 28 30 29 31 30 32 31 33 32 34
REMARK SMILES IDX 33 35 34 36 35 37 36 38 37 39 83 40 38 41 82 42 39 43 40 44
REMARK SMILES IDX 41 45 76 46 42 47 81 48 75 49 77 50 43 51 80 52 74 53 73 54
REMARK SMILES IDX 44 56 66 57 51 58 65 59 52 60 55 61 64 62 78 63 53 64 54 65
REMARK SMILES IDX 63 67 79 68 56 69 45 70 46 71 50 72 47 73 49 74 48 75 67 76
REMARK SMILES IDX 68 77 72 78 69 79 71 80 70 81 57 82 58 83 62 84 59 85 61 86
REMARK SMILES IDX 60 87
REMARK H PARENT 9 19 12 21 77 55 55 66
REMARK Flexibility Score: inf
ROOT
ATOM      1  O   UNL A   1      38.782  21.872  26.412  1.00  0.00    -0.377 OA
ENDROOT
BRANCH   1   2
ATOM      2  C   UNL A   1      37.903  21.528  25.346  1.00  0.00     0.188 C 
BRANCH   2   3
ATOM      3  C   UNL A   1      36.857  22.557  24.873  1.00  0.00     0.188 C 
BRANCH   3   4
ATOM      4  O   UNL A   1      35.848  22.863  25.825  1.00  0.00    -0.376 OA
BRANCH   4   5
ATOM      5  C   UNL A   1      35.065  21.781  26.283  1.00  0.00     0.202 C 
BRANCH   5   6
ATOM      6  C   UNL A   1      33.825  22.110  27.125  1.00  0.00     0.261 C 
BRANCH   6   7
ATOM      7  O   UNL A   1      32.527  22.320  26.524  1.00  0.00    -0.460 OA
BRANCH   7   8
ATOM      8  C   UNL A   1      32.170  21.750  25.361  1.00  0.00     0.340 C 
ATOM      9  O   UNL A   1      31.801  20.599  25.192  1.00  0.00    -0.246 OA
BRANCH   8  10
ATOM     10  C   UNL A   1      32.229  22.680  24.214  1.00  0.00     0.083 A 
ATOM     11  C   UNL A   1      31.375  23.775  24.039  1.00  0.00     0.057 A 
ATOM     12  C   UNL A   1      31.480  24.517  22.849  1.00  0.00     0.027 A 
ATOM     13  C   UNL A   1      32.517  24.288  21.939  1.00  0.00     0.002 A 
ATOM     14  C   UNL A   1      33.282  22.465  23.300  1.00  0.00     0.018 A 
ATOM     15  C   UNL A   1      33.441  23.280  22.183  1.00  0.00     0.001 A 
BRANCH  11  16
ATOM     16  N   UNL A   1      30.416  24.245  24.954  1.00  0.00    -0.307 N 
ATOM     17  N   UNL A   1      30.973  26.476  25.610  1.00  0.00    -0.335 N 
ATOM     18  C   UNL A   1      30.326  25.306  25.780  1.00  0.00     0.319 C 
ATOM     19  H   UNL A   1      30.888  27.067  26.392  1.00  0.00     0.165 HD
ATOM     20  O   UNL A   1      29.533  25.236  26.724  1.00  0.00    -0.248 OA
ATOM     21  H   UNL A   1      29.624  23.663  25.002  1.00  0.00     0.171 HD
BRANCH  17  22
ATOM     22  C   UNL A   1      31.774  27.078  24.540  1.00  0.00     0.089 C 
ATOM     23  C   UNL A   1      31.260  29.509  25.108  1.00  0.00     0.013 C 
ATOM     24  C   UNL A   1      31.224  28.421  24.012  1.00  0.00    -0.015 C 
ATOM     25  C   UNL A   1      29.774  28.237  23.529  1.00  0.00     0.013 C 
ATOM     26  C   UNL A   1      32.106  28.825  22.791  1.00  0.00     0.008 C 
ATOM     27  C   UNL A   1      33.620  28.842  23.060  1.00  0.00     0.001 C 
ATOM     28  C   UNL A   1      33.239  27.273  24.974  1.00  0.00     0.025 C 
ATOM     29  C   UNL A   1      34.107  27.582  23.758  1.00  0.00     0.002 C 
ENDBRANCH  17  22
ENDBRANCH  11  16
ENDBRANCH   8  10
ENDBRANCH   7   8
ENDBRANCH   6   7
ENDBRANCH   5   6
ENDBRANCH   4   5
ENDBRANCH   3   4
ENDBRANCH   2   3
ENDBRANCH   1   2
BRANCH   1  30
ATOM     30  C   UNL A   1      40.182  21.660  26.260  1.00  0.00     0.188 C 
BRANCH  30  31
ATOM     31  C   UNL A   1      40.981  21.031  27.418  1.00  0.00     0.188 C 
BRANCH  31  32
ATOM     32  O   UNL A   1      42.378  20.955  27.213  1.00  0.00    -0.376 OA
BRANCH  32  33
ATOM     33  C   UNL A   1      42.870  20.676  25.914  1.00  0.00     0.202 C 
BRANCH  33  34
ATOM     34  C   UNL A   1      43.668  21.752  25.160  1.00  0.00     0.261 C 
BRANCH  34  35
ATOM     35  O   UNL A   1      43.192  23.104  25.256  1.00  0.00    -0.460 OA
BRANCH  35  36
ATOM     36  C   UNL A   1      44.100  24.098  25.330  1.00  0.00     0.338 C 
ATOM     37  O   UNL A   1      44.914  24.422  24.482  1.00  0.00    -0.246 OA
BRANCH  36  38
ATOM     38  C   UNL A   1      43.786  24.893  26.537  1.00  0.00     0.060 A 
ATOM     39  C   UNL A   1      42.963  24.330  27.522  1.00  0.00     0.016 A 
ATOM     40  C   UNL A   1      44.333  26.166  26.714  1.00  0.00     0.016 A 
ATOM     41  C   UNL A   1      42.657  25.050  28.672  1.00  0.00     0.010 A 
ATOM     42  C   UNL A   1      43.989  26.907  27.848  1.00  0.00     0.010 A 
ATOM     43  C   UNL A   1      43.118  26.363  28.808  1.00  0.00    -0.014 A 
BRANCH  43  44
ATOM     44  C   UNL A   1      42.473  27.229  29.819  1.00  0.00     0.031 A 
ATOM     45  C   UNL A   1      43.134  27.350  31.164  1.00  0.00     0.074 A 
ATOM     46  C   UNL A   1      41.371  27.940  29.535  1.00  0.00     0.049 A 
ATOM     47  N   UNL A   1      42.790  28.070  32.199  1.00  0.00    -0.248 NA
ATOM     48  C   UNL A   1      44.351  26.544  31.364  1.00  0.00     0.031 C 
ATOM     49  C   UNL A   1      40.669  27.943  28.255  1.00  0.00     0.029 A 
ATOM     50  N   UNL A   1      40.653  28.806  30.321  1.00  0.00    -0.354 N 
ATOM     51  C   UNL A   1      43.740  27.798  33.175  1.00  0.00     0.074 A 
ATOM     52  C   UNL A   1      44.655  26.827  32.620  1.00  0.00     0.031 C 
ATOM     53  C   UNL A   1      39.608  28.764  28.345  1.00  0.00     0.029 A 
ATOM     54  C   UNL A   1      39.546  29.320  29.696  1.00  0.00     0.049 A 
ATOM     55  H   UNL A   1      40.908  29.035  31.244  1.00  0.00     0.167 HD
ATOM     56  C   UNL A   1      43.843  28.312  34.423  1.00  0.00     0.031 A 
ATOM     57  C   UNL A   1      38.583  30.133  30.171  1.00  0.00     0.031 A 
ATOM     58  C   UNL A   1      42.913  29.258  34.981  1.00  0.00     0.049 A 
ATOM     59  C   UNL A   1      38.678  30.642  31.584  1.00  0.00     0.074 A 
ATOM     60  C   UNL A   1      42.939  29.860  36.226  1.00  0.00     0.029 A 
ATOM     61  N   UNL A   1      41.778  29.722  34.334  1.00  0.00    -0.354 N 
ATOM     62  N   UNL A   1      39.602  30.414  32.488  1.00  0.00    -0.248 NA
ATOM     63  C   UNL A   1      37.601  31.533  32.037  1.00  0.00     0.031 C 
ATOM     64  C   UNL A   1      41.777  30.629  36.360  1.00  0.00     0.029 A 
ATOM     65  C   UNL A   1      41.069  30.569  35.169  1.00  0.00     0.049 A 
ATOM     66  H   UNL A   1      41.515  29.484  33.415  1.00  0.00     0.167 HD
ATOM     67  C   UNL A   1      39.227  31.146  33.609  1.00  0.00     0.074 A 
ATOM     68  C   UNL A   1      38.007  31.845  33.260  1.00  0.00     0.031 C 
ATOM     69  C   UNL A   1      39.839  31.233  34.818  1.00  0.00     0.031 A 
BRANCH  56  70
ATOM     70  C   UNL A   1      44.965  27.797  35.283  1.00  0.00    -0.014 A 
ATOM     71  C   UNL A   1      46.236  28.393  35.278  1.00  0.00     0.009 A 
ATOM     72  C   UNL A   1      44.744  26.680  36.103  1.00  0.00     0.009 A 
ATOM     73  C   UNL A   1      47.276  27.850  36.039  1.00  0.00     0.001 A 
ATOM     74  C   UNL A   1      45.775  26.160  36.889  1.00  0.00     0.001 A 
ATOM     75  C   UNL A   1      47.043  26.736  36.845  1.00  0.00     0.000 A 
ENDBRANCH  56  70
BRANCH  57  76
ATOM     76  C   UNL A   1      37.431  30.490  29.301  1.00  0.00    -0.014 A 
ATOM     77  C   UNL A   1      36.468  29.535  28.945  1.00  0.00     0.009 A 
ATOM     78  C   UNL A   1      37.286  31.808  28.833  1.00  0.00     0.009 A 
ATOM     79  C   UNL A   1      35.392  29.890  28.128  1.00  0.00     0.001 A 
ATOM     80  C   UNL A   1      36.192  32.165  28.043  1.00  0.00     0.001 A 
ATOM     81  C   UNL A   1      35.249  31.204  27.685  1.00  0.00     0.000 A 
ENDBRANCH  57  76
BRANCH  69  82
ATOM     82  C   UNL A   1      39.196  32.127  35.845  1.00  0.00    -0.014 A 
ATOM     83  C   UNL A   1      38.238  31.639  36.747  1.00  0.00     0.009 A 
ATOM     84  C   UNL A   1      39.568  33.480  35.920  1.00  0.00     0.009 A 
ATOM     85  C   UNL A   1      37.630  32.495  37.667  1.00  0.00     0.001 A 
ATOM     86  C   UNL A   1      38.984  34.325  36.865  1.00  0.00     0.001 A 
ATOM     87  C   UNL A   1      38.005  33.836  37.727  1.00  0.00     0.000 A 
ENDBRANCH  69  82
ENDBRANCH  43  44
ENDBRANCH  36  38
ENDBRANCH  35  36
ENDBRANCH  34  35
ENDBRANCH  33  34
ENDBRANCH  32  33
ENDBRANCH  31  32
ENDBRANCH  30  31
ENDBRANCH   1  30
TORSDOF 22
ENDMDL
MODEL 2
REMARK VINA RESULT:     -10.2      1.681      3.061
REMARK SMILES CC1(C)CCCC[C@H]1NC(=O)Nc1ccccc1C(=O)OCCOCCOCCOCCOC(=O)c1ccc(-c2c3nc(c(-c4ccccc4)c4ccc([nH]4)c(-c4ccccc4)c4nc(c(-c5ccccc5)c5ccc2[nH]5)C=C4)C=C3)cc1
REMARK SMILES IDX 27 1 26 2 25 3 24 4 23 5 22 6 21 7 19 8 20 9 18 10 13 11
REMARK SMILES IDX 14 12 15 13 17 14 16 15 12 16 9 17 10 18 11 20 8 22 1 23
REMARK SMILES IDX 2 24 3 25 4 26 5 27 7 28 6 29 28 30 29 31 30 32 31 33 32 34
REMARK SMILES IDX 33 35 34 36 35 37 36 38 37 39 83 40 38 41 82 42 39 43 40 44
REMARK SMILES IDX 41 45 76 46 42 47 81 48 75 49 77 50 43 51 80 52 74 53 73 54
REMARK SMILES IDX 44 56 66 57 51 58 65 59 52 60 55 61 64 62 78 63 53 64 54 65
REMARK SMILES IDX 63 67 79 68 56 69 45 70 46 71 50 72 47 73 49 74 48 75 67 76
REMARK SMILES IDX 68 77 72 78 69 79 71 80 70 81 57 82 58 83 62 84 59 85 61 86
REMARK SMILES IDX 60 87
REMARK H PARENT 9 19 12 21 77 55 55 66
REMARK Flexibility Score: inf
ROOT
ATOM      1  O   UNL A   1      43.517  19.909  25.479  1.00  0.00    -0.377 OA
ENDROOT
BRANCH   1   2
ATOM      2  C   UNL A   1      42.468  19.195  26.126  1.00  0.00     0.188 C 
BRANCH   2   3
ATOM      3  C   UNL A   1      41.307  19.982  26.765  1.00  0.00     0.188 C 
BRANCH   3   4
ATOM      4  O   UNL A   1      40.419  20.594  25.839  1.00  0.00    -0.376 OA
BRANCH   4   5
ATOM      5  C   UNL A   1      39.433  21.447  26.381  1.00  0.00     0.202 C 
BRANCH   5   6
ATOM      6  C   UNL A   1      38.376  22.008  25.420  1.00  0.00     0.261 C 
BRANCH   6   7
ATOM      7  O   UNL A   1      37.031  21.480  25.370  1.00  0.00    -0.460 OA
BRANCH   7   8
ATOM      8  C   UNL A   1      36.032  22.112  24.730  1.00  0.00     0.340 C 
ATOM      9  O   UNL A   1      36.050  22.541  23.588  1.00  0.00    -0.246 OA
BRANCH   8  10
ATOM     10  C   UNL A   1      34.807  22.241  25.546  1.00  0.00     0.083 A 
ATOM     11  C   UNL A   1      33.507  22.100  25.048  1.00  0.00     0.057 A 
ATOM     12  C   UNL A   1      32.431  22.348  25.919  1.00  0.00     0.027 A 
ATOM     13  C   UNL A   1      32.636  22.557  27.286  1.00  0.00     0.002 A 
ATOM     14  C   UNL A   1      35.007  22.436  26.929  1.00  0.00     0.018 A 
ATOM     15  C   UNL A   1      33.927  22.567  27.799  1.00  0.00     0.001 A 
BRANCH  11  16
ATOM     16  N   UNL A   1      33.145  21.704  23.748  1.00  0.00    -0.307 N 
ATOM     17  N   UNL A   1      31.472  23.189  22.905  1.00  0.00    -0.335 N 
ATOM     18  C   UNL A   1      32.153  22.026  22.896  1.00  0.00     0.319 C 
ATOM     19  H   UNL A   1      30.697  23.173  22.298  1.00  0.00     0.165 HD
ATOM     20  O   UNL A   1      31.895  21.233  21.984  1.00  0.00    -0.248 OA
ATOM     21  H   UNL A   1      33.761  21.034  23.374  1.00  0.00     0.171 HD
BRANCH  17  22
ATOM     22  C   UNL A   1      31.608  24.472  23.602  1.00  0.00     0.089 C 
ATOM     23  C   UNL A   1      31.828  25.927  21.522  1.00  0.00     0.013 C 
ATOM     24  C   UNL A   1      32.477  25.511  22.859  1.00  0.00    -0.015 C 
ATOM     25  C   UNL A   1      33.873  24.923  22.584  1.00  0.00     0.013 C 
ATOM     26  C   UNL A   1      32.634  26.736  23.812  1.00  0.00     0.008 C 
ATOM     27  C   UNL A   1      31.315  27.309  24.356  1.00  0.00     0.001 C 
ATOM     28  C   UNL A   1      30.234  25.095  23.910  1.00  0.00     0.025 C 
ATOM     29  C   UNL A   1      30.391  26.236  24.910  1.00  0.00     0.002 C 
ENDBRANCH  17  22
ENDBRANCH  11  16
ENDBRANCH   8  10
ENDBRANCH   7   8
ENDBRANCH   6   7
ENDBRANCH   5   6
ENDBRANCH   4   5
ENDBRANCH   3   4
ENDBRANCH   2   3
ENDBRANCH   1   2
BRANCH   1  30
ATOM     30  C   UNL A   1      44.644  19.195  24.980  1.00  0.00     0.188 C 
BRANCH  30  31
ATOM     31  C   UNL A   1      45.979  19.938  24.779  1.00  0.00     0.188 C 
BRANCH  31  32
ATOM     32  O   UNL A   1      46.053  21.215  25.383  1.00  0.00    -0.376 OA
BRANCH  32  33
ATOM     33  C   UNL A   1      46.120  22.365  24.559  1.00  0.00     0.202 C 
BRANCH  33  34
ATOM     34  C   UNL A   1      45.839  23.749  25.168  1.00  0.00     0.261 C 
BRANCH  34  35
ATOM     35  O   UNL A   1      44.714  24.474  24.647  1.00  0.00    -0.460 OA
BRANCH  35  36
ATOM     36  C   UNL A   1      43.477  24.004  24.904  1.00  0.00     0.338 C 
ATOM     37  O   UNL A   1      43.024  22.910  24.615  1.00  0.00    -0.246 OA
BRANCH  36  38
ATOM     38  C   UNL A   1      42.820  24.967  25.816  1.00  0.00     0.060 A 
ATOM     39  C   UNL A   1      43.389  26.238  25.979  1.00  0.00     0.016 A 
ATOM     40  C   UNL A   1      41.634  24.632  26.472  1.00  0.00     0.016 A 
ATOM     41  C   UNL A   1      42.790  27.168  26.823  1.00  0.00     0.010 A 
ATOM     42  C   UNL A   1      41.058  25.549  27.355  1.00  0.00     0.010 A 
ATOM     43  C   UNL A   1      41.659  26.803  27.561  1.00  0.00    -0.014 A 
BRANCH  43  44
ATOM     44  C   UNL A   1      41.281  27.641  28.719  1.00  0.00     0.031 A 
ATOM     45  C   UNL A   1      42.098  27.514  29.974  1.00  0.00     0.074 A 
ATOM     46  C   UNL A   1      40.285  28.537  28.643  1.00  0.00     0.049 A 
ATOM     47  N   UNL A   1      41.994  28.161  31.105  1.00  0.00    -0.248 NA
ATOM     48  C   UNL A   1      43.183  26.518  29.944  1.00  0.00     0.031 C 
ATOM     49  C   UNL A   1      39.454  28.785  27.468  1.00  0.00     0.029 A 
ATOM     50  N   UNL A   1      39.809  29.410  29.588  1.00  0.00    -0.354 N 
ATOM     51  C   UNL A   1      42.990  27.645  31.923  1.00  0.00     0.074 A 
ATOM     52  C   UNL A   1      43.668  26.613  31.171  1.00  0.00     0.031 C 
ATOM     53  C   UNL A   1      38.557  29.741  27.766  1.00  0.00     0.029 A 
ATOM     54  C   UNL A   1      38.738  30.150  29.159  1.00  0.00     0.049 A 
ATOM     55  H   UNL A   1      40.199  29.496  30.489  1.00  0.00     0.167 HD
ATOM     56  C   UNL A   1      43.314  27.998  33.189  1.00  0.00     0.031 A 
ATOM     57  C   UNL A   1      37.978  31.043  29.823  1.00  0.00     0.031 A 
ATOM     58  C   UNL A   1      42.619  29.007  33.944  1.00  0.00     0.049 A 
ATOM     59  C   UNL A   1      38.312  31.374  31.253  1.00  0.00     0.074 A 
ATOM     60  C   UNL A   1      42.881  29.459  35.224  1.00  0.00     0.029 A 
ATOM     61  N   UNL A   1      41.509  29.704  33.491  1.00  0.00    -0.354 N 
ATOM     62  N   UNL A   1      39.282  30.913  32.007  1.00  0.00    -0.248 NA
ATOM     63  C   UNL A   1      37.452  32.363  31.918  1.00  0.00     0.031 C 
ATOM     64  C   UNL A   1      41.883  30.375  35.574  1.00  0.00     0.029 A 
ATOM     65  C   UNL A   1      41.045  30.552  34.483  1.00  0.00     0.049 A 
ATOM     66  H   UNL A   1      41.110  29.610  32.596  1.00  0.00     0.167 HD
ATOM     67  C   UNL A   1      39.159  31.566  33.228  1.00  0.00     0.074 A 
ATOM     68  C   UNL A   1      38.038  32.475  33.102  1.00  0.00     0.031 C 
ATOM     69  C   UNL A   1      39.908  31.428  34.352  1.00  0.00     0.031 A 
BRANCH  56  70
ATOM     70  C   UNL A   1      44.426  27.229  33.850  1.00  0.00    -0.014 A 
ATOM     71  C   UNL A   1      45.761  27.664  33.797  1.00  0.00     0.009 A 
ATOM     72  C   UNL A   1      44.129  26.036  34.524  1.00  0.00     0.009 A 
ATOM     73  C   UNL A   1      46.779  26.893  34.364  1.00  0.00     0.001 A 
ATOM     74  C   UNL A   1      45.144  25.285  35.121  1.00  0.00     0.001 A 
ATOM     75  C   UNL A   1      46.470  25.706  35.027  1.00  0.00     0.000 A 
ENDBRANCH  56  70
BRANCH  57  76
ATOM     76  C   UNL A   1      36.811  31.661  29.143  1.00  0.00    -0.014 A 
ATOM     77  C   UNL A   1      35.581  30.993  29.063  1.00  0.00     0.009 A 
ATOM     78  C   UNL A   1      36.924  32.944  28.579  1.00  0.00     0.009 A 
ATOM     79  C   UNL A   1      34.493  31.592  28.421  1.00  0.00     0.001 A 
ATOM     80  C   UNL A   1      35.827  33.551  27.967  1.00  0.00     0.001 A 
ATOM     81  C   UNL A   1      34.614  32.872  27.882  1.00  0.00     0.000 A 
ENDBRANCH  57  76
BRANCH  69  82
ATOM     82  C   UNL A   1      39.538  32.292  35.529  1.00  0.00    -0.014 A 
ATOM     83  C   UNL A   1      38.598  31.870  36.482  1.00  0.00     0.009 A 
ATOM     84  C   UNL A   1      40.154  33.544  35.694  1.00  0.00     0.009 A 
ATOM     85  C   UNL A   1      38.244  32.704  37.546  1.00  0.00     0.001 A 
ATOM     86  C   UNL A   1      39.825  34.359  36.779  1.00  0.00     0.001 A 
ATOM     87  C   UNL A   1      38.860  33.946  37.694  1.00  0.00     0.000 A 
ENDBRANCH  69  82
ENDBRANCH  43  44
ENDBRANCH  36  38
ENDBRANCH  35  36
ENDBRANCH  34  35
ENDBRANCH  33  34
ENDBRANCH  32  33
ENDBRANCH  31  32
ENDBRANCH  30  31
ENDBRANCH   1  30
TORSDOF 22
ENDMDL
MODEL 3
REMARK VINA RESULT:      -9.9      4.552      7.898
REMARK SMILES CC1(C)CCCC[C@H]1NC(=O)Nc1ccccc1C(=O)OCCOCCOCCOCCOC(=O)c1ccc(-c2c3nc(c(-c4ccccc4)c4ccc([nH]4)c(-c4ccccc4)c4nc(c(-c5ccccc5)c5ccc2[nH]5)C=C4)C=C3)cc1
REMARK SMILES IDX 27 1 26 2 25 3 24 4 23 5 22 6 21 7 19 8 20 9 18 10 13 11
REMARK SMILES IDX 14 12 15 13 17 14 16 15 12 16 9 17 10 18 11 20 8 22 1 23
REMARK SMILES IDX 2 24 3 25 4 26 5 27 7 28 6 29 28 30 29 31 30 32 31 33 32 34
REMARK SMILES IDX 33 35 34 36 35 37 36 38 37 39 83 40 38 41 82 42 39 43 40 44
REMARK SMILES IDX 41 45 76 46 42 47 81 48 75 49 77 50 43 51 80 52 74 53 73 54
REMARK SMILES IDX 44 56 66 57 51 58 65 59 52 60 55 61 64 62 78 63 53 64 54 65
REMARK SMILES IDX 63 67 79 68 56 69 45 70 46 71 50 72 47 73 49 74 48 75 67 76
REMARK SMILES IDX 68 77 72 78 69 79 71 80 70 81 57 82 58 83 62 84 59 85 61 86
REMARK SMILES IDX 60 87
REMARK H PARENT 9 19 12 21 77 55 55 66
REMARK Flexibility Score: inf
ROOT
ATOM      1  O   UNL A   1      38.365  22.398  26.238  1.00  0.00    -0.377 OA
ENDROOT
BRANCH   1   2
ATOM      2  C   UNL A   1      37.422  22.063  25.225  1.00  0.00     0.188 C 
BRANCH   2   3
ATOM      3  C   UNL A   1      36.040  22.743  25.230  1.00  0.00     0.188 C 
BRANCH   3   4
ATOM      4  O   UNL A   1      35.427  22.841  26.509  1.00  0.00    -0.376 OA
BRANCH   4   5
ATOM      5  C   UNL A   1      34.445  21.872  26.812  1.00  0.00     0.202 C 
BRANCH   5   6
ATOM      6  C   UNL A   1      33.081  22.377  27.301  1.00  0.00     0.261 C 
BRANCH   6   7
ATOM      7  O   UNL A   1      31.916  22.385  26.444  1.00  0.00    -0.460 OA
BRANCH   7   8
ATOM      8  C   UNL A   1      31.903  21.792  25.239  1.00  0.00     0.340 C 
ATOM      9  O   UNL A   1      31.768  20.601  25.010  1.00  0.00    -0.246 OA
BRANCH   8  10
ATOM     10  C   UNL A   1      32.046  22.745  24.119  1.00  0.00     0.083 A 
ATOM     11  C   UNL A   1      31.247  23.880  23.939  1.00  0.00     0.057 A 
ATOM     12  C   UNL A   1      31.429  24.644  22.773  1.00  0.00     0.027 A 
ATOM     13  C   UNL A   1      32.490  24.392  21.898  1.00  0.00     0.002 A 
ATOM     14  C   UNL A   1      33.124  22.506  23.240  1.00  0.00     0.018 A 
ATOM     15  C   UNL A   1      33.361  23.340  22.150  1.00  0.00     0.001 A 
BRANCH  11  16
ATOM     16  N   UNL A   1      30.274  24.370  24.829  1.00  0.00    -0.307 N 
ATOM     17  N   UNL A   1      30.846  26.598  25.480  1.00  0.00    -0.335 N 
ATOM     18  C   UNL A   1      30.180  25.438  25.644  1.00  0.00     0.319 C 
ATOM     19  H   UNL A   1      30.751  27.197  26.256  1.00  0.00     0.165 HD
ATOM     20  O   UNL A   1      29.364  25.386  26.571  1.00  0.00    -0.248 OA
ATOM     21  H   UNL A   1      29.474  23.798  24.863  1.00  0.00     0.171 HD
BRANCH  17  22
ATOM     22  C   UNL A   1      31.678  27.182  24.424  1.00  0.00     0.089 C 
ATOM     23  C   UNL A   1      31.365  29.618  25.101  1.00  0.00     0.013 C 
ATOM     24  C   UNL A   1      31.229  28.586  23.962  1.00  0.00    -0.015 C 
ATOM     25  C   UNL A   1      29.763  28.536  23.494  1.00  0.00     0.013 C 
ATOM     26  C   UNL A   1      32.125  28.971  22.745  1.00  0.00     0.008 C 
ATOM     27  C   UNL A   1      33.639  28.857  22.990  1.00  0.00     0.001 C 
ATOM     28  C   UNL A   1      33.160  27.242  24.842  1.00  0.00     0.025 C 
ATOM     29  C   UNL A   1      34.034  27.534  23.627  1.00  0.00     0.002 C 
ENDBRANCH  17  22
ENDBRANCH  11  16
ENDBRANCH   8  10
ENDBRANCH   7   8
ENDBRANCH   6   7
ENDBRANCH   5   6
ENDBRANCH   4   5
ENDBRANCH   3   4
ENDBRANCH   2   3
ENDBRANCH   1   2
BRANCH   1  30
ATOM     30  C   UNL A   1      39.681  21.859  26.176  1.00  0.00     0.188 C 
BRANCH  30  31
ATOM     31  C   UNL A   1      40.541  21.816  27.454  1.00  0.00     0.188 C 
BRANCH  31  32
ATOM     32  O   UNL A   1      41.795  21.177  27.314  1.00  0.00    -0.376 OA
BRANCH  32  33
ATOM     33  C   UNL A   1      41.843  19.764  27.227  1.00  0.00     0.202 C 
BRANCH  33  34
ATOM     34  C   UNL A   1      42.663  19.102  26.107  1.00  0.00     0.261 C 
BRANCH  34  35
ATOM     35  O   UNL A   1      43.044  19.934  24.999  1.00  0.00    -0.460 OA
BRANCH  35  36
ATOM     36  C   UNL A   1      44.334  19.927  24.608  1.00  0.00     0.338 C 
ATOM     37  O   UNL A   1      44.903  19.075  23.947  1.00  0.00    -0.246 OA
BRANCH  36  38
ATOM     38  C   UNL A   1      44.898  21.257  24.923  1.00  0.00     0.060 A 
ATOM     39  C   UNL A   1      45.198  21.565  26.258  1.00  0.00     0.016 A 
ATOM     40  C   UNL A   1      45.167  22.176  23.907  1.00  0.00     0.016 A 
ATOM     41  C   UNL A   1      45.737  22.805  26.585  1.00  0.00     0.010 A 
ATOM     42  C   UNL A   1      45.666  23.438  24.240  1.00  0.00     0.010 A 
ATOM     43  C   UNL A   1      45.914  23.767  25.585  1.00  0.00    -0.014 A 
BRANCH  43  44
ATOM     44  C   UNL A   1      46.106  25.174  25.995  1.00  0.00     0.031 A 
ATOM     45  C   UNL A   1      44.904  25.933  26.485  1.00  0.00     0.074 A 
ATOM     46  C   UNL A   1      47.320  25.746  25.998  1.00  0.00     0.049 A 
ATOM     47  N   UNL A   1      44.819  27.157  26.935  1.00  0.00    -0.248 NA
ATOM     48  C   UNL A   1      43.624  25.205  26.462  1.00  0.00     0.031 C 
ATOM     49  C   UNL A   1      48.564  25.098  25.592  1.00  0.00     0.029 A 
ATOM     50  N   UNL A   1      47.698  27.013  26.364  1.00  0.00    -0.354 N 
ATOM     51  C   UNL A   1      43.477  27.350  27.239  1.00  0.00     0.074 A 
ATOM     52  C   UNL A   1      42.782  26.130  26.895  1.00  0.00     0.031 C 
ATOM     53  C   UNL A   1      49.571  25.980  25.719  1.00  0.00     0.029 A 
ATOM     54  C   UNL A   1      49.035  27.256  26.189  1.00  0.00     0.049 A 
ATOM     55  H   UNL A   1      47.068  27.684  26.717  1.00  0.00     0.167 HD
ATOM     56  C   UNL A   1      42.876  28.446  27.759  1.00  0.00     0.031 A 
ATOM     57  C   UNL A   1      49.742  28.389  26.371  1.00  0.00     0.031 A 
ATOM     58  C   UNL A   1      43.567  29.668  28.073  1.00  0.00     0.049 A 
ATOM     59  C   UNL A   1      49.043  29.618  26.887  1.00  0.00     0.074 A 
ATOM     60  C   UNL A   1      43.057  30.828  28.626  1.00  0.00     0.029 A 
ATOM     61  N   UNL A   1      44.916  29.892  27.840  1.00  0.00    -0.354 N 
ATOM     62  N   UNL A   1      47.782  29.781  27.212  1.00  0.00    -0.248 NA
ATOM     63  C   UNL A   1      49.871  30.817  27.073  1.00  0.00     0.031 C 
ATOM     64  C   UNL A   1      44.082  31.781  28.656  1.00  0.00     0.029 A 
ATOM     65  C   UNL A   1      45.248  31.188  28.196  1.00  0.00     0.049 A 
ATOM     66  H   UNL A   1      45.544  29.228  27.475  1.00  0.00     0.167 HD
ATOM     67  C   UNL A   1      47.669  31.093  27.657  1.00  0.00     0.074 A 
ATOM     68  C   UNL A   1      48.996  31.671  27.585  1.00  0.00     0.031 C 
ATOM     69  C   UNL A   1      46.568  31.759  28.089  1.00  0.00     0.031 A 
BRANCH  56  70
ATOM     70  C   UNL A   1      41.384  28.382  27.946  1.00  0.00    -0.014 A 
ATOM     71  C   UNL A   1      40.495  28.942  27.014  1.00  0.00     0.009 A 
ATOM     72  C   UNL A   1      40.862  27.760  29.091  1.00  0.00     0.009 A 
ATOM     73  C   UNL A   1      39.118  28.924  27.251  1.00  0.00     0.001 A 
ATOM     74  C   UNL A   1      39.483  27.712  29.307  1.00  0.00     0.001 A 
ATOM     75  C   UNL A   1      38.614  28.307  28.395  1.00  0.00     0.000 A 
ENDBRANCH  56  70
BRANCH  57  76
ATOM     76  C   UNL A   1      51.189  28.412  26.034  1.00  0.00    -0.014 A 
ATOM     77  C   UNL A   1      52.164  28.135  27.003  1.00  0.00     0.009 A 
ATOM     78  C   UNL A   1      51.601  28.701  24.721  1.00  0.00     0.009 A 
ATOM     79  C   UNL A   1      53.520  28.159  26.667  1.00  0.00     0.001 A 
ATOM     80  C   UNL A   1      52.954  28.694  24.382  1.00  0.00     0.001 A 
ATOM     81  C   UNL A   1      53.914  28.429  25.357  1.00  0.00     0.000 A 
ENDBRANCH  57  76
BRANCH  69  82
ATOM     82  C   UNL A   1      46.761  33.187  28.525  1.00  0.00    -0.014 A 
ATOM     83  C   UNL A   1      46.515  34.261  27.654  1.00  0.00     0.009 A 
ATOM     84  C   UNL A   1      47.182  33.464  29.836  1.00  0.00     0.009 A 
ATOM     85  C   UNL A   1      46.736  35.576  28.070  1.00  0.00     0.001 A 
ATOM     86  C   UNL A   1      47.367  34.781  30.260  1.00  0.00     0.001 A 
ATOM     87  C   UNL A   1      47.159  35.834  29.372  1.00  0.00     0.000 A 
ENDBRANCH  69  82
ENDBRANCH  43  44
ENDBRANCH  36  38
ENDBRANCH  35  36
ENDBRANCH  34  35
ENDBRANCH  33  34
ENDBRANCH  32  33
ENDBRANCH  31  32
ENDBRANCH  30  31
ENDBRANCH   1  30
TORSDOF 22
ENDMDL
