MODEL 1
REMARK VINA RESULT:     -10.9      0.000      0.000
REMARK SMILES CC1(C)[C@@]2(C(=O)OCCOCCOCCOCCOC(=O)c3ccc(-c4c5nc(c(-c6ccccc6)c6ccc([nH]6)c(-c6ccccc6)c6nc(c(-c7ccccc7)c7ccc4[nH]7)C=C6)C=C5)cc3)CC[C@]1(C)/C(=N/NC(=O)c1ccc(Cl)cc1)C2
REMARK SMILES IDX 13 1 12 2 11 3 10 4 9 5 8 6 7 7 5 8 6 9 4 10 1 11 2 12 3 13
REMARK SMILES IDX 72 14 70 15 86 16 71 17 73 18 74 19 75 20 76 21 77 22 78 24
REMARK SMILES IDX 79 25 80 26 85 27 81 28 84 29 82 30 83 31 14 32 15 33 16 34
REMARK SMILES IDX 17 35 18 36 19 37 20 38 21 39 22 40 23 41 69 42 24 43 68 44
REMARK SMILES IDX 25 45 26 46 27 47 62 48 28 49 67 50 61 51 63 52 29 53 66 54
REMARK SMILES IDX 60 55 59 56 30 58 52 59 37 60 51 61 38 62 41 63 50 64 64 65
REMARK SMILES IDX 39 66 40 67 49 69 65 70 42 71 31 72 32 73 36 74 33 75 35 76
REMARK SMILES IDX 34 77 53 78 54 79 58 80 55 81 57 82 56 83 43 84 44 85 48 86
REMARK SMILES IDX 45 87 47 88 46 89
REMARK H PARENT 76 23 63 57 41 68
REMARK Flexibility Score: inf
ROOT
ATOM      1  O   UNL A   1      32.778  35.709  30.855  1.00  0.00    -0.377 OA
ENDROOT
BRANCH   1   2
ATOM      2  C   UNL A   1      33.359  35.188  29.656  1.00  0.00     0.188 C 
BRANCH   2   3
ATOM      3  C   UNL A   1      34.107  33.849  29.772  1.00  0.00     0.188 C 
BRANCH   3   4
ATOM      4  O   UNL A   1      34.779  33.381  28.600  1.00  0.00    -0.376 OA
BRANCH   4   5
ATOM      5  C   UNL A   1      34.017  32.669  27.629  1.00  0.00     0.202 C 
BRANCH   5   6
ATOM      6  C   UNL A   1      34.032  31.156  27.807  1.00  0.00     0.261 C 
BRANCH   6   7
ATOM      7  O   UNL A   1      33.347  30.483  26.738  1.00  0.00    -0.463 OA
BRANCH   7   8
ATOM      8  C   UNL A   1      33.718  29.193  26.505  1.00  0.00     0.313 C 
ATOM      9  O   UNL A   1      34.794  28.704  26.812  1.00  0.00    -0.252 OA
BRANCH   8  10
ATOM     10  C   UNL A   1      32.638  28.471  25.732  1.00  0.00     0.079 C 
ATOM     11  C   UNL A   1      33.613  28.923  23.355  1.00  0.00     0.013 C 
ATOM     12  C   UNL A   1      33.004  27.898  24.334  1.00  0.00    -0.008 C 
ATOM     13  C   UNL A   1      33.957  26.680  24.347  1.00  0.00     0.013 C 
ATOM     14  C   UNL A   1      31.514  27.521  24.043  1.00  0.00     0.014 C 
ATOM     15  C   UNL A   1      31.485  29.479  25.420  1.00  0.00     0.021 C 
ATOM     16  C   UNL A   1      32.023  27.242  26.452  1.00  0.00     0.073 C 
ATOM     17  C   UNL A   1      30.760  28.850  24.219  1.00  0.00     0.014 C 
ATOM     18  C   UNL A   1      31.239  26.799  22.742  1.00  0.00     0.018 C 
ATOM     19  C   UNL A   1      31.154  26.736  25.330  1.00  0.00     0.046 C 
ATOM     20  N   UNL A   1      30.249  25.815  25.274  1.00  0.00    -0.181 NA
BRANCH  20  21
ATOM     21  N   UNL A   1      29.859  24.954  26.242  1.00  0.00    -0.243 N 
ATOM     22  C   UNL A   1      30.239  23.720  26.710  1.00  0.00     0.271 C 
ATOM     23  H   UNL A   1      29.096  25.311  26.751  1.00  0.00     0.194 HD
ATOM     24  O   UNL A   1      29.527  23.151  27.543  1.00  0.00    -0.267 OA
BRANCH  22  25
ATOM     25  C   UNL A   1      31.475  23.037  26.312  1.00  0.00     0.041 A 
ATOM     26  C   UNL A   1      32.687  23.684  26.595  1.00  0.00     0.015 A 
ATOM     27  C   UNL A   1      31.468  21.803  25.652  1.00  0.00     0.015 A 
ATOM     28  C   UNL A   1      33.898  23.058  26.304  1.00  0.00     0.021 A 
ATOM     29  C   UNL A   1      32.687  21.178  25.362  1.00  0.00     0.021 A 
ATOM     30  C   UNL A   1      33.893  21.798  25.708  1.00  0.00     0.041 A 
ATOM     31  Cl  UNL A   1      35.385  20.989  25.427  1.00  0.00    -0.084 Cl
ENDBRANCH  22  25
ENDBRANCH  20  21
ENDBRANCH   8  10
ENDBRANCH   7   8
ENDBRANCH   6   7
ENDBRANCH   5   6
ENDBRANCH   4   5
ENDBRANCH   3   4
ENDBRANCH   2   3
ENDBRANCH   1   2
BRANCH   1  32
ATOM     32  C   UNL A   1      33.284  36.966  31.293  1.00  0.00     0.188 C 
BRANCH  32  33
ATOM     33  C   UNL A   1      33.874  36.986  32.706  1.00  0.00     0.188 C 
BRANCH  33  34
ATOM     34  O   UNL A   1      33.683  35.762  33.413  1.00  0.00    -0.376 OA
BRANCH  34  35
ATOM     35  C   UNL A   1      34.902  35.219  33.924  1.00  0.00     0.202 C 
BRANCH  35  36
ATOM     36  C   UNL A   1      35.796  34.579  32.846  1.00  0.00     0.261 C 
BRANCH  36  37
ATOM     37  O   UNL A   1      35.760  33.144  32.765  1.00  0.00    -0.460 OA
BRANCH  37  38
ATOM     38  C   UNL A   1      36.671  32.471  33.500  1.00  0.00     0.338 C 
ATOM     39  O   UNL A   1      36.721  32.385  34.714  1.00  0.00    -0.246 OA
BRANCH  38  40
ATOM     40  C   UNL A   1      37.597  31.776  32.585  1.00  0.00     0.060 A 
ATOM     41  C   UNL A   1      38.661  31.034  33.110  1.00  0.00     0.016 A 
ATOM     42  C   UNL A   1      37.462  31.942  31.205  1.00  0.00     0.016 A 
ATOM     43  C   UNL A   1      39.605  30.463  32.249  1.00  0.00     0.010 A 
ATOM     44  C   UNL A   1      38.420  31.391  30.347  1.00  0.00     0.010 A 
ATOM     45  C   UNL A   1      39.510  30.671  30.866  1.00  0.00    -0.014 A 
BRANCH  45  46
ATOM     46  C   UNL A   1      40.631  30.284  29.976  1.00  0.00     0.031 A 
ATOM     47  C   UNL A   1      40.589  28.943  29.296  1.00  0.00     0.074 A 
ATOM     48  C   UNL A   1      41.684  31.099  29.784  1.00  0.00     0.049 A 
ATOM     49  N   UNL A   1      41.469  28.384  28.503  1.00  0.00    -0.248 NA
ATOM     50  C   UNL A   1      39.393  28.122  29.544  1.00  0.00     0.031 C 
ATOM     51  C   UNL A   1      41.839  32.433  30.359  1.00  0.00     0.029 A 
ATOM     52  N   UNL A   1      42.833  30.908  29.056  1.00  0.00    -0.354 N 
ATOM     53  C   UNL A   1      40.935  27.149  28.160  1.00  0.00     0.074 A 
ATOM     54  C   UNL A   1      39.665  27.030  28.845  1.00  0.00     0.031 C 
ATOM     55  C   UNL A   1      43.028  32.934  29.978  1.00  0.00     0.029 A 
ATOM     56  C   UNL A   1      43.725  31.946  29.155  1.00  0.00     0.049 A 
ATOM     57  H   UNL A   1      43.001  30.103  28.514  1.00  0.00     0.167 HD
ATOM     58  C   UNL A   1      41.453  26.195  27.350  1.00  0.00     0.031 A 
ATOM     59  C   UNL A   1      44.971  32.075  28.657  1.00  0.00     0.031 A 
ATOM     60  C   UNL A   1      42.729  26.289  26.695  1.00  0.00     0.049 A 
ATOM     61  C   UNL A   1      45.560  30.967  27.823  1.00  0.00     0.074 A 
ATOM     62  C   UNL A   1      43.328  25.383  25.838  1.00  0.00     0.029 A 
ATOM     63  N   UNL A   1      43.614  27.345  26.845  1.00  0.00    -0.354 N 
ATOM     64  N   UNL A   1      45.022  29.828  27.461  1.00  0.00    -0.248 NA
ATOM     65  C   UNL A   1      46.931  31.168  27.326  1.00  0.00     0.031 C 
ATOM     66  C   UNL A   1      44.601  25.864  25.514  1.00  0.00     0.029 A 
ATOM     67  C   UNL A   1      44.770  27.097  26.124  1.00  0.00     0.049 A 
ATOM     68  H   UNL A   1      43.446  28.152  27.383  1.00  0.00     0.167 HD
ATOM     69  C   UNL A   1      45.974  29.189  26.674  1.00  0.00     0.074 A 
ATOM     70  C   UNL A   1      47.120  30.073  26.602  1.00  0.00     0.031 C 
ATOM     71  C   UNL A   1      45.906  27.980  26.065  1.00  0.00     0.031 A 
BRANCH  58  72
ATOM     72  C   UNL A   1      40.647  24.940  27.166  1.00  0.00    -0.014 A 
ATOM     73  C   UNL A   1      39.467  24.937  26.406  1.00  0.00     0.009 A 
ATOM     74  C   UNL A   1      41.087  23.741  27.746  1.00  0.00     0.009 A 
ATOM     75  C   UNL A   1      38.725  23.762  26.260  1.00  0.00     0.001 A 
ATOM     76  C   UNL A   1      40.356  22.564  27.579  1.00  0.00     0.001 A 
ATOM     77  C   UNL A   1      39.170  22.577  26.845  1.00  0.00     0.000 A 
ENDBRANCH  58  72
BRANCH  59  78
ATOM     78  C   UNL A   1      45.768  33.293  28.958  1.00  0.00    -0.014 A 
ATOM     79  C   UNL A   1      45.509  34.503  28.297  1.00  0.00     0.009 A 
ATOM     80  C   UNL A   1      46.807  33.243  29.901  1.00  0.00     0.009 A 
ATOM     81  C   UNL A   1      46.288  35.633  28.560  1.00  0.00     0.001 A 
ATOM     82  C   UNL A   1      47.566  34.381  30.181  1.00  0.00     0.001 A 
ATOM     83  C   UNL A   1      47.312  35.573  29.504  1.00  0.00     0.000 A 
ENDBRANCH  59  78
BRANCH  71  84
ATOM     84  C   UNL A   1      47.088  27.550  25.241  1.00  0.00    -0.014 A 
ATOM     85  C   UNL A   1      47.133  27.778  23.857  1.00  0.00     0.009 A 
ATOM     86  C   UNL A   1      48.192  26.953  25.870  1.00  0.00     0.009 A 
ATOM     87  C   UNL A   1      48.253  27.392  23.115  1.00  0.00     0.001 A 
ATOM     88  C   UNL A   1      49.321  26.594  25.130  1.00  0.00     0.001 A 
ATOM     89  C   UNL A   1      49.347  26.807  23.752  1.00  0.00     0.000 A 
ENDBRANCH  71  84
ENDBRANCH  45  46
ENDBRANCH  38  40
ENDBRANCH  37  38
ENDBRANCH  36  37
ENDBRANCH  35  36
ENDBRANCH  34  35
ENDBRANCH  33  34
ENDBRANCH  32  33
ENDBRANCH   1  32
TORSDOF 22
ENDMDL
MODEL 2
REMARK VINA RESULT:     -10.2      4.714     10.709
REMARK SMILES CC1(C)[C@@]2(C(=O)OCCOCCOCCOCCOC(=O)c3ccc(-c4c5nc(c(-c6ccccc6)c6ccc([nH]6)c(-c6ccccc6)c6nc(c(-c7ccccc7)c7ccc4[nH]7)C=C6)C=C5)cc3)CC[C@]1(C)/C(=N/NC(=O)c1ccc(Cl)cc1)C2
REMARK SMILES IDX 13 1 12 2 11 3 10 4 9 5 8 6 7 7 5 8 6 9 4 10 1 11 2 12 3 13
REMARK SMILES IDX 72 14 70 15 86 16 71 17 73 18 74 19 75 20 76 21 77 22 78 24
REMARK SMILES IDX 79 25 80 26 85 27 81 28 84 29 82 30 83 31 14 32 15 33 16 34
REMARK SMILES IDX 17 35 18 36 19 37 20 38 21 39 22 40 23 41 69 42 24 43 68 44
REMARK SMILES IDX 25 45 26 46 27 47 62 48 28 49 67 50 61 51 63 52 29 53 66 54
REMARK SMILES IDX 60 55 59 56 30 58 52 59 37 60 51 61 38 62 41 63 50 64 64 65
REMARK SMILES IDX 39 66 40 67 49 69 65 70 42 71 31 72 32 73 36 74 33 75 35 76
REMARK SMILES IDX 34 77 53 78 54 79 58 80 55 81 57 82 56 83 43 84 44 85 48 86
REMARK SMILES IDX 45 87 47 88 46 89
REMARK H PARENT 76 23 63 57 41 68
REMARK Flexibility Score: inf
ROOT
ATOM      1  O   UNL A   1      44.315  18.939  25.714  1.00  0.00    -0.377 OA
ENDROOT
BRANCH   1   2
ATOM      2  C   UNL A   1      43.047  19.497  25.357  1.00  0.00     0.188 C 
BRANCH   2   3
ATOM      3  C   UNL A   1      41.843  19.103  26.228  1.00  0.00     0.188 C 
BRANCH   3   4
ATOM      4  O   UNL A   1      40.548  19.472  25.747  1.00  0.00    -0.376 OA
BRANCH   4   5
ATOM      5  C   UNL A   1      39.783  20.392  26.521  1.00  0.00     0.202 C 
BRANCH   5   6
ATOM      6  C   UNL A   1      39.042  21.439  25.697  1.00  0.00     0.261 C 
BRANCH   6   7
ATOM      7  O   UNL A   1      37.677  21.585  26.119  1.00  0.00    -0.463 OA
BRANCH   7   8
ATOM      8  C   UNL A   1      37.054  22.739  25.748  1.00  0.00     0.313 C 
ATOM      9  O   UNL A   1      37.480  23.865  25.952  1.00  0.00    -0.252 OA
BRANCH   8  10
ATOM     10  C   UNL A   1      35.713  22.430  25.123  1.00  0.00     0.079 C 
ATOM     11  C   UNL A   1      34.481  21.811  27.336  1.00  0.00     0.013 C 
ATOM     12  C   UNL A   1      34.444  22.591  26.006  1.00  0.00    -0.008 C 
ATOM     13  C   UNL A   1      34.064  24.048  26.359  1.00  0.00     0.013 C 
ATOM     14  C   UNL A   1      33.534  21.958  24.903  1.00  0.00     0.014 C 
ATOM     15  C   UNL A   1      35.683  20.920  24.717  1.00  0.00     0.021 C 
ATOM     16  C   UNL A   1      35.362  23.273  23.868  1.00  0.00     0.073 C 
ATOM     17  C   UNL A   1      34.184  20.590  24.632  1.00  0.00     0.014 C 
ATOM     18  C   UNL A   1      32.049  21.912  25.192  1.00  0.00     0.018 C 
ATOM     19  C   UNL A   1      33.947  22.797  23.666  1.00  0.00     0.046 C 
ATOM     20  N   UNL A   1      33.091  22.981  22.716  1.00  0.00    -0.181 NA
BRANCH  20  21
ATOM     21  N   UNL A   1      33.209  23.753  21.610  1.00  0.00    -0.243 N 
ATOM     22  C   UNL A   1      32.913  25.042  21.241  1.00  0.00     0.271 C 
ATOM     23  H   UNL A   1      33.622  23.253  20.869  1.00  0.00     0.194 HD
ATOM     24  O   UNL A   1      33.026  25.365  20.055  1.00  0.00    -0.267 OA
BRANCH  22  25
ATOM     25  C   UNL A   1      32.505  26.091  22.182  1.00  0.00     0.041 A 
ATOM     26  C   UNL A   1      33.438  26.481  23.155  1.00  0.00     0.015 A 
ATOM     27  C   UNL A   1      31.233  26.672  22.148  1.00  0.00     0.015 A 
ATOM     28  C   UNL A   1      33.137  27.520  24.035  1.00  0.00     0.021 A 
ATOM     29  C   UNL A   1      30.935  27.715  23.033  1.00  0.00     0.021 A 
ATOM     30  C   UNL A   1      31.894  28.147  23.957  1.00  0.00     0.041 A 
ATOM     31  Cl  UNL A   1      31.554  29.483  24.986  1.00  0.00    -0.084 Cl
ENDBRANCH  22  25
ENDBRANCH  20  21
ENDBRANCH   8  10
ENDBRANCH   7   8
ENDBRANCH   6   7
ENDBRANCH   5   6
ENDBRANCH   4   5
ENDBRANCH   3   4
ENDBRANCH   2   3
ENDBRANCH   1   2
BRANCH   1  32
ATOM     32  C   UNL A   1      45.329  19.019  24.718  1.00  0.00     0.188 C 
BRANCH  32  33
ATOM     33  C   UNL A   1      46.340  20.155  24.893  1.00  0.00     0.188 C 
BRANCH  33  34
ATOM     34  O   UNL A   1      45.815  21.272  25.608  1.00  0.00    -0.376 OA
BRANCH  34  35
ATOM     35  C   UNL A   1      44.963  22.094  24.808  1.00  0.00     0.202 C 
BRANCH  35  36
ATOM     36  C   UNL A   1      45.578  23.458  24.447  1.00  0.00     0.261 C 
BRANCH  36  37
ATOM     37  O   UNL A   1      44.709  24.597  24.571  1.00  0.00    -0.460 OA
BRANCH  37  38
ATOM     38  C   UNL A   1      45.262  25.734  25.046  1.00  0.00     0.338 C 
ATOM     39  O   UNL A   1      46.326  26.228  24.722  1.00  0.00    -0.246 OA
BRANCH  38  40
ATOM     40  C   UNL A   1      44.326  26.348  26.009  1.00  0.00     0.060 A 
ATOM     41  C   UNL A   1      44.377  27.726  26.239  1.00  0.00     0.016 A 
ATOM     42  C   UNL A   1      43.464  25.537  26.750  1.00  0.00     0.016 A 
ATOM     43  C   UNL A   1      43.569  28.299  27.228  1.00  0.00     0.010 A 
ATOM     44  C   UNL A   1      42.674  26.107  27.754  1.00  0.00     0.010 A 
ATOM     45  C   UNL A   1      42.742  27.486  28.016  1.00  0.00    -0.014 A 
BRANCH  45  46
ATOM     46  C   UNL A   1      42.076  28.044  29.218  1.00  0.00     0.031 A 
ATOM     47  C   UNL A   1      40.681  28.594  29.086  1.00  0.00     0.074 A 
ATOM     48  C   UNL A   1      42.701  28.082  30.408  1.00  0.00     0.049 A 
ATOM     49  N   UNL A   1      39.921  29.157  29.992  1.00  0.00    -0.248 NA
ATOM     50  C   UNL A   1      40.063  28.495  27.754  1.00  0.00     0.031 C 
ATOM     51  C   UNL A   1      44.038  27.562  30.680  1.00  0.00     0.029 A 
ATOM     52  N   UNL A   1      42.288  28.601  31.611  1.00  0.00    -0.354 N 
ATOM     53  C   UNL A   1      38.737  29.480  29.339  1.00  0.00     0.074 A 
ATOM     54  C   UNL A   1      38.887  29.069  27.959  1.00  0.00     0.031 C 
ATOM     55  C   UNL A   1      44.346  27.806  31.966  1.00  0.00     0.029 A 
ATOM     56  C   UNL A   1      43.237  28.522  32.599  1.00  0.00     0.049 A 
ATOM     57  H   UNL A   1      41.394  28.992  31.752  1.00  0.00     0.167 HD
ATOM     58  C   UNL A   1      37.625  30.067  29.840  1.00  0.00     0.031 A 
ATOM     59  C   UNL A   1      43.223  28.993  33.861  1.00  0.00     0.031 A 
ATOM     60  C   UNL A   1      37.482  30.511  31.201  1.00  0.00     0.049 A 
ATOM     61  C   UNL A   1      42.004  29.715  34.374  1.00  0.00     0.074 A 
ATOM     62  C   UNL A   1      36.384  31.098  31.805  1.00  0.00     0.029 A 
ATOM     63  N   UNL A   1      38.477  30.438  32.161  1.00  0.00    -0.354 N 
ATOM     64  N   UNL A   1      40.871  29.964  33.765  1.00  0.00    -0.248 NA
ATOM     65  C   UNL A   1      42.064  30.216  35.757  1.00  0.00     0.031 C 
ATOM     66  C   UNL A   1      36.735  31.433  33.118  1.00  0.00     0.029 A 
ATOM     67  C   UNL A   1      38.033  31.002  33.345  1.00  0.00     0.049 A 
ATOM     68  H   UNL A   1      39.369  30.044  32.022  1.00  0.00     0.167 HD
ATOM     69  C   UNL A   1      40.076  30.627  34.693  1.00  0.00     0.074 A 
ATOM     70  C   UNL A   1      40.851  30.731  35.912  1.00  0.00     0.031 C 
ATOM     71  C   UNL A   1      38.815  31.105  34.549  1.00  0.00     0.031 A 
BRANCH  58  72
ATOM     72  C   UNL A   1      36.487  30.304  28.888  1.00  0.00    -0.014 A 
ATOM     73  C   UNL A   1      36.203  31.588  28.398  1.00  0.00     0.009 A 
ATOM     74  C   UNL A   1      35.701  29.223  28.462  1.00  0.00     0.009 A 
ATOM     75  C   UNL A   1      35.130  31.790  27.526  1.00  0.00     0.001 A 
ATOM     76  C   UNL A   1      34.645  29.423  27.572  1.00  0.00     0.001 A 
ATOM     77  C   UNL A   1      34.354  30.707  27.112  1.00  0.00     0.000 A 
ENDBRANCH  58  72
BRANCH  59  78
ATOM     78  C   UNL A   1      44.418  28.825  34.729  1.00  0.00    -0.014 A 
ATOM     79  C   UNL A   1      44.559  27.696  35.549  1.00  0.00     0.009 A 
ATOM     80  C   UNL A   1      45.419  29.809  34.751  1.00  0.00     0.009 A 
ATOM     81  C   UNL A   1      45.667  27.566  36.389  1.00  0.00     0.001 A 
ATOM     82  C   UNL A   1      46.539  29.664  35.572  1.00  0.00     0.001 A 
ATOM     83  C   UNL A   1      46.658  28.547  36.397  1.00  0.00     0.000 A 
ENDBRANCH  59  78
BRANCH  71  84
ATOM     84  C   UNL A   1      38.180  31.758  35.745  1.00  0.00    -0.014 A 
ATOM     85  C   UNL A   1      38.186  31.137  37.004  1.00  0.00     0.009 A 
ATOM     86  C   UNL A   1      37.612  33.036  35.619  1.00  0.00     0.009 A 
ATOM     87  C   UNL A   1      37.613  31.774  38.108  1.00  0.00     0.001 A 
ATOM     88  C   UNL A   1      37.064  33.681  36.729  1.00  0.00     0.001 A 
ATOM     89  C   UNL A   1      37.058  33.046  37.971  1.00  0.00     0.000 A 
ENDBRANCH  71  84
ENDBRANCH  45  46
ENDBRANCH  38  40
ENDBRANCH  37  38
ENDBRANCH  36  37
ENDBRANCH  35  36
ENDBRANCH  34  35
ENDBRANCH  33  34
ENDBRANCH  32  33
ENDBRANCH   1  32
TORSDOF 22
ENDMDL
MODEL 3
REMARK VINA RESULT:     -10.0      1.110      5.675
REMARK SMILES CC1(C)[C@@]2(C(=O)OCCOCCOCCOCCOC(=O)c3ccc(-c4c5nc(c(-c6ccccc6)c6ccc([nH]6)c(-c6ccccc6)c6nc(c(-c7ccccc7)c7ccc4[nH]7)C=C6)C=C5)cc3)CC[C@]1(C)/C(=N/NC(=O)c1ccc(Cl)cc1)C2
REMARK SMILES IDX 13 1 12 2 11 3 10 4 9 5 8 6 7 7 5 8 6 9 4 10 1 11 2 12 3 13
REMARK SMILES IDX 72 14 70 15 86 16 71 17 73 18 74 19 75 20 76 21 77 22 78 24
REMARK SMILES IDX 79 25 80 26 85 27 81 28 84 29 82 30 83 31 14 32 15 33 16 34
REMARK SMILES IDX 17 35 18 36 19 37 20 38 21 39 22 40 23 41 69 42 24 43 68 44
REMARK SMILES IDX 25 45 26 46 27 47 62 48 28 49 67 50 61 51 63 52 29 53 66 54
REMARK SMILES IDX 60 55 59 56 30 58 52 59 37 60 51 61 38 62 41 63 50 64 64 65
REMARK SMILES IDX 39 66 40 67 49 69 65 70 42 71 31 72 32 73 36 74 33 75 35 76
REMARK SMILES IDX 34 77 53 78 54 79 58 80 55 81 57 82 56 83 43 84 44 85 48 86
REMARK SMILES IDX 45 87 47 88 46 89
REMARK H PARENT 76 23 63 57 41 68
REMARK Flexibility Score: inf
ROOT
ATOM      1  O   UNL A   1      33.386  34.318  31.385  1.00  0.00    -0.377 OA
ENDROOT
BRANCH   1   2
ATOM      2  C   UNL A   1      34.576  34.070  30.631  1.00  0.00     0.188 C 
BRANCH   2   3
ATOM      3  C   UNL A   1      35.211  32.677  30.772  1.00  0.00     0.188 C 
BRANCH   3   4
ATOM      4  O   UNL A   1      35.338  31.901  29.578  1.00  0.00    -0.376 OA
BRANCH   4   5
ATOM      5  C   UNL A   1      34.232  31.866  28.680  1.00  0.00     0.202 C 
BRANCH   5   6
ATOM      6  C   UNL A   1      34.550  31.263  27.317  1.00  0.00     0.261 C 
BRANCH   6   7
ATOM      7  O   UNL A   1      33.479  30.436  26.833  1.00  0.00    -0.463 OA
BRANCH   7   8
ATOM      8  C   UNL A   1      33.767  29.114  26.669  1.00  0.00     0.313 C 
ATOM      9  O   UNL A   1      34.794  28.567  27.040  1.00  0.00    -0.252 OA
BRANCH   8  10
ATOM     10  C   UNL A   1      32.670  28.435  25.883  1.00  0.00     0.079 C 
ATOM     11  C   UNL A   1      33.621  28.966  23.513  1.00  0.00     0.013 C 
ATOM     12  C   UNL A   1      33.012  27.911  24.459  1.00  0.00    -0.008 C 
ATOM     13  C   UNL A   1      33.952  26.684  24.414  1.00  0.00     0.013 C 
ATOM     14  C   UNL A   1      31.515  27.563  24.173  1.00  0.00     0.014 C 
ATOM     15  C   UNL A   1      31.525  29.467  25.624  1.00  0.00     0.021 C 
ATOM     16  C   UNL A   1      32.049  27.186  26.563  1.00  0.00     0.073 C 
ATOM     17  C   UNL A   1      30.778  28.892  24.409  1.00  0.00     0.014 C 
ATOM     18  C   UNL A   1      31.216  26.894  22.849  1.00  0.00     0.018 C 
ATOM     19  C   UNL A   1      31.161  26.732  25.434  1.00  0.00     0.046 C 
ATOM     20  N   UNL A   1      30.245  25.824  25.353  1.00  0.00    -0.181 NA
BRANCH  20  21
ATOM     21  N   UNL A   1      29.857  24.931  26.293  1.00  0.00    -0.243 N 
ATOM     22  C   UNL A   1      30.329  23.758  26.829  1.00  0.00     0.271 C 
ATOM     23  H   UNL A   1      29.003  25.196  26.706  1.00  0.00     0.194 HD
ATOM     24  O   UNL A   1      29.603  23.114  27.591  1.00  0.00    -0.267 OA
BRANCH  22  25
ATOM     25  C   UNL A   1      31.676  23.229  26.584  1.00  0.00     0.041 A 
ATOM     26  C   UNL A   1      32.103  23.148  25.250  1.00  0.00     0.015 A 
ATOM     27  C   UNL A   1      32.507  22.792  27.621  1.00  0.00     0.015 A 
ATOM     28  C   UNL A   1      33.396  22.719  24.955  1.00  0.00     0.021 A 
ATOM     29  C   UNL A   1      33.805  22.363  27.320  1.00  0.00     0.021 A 
ATOM     30  C   UNL A   1      34.249  22.348  25.993  1.00  0.00     0.041 A 
ATOM     31  Cl  UNL A   1      35.871  21.900  25.636  1.00  0.00    -0.084 Cl
ENDBRANCH  22  25
ENDBRANCH  20  21
ENDBRANCH   8  10
ENDBRANCH   7   8
ENDBRANCH   6   7
ENDBRANCH   5   6
ENDBRANCH   4   5
ENDBRANCH   3   4
ENDBRANCH   2   3
ENDBRANCH   1   2
BRANCH   1  32
ATOM     32  C   UNL A   1      33.561  35.048  32.595  1.00  0.00     0.188 C 
BRANCH  32  33
ATOM     33  C   UNL A   1      34.806  35.937  32.657  1.00  0.00     0.188 C 
BRANCH  33  34
ATOM     34  O   UNL A   1      35.840  35.401  33.481  1.00  0.00    -0.376 OA
BRANCH  34  35
ATOM     35  C   UNL A   1      35.369  34.393  34.377  1.00  0.00     0.202 C 
BRANCH  35  36
ATOM     36  C   UNL A   1      35.936  32.991  34.088  1.00  0.00     0.261 C 
BRANCH  36  37
ATOM     37  O   UNL A   1      36.896  32.489  35.034  1.00  0.00    -0.460 OA
BRANCH  37  38
ATOM     38  C   UNL A   1      38.156  32.963  34.929  1.00  0.00     0.338 C 
ATOM     39  O   UNL A   1      38.656  33.875  35.564  1.00  0.00    -0.246 OA
BRANCH  38  40
ATOM     40  C   UNL A   1      38.888  32.148  33.940  1.00  0.00     0.060 A 
ATOM     41  C   UNL A   1      39.710  31.104  34.376  1.00  0.00     0.016 A 
ATOM     42  C   UNL A   1      38.828  32.484  32.585  1.00  0.00     0.016 A 
ATOM     43  C   UNL A   1      40.490  30.398  33.454  1.00  0.00     0.010 A 
ATOM     44  C   UNL A   1      39.626  31.792  31.668  1.00  0.00     0.010 A 
ATOM     45  C   UNL A   1      40.480  30.763  32.101  1.00  0.00    -0.014 A 
BRANCH  45  46
ATOM     46  C   UNL A   1      41.479  30.190  31.166  1.00  0.00     0.031 A 
ATOM     47  C   UNL A   1      42.774  30.925  30.948  1.00  0.00     0.074 A 
ATOM     48  C   UNL A   1      41.239  29.045  30.504  1.00  0.00     0.049 A 
ATOM     49  N   UNL A   1      43.775  30.628  30.158  1.00  0.00    -0.248 NA
ATOM     50  C   UNL A   1      42.964  32.159  31.728  1.00  0.00     0.031 C 
ATOM     51  C   UNL A   1      40.040  28.222  30.641  1.00  0.00     0.029 A 
ATOM     52  N   UNL A   1      41.997  28.388  29.565  1.00  0.00    -0.354 N 
ATOM     53  C   UNL A   1      44.711  31.638  30.343  1.00  0.00     0.074 A 
ATOM     54  C   UNL A   1      44.152  32.564  31.304  1.00  0.00     0.031 C 
ATOM     55  C   UNL A   1      40.134  27.176  29.800  1.00  0.00     0.029 A 
ATOM     56  C   UNL A   1      41.386  27.272  29.049  1.00  0.00     0.049 A 
ATOM     57  H   UNL A   1      42.894  28.687  29.290  1.00  0.00     0.167 HD
ATOM     58  C   UNL A   1      45.927  31.785  29.765  1.00  0.00     0.031 A 
ATOM     59  C   UNL A   1      41.781  26.438  28.067  1.00  0.00     0.031 A 
ATOM     60  C   UNL A   1      46.474  30.889  28.782  1.00  0.00     0.049 A 
ATOM     61  C   UNL A   1      43.103  26.666  27.381  1.00  0.00     0.074 A 
ATOM     62  C   UNL A   1      47.706  30.945  28.156  1.00  0.00     0.029 A 
ATOM     63  N   UNL A   1      45.811  29.788  28.266  1.00  0.00    -0.354 N 
ATOM     64  N   UNL A   1      44.003  27.592  27.604  1.00  0.00    -0.248 NA
ATOM     65  C   UNL A   1      43.463  25.726  26.307  1.00  0.00     0.031 C 
ATOM     66  C   UNL A   1      47.767  29.909  27.217  1.00  0.00     0.029 A 
ATOM     67  C   UNL A   1      46.594  29.175  27.301  1.00  0.00     0.049 A 
ATOM     68  H   UNL A   1      44.916  29.486  28.543  1.00  0.00     0.167 HD
ATOM     69  C   UNL A   1      45.045  27.332  26.721  1.00  0.00     0.074 A 
ATOM     70  C   UNL A   1      44.671  26.155  25.965  1.00  0.00     0.031 C 
ATOM     71  C   UNL A   1      46.208  28.008  26.552  1.00  0.00     0.031 A 
BRANCH  58  72
ATOM     72  C   UNL A   1      46.730  32.994  30.154  1.00  0.00    -0.014 A 
ATOM     73  C   UNL A   1      47.613  32.962  31.245  1.00  0.00     0.009 A 
ATOM     74  C   UNL A   1      46.614  34.175  29.406  1.00  0.00     0.009 A 
ATOM     75  C   UNL A   1      48.338  34.102  31.599  1.00  0.00     0.001 A 
ATOM     76  C   UNL A   1      47.358  35.305  29.748  1.00  0.00     0.001 A 
ATOM     77  C   UNL A   1      48.212  35.271  30.850  1.00  0.00     0.000 A 
ENDBRANCH  58  72
BRANCH  59  78
ATOM     78  C   UNL A   1      40.899  25.318  27.646  1.00  0.00    -0.014 A 
ATOM     79  C   UNL A   1      41.179  23.999  28.031  1.00  0.00     0.009 A 
ATOM     80  C   UNL A   1      39.778  25.566  26.839  1.00  0.00     0.009 A 
ATOM     81  C   UNL A   1      40.366  22.948  27.599  1.00  0.00     0.001 A 
ATOM     82  C   UNL A   1      38.952  24.517  26.430  1.00  0.00     0.001 A 
ATOM     83  C   UNL A   1      39.251  23.208  26.803  1.00  0.00     0.000 A 
ENDBRANCH  59  78
BRANCH  71  84
ATOM     84  C   UNL A   1      47.177  27.478  25.532  1.00  0.00    -0.014 A 
ATOM     85  C   UNL A   1      48.130  26.503  25.869  1.00  0.00     0.009 A 
ATOM     86  C   UNL A   1      47.101  27.924  24.203  1.00  0.00     0.009 A 
ATOM     87  C   UNL A   1      49.003  26.005  24.899  1.00  0.00     0.001 A 
ATOM     88  C   UNL A   1      47.958  27.405  23.230  1.00  0.00     0.001 A 
ATOM     89  C   UNL A   1      48.913  26.452  23.581  1.00  0.00     0.000 A 
ENDBRANCH  71  84
ENDBRANCH  45  46
ENDBRANCH  38  40
ENDBRANCH  37  38
ENDBRANCH  36  37
ENDBRANCH  35  36
ENDBRANCH  34  35
ENDBRANCH  33  34
ENDBRANCH  32  33
ENDBRANCH   1  32
TORSDOF 22
ENDMDL
