MODEL 1
REMARK VINA RESULT:     -10.8      0.000      0.000
REMARK SMILES COc1cccc([C@@H]2[NH2+][C@@](C)(C(=O)OCCOCCOCCOCCOC(=O)c3ccc(-c4c5nc(c(-c6ccccc6)c6ccc([nH]6)c(-c6ccccc6)c6nc(c(-c7ccccc7)c7ccc4[nH]7)C=C6)C=C5)cc3)[C@@H]3C(=O)N(C)C(=O)[C@@H]32)c1O
REMARK SMILES IDX 20 1 19 2 18 3 17 4 16 5 15 6 14 7 12 8 13 9 10 10 8 11 9 12
REMARK SMILES IDX 84 13 77 16 82 17 11 18 78 19 80 20 83 21 79 22 81 23 7 24
REMARK SMILES IDX 3 25 4 26 85 27 5 28 6 29 2 30 1 31 86 32 21 34 22 35 23 36
REMARK SMILES IDX 24 37 25 38 26 39 27 40 28 41 29 42 30 43 76 44 31 45 75 46
REMARK SMILES IDX 32 47 33 48 34 49 69 50 35 51 74 52 68 53 70 54 36 55 73 56
REMARK SMILES IDX 67 57 66 58 37 60 59 61 44 62 58 63 45 64 48 65 57 66 71 67
REMARK SMILES IDX 46 68 47 69 56 71 72 72 49 73 38 74 39 75 43 76 40 77 42 78
REMARK SMILES IDX 41 79 60 80 61 81 65 82 62 83 64 84 63 85 50 86 51 87 55 88
REMARK SMILES IDX 52 89 54 90 53 91
REMARK H PARENT 9 14 9 15 86 33 70 59 48 70
REMARK Flexibility Score: inf
ROOT
ATOM      1  O   UNL A   1      34.925  32.741  27.579  1.00  0.00    -0.377 OA
ENDROOT
BRANCH   1   2
ATOM      2  C   UNL A   1      34.452  31.577  28.222  1.00  0.00     0.188 C 
BRANCH   2   3
ATOM      3  C   UNL A   1      33.932  30.493  27.256  1.00  0.00     0.188 C 
BRANCH   3   4
ATOM      4  O   UNL A   1      32.697  30.650  26.572  1.00  0.00    -0.376 OA
BRANCH   4   5
ATOM      5  C   UNL A   1      32.218  29.610  25.738  1.00  0.00     0.202 C 
BRANCH   5   6
ATOM      6  C   UNL A   1      31.886  28.222  26.329  1.00  0.00     0.261 C 
BRANCH   6   7
ATOM      7  O   UNL A   1      32.310  27.054  25.595  1.00  0.00    -0.459 OA
BRANCH   7   8
ATOM      8  C   UNL A   1      31.521  25.960  25.722  1.00  0.00     0.368 C 
ATOM      9  O   UNL A   1      30.573  25.913  26.505  1.00  0.00    -0.245 OA
BRANCH   8  10
ATOM     10  C   UNL A   1      31.910  24.722  24.843  1.00  0.00     0.204 C 
ATOM     11  C   UNL A   1      32.366  22.467  25.703  1.00  0.00     0.232 C 
ATOM     12  N   UNL A   1      31.309  23.400  25.231  1.00  0.00    -0.325 N 
ATOM     13  C   UNL A   1      33.612  23.316  25.916  1.00  0.00     0.161 C 
ATOM     14  H   UNL A   1      30.631  23.546  25.979  1.00  0.00     0.347 HD
ATOM     15  H   UNL A   1      30.849  22.995  24.416  1.00  0.00     0.347 HD
ATOM     16  C   UNL A   1      33.418  24.549  25.041  1.00  0.00     0.170 C 
ATOM     17  C   UNL A   1      34.919  22.757  25.440  1.00  0.00     0.239 C 
ATOM     18  C   UNL A   1      31.375  25.136  23.467  1.00  0.00     0.093 C 
ATOM     19  C   UNL A   1      34.284  24.259  23.851  1.00  0.00     0.240 C 
ATOM     20  N   UNL A   1      35.210  23.326  24.232  1.00  0.00    -0.285 N 
ATOM     21  O   UNL A   1      35.579  21.922  26.038  1.00  0.00    -0.274 OA
ATOM     22  O   UNL A   1      34.198  24.774  22.748  1.00  0.00    -0.274 OA
ATOM     23  C   UNL A   1      36.338  22.927  23.432  1.00  0.00     0.156 C 
BRANCH  11  24
ATOM     24  C   UNL A   1      32.577  21.176  24.909  1.00  0.00     0.056 A 
ATOM     25  C   UNL A   1      32.819  18.738  24.759  1.00  0.00     0.161 A 
ATOM     26  C   UNL A   1      32.540  18.804  23.391  1.00  0.00     0.050 A 
ATOM     27  C   UNL A   1      32.878  19.932  25.496  1.00  0.00     0.166 A 
ATOM     28  C   UNL A   1      32.295  20.026  22.771  1.00  0.00     0.005 A 
ATOM     29  C   UNL A   1      32.301  21.198  23.527  1.00  0.00     0.014 A 
BRANCH  25  30
ATOM     30  O   UNL A   1      33.073  17.467  25.196  1.00  0.00    -0.493 OA
ATOM     31  C   UNL A   1      34.215  16.800  24.681  1.00  0.00     0.278 C 
ENDBRANCH  25  30
BRANCH  27  32
ATOM     32  O   UNL A   1      33.280  19.966  26.794  1.00  0.00    -0.504 OA
ATOM     33  H   UNL A   1      33.899  20.611  27.076  1.00  0.00     0.293 HD
ENDBRANCH  27  32
ENDBRANCH  11  24
ENDBRANCH   8  10
ENDBRANCH   7   8
ENDBRANCH   6   7
ENDBRANCH   5   6
ENDBRANCH   4   5
ENDBRANCH   3   4
ENDBRANCH   2   3
ENDBRANCH   1   2
BRANCH   1  34
ATOM     34  C   UNL A   1      34.870  33.926  28.342  1.00  0.00     0.188 C 
BRANCH  34  35
ATOM     35  C   UNL A   1      34.054  33.874  29.645  1.00  0.00     0.188 C 
BRANCH  35  36
ATOM     36  O   UNL A   1      33.996  35.121  30.332  1.00  0.00    -0.376 OA
BRANCH  36  37
ATOM     37  C   UNL A   1      33.686  35.134  31.717  1.00  0.00     0.202 C 
BRANCH  37  38
ATOM     38  C   UNL A   1      34.865  35.156  32.703  1.00  0.00     0.261 C 
BRANCH  38  39
ATOM     39  O   UNL A   1      35.998  34.343  32.369  1.00  0.00    -0.460 OA
BRANCH  39  40
ATOM     40  C   UNL A   1      36.175  33.199  33.061  1.00  0.00     0.338 C 
ATOM     41  O   UNL A   1      35.580  32.847  34.065  1.00  0.00    -0.246 OA
BRANCH  40  42
ATOM     42  C   UNL A   1      37.078  32.332  32.274  1.00  0.00     0.060 A 
ATOM     43  C   UNL A   1      38.073  31.611  32.949  1.00  0.00     0.016 A 
ATOM     44  C   UNL A   1      36.922  32.200  30.892  1.00  0.00     0.016 A 
ATOM     45  C   UNL A   1      38.938  30.781  32.238  1.00  0.00     0.010 A 
ATOM     46  C   UNL A   1      37.813  31.397  30.175  1.00  0.00     0.010 A 
ATOM     47  C   UNL A   1      38.847  30.717  30.842  1.00  0.00    -0.014 A 
BRANCH  47  48
ATOM     48  C   UNL A   1      39.985  30.163  30.071  1.00  0.00     0.031 A 
ATOM     49  C   UNL A   1      41.189  31.046  29.879  1.00  0.00     0.074 A 
ATOM     50  C   UNL A   1      39.980  28.908  29.593  1.00  0.00     0.049 A 
ATOM     51  N   UNL A   1      42.295  30.814  29.221  1.00  0.00    -0.248 NA
ATOM     52  C   UNL A   1      41.136  32.372  30.520  1.00  0.00     0.031 C 
ATOM     53  C   UNL A   1      38.900  27.937  29.761  1.00  0.00     0.029 A 
ATOM     54  N   UNL A   1      40.925  28.237  28.856  1.00  0.00    -0.354 N 
ATOM     55  C   UNL A   1      43.064  31.962  29.369  1.00  0.00     0.074 A 
ATOM     56  C   UNL A   1      42.289  32.902  30.146  1.00  0.00     0.031 C 
ATOM     57  C   UNL A   1      39.237  26.798  29.129  1.00  0.00     0.029 A 
ATOM     58  C   UNL A   1      40.540  26.972  28.487  1.00  0.00     0.049 A 
ATOM     59  H   UNL A   1      41.797  28.628  28.616  1.00  0.00     0.167 HD
ATOM     60  C   UNL A   1      44.312  32.209  28.911  1.00  0.00     0.031 A 
ATOM     61  C   UNL A   1      41.159  26.072  27.698  1.00  0.00     0.031 A 
ATOM     62  C   UNL A   1      45.074  31.288  28.114  1.00  0.00     0.049 A 
ATOM     63  C   UNL A   1      42.510  26.409  27.116  1.00  0.00     0.074 A 
ATOM     64  C   UNL A   1      46.340  31.449  27.582  1.00  0.00     0.029 A 
ATOM     65  N   UNL A   1      44.632  30.031  27.731  1.00  0.00    -0.354 N 
ATOM     66  N   UNL A   1      43.234  27.493  27.270  1.00  0.00    -0.248 NA
ATOM     67  C   UNL A   1      43.135  25.390  26.258  1.00  0.00     0.031 C 
ATOM     68  C   UNL A   1      46.643  30.311  26.829  1.00  0.00     0.029 A 
ATOM     69  C   UNL A   1      45.595  29.413  26.953  1.00  0.00     0.049 A 
ATOM     70  H   UNL A   1      43.763  29.638  27.975  1.00  0.00     0.167 HD
ATOM     71  C   UNL A   1      44.410  27.270  26.563  1.00  0.00     0.074 A 
ATOM     72  C   UNL A   1      44.309  25.943  25.992  1.00  0.00     0.031 C 
ATOM     73  C   UNL A   1      45.480  28.087  26.403  1.00  0.00     0.031 A 
BRANCH  60  74
ATOM     74  C   UNL A   1      44.914  33.548  29.237  1.00  0.00    -0.014 A 
ATOM     75  C   UNL A   1      44.514  34.710  28.558  1.00  0.00     0.009 A 
ATOM     76  C   UNL A   1      45.877  33.652  30.253  1.00  0.00     0.009 A 
ATOM     77  C   UNL A   1      45.087  35.945  28.871  1.00  0.00     0.001 A 
ATOM     78  C   UNL A   1      46.426  34.891  30.584  1.00  0.00     0.001 A 
ATOM     79  C   UNL A   1      46.037  36.034  29.887  1.00  0.00     0.000 A 
ENDBRANCH  60  74
BRANCH  61  80
ATOM     80  C   UNL A   1      40.503  24.776  27.375  1.00  0.00    -0.014 A 
ATOM     81  C   UNL A   1      40.995  23.567  27.890  1.00  0.00     0.009 A 
ATOM     82  C   UNL A   1      39.401  24.740  26.505  1.00  0.00     0.009 A 
ATOM     83  C   UNL A   1      40.421  22.349  27.510  1.00  0.00     0.001 A 
ATOM     84  C   UNL A   1      38.809  23.525  26.154  1.00  0.00     0.001 A 
ATOM     85  C   UNL A   1      39.328  22.329  26.647  1.00  0.00     0.000 A 
ENDBRANCH  61  80
BRANCH  73  86
ATOM     86  C   UNL A   1      46.654  27.550  25.628  1.00  0.00    -0.014 A 
ATOM     87  C   UNL A   1      47.632  26.746  26.233  1.00  0.00     0.009 A 
ATOM     88  C   UNL A   1      46.752  27.819  24.253  1.00  0.00     0.009 A 
ATOM     89  C   UNL A   1      48.705  26.256  25.484  1.00  0.00     0.001 A 
ATOM     90  C   UNL A   1      47.805  27.300  23.500  1.00  0.00     0.001 A 
ATOM     91  C   UNL A   1      48.787  26.528  24.118  1.00  0.00     0.000 A 
ENDBRANCH  73  86
ENDBRANCH  47  48
ENDBRANCH  40  42
ENDBRANCH  39  40
ENDBRANCH  38  39
ENDBRANCH  37  38
ENDBRANCH  36  37
ENDBRANCH  35  36
ENDBRANCH  34  35
ENDBRANCH   1  34
TORSDOF 23
ENDMDL
MODEL 2
REMARK VINA RESULT:     -10.7      3.901     10.276
REMARK SMILES COc1cccc([C@@H]2[NH2+][C@@](C)(C(=O)OCCOCCOCCOCCOC(=O)c3ccc(-c4c5nc(c(-c6ccccc6)c6ccc([nH]6)c(-c6ccccc6)c6nc(c(-c7ccccc7)c7ccc4[nH]7)C=C6)C=C5)cc3)[C@@H]3C(=O)N(C)C(=O)[C@@H]32)c1O
REMARK SMILES IDX 20 1 19 2 18 3 17 4 16 5 15 6 14 7 12 8 13 9 10 10 8 11 9 12
REMARK SMILES IDX 84 13 77 16 82 17 11 18 78 19 80 20 83 21 79 22 81 23 7 24
REMARK SMILES IDX 3 25 4 26 85 27 5 28 6 29 2 30 1 31 86 32 21 34 22 35 23 36
REMARK SMILES IDX 24 37 25 38 26 39 27 40 28 41 29 42 30 43 76 44 31 45 75 46
REMARK SMILES IDX 32 47 33 48 34 49 69 50 35 51 74 52 68 53 70 54 36 55 73 56
REMARK SMILES IDX 67 57 66 58 37 60 59 61 44 62 58 63 45 64 48 65 57 66 71 67
REMARK SMILES IDX 46 68 47 69 56 71 72 72 49 73 38 74 39 75 43 76 40 77 42 78
REMARK SMILES IDX 41 79 60 80 61 81 65 82 62 83 64 84 63 85 50 86 51 87 55 88
REMARK SMILES IDX 52 89 54 90 53 91
REMARK H PARENT 9 14 9 15 86 33 70 59 48 70
REMARK Flexibility Score: inf
ROOT
ATOM      1  O   UNL A   1      40.215  21.391  27.246  1.00  0.00    -0.377 OA
ENDROOT
BRANCH   1   2
ATOM      2  C   UNL A   1      39.689  21.900  26.039  1.00  0.00     0.188 C 
BRANCH   2   3
ATOM      3  C   UNL A   1      38.148  21.940  25.993  1.00  0.00     0.188 C 
BRANCH   3   4
ATOM      4  O   UNL A   1      37.457  23.075  25.491  1.00  0.00    -0.376 OA
BRANCH   4   5
ATOM      5  C   UNL A   1      36.041  23.073  25.444  1.00  0.00     0.202 C 
BRANCH   5   6
ATOM      6  C   UNL A   1      35.293  22.168  24.441  1.00  0.00     0.261 C 
BRANCH   6   7
ATOM      7  O   UNL A   1      33.950  22.539  24.064  1.00  0.00    -0.459 OA
BRANCH   7   8
ATOM      8  C   UNL A   1      33.826  23.723  23.415  1.00  0.00     0.368 C 
ATOM      9  O   UNL A   1      34.672  24.137  22.623  1.00  0.00    -0.245 OA
BRANCH   8  10
ATOM     10  C   UNL A   1      32.556  24.571  23.764  1.00  0.00     0.204 C 
ATOM     11  C   UNL A   1      32.040  26.788  22.837  1.00  0.00     0.232 C 
ATOM     12  N   UNL A   1      31.910  25.320  22.631  1.00  0.00    -0.325 N 
ATOM     13  C   UNL A   1      33.059  26.966  23.954  1.00  0.00     0.161 C 
ATOM     14  H   UNL A   1      32.365  25.062  21.755  1.00  0.00     0.347 HD
ATOM     15  H   UNL A   1      30.920  25.077  22.597  1.00  0.00     0.347 HD
ATOM     16  C   UNL A   1      33.049  25.653  24.728  1.00  0.00     0.170 C 
ATOM     17  C   UNL A   1      32.758  27.990  25.007  1.00  0.00     0.239 C 
ATOM     18  C   UNL A   1      31.590  23.494  24.272  1.00  0.00     0.093 C 
ATOM     19  C   UNL A   1      32.230  25.981  25.941  1.00  0.00     0.240 C 
ATOM     20  N   UNL A   1      32.252  27.340  26.099  1.00  0.00    -0.285 N 
ATOM     21  O   UNL A   1      32.924  29.192  24.879  1.00  0.00    -0.274 OA
ATOM     22  O   UNL A   1      31.663  25.184  26.671  1.00  0.00    -0.274 OA
ATOM     23  C   UNL A   1      31.744  28.032  27.254  1.00  0.00     0.156 C 
BRANCH  11  24
ATOM     24  C   UNL A   1      30.752  27.599  22.985  1.00  0.00     0.056 A 
ATOM     25  C   UNL A   1      29.321  29.514  22.433  1.00  0.00     0.161 A 
ATOM     26  C   UNL A   1      28.219  28.831  22.957  1.00  0.00     0.050 A 
ATOM     27  C   UNL A   1      30.585  28.907  22.493  1.00  0.00     0.166 A 
ATOM     28  C   UNL A   1      28.364  27.560  23.503  1.00  0.00     0.005 A 
ATOM     29  C   UNL A   1      29.616  26.945  23.505  1.00  0.00     0.014 A 
BRANCH  25  30
ATOM     30  O   UNL A   1      29.010  30.765  21.973  1.00  0.00    -0.493 OA
ATOM     31  C   UNL A   1      28.386  31.670  22.871  1.00  0.00     0.278 C 
ENDBRANCH  25  30
BRANCH  27  32
ATOM     32  O   UNL A   1      31.723  29.560  22.135  1.00  0.00    -0.504 OA
ATOM     33  H   UNL A   1      31.920  30.397  22.507  1.00  0.00     0.293 HD
ENDBRANCH  27  32
ENDBRANCH  11  24
ENDBRANCH   8  10
ENDBRANCH   7   8
ENDBRANCH   6   7
ENDBRANCH   5   6
ENDBRANCH   4   5
ENDBRANCH   3   4
ENDBRANCH   2   3
ENDBRANCH   1   2
BRANCH   1  34
ATOM     34  C   UNL A   1      41.544  20.921  27.184  1.00  0.00     0.188 C 
BRANCH  34  35
ATOM     35  C   UNL A   1      41.825  19.765  26.210  1.00  0.00     0.188 C 
BRANCH  35  36
ATOM     36  O   UNL A   1      42.667  20.129  25.120  1.00  0.00    -0.376 OA
BRANCH  36  37
ATOM     37  C   UNL A   1      44.045  20.370  25.361  1.00  0.00     0.202 C 
BRANCH  37  38
ATOM     38  C   UNL A   1      44.571  21.789  25.088  1.00  0.00     0.261 C 
BRANCH  38  39
ATOM     39  O   UNL A   1      43.796  22.873  25.616  1.00  0.00    -0.460 OA
BRANCH  39  40
ATOM     40  C   UNL A   1      44.288  24.121  25.478  1.00  0.00     0.338 C 
ATOM     41  O   UNL A   1      45.058  24.518  24.618  1.00  0.00    -0.246 OA
BRANCH  40  42
ATOM     42  C   UNL A   1      43.571  24.997  26.429  1.00  0.00     0.060 A 
ATOM     43  C   UNL A   1      43.961  26.339  26.533  1.00  0.00     0.016 A 
ATOM     44  C   UNL A   1      42.500  24.510  27.183  1.00  0.00     0.016 A 
ATOM     45  C   UNL A   1      43.303  27.192  27.417  1.00  0.00     0.010 A 
ATOM     46  C   UNL A   1      41.864  25.356  28.097  1.00  0.00     0.010 A 
ATOM     47  C   UNL A   1      42.291  26.689  28.244  1.00  0.00    -0.014 A 
BRANCH  47  48
ATOM     48  C   UNL A   1      41.875  27.472  29.430  1.00  0.00     0.031 A 
ATOM     49  C   UNL A   1      40.610  28.281  29.319  1.00  0.00     0.074 A 
ATOM     50  C   UNL A   1      42.562  27.440  30.584  1.00  0.00     0.049 A 
ATOM     51  N   UNL A   1      40.049  29.074  30.195  1.00  0.00    -0.248 NA
ATOM     52  C   UNL A   1      39.878  28.179  28.044  1.00  0.00     0.031 C 
ATOM     53  C   UNL A   1      43.768  26.653  30.835  1.00  0.00     0.029 A 
ATOM     54  N   UNL A   1      42.337  28.100  31.766  1.00  0.00    -0.354 N 
ATOM     55  C   UNL A   1      38.904  29.562  29.577  1.00  0.00     0.074 A 
ATOM     56  C   UNL A   1      38.867  29.009  28.242  1.00  0.00     0.031 C 
ATOM     57  C   UNL A   1      44.187  26.890  32.091  1.00  0.00     0.029 A 
ATOM     58  C   UNL A   1      43.298  27.867  32.719  1.00  0.00     0.049 A 
ATOM     59  H   UNL A   1      41.559  28.686  31.917  1.00  0.00     0.167 HD
ATOM     60  C   UNL A   1      37.958  30.388  30.078  1.00  0.00     0.031 A 
ATOM     61  C   UNL A   1      43.454  28.405  33.944  1.00  0.00     0.031 A 
ATOM     62  C   UNL A   1      38.008  30.962  31.394  1.00  0.00     0.049 A 
ATOM     63  C   UNL A   1      42.438  29.402  34.446  1.00  0.00     0.074 A 
ATOM     64  C   UNL A   1      37.110  31.827  31.992  1.00  0.00     0.029 A 
ATOM     65  N   UNL A   1      39.019  30.730  32.314  1.00  0.00    -0.354 N 
ATOM     66  N   UNL A   1      41.353  29.849  33.858  1.00  0.00    -0.248 NA
ATOM     67  C   UNL A   1      42.663  29.959  35.788  1.00  0.00     0.031 C 
ATOM     68  C   UNL A   1      37.606  32.164  33.255  1.00  0.00     0.029 A 
ATOM     69  C   UNL A   1      38.775  31.450  33.470  1.00  0.00     0.049 A 
ATOM     70  H   UNL A   1      39.793  30.141  32.167  1.00  0.00     0.167 HD
ATOM     71  C   UNL A   1      40.750  30.707  34.771  1.00  0.00     0.074 A 
ATOM     72  C   UNL A   1      41.581  30.706  35.957  1.00  0.00     0.031 C 
ATOM     73  C   UNL A   1      39.609  31.428  34.644  1.00  0.00     0.031 A 
BRANCH  60  74
ATOM     74  C   UNL A   1      36.806  30.743  29.180  1.00  0.00    -0.014 A 
ATOM     75  C   UNL A   1      36.687  32.026  28.622  1.00  0.00     0.009 A 
ATOM     76  C   UNL A   1      35.840  29.774  28.868  1.00  0.00     0.009 A 
ATOM     77  C   UNL A   1      35.608  32.340  27.794  1.00  0.00     0.001 A 
ATOM     78  C   UNL A   1      34.778  30.081  28.016  1.00  0.00     0.001 A 
ATOM     79  C   UNL A   1      34.659  31.365  27.487  1.00  0.00     0.000 A 
ENDBRANCH  60  74
BRANCH  61  80
ATOM     80  C   UNL A   1      44.633  28.049  34.779  1.00  0.00    -0.014 A 
ATOM     81  C   UNL A   1      44.603  26.943  35.642  1.00  0.00     0.009 A 
ATOM     82  C   UNL A   1      45.788  28.849  34.749  1.00  0.00     0.009 A 
ATOM     83  C   UNL A   1      45.686  26.669  36.484  1.00  0.00     0.001 A 
ATOM     84  C   UNL A   1      46.881  28.553  35.566  1.00  0.00     0.001 A 
ATOM     85  C   UNL A   1      46.824  27.472  36.442  1.00  0.00     0.000 A 
ENDBRANCH  61  80
BRANCH  73  86
ATOM     86  C   UNL A   1      39.158  32.231  35.834  1.00  0.00    -0.014 A 
ATOM     87  C   UNL A   1      39.626  33.534  36.064  1.00  0.00     0.009 A 
ATOM     88  C   UNL A   1      38.208  31.685  36.713  1.00  0.00     0.009 A 
ATOM     89  C   UNL A   1      39.181  34.257  37.174  1.00  0.00     0.001 A 
ATOM     90  C   UNL A   1      37.739  32.423  37.800  1.00  0.00     0.001 A 
ATOM     91  C   UNL A   1      38.234  33.704  38.037  1.00  0.00     0.000 A 
ENDBRANCH  73  86
ENDBRANCH  47  48
ENDBRANCH  40  42
ENDBRANCH  39  40
ENDBRANCH  38  39
ENDBRANCH  37  38
ENDBRANCH  36  37
ENDBRANCH  35  36
ENDBRANCH  34  35
ENDBRANCH   1  34
TORSDOF 23
ENDMDL
MODEL 3
REMARK VINA RESULT:     -10.5      3.222      9.072
REMARK SMILES COc1cccc([C@@H]2[NH2+][C@@](C)(C(=O)OCCOCCOCCOCCOC(=O)c3ccc(-c4c5nc(c(-c6ccccc6)c6ccc([nH]6)c(-c6ccccc6)c6nc(c(-c7ccccc7)c7ccc4[nH]7)C=C6)C=C5)cc3)[C@@H]3C(=O)N(C)C(=O)[C@@H]32)c1O
REMARK SMILES IDX 20 1 19 2 18 3 17 4 16 5 15 6 14 7 12 8 13 9 10 10 8 11 9 12
REMARK SMILES IDX 84 13 77 16 82 17 11 18 78 19 80 20 83 21 79 22 81 23 7 24
REMARK SMILES IDX 3 25 4 26 85 27 5 28 6 29 2 30 1 31 86 32 21 34 22 35 23 36
REMARK SMILES IDX 24 37 25 38 26 39 27 40 28 41 29 42 30 43 76 44 31 45 75 46
REMARK SMILES IDX 32 47 33 48 34 49 69 50 35 51 74 52 68 53 70 54 36 55 73 56
REMARK SMILES IDX 67 57 66 58 37 60 59 61 44 62 58 63 45 64 48 65 57 66 71 67
REMARK SMILES IDX 46 68 47 69 56 71 72 72 49 73 38 74 39 75 43 76 40 77 42 78
REMARK SMILES IDX 41 79 60 80 61 81 65 82 62 83 64 84 63 85 50 86 51 87 55 88
REMARK SMILES IDX 52 89 54 90 53 91
REMARK H PARENT 9 14 9 15 86 33 70 59 48 70
REMARK Flexibility Score: inf
ROOT
ATOM      1  O   UNL A   1      34.694  19.792  24.594  1.00  0.00    -0.377 OA
ENDROOT
BRANCH   1   2
ATOM      2  C   UNL A   1      33.562  20.634  24.644  1.00  0.00     0.188 C 
BRANCH   2   3
ATOM      3  C   UNL A   1      33.530  21.571  25.868  1.00  0.00     0.188 C 
BRANCH   3   4
ATOM      4  O   UNL A   1      33.519  22.983  25.712  1.00  0.00    -0.376 OA
BRANCH   4   5
ATOM      5  C   UNL A   1      34.695  23.655  25.299  1.00  0.00     0.202 C 
BRANCH   5   6
ATOM      6  C   UNL A   1      35.096  23.686  23.808  1.00  0.00     0.261 C 
BRANCH   6   7
ATOM      7  O   UNL A   1      34.423  24.626  22.945  1.00  0.00    -0.459 OA
BRANCH   7   8
ATOM      8  C   UNL A   1      33.205  24.241  22.491  1.00  0.00     0.368 C 
ATOM      9  O   UNL A   1      33.056  23.308  21.701  1.00  0.00    -0.245 OA
BRANCH   8  10
ATOM     10  C   UNL A   1      31.983  25.085  22.991  1.00  0.00     0.204 C 
ATOM     11  C   UNL A   1      31.471  27.383  22.289  1.00  0.00     0.232 C 
ATOM     12  N   UNL A   1      31.288  25.942  21.970  1.00  0.00    -0.325 N 
ATOM     13  C   UNL A   1      32.564  27.442  23.348  1.00  0.00     0.161 C 
ATOM     14  H   UNL A   1      31.679  25.749  21.048  1.00  0.00     0.347 HD
ATOM     15  H   UNL A   1      30.292  25.724  21.980  1.00  0.00     0.347 HD
ATOM     16  C   UNL A   1      32.567  26.069  24.008  1.00  0.00     0.170 C 
ATOM     17  C   UNL A   1      32.358  28.379  24.501  1.00  0.00     0.239 C 
ATOM     18  C   UNL A   1      31.022  23.990  23.470  1.00  0.00     0.093 C 
ATOM     19  C   UNL A   1      31.835  26.310  25.295  1.00  0.00     0.240 C 
ATOM     20  N   UNL A   1      31.905  27.650  25.565  1.00  0.00    -0.285 N 
ATOM     21  O   UNL A   1      32.549  29.584  24.463  1.00  0.00    -0.274 OA
ATOM     22  O   UNL A   1      31.294  25.467  25.992  1.00  0.00    -0.274 OA
ATOM     23  C   UNL A   1      31.490  28.253  26.804  1.00  0.00     0.156 C 
BRANCH  11  24
ATOM     24  C   UNL A   1      30.218  28.207  22.588  1.00  0.00     0.056 A 
ATOM     25  C   UNL A   1      28.758  30.145  22.220  1.00  0.00     0.161 A 
ATOM     26  C   UNL A   1      27.713  29.468  22.855  1.00  0.00     0.050 A 
ATOM     27  C   UNL A   1      30.014  29.523  22.132  1.00  0.00     0.166 A 
ATOM     28  C   UNL A   1      27.901  28.188  23.368  1.00  0.00     0.005 A 
ATOM     29  C   UNL A   1      29.138  27.560  23.224  1.00  0.00     0.014 A 
BRANCH  25  30
ATOM     30  O   UNL A   1      28.415  31.405  21.812  1.00  0.00    -0.493 OA
ATOM     31  C   UNL A   1      28.508  32.461  22.755  1.00  0.00     0.278 C 
ENDBRANCH  25  30
BRANCH  27  32
ATOM     32  O   UNL A   1      31.113  30.167  21.657  1.00  0.00    -0.504 OA
ATOM     33  H   UNL A   1      31.217  31.086  21.804  1.00  0.00     0.293 HD
ENDBRANCH  27  32
ENDBRANCH  11  24
ENDBRANCH   8  10
ENDBRANCH   7   8
ENDBRANCH   6   7
ENDBRANCH   5   6
ENDBRANCH   4   5
ENDBRANCH   3   4
ENDBRANCH   2   3
ENDBRANCH   1   2
BRANCH   1  34
ATOM     34  C   UNL A   1      35.790  20.192  25.388  1.00  0.00     0.188 C 
BRANCH  34  35
ATOM     35  C   UNL A   1      37.000  20.787  24.648  1.00  0.00     0.188 C 
BRANCH  35  36
ATOM     36  O   UNL A   1      37.686  21.788  25.393  1.00  0.00    -0.376 OA
BRANCH  36  37
ATOM     37  C   UNL A   1      39.008  21.533  25.841  1.00  0.00     0.202 C 
BRANCH  37  38
ATOM     38  C   UNL A   1      39.534  20.095  25.699  1.00  0.00     0.261 C 
BRANCH  38  39
ATOM     39  O   UNL A   1      40.631  19.726  26.546  1.00  0.00    -0.460 OA
BRANCH  39  40
ATOM     40  C   UNL A   1      41.879  19.878  26.057  1.00  0.00     0.338 C 
ATOM     41  O   UNL A   1      42.432  19.182  25.222  1.00  0.00    -0.246 OA
BRANCH  40  42
ATOM     42  C   UNL A   1      42.404  21.168  26.554  1.00  0.00     0.060 A 
ATOM     43  C   UNL A   1      42.350  21.430  27.929  1.00  0.00     0.016 A 
ATOM     44  C   UNL A   1      42.977  22.093  25.678  1.00  0.00     0.016 A 
ATOM     45  C   UNL A   1      42.840  22.635  28.431  1.00  0.00     0.010 A 
ATOM     46  C   UNL A   1      43.434  23.317  26.176  1.00  0.00     0.010 A 
ATOM     47  C   UNL A   1      43.330  23.606  27.549  1.00  0.00    -0.014 A 
BRANCH  47  48
ATOM     48  C   UNL A   1      43.477  25.001  28.024  1.00  0.00     0.031 A 
ATOM     49  C   UNL A   1      44.866  25.482  28.348  1.00  0.00     0.074 A 
ATOM     50  C   UNL A   1      42.428  25.835  28.126  1.00  0.00     0.049 A 
ATOM     51  N   UNL A   1      45.260  26.641  28.810  1.00  0.00    -0.248 NA
ATOM     52  C   UNL A   1      45.961  24.523  28.116  1.00  0.00     0.031 C 
ATOM     53  C   UNL A   1      41.044  25.507  27.789  1.00  0.00     0.029 A 
ATOM     54  N   UNL A   1      42.372  27.138  28.553  1.00  0.00    -0.354 N 
ATOM     55  C   UNL A   1      46.641  26.547  28.923  1.00  0.00     0.074 A 
ATOM     56  C   UNL A   1      47.016  25.211  28.518  1.00  0.00     0.031 C 
ATOM     57  C   UNL A   1      40.270  26.579  28.040  1.00  0.00     0.029 A 
ATOM     58  C   UNL A   1      41.100  27.654  28.583  1.00  0.00     0.049 A 
ATOM     59  H   UNL A   1      43.170  27.655  28.814  1.00  0.00     0.167 HD
ATOM     60  C   UNL A   1      47.524  27.492  29.316  1.00  0.00     0.031 A 
ATOM     61  C   UNL A   1      40.657  28.848  29.025  1.00  0.00     0.031 A 
ATOM     62  C   UNL A   1      47.152  28.811  29.747  1.00  0.00     0.049 A 
ATOM     63  C   UNL A   1      41.651  29.852  29.554  1.00  0.00     0.074 A 
ATOM     64  C   UNL A   1      47.967  29.838  30.185  1.00  0.00     0.029 A 
ATOM     65  N   UNL A   1      45.848  29.281  29.797  1.00  0.00    -0.354 N 
ATOM     66  N   UNL A   1      42.957  29.758  29.646  1.00  0.00    -0.248 NA
ATOM     67  C   UNL A   1      41.110  31.135  30.027  1.00  0.00     0.031 C 
ATOM     68  C   UNL A   1      47.153  30.913  30.554  1.00  0.00     0.029 A 
ATOM     69  C   UNL A   1      45.836  30.579  30.277  1.00  0.00     0.049 A 
ATOM     70  H   UNL A   1      45.051  28.769  29.532  1.00  0.00     0.167 HD
ATOM     71  C   UNL A   1      43.392  30.978  30.151  1.00  0.00     0.074 A 
ATOM     72  C   UNL A   1      42.215  31.801  30.331  1.00  0.00     0.031 C 
ATOM     73  C   UNL A   1      44.654  31.385  30.438  1.00  0.00     0.031 A 
BRANCH  60  74
ATOM     74  C   UNL A   1      48.980  27.114  29.329  1.00  0.00    -0.014 A 
ATOM     75  C   UNL A   1      49.830  27.459  28.266  1.00  0.00     0.009 A 
ATOM     76  C   UNL A   1      49.512  26.425  30.430  1.00  0.00     0.009 A 
ATOM     77  C   UNL A   1      51.178  27.095  28.293  1.00  0.00     0.001 A 
ATOM     78  C   UNL A   1      50.866  26.090  30.467  1.00  0.00     0.001 A 
ATOM     79  C   UNL A   1      51.695  26.417  29.396  1.00  0.00     0.000 A 
ENDBRANCH  60  74
BRANCH  61  80
ATOM     80  C   UNL A   1      39.202  29.157  29.027  1.00  0.00    -0.014 A 
ATOM     81  C   UNL A   1      38.412  28.920  30.162  1.00  0.00     0.009 A 
ATOM     82  C   UNL A   1      38.583  29.651  27.866  1.00  0.00     0.009 A 
ATOM     83  C   UNL A   1      37.030  29.135  30.123  1.00  0.00     0.001 A 
ATOM     84  C   UNL A   1      37.209  29.897  27.840  1.00  0.00     0.001 A 
ATOM     85  C   UNL A   1      36.431  29.626  28.964  1.00  0.00     0.000 A 
ENDBRANCH  61  80
BRANCH  73  86
ATOM     86  C   UNL A   1      44.835  32.799  30.919  1.00  0.00    -0.014 A 
ATOM     87  C   UNL A   1      45.056  33.860  30.026  1.00  0.00     0.009 A 
ATOM     88  C   UNL A   1      44.733  33.078  32.292  1.00  0.00     0.009 A 
ATOM     89  C   UNL A   1      45.212  35.164  30.504  1.00  0.00     0.001 A 
ATOM     90  C   UNL A   1      44.854  34.386  32.763  1.00  0.00     0.001 A 
ATOM     91  C   UNL A   1      45.105  35.426  31.870  1.00  0.00     0.000 A 
ENDBRANCH  73  86
ENDBRANCH  47  48
ENDBRANCH  40  42
ENDBRANCH  39  40
ENDBRANCH  38  39
ENDBRANCH  37  38
ENDBRANCH  36  37
ENDBRANCH  35  36
ENDBRANCH  34  35
ENDBRANCH   1  34
TORSDOF 23
ENDMDL
