MODEL 1
REMARK VINA RESULT:      -7.0      0.000      0.000
REMARK SMILES O=C(OCCOCCOCCOCCOC(=O)c1ccc(C[NH2+][C@@H]2CCCC[C@H]2O)nc1)c1ccc(-c2c3nc(c(-c4ccccc4)c4ccc([nH]4)c(-c4ccccc4)c4nc(c(-c5ccccc5)c5ccc2[nH]5)C=C4)C=C3)cc1
REMARK SMILES IDX 10 1 9 2 8 3 7 4 6 5 5 6 4 7 3 8 2 9 1 10 33 11 34 12 80 13
REMARK SMILES IDX 35 14 79 15 36 16 37 17 38 18 73 19 39 20 78 21 72 22 74 23
REMARK SMILES IDX 40 24 77 25 71 26 70 27 41 29 63 30 48 31 62 32 49 33 52 34
REMARK SMILES IDX 61 35 75 36 50 37 51 38 60 40 76 41 53 42 42 43 43 44 47 45
REMARK SMILES IDX 44 46 46 47 45 48 64 49 65 50 69 51 66 52 68 53 67 54 54 55
REMARK SMILES IDX 55 56 59 57 56 58 58 59 57 60 11 61 12 62 13 63 14 64 15 65
REMARK SMILES IDX 16 66 17 67 18 68 19 69 32 70 20 71 31 72 21 73 22 74 23 75
REMARK SMILES IDX 24 78 25 79 29 80 26 81 28 82 27 83 30 84
REMARK H PARENT 74 28 52 39 23 76 23 77 30 85
REMARK Flexibility Score: inf
ROOT
ATOM      1  C   UNL A   1      42.269  19.817  26.268  1.00  0.00     0.188 C 
ENDROOT
BRANCH   1   2
ATOM      2  O   UNL A   1      42.892  19.480  25.033  1.00  0.00    -0.377 OA
BRANCH   2   3
ATOM      3  C   UNL A   1      44.307  19.291  25.054  1.00  0.00     0.188 C 
BRANCH   3   4
ATOM      4  C   UNL A   1      45.119  20.402  24.389  1.00  0.00     0.188 C 
BRANCH   4   5
ATOM      5  O   UNL A   1      45.128  21.578  25.208  1.00  0.00    -0.376 OA
BRANCH   5   6
ATOM      6  C   UNL A   1      45.291  22.803  24.493  1.00  0.00     0.202 C 
BRANCH   6   7
ATOM      7  C   UNL A   1      46.329  23.744  25.109  1.00  0.00     0.261 C 
BRANCH   7   8
ATOM      8  O   UNL A   1      46.546  24.908  24.297  1.00  0.00    -0.460 OA
BRANCH   8   9
ATOM      9  C   UNL A   1      46.639  26.200  24.699  1.00  0.00     0.338 C 
ATOM     10  O   UNL A   1      47.295  26.975  24.004  1.00  0.00    -0.246 OA
BRANCH   9  11
ATOM     11  C   UNL A   1      45.968  26.761  25.918  1.00  0.00     0.060 A 
ATOM     12  C   UNL A   1      44.599  26.728  26.189  1.00  0.00     0.016 A 
ATOM     13  C   UNL A   1      46.810  27.331  26.891  1.00  0.00     0.016 A 
ATOM     14  C   UNL A   1      44.065  27.321  27.327  1.00  0.00     0.010 A 
ATOM     15  C   UNL A   1      46.288  27.902  28.057  1.00  0.00     0.010 A 
ATOM     16  C   UNL A   1      44.904  27.934  28.251  1.00  0.00    -0.014 A 
BRANCH  16  17
ATOM     17  C   UNL A   1      44.284  28.764  29.298  1.00  0.00     0.031 A 
ATOM     18  C   UNL A   1      44.057  28.136  30.642  1.00  0.00     0.074 A 
ATOM     19  C   UNL A   1      44.086  30.078  29.094  1.00  0.00     0.049 A 
ATOM     20  N   UNL A   1      43.525  28.649  31.718  1.00  0.00    -0.248 NA
ATOM     21  C   UNL A   1      44.514  26.744  30.799  1.00  0.00     0.031 C 
ATOM     22  C   UNL A   1      44.416  30.802  27.864  1.00  0.00     0.029 A 
ATOM     23  N   UNL A   1      43.595  31.044  29.930  1.00  0.00    -0.354 N 
ATOM     24  C   UNL A   1      43.568  27.638  32.670  1.00  0.00     0.074 A 
ATOM     25  C   UNL A   1      44.165  26.480  32.047  1.00  0.00     0.031 C 
ATOM     26  C   UNL A   1      44.135  32.105  28.035  1.00  0.00     0.029 A 
ATOM     27  C   UNL A   1      43.552  32.293  29.360  1.00  0.00     0.049 A 
ATOM     28  H   UNL A   1      43.301  30.860  30.851  1.00  0.00     0.167 HD
ATOM     29  C   UNL A   1      43.141  27.676  33.952  1.00  0.00     0.031 A 
ATOM     30  C   UNL A   1      43.064  33.446  29.853  1.00  0.00     0.031 A 
ATOM     31  C   UNL A   1      42.528  28.832  34.543  1.00  0.00     0.049 A 
ATOM     32  C   UNL A   1      42.476  33.428  31.240  1.00  0.00     0.074 A 
ATOM     33  C   UNL A   1      41.959  28.972  35.794  1.00  0.00     0.029 A 
ATOM     34  N   UNL A   1      42.409  30.058  33.902  1.00  0.00    -0.354 N 
ATOM     35  N   UNL A   1      42.438  32.444  32.108  1.00  0.00    -0.248 NA
ATOM     36  C   UNL A   1      41.855  34.672  31.710  1.00  0.00     0.031 C 
ATOM     37  C   UNL A   1      41.461  30.275  35.896  1.00  0.00     0.029 A 
ATOM     38  C   UNL A   1      41.766  30.960  34.728  1.00  0.00     0.049 A 
ATOM     39  H   UNL A   1      42.735  30.255  32.995  1.00  0.00     0.167 HD
ATOM     40  C   UNL A   1      41.801  32.952  33.231  1.00  0.00     0.074 A 
ATOM     41  C   UNL A   1      41.496  34.340  32.942  1.00  0.00     0.031 C 
ATOM     42  C   UNL A   1      41.487  32.334  34.396  1.00  0.00     0.031 A 
BRANCH  29  43
ATOM     43  C   UNL A   1      43.261  26.406  34.744  1.00  0.00    -0.014 A 
ATOM     44  C   UNL A   1      42.322  25.370  34.615  1.00  0.00     0.009 A 
ATOM     45  C   UNL A   1      44.303  26.266  35.674  1.00  0.00     0.009 A 
ATOM     46  C   UNL A   1      42.401  24.239  35.432  1.00  0.00     0.001 A 
ATOM     47  C   UNL A   1      44.393  25.124  36.471  1.00  0.00     0.001 A 
ATOM     48  C   UNL A   1      43.435  24.117  36.358  1.00  0.00     0.000 A 
ENDBRANCH  29  43
BRANCH  30  49
ATOM     49  C   UNL A   1      43.044  34.680  29.021  1.00  0.00    -0.014 A 
ATOM     50  C   UNL A   1      41.900  35.054  28.300  1.00  0.00     0.009 A 
ATOM     51  C   UNL A   1      44.194  35.483  28.920  1.00  0.00     0.009 A 
ATOM     52  C   UNL A   1      41.917  36.185  27.478  1.00  0.00     0.001 A 
ATOM     53  C   UNL A   1      44.198  36.630  28.124  1.00  0.00     0.001 A 
ATOM     54  C   UNL A   1      43.063  36.974  27.393  1.00  0.00     0.000 A 
ENDBRANCH  30  49
BRANCH  42  55
ATOM     55  C   UNL A   1      40.810  33.168  35.442  1.00  0.00    -0.014 A 
ATOM     56  C   UNL A   1      39.413  33.291  35.480  1.00  0.00     0.009 A 
ATOM     57  C   UNL A   1      41.582  33.800  36.429  1.00  0.00     0.009 A 
ATOM     58  C   UNL A   1      38.804  34.059  36.473  1.00  0.00     0.001 A 
ATOM     59  C   UNL A   1      40.968  34.544  37.435  1.00  0.00     0.001 A 
ATOM     60  C   UNL A   1      39.581  34.680  37.451  1.00  0.00     0.000 A 
ENDBRANCH  42  55
ENDBRANCH  16  17
ENDBRANCH   9  11
ENDBRANCH   8   9
ENDBRANCH   7   8
ENDBRANCH   6   7
ENDBRANCH   5   6
ENDBRANCH   4   5
ENDBRANCH   3   4
ENDBRANCH   2   3
ENDBRANCH   1   2
BRANCH   1  61
ATOM     61  C   UNL A   1      40.901  20.530  26.241  1.00  0.00     0.188 C 
BRANCH  61  62
ATOM     62  O   UNL A   1      40.899  21.868  26.722  1.00  0.00    -0.376 OA
BRANCH  62  63
ATOM     63  C   UNL A   1      42.095  22.288  27.374  1.00  0.00     0.202 C 
BRANCH  63  64
ATOM     64  C   UNL A   1      42.341  23.800  27.322  1.00  0.00     0.261 C 
BRANCH  64  65
ATOM     65  O   UNL A   1      41.161  24.601  27.509  1.00  0.00    -0.460 OA
BRANCH  65  66
ATOM     66  C   UNL A   1      40.909  25.584  26.615  1.00  0.00     0.339 C 
ATOM     67  O   UNL A   1      40.762  25.466  25.411  1.00  0.00    -0.246 OA
BRANCH  66  68
ATOM     68  C   UNL A   1      40.581  26.791  27.392  1.00  0.00     0.078 A 
ATOM     69  C   UNL A   1      40.448  28.046  26.798  1.00  0.00     0.019 A 
ATOM     70  C   UNL A   1      40.615  26.715  28.775  1.00  0.00     0.127 A 
ATOM     71  C   UNL A   1      40.400  29.176  27.612  1.00  0.00     0.031 A 
ATOM     72  N   UNL A   1      40.586  27.801  29.586  1.00  0.00    -0.254 NA
ATOM     73  C   UNL A   1      40.495  29.023  28.997  1.00  0.00     0.094 A 
BRANCH  73  74
ATOM     74  C   UNL A   1      40.542  30.260  29.891  1.00  0.00     0.318 C 
BRANCH  74  75
ATOM     75  N   UNL A   1      40.503  29.931  31.306  1.00  0.00    -0.337 N 
ATOM     76  H   UNL A   1      41.238  30.476  31.758  1.00  0.00     0.346 HD
ATOM     77  H   UNL A   1      40.605  28.915  31.318  1.00  0.00     0.346 HD
BRANCH  75  78
ATOM     78  C   UNL A   1      39.272  30.160  32.072  1.00  0.00     0.211 C 
ATOM     79  C   UNL A   1      38.409  28.889  32.191  1.00  0.00     0.068 C 
ATOM     80  C   UNL A   1      38.390  31.382  31.698  1.00  0.00     0.172 C 
ATOM     81  C   UNL A   1      37.520  28.626  30.980  1.00  0.00     0.006 C 
ATOM     82  C   UNL A   1      37.452  31.143  30.508  1.00  0.00     0.038 C 
ATOM     83  C   UNL A   1      36.664  29.836  30.617  1.00  0.00     0.003 C 
BRANCH  80  84
ATOM     84  O   UNL A   1      37.615  31.735  32.857  1.00  0.00    -0.387 OA
ATOM     85  H   UNL A   1      37.818  32.647  33.117  1.00  0.00     0.211 HD
ENDBRANCH  80  84
ENDBRANCH  75  78
ENDBRANCH  74  75
ENDBRANCH  73  74
ENDBRANCH  66  68
ENDBRANCH  65  66
ENDBRANCH  64  65
ENDBRANCH  63  64
ENDBRANCH  62  63
ENDBRANCH  61  62
ENDBRANCH   1  61
TORSDOF 24
ENDMDL
MODEL 2
REMARK VINA RESULT:      -6.8      5.026     11.933
REMARK SMILES O=C(OCCOCCOCCOCCOC(=O)c1ccc(C[NH2+][C@@H]2CCCC[C@H]2O)nc1)c1ccc(-c2c3nc(c(-c4ccccc4)c4ccc([nH]4)c(-c4ccccc4)c4nc(c(-c5ccccc5)c5ccc2[nH]5)C=C4)C=C3)cc1
REMARK SMILES IDX 10 1 9 2 8 3 7 4 6 5 5 6 4 7 3 8 2 9 1 10 33 11 34 12 80 13
REMARK SMILES IDX 35 14 79 15 36 16 37 17 38 18 73 19 39 20 78 21 72 22 74 23
REMARK SMILES IDX 40 24 77 25 71 26 70 27 41 29 63 30 48 31 62 32 49 33 52 34
REMARK SMILES IDX 61 35 75 36 50 37 51 38 60 40 76 41 53 42 42 43 43 44 47 45
REMARK SMILES IDX 44 46 46 47 45 48 64 49 65 50 69 51 66 52 68 53 67 54 54 55
REMARK SMILES IDX 55 56 59 57 56 58 58 59 57 60 11 61 12 62 13 63 14 64 15 65
REMARK SMILES IDX 16 66 17 67 18 68 19 69 32 70 20 71 31 72 21 73 22 74 23 75
REMARK SMILES IDX 24 78 25 79 29 80 26 81 28 82 27 83 30 84
REMARK H PARENT 74 28 52 39 23 76 23 77 30 85
REMARK Flexibility Score: inf
ROOT
ATOM      1  C   UNL A   1      34.024  30.258  27.202  1.00  0.00     0.188 C 
ENDROOT
BRANCH   1   2
ATOM      2  O   UNL A   1      33.795  31.307  28.137  1.00  0.00    -0.377 OA
BRANCH   2   3
ATOM      3  C   UNL A   1      34.103  32.633  27.708  1.00  0.00     0.188 C 
BRANCH   3   4
ATOM      4  C   UNL A   1      35.460  33.164  28.169  1.00  0.00     0.188 C 
BRANCH   4   5
ATOM      5  O   UNL A   1      35.326  34.483  28.712  1.00  0.00    -0.376 OA
BRANCH   5   6
ATOM      6  C   UNL A   1      34.396  34.593  29.790  1.00  0.00     0.202 C 
BRANCH   6   7
ATOM      7  C   UNL A   1      34.482  33.447  30.800  1.00  0.00     0.261 C 
BRANCH   7   8
ATOM      8  O   UNL A   1      35.828  33.223  31.244  1.00  0.00    -0.460 OA
BRANCH   8   9
ATOM      9  C   UNL A   1      36.345  32.104  31.809  1.00  0.00     0.338 C 
ATOM     10  O   UNL A   1      35.812  31.672  32.830  1.00  0.00    -0.246 OA
BRANCH   9  11
ATOM     11  C   UNL A   1      37.505  31.331  31.254  1.00  0.00     0.060 A 
ATOM     12  C   UNL A   1      38.531  30.743  31.998  1.00  0.00     0.016 A 
ATOM     13  C   UNL A   1      37.528  31.150  29.858  1.00  0.00     0.016 A 
ATOM     14  C   UNL A   1      39.592  30.088  31.387  1.00  0.00     0.010 A 
ATOM     15  C   UNL A   1      38.575  30.463  29.234  1.00  0.00     0.010 A 
ATOM     16  C   UNL A   1      39.633  29.969  30.002  1.00  0.00    -0.014 A 
BRANCH  16  17
ATOM     17  C   UNL A   1      40.888  29.499  29.388  1.00  0.00     0.031 A 
ATOM     18  C   UNL A   1      42.038  30.460  29.332  1.00  0.00     0.074 A 
ATOM     19  C   UNL A   1      41.032  28.207  29.046  1.00  0.00     0.049 A 
ATOM     20  N   UNL A   1      43.236  30.292  28.839  1.00  0.00    -0.248 NA
ATOM     21  C   UNL A   1      41.814  31.786  29.936  1.00  0.00     0.031 C 
ATOM     22  C   UNL A   1      40.010  27.170  29.204  1.00  0.00     0.029 A 
ATOM     23  N   UNL A   1      42.110  27.539  28.529  1.00  0.00    -0.354 N 
ATOM     24  C   UNL A   1      43.898  31.494  29.057  1.00  0.00     0.074 A 
ATOM     25  C   UNL A   1      42.972  32.386  29.714  1.00  0.00     0.031 C 
ATOM     26  C   UNL A   1      40.520  25.991  28.810  1.00  0.00     0.029 A 
ATOM     27  C   UNL A   1      41.877  26.203  28.318  1.00  0.00     0.049 A 
ATOM     28  H   UNL A   1      42.969  27.977  28.329  1.00  0.00     0.167 HD
ATOM     29  C   UNL A   1      45.168  31.821  28.731  1.00  0.00     0.031 A 
ATOM     30  C   UNL A   1      42.670  25.270  27.759  1.00  0.00     0.031 A 
ATOM     31  C   UNL A   1      46.062  30.925  28.056  1.00  0.00     0.049 A 
ATOM     32  C   UNL A   1      44.037  25.696  27.288  1.00  0.00     0.074 A 
ATOM     33  C   UNL A   1      47.337  31.164  27.577  1.00  0.00     0.029 A 
ATOM     34  N   UNL A   1      45.760  29.602  27.766  1.00  0.00    -0.354 N 
ATOM     35  N   UNL A   1      44.628  26.860  27.417  1.00  0.00    -0.248 NA
ATOM     36  C   UNL A   1      44.837  24.686  26.587  1.00  0.00     0.031 C 
ATOM     37  C   UNL A   1      47.790  29.991  26.962  1.00  0.00     0.029 A 
ATOM     38  C   UNL A   1      46.820  29.011  27.104  1.00  0.00     0.049 A 
ATOM     39  H   UNL A   1      44.916  29.151  27.998  1.00  0.00     0.167 HD
ATOM     40  C   UNL A   1      45.875  26.721  26.824  1.00  0.00     0.074 A 
ATOM     41  C   UNL A   1      45.962  25.349  26.360  1.00  0.00     0.031 C 
ATOM     42  C   UNL A   1      46.861  27.638  26.666  1.00  0.00     0.031 A 
BRANCH  29  43
ATOM     43  C   UNL A   1      45.605  33.224  29.039  1.00  0.00    -0.014 A 
ATOM     44  C   UNL A   1      46.099  33.577  30.306  1.00  0.00     0.009 A 
ATOM     45  C   UNL A   1      45.469  34.223  28.062  1.00  0.00     0.009 A 
ATOM     46  C   UNL A   1      46.408  34.908  30.599  1.00  0.00     0.001 A 
ATOM     47  C   UNL A   1      45.802  35.547  28.350  1.00  0.00     0.001 A 
ATOM     48  C   UNL A   1      46.260  35.891  29.622  1.00  0.00     0.000 A 
ENDBRANCH  29  43
BRANCH  30  49
ATOM     49  C   UNL A   1      42.180  23.880  27.552  1.00  0.00    -0.014 A 
ATOM     50  C   UNL A   1      42.309  22.906  28.552  1.00  0.00     0.009 A 
ATOM     51  C   UNL A   1      41.602  23.510  26.324  1.00  0.00     0.009 A 
ATOM     52  C   UNL A   1      41.896  21.590  28.320  1.00  0.00     0.001 A 
ATOM     53  C   UNL A   1      41.161  22.204  26.106  1.00  0.00     0.001 A 
ATOM     54  C   UNL A   1      41.319  21.241  27.100  1.00  0.00     0.000 A 
ENDBRANCH  30  49
BRANCH  42  55
ATOM     55  C   UNL A   1      48.117  27.171  25.995  1.00  0.00    -0.014 A 
ATOM     56  C   UNL A   1      48.308  27.337  24.615  1.00  0.00     0.009 A 
ATOM     57  C   UNL A   1      49.140  26.598  26.766  1.00  0.00     0.009 A 
ATOM     58  C   UNL A   1      49.493  26.910  24.015  1.00  0.00     0.001 A 
ATOM     59  C   UNL A   1      50.334  26.198  26.167  1.00  0.00     0.001 A 
ATOM     60  C   UNL A   1      50.505  26.345  24.791  1.00  0.00     0.000 A 
ENDBRANCH  42  55
ENDBRANCH  16  17
ENDBRANCH   9  11
ENDBRANCH   8   9
ENDBRANCH   7   8
ENDBRANCH   6   7
ENDBRANCH   5   6
ENDBRANCH   4   5
ENDBRANCH   3   4
ENDBRANCH   2   3
ENDBRANCH   1   2
BRANCH   1  61
ATOM     61  C   UNL A   1      32.810  29.500  26.623  1.00  0.00     0.188 C 
BRANCH  61  62
ATOM     62  O   UNL A   1      33.109  28.260  25.993  1.00  0.00    -0.376 OA
BRANCH  62  63
ATOM     63  C   UNL A   1      32.416  28.009  24.772  1.00  0.00     0.202 C 
BRANCH  63  64
ATOM     64  C   UNL A   1      33.027  26.889  23.923  1.00  0.00     0.261 C 
BRANCH  64  65
ATOM     65  O   UNL A   1      32.098  25.859  23.540  1.00  0.00    -0.460 OA
BRANCH  65  66
ATOM     66  C   UNL A   1      31.412  25.225  24.518  1.00  0.00     0.339 C 
ATOM     67  O   UNL A   1      30.342  25.553  25.000  1.00  0.00    -0.246 OA
BRANCH  66  68
ATOM     68  C   UNL A   1      32.062  23.918  24.714  1.00  0.00     0.078 A 
ATOM     69  C   UNL A   1      32.481  23.476  25.968  1.00  0.00     0.019 A 
ATOM     70  C   UNL A   1      32.460  23.204  23.595  1.00  0.00     0.127 A 
ATOM     71  C   UNL A   1      33.316  22.363  26.048  1.00  0.00     0.031 A 
ATOM     72  N   UNL A   1      33.285  22.129  23.646  1.00  0.00    -0.254 NA
ATOM     73  C   UNL A   1      33.719  21.727  24.871  1.00  0.00     0.094 A 
BRANCH  73  74
ATOM     74  C   UNL A   1      34.710  20.569  24.941  1.00  0.00     0.318 C 
BRANCH  74  75
ATOM     75  N   UNL A   1      34.097  19.332  25.396  1.00  0.00    -0.337 N 
ATOM     76  H   UNL A   1      33.298  19.592  25.974  1.00  0.00     0.346 HD
ATOM     77  H   UNL A   1      34.864  18.842  25.858  1.00  0.00     0.346 HD
BRANCH  75  78
ATOM     78  C   UNL A   1      33.611  18.358  24.412  1.00  0.00     0.211 C 
ATOM     79  C   UNL A   1      32.290  17.693  24.848  1.00  0.00     0.068 C 
ATOM     80  C   UNL A   1      34.604  17.289  23.880  1.00  0.00     0.172 C 
ATOM     81  C   UNL A   1      32.469  16.524  25.810  1.00  0.00     0.006 C 
ATOM     82  C   UNL A   1      34.782  16.077  24.803  1.00  0.00     0.038 C 
ATOM     83  C   UNL A   1      33.455  15.485  25.280  1.00  0.00     0.003 C 
BRANCH  80  84
ATOM     84  O   UNL A   1      34.131  16.850  22.595  1.00  0.00    -0.387 OA
ATOM     85  H   UNL A   1      34.081  17.608  21.992  1.00  0.00     0.211 HD
ENDBRANCH  80  84
ENDBRANCH  75  78
ENDBRANCH  74  75
ENDBRANCH  73  74
ENDBRANCH  66  68
ENDBRANCH  65  66
ENDBRANCH  64  65
ENDBRANCH  63  64
ENDBRANCH  62  63
ENDBRANCH  61  62
ENDBRANCH   1  61
TORSDOF 24
ENDMDL
MODEL 3
REMARK VINA RESULT:      -6.7      5.439     10.835
REMARK SMILES O=C(OCCOCCOCCOCCOC(=O)c1ccc(C[NH2+][C@@H]2CCCC[C@H]2O)nc1)c1ccc(-c2c3nc(c(-c4ccccc4)c4ccc([nH]4)c(-c4ccccc4)c4nc(c(-c5ccccc5)c5ccc2[nH]5)C=C4)C=C3)cc1
REMARK SMILES IDX 10 1 9 2 8 3 7 4 6 5 5 6 4 7 3 8 2 9 1 10 33 11 34 12 80 13
REMARK SMILES IDX 35 14 79 15 36 16 37 17 38 18 73 19 39 20 78 21 72 22 74 23
REMARK SMILES IDX 40 24 77 25 71 26 70 27 41 29 63 30 48 31 62 32 49 33 52 34
REMARK SMILES IDX 61 35 75 36 50 37 51 38 60 40 76 41 53 42 42 43 43 44 47 45
REMARK SMILES IDX 44 46 46 47 45 48 64 49 65 50 69 51 66 52 68 53 67 54 54 55
REMARK SMILES IDX 55 56 59 57 56 58 58 59 57 60 11 61 12 62 13 63 14 64 15 65
REMARK SMILES IDX 16 66 17 67 18 68 19 69 32 70 20 71 31 72 21 73 22 74 23 75
REMARK SMILES IDX 24 78 25 79 29 80 26 81 28 82 27 83 30 84
REMARK H PARENT 74 28 52 39 23 76 23 77 30 85
REMARK Flexibility Score: inf
ROOT
ATOM      1  C   UNL A   1      33.332  30.570  26.601  1.00  0.00     0.188 C 
ENDROOT
BRANCH   1   2
ATOM      2  O   UNL A   1      33.586  31.207  27.848  1.00  0.00    -0.377 OA
BRANCH   2   3
ATOM      3  C   UNL A   1      34.222  32.484  27.803  1.00  0.00     0.188 C 
BRANCH   3   4
ATOM      4  C   UNL A   1      35.688  32.493  28.235  1.00  0.00     0.188 C 
BRANCH   4   5
ATOM      5  O   UNL A   1      35.917  33.514  29.214  1.00  0.00    -0.376 OA
BRANCH   5   6
ATOM      6  C   UNL A   1      35.201  33.341  30.436  1.00  0.00     0.202 C 
BRANCH   6   7
ATOM      7  C   UNL A   1      35.177  31.896  30.940  1.00  0.00     0.261 C 
BRANCH   7   8
ATOM      8  O   UNL A   1      36.325  31.590  31.744  1.00  0.00    -0.460 OA
BRANCH   8   9
ATOM      9  C   UNL A   1      37.048  30.442  31.764  1.00  0.00     0.338 C 
ATOM     10  O   UNL A   1      36.536  29.446  32.275  1.00  0.00    -0.246 OA
BRANCH   9  11
ATOM     11  C   UNL A   1      38.418  30.290  31.174  1.00  0.00     0.060 A 
ATOM     12  C   UNL A   1      38.746  30.403  29.821  1.00  0.00     0.016 A 
ATOM     13  C   UNL A   1      39.470  30.058  32.080  1.00  0.00     0.016 A 
ATOM     14  C   UNL A   1      40.041  30.196  29.364  1.00  0.00     0.010 A 
ATOM     15  C   UNL A   1      40.785  29.881  31.636  1.00  0.00     0.010 A 
ATOM     16  C   UNL A   1      41.060  29.907  30.265  1.00  0.00    -0.014 A 
BRANCH  16  17
ATOM     17  C   UNL A   1      42.350  29.447  29.722  1.00  0.00     0.031 A 
ATOM     18  C   UNL A   1      42.414  28.058  29.160  1.00  0.00     0.074 A 
ATOM     19  C   UNL A   1      43.376  30.306  29.592  1.00  0.00     0.049 A 
ATOM     20  N   UNL A   1      43.426  27.420  28.635  1.00  0.00    -0.248 NA
ATOM     21  C   UNL A   1      41.157  27.288  29.172  1.00  0.00     0.031 C 
ATOM     22  C   UNL A   1      43.351  31.719  29.978  1.00  0.00     0.029 A 
ATOM     23  N   UNL A   1      44.626  30.125  29.063  1.00  0.00    -0.354 N 
ATOM     24  C   UNL A   1      42.930  26.174  28.273  1.00  0.00     0.074 A 
ATOM     25  C   UNL A   1      41.536  26.135  28.646  1.00  0.00     0.031 C 
ATOM     26  C   UNL A   1      44.528  32.281  29.653  1.00  0.00     0.029 A 
ATOM     27  C   UNL A   1      45.403  31.256  29.095  1.00  0.00     0.049 A 
ATOM     28  H   UNL A   1      44.936  29.266  28.695  1.00  0.00     0.167 HD
ATOM     29  C   UNL A   1      43.589  25.150  27.684  1.00  0.00     0.031 A 
ATOM     30  C   UNL A   1      46.690  31.425  28.738  1.00  0.00     0.031 A 
ATOM     31  C   UNL A   1      44.982  25.203  27.345  1.00  0.00     0.049 A 
ATOM     32  C   UNL A   1      47.436  30.230  28.203  1.00  0.00     0.074 A 
ATOM     33  C   UNL A   1      45.793  24.204  26.841  1.00  0.00     0.029 A 
ATOM     34  N   UNL A   1      45.770  26.337  27.483  1.00  0.00    -0.354 N 
ATOM     35  N   UNL A   1      46.987  29.025  27.944  1.00  0.00    -0.248 NA
ATOM     36  C   UNL A   1      48.865  30.415  27.924  1.00  0.00     0.031 C 
ATOM     37  C   UNL A   1      47.085  24.726  26.709  1.00  0.00     0.029 A 
ATOM     38  C   UNL A   1      47.064  26.062  27.082  1.00  0.00     0.049 A 
ATOM     39  H   UNL A   1      45.454  27.208  27.815  1.00  0.00     0.167 HD
ATOM     40  C   UNL A   1      48.073  28.310  27.459  1.00  0.00     0.074 A 
ATOM     41  C   UNL A   1      49.196  29.228  27.436  1.00  0.00     0.031 C 
ATOM     42  C   UNL A   1      48.148  27.012  27.074  1.00  0.00     0.031 A 
BRANCH  29  43
ATOM     43  C   UNL A   1      42.810  23.886  27.458  1.00  0.00    -0.014 A 
ATOM     44  C   UNL A   1      42.159  23.635  26.238  1.00  0.00     0.009 A 
ATOM     45  C   UNL A   1      42.678  22.957  28.501  1.00  0.00     0.009 A 
ATOM     46  C   UNL A   1      41.360  22.499  26.085  1.00  0.00     0.001 A 
ATOM     47  C   UNL A   1      41.900  21.810  28.336  1.00  0.00     0.001 A 
ATOM     48  C   UNL A   1      41.232  21.588  27.132  1.00  0.00     0.000 A 
ENDBRANCH  29  43
BRANCH  30  49
ATOM     49  C   UNL A   1      47.369  32.735  28.935  1.00  0.00    -0.014 A 
ATOM     50  C   UNL A   1      47.418  33.690  27.909  1.00  0.00     0.009 A 
ATOM     51  C   UNL A   1      48.004  33.025  30.155  1.00  0.00     0.009 A 
ATOM     52  C   UNL A   1      48.110  34.892  28.091  1.00  0.00     0.001 A 
ATOM     53  C   UNL A   1      48.667  34.239  30.345  1.00  0.00     0.001 A 
ATOM     54  C   UNL A   1      48.730  35.168  29.309  1.00  0.00     0.000 A 
ENDBRANCH  30  49
BRANCH  42  55
ATOM     55  C   UNL A   1      49.476  26.533  26.569  1.00  0.00    -0.014 A 
ATOM     56  C   UNL A   1      50.397  25.912  27.426  1.00  0.00     0.009 A 
ATOM     57  C   UNL A   1      49.785  26.664  25.206  1.00  0.00     0.009 A 
ATOM     58  C   UNL A   1      51.620  25.459  26.930  1.00  0.00     0.001 A 
ATOM     59  C   UNL A   1      50.996  26.184  24.710  1.00  0.00     0.001 A 
ATOM     60  C   UNL A   1      51.915  25.590  25.574  1.00  0.00     0.000 A 
ENDBRANCH  42  55
ENDBRANCH  16  17
ENDBRANCH   9  11
ENDBRANCH   8   9
ENDBRANCH   7   8
ENDBRANCH   6   7
ENDBRANCH   5   6
ENDBRANCH   4   5
ENDBRANCH   3   4
ENDBRANCH   2   3
ENDBRANCH   1   2
BRANCH   1  61
ATOM     61  C   UNL A   1      31.869  30.391  26.142  1.00  0.00     0.188 C 
BRANCH  61  62
ATOM     62  O   UNL A   1      31.650  29.357  25.191  1.00  0.00    -0.376 OA
BRANCH  62  63
ATOM     63  C   UNL A   1      30.654  29.627  24.207  1.00  0.00     0.202 C 
BRANCH  63  64
ATOM     64  C   UNL A   1      31.028  29.168  22.793  1.00  0.00     0.261 C 
BRANCH  64  65
ATOM     65  O   UNL A   1      30.231  28.081  22.291  1.00  0.00    -0.460 OA
BRANCH  65  66
ATOM     66  C   UNL A   1      29.728  27.195  23.181  1.00  0.00     0.339 C 
ATOM     67  O   UNL A   1      28.575  27.108  23.564  1.00  0.00    -0.246 OA
BRANCH  66  68
ATOM     68  C   UNL A   1      30.773  26.182  23.408  1.00  0.00     0.078 A 
ATOM     69  C   UNL A   1      31.249  25.876  24.682  1.00  0.00     0.019 A 
ATOM     70  C   UNL A   1      31.448  25.673  22.309  1.00  0.00     0.127 A 
ATOM     71  C   UNL A   1      32.408  25.111  24.804  1.00  0.00     0.031 A 
ATOM     72  N   UNL A   1      32.585  24.941  22.403  1.00  0.00    -0.254 NA
ATOM     73  C   UNL A   1      33.064  24.679  23.649  1.00  0.00     0.094 A 
BRANCH  73  74
ATOM     74  C   UNL A   1      34.385  23.924  23.770  1.00  0.00     0.318 C 
BRANCH  74  75
ATOM     75  N   UNL A   1      34.224  22.486  23.633  1.00  0.00    -0.337 N 
ATOM     76  H   UNL A   1      35.156  22.095  23.492  1.00  0.00     0.346 HD
ATOM     77  H   UNL A   1      33.561  22.392  22.863  1.00  0.00     0.346 HD
BRANCH  75  78
ATOM     78  C   UNL A   1      33.601  21.718  24.718  1.00  0.00     0.211 C 
ATOM     79  C   UNL A   1      34.619  20.849  25.481  1.00  0.00     0.068 C 
ATOM     80  C   UNL A   1      32.321  20.899  24.399  1.00  0.00     0.172 C 
ATOM     81  C   UNL A   1      34.925  19.514  24.810  1.00  0.00     0.006 C 
ATOM     82  C   UNL A   1      32.590  19.531  23.757  1.00  0.00     0.038 C 
ATOM     83  C   UNL A   1      33.659  18.722  24.493  1.00  0.00     0.003 C 
BRANCH  80  84
ATOM     84  O   UNL A   1      31.597  20.719  25.628  1.00  0.00    -0.387 OA
ATOM     85  H   UNL A   1      31.773  19.834  25.981  1.00  0.00     0.211 HD
ENDBRANCH  80  84
ENDBRANCH  75  78
ENDBRANCH  74  75
ENDBRANCH  73  74
ENDBRANCH  66  68
ENDBRANCH  65  66
ENDBRANCH  64  65
ENDBRANCH  63  64
ENDBRANCH  62  63
ENDBRANCH  61  62
ENDBRANCH   1  61
TORSDOF 24
ENDMDL
