MODEL 1
REMARK VINA RESULT:      -9.6      0.000      0.000
REMARK SMILES COC(=O)c1ccc(Cl)c(-c2ccc(C(=O)OCCOCCOCCOCCOC(=O)c3ccc(-c4c5nc(c(-c6ccccc6)c6ccc([nH]6)c(-c6ccccc6)c6nc(c(-c7ccccc7)c7ccc4[nH]7)C=C6)C=C5)cc3)c(F)c2)c1
REMARK SMILES IDX 22 1 21 2 20 3 19 4 18 5 17 6 15 7 16 8 14 9 11 10 12 11
REMARK SMILES IDX 82 12 13 13 80 14 81 15 10 16 5 17 6 18 83 19 7 20 8 21 9 22
REMARK SMILES IDX 3 23 4 24 2 25 1 26 23 27 24 28 25 29 26 30 27 31 28 32
REMARK SMILES IDX 29 33 30 34 31 35 32 36 33 37 79 38 34 39 78 40 35 41 36 42
REMARK SMILES IDX 37 43 72 44 38 45 77 46 71 47 73 48 39 49 76 50 70 51 69 52
REMARK SMILES IDX 40 54 62 55 47 56 61 57 48 58 51 59 60 60 74 61 49 62 50 63
REMARK SMILES IDX 59 65 75 66 52 67 41 68 42 69 46 70 43 71 45 72 44 73 63 74
REMARK SMILES IDX 64 75 68 76 65 77 67 78 66 79 53 80 54 81 58 82 55 83 57 84
REMARK SMILES IDX 56 85
REMARK H PARENT 73 53 51 64
REMARK Flexibility Score: inf
ROOT
ATOM      1  C   UNL A   1      41.201  21.145  27.179  1.00  0.00     0.188 C 
ENDROOT
BRANCH   1   2
ATOM      2  C   UNL A   1      39.966  22.067  27.043  1.00  0.00     0.188 C 
BRANCH   2   3
ATOM      3  O   UNL A   1      39.378  22.058  25.754  1.00  0.00    -0.376 OA
BRANCH   3   4
ATOM      4  C   UNL A   1      38.092  21.493  25.582  1.00  0.00     0.202 C 
BRANCH   4   5
ATOM      5  C   UNL A   1      36.891  22.425  25.372  1.00  0.00     0.261 C 
BRANCH   5   6
ATOM      6  O   UNL A   1      35.900  21.956  24.454  1.00  0.00    -0.460 OA
BRANCH   6   7
ATOM      7  C   UNL A   1      34.615  22.030  24.852  1.00  0.00     0.341 C 
ATOM      8  O   UNL A   1      33.954  21.138  25.357  1.00  0.00    -0.246 OA
BRANCH   7   9
ATOM      9  C   UNL A   1      34.188  23.441  24.800  1.00  0.00     0.095 A 
ATOM     10  C   UNL A   1      33.295  26.106  24.770  1.00  0.00    -0.014 A 
ATOM     11  C   UNL A   1      33.468  25.428  25.987  1.00  0.00     0.010 A 
ATOM     12  C   UNL A   1      33.661  25.454  23.578  1.00  0.00     0.049 A 
ATOM     13  C   UNL A   1      33.904  24.100  26.003  1.00  0.00     0.019 A 
ATOM     14  C   UNL A   1      34.095  24.132  23.596  1.00  0.00     0.138 A 
ATOM     15  F   UNL A   1      34.363  23.533  22.427  1.00  0.00    -0.206 F 
BRANCH  10  16
ATOM     16  C   UNL A   1      32.547  27.372  24.716  1.00  0.00     0.001 A 
ATOM     17  C   UNL A   1      30.543  28.491  23.856  1.00  0.00     0.060 A 
ATOM     18  C   UNL A   1      30.895  29.663  24.524  1.00  0.00     0.017 A 
ATOM     19  C   UNL A   1      31.356  27.361  23.965  1.00  0.00     0.026 A 
ATOM     20  C   UNL A   1      32.067  29.693  25.289  1.00  0.00     0.022 A 
ATOM     21  C   UNL A   1      32.891  28.559  25.382  1.00  0.00     0.048 A 
ATOM     22  Cl  UNL A   1      34.333  28.693  26.326  1.00  0.00    -0.084 Cl
BRANCH  17  23
ATOM     23  C   UNL A   1      29.326  28.362  23.026  1.00  0.00     0.337 C 
ATOM     24  O   UNL A   1      28.414  27.597  23.291  1.00  0.00    -0.246 OA
BRANCH  23  25
ATOM     25  O   UNL A   1      29.451  29.116  21.909  1.00  0.00    -0.465 OA
ATOM     26  C   UNL A   1      28.364  30.023  21.720  1.00  0.00     0.282 C 
ENDBRANCH  23  25
ENDBRANCH  17  23
ENDBRANCH  10  16
ENDBRANCH   7   9
ENDBRANCH   6   7
ENDBRANCH   5   6
ENDBRANCH   4   5
ENDBRANCH   3   4
ENDBRANCH   2   3
ENDBRANCH   1   2
BRANCH   1  27
ATOM     27  O   UNL A   1      41.504  20.213  26.150  1.00  0.00    -0.377 OA
BRANCH  27  28
ATOM     28  C   UNL A   1      42.574  19.288  26.320  1.00  0.00     0.188 C 
BRANCH  28  29
ATOM     29  C   UNL A   1      43.738  19.212  25.304  1.00  0.00     0.188 C 
BRANCH  29  30
ATOM     30  O   UNL A   1      43.913  20.378  24.519  1.00  0.00    -0.376 OA
BRANCH  30  31
ATOM     31  C   UNL A   1      44.240  21.582  25.190  1.00  0.00     0.202 C 
BRANCH  31  32
ATOM     32  C   UNL A   1      43.434  22.836  24.819  1.00  0.00     0.261 C 
BRANCH  32  33
ATOM     33  O   UNL A   1      43.106  23.724  25.898  1.00  0.00    -0.460 OA
BRANCH  33  34
ATOM     34  C   UNL A   1      42.975  25.034  25.609  1.00  0.00     0.338 C 
ATOM     35  O   UNL A   1      42.851  25.542  24.506  1.00  0.00    -0.246 OA
BRANCH  34  36
ATOM     36  C   UNL A   1      42.820  25.755  26.888  1.00  0.00     0.060 A 
ATOM     37  C   UNL A   1      42.070  25.173  27.919  1.00  0.00     0.016 A 
ATOM     38  C   UNL A   1      43.433  26.997  27.070  1.00  0.00     0.016 A 
ATOM     39  C   UNL A   1      41.904  25.850  29.128  1.00  0.00     0.010 A 
ATOM     40  C   UNL A   1      43.248  27.683  28.272  1.00  0.00     0.010 A 
ATOM     41  C   UNL A   1      42.455  27.127  29.292  1.00  0.00    -0.014 A 
BRANCH  41  42
ATOM     42  C   UNL A   1      42.041  27.969  30.439  1.00  0.00     0.031 A 
ATOM     43  C   UNL A   1      40.851  28.873  30.264  1.00  0.00     0.074 A 
ATOM     44  C   UNL A   1      42.693  27.933  31.612  1.00  0.00     0.049 A 
ATOM     45  N   UNL A   1      40.327  29.732  31.101  1.00  0.00    -0.248 NA
ATOM     46  C   UNL A   1      40.163  28.797  28.965  1.00  0.00     0.031 C 
ATOM     47  C   UNL A   1      43.825  27.065  31.927  1.00  0.00     0.029 A 
ATOM     48  N   UNL A   1      42.489  28.655  32.761  1.00  0.00    -0.354 N 
ATOM     49  C   UNL A   1      39.257  30.305  30.425  1.00  0.00     0.074 A 
ATOM     50  C   UNL A   1      39.230  29.725  29.100  1.00  0.00     0.031 C 
ATOM     51  C   UNL A   1      44.219  27.308  33.190  1.00  0.00     0.029 A 
ATOM     52  C   UNL A   1      43.392  28.373  33.755  1.00  0.00     0.049 A 
ATOM     53  H   UNL A   1      41.764  29.313  32.863  1.00  0.00     0.167 HD
ATOM     54  C   UNL A   1      38.373  31.231  30.866  1.00  0.00     0.031 A 
ATOM     55  C   UNL A   1      43.547  28.927  34.973  1.00  0.00     0.031 A 
ATOM     56  C   UNL A   1      38.419  31.830  32.174  1.00  0.00     0.049 A 
ATOM     57  C   UNL A   1      42.614  30.028  35.409  1.00  0.00     0.074 A 
ATOM     58  C   UNL A   1      37.565  32.769  32.724  1.00  0.00     0.029 A 
ATOM     59  N   UNL A   1      39.385  31.557  33.131  1.00  0.00    -0.354 N 
ATOM     60  N   UNL A   1      41.590  30.547  34.775  1.00  0.00    -0.248 NA
ATOM     61  C   UNL A   1      42.859  30.614  36.735  1.00  0.00     0.031 C 
ATOM     62  C   UNL A   1      38.055  33.117  33.986  1.00  0.00     0.029 A 
ATOM     63  C   UNL A   1      39.169  32.337  34.255  1.00  0.00     0.049 A 
ATOM     64  H   UNL A   1      40.115  30.905  33.027  1.00  0.00     0.167 HD
ATOM     65  C   UNL A   1      41.049  31.496  35.636  1.00  0.00     0.074 A 
ATOM     66  C   UNL A   1      41.852  31.470  36.841  1.00  0.00     0.031 C 
ATOM     67  C   UNL A   1      39.980  32.309  35.447  1.00  0.00     0.031 A 
BRANCH  54  68
ATOM     68  C   UNL A   1      37.316  31.687  29.896  1.00  0.00    -0.014 A 
ATOM     69  C   UNL A   1      36.135  30.953  29.696  1.00  0.00     0.009 A 
ATOM     70  C   UNL A   1      37.512  32.868  29.162  1.00  0.00     0.009 A 
ATOM     71  C   UNL A   1      35.198  31.366  28.747  1.00  0.00     0.001 A 
ATOM     72  C   UNL A   1      36.556  33.297  28.241  1.00  0.00     0.001 A 
ATOM     73  C   UNL A   1      35.408  32.539  28.023  1.00  0.00     0.000 A 
ENDBRANCH  54  68
BRANCH  55  74
ATOM     74  C   UNL A   1      44.633  28.454  35.873  1.00  0.00    -0.014 A 
ATOM     75  C   UNL A   1      45.910  29.032  35.815  1.00  0.00     0.009 A 
ATOM     76  C   UNL A   1      44.399  27.419  36.792  1.00  0.00     0.009 A 
ATOM     77  C   UNL A   1      46.934  28.572  36.646  1.00  0.00     0.001 A 
ATOM     78  C   UNL A   1      45.416  26.982  37.643  1.00  0.00     0.001 A 
ATOM     79  C   UNL A   1      46.684  27.553  37.564  1.00  0.00     0.000 A 
ENDBRANCH  55  74
BRANCH  67  80
ATOM     80  C   UNL A   1      39.586  33.213  36.585  1.00  0.00    -0.014 A 
ATOM     81  C   UNL A   1      40.075  34.525  36.685  1.00  0.00     0.009 A 
ATOM     82  C   UNL A   1      38.673  32.755  37.548  1.00  0.00     0.009 A 
ATOM     83  C   UNL A   1      39.685  35.346  37.746  1.00  0.00     0.001 A 
ATOM     84  C   UNL A   1      38.258  33.588  38.589  1.00  0.00     0.001 A 
ATOM     85  C   UNL A   1      38.773  34.878  38.693  1.00  0.00     0.000 A 
ENDBRANCH  67  80
ENDBRANCH  41  42
ENDBRANCH  34  36
ENDBRANCH  33  34
ENDBRANCH  32  33
ENDBRANCH  31  32
ENDBRANCH  30  31
ENDBRANCH  29  30
ENDBRANCH  28  29
ENDBRANCH  27  28
ENDBRANCH   1  27
TORSDOF 23
ENDMDL
MODEL 2
REMARK VINA RESULT:      -8.6      3.020      6.025
REMARK SMILES COC(=O)c1ccc(Cl)c(-c2ccc(C(=O)OCCOCCOCCOCCOC(=O)c3ccc(-c4c5nc(c(-c6ccccc6)c6ccc([nH]6)c(-c6ccccc6)c6nc(c(-c7ccccc7)c7ccc4[nH]7)C=C6)C=C5)cc3)c(F)c2)c1
REMARK SMILES IDX 22 1 21 2 20 3 19 4 18 5 17 6 15 7 16 8 14 9 11 10 12 11
REMARK SMILES IDX 82 12 13 13 80 14 81 15 10 16 5 17 6 18 83 19 7 20 8 21 9 22
REMARK SMILES IDX 3 23 4 24 2 25 1 26 23 27 24 28 25 29 26 30 27 31 28 32
REMARK SMILES IDX 29 33 30 34 31 35 32 36 33 37 79 38 34 39 78 40 35 41 36 42
REMARK SMILES IDX 37 43 72 44 38 45 77 46 71 47 73 48 39 49 76 50 70 51 69 52
REMARK SMILES IDX 40 54 62 55 47 56 61 57 48 58 51 59 60 60 74 61 49 62 50 63
REMARK SMILES IDX 59 65 75 66 52 67 41 68 42 69 46 70 43 71 45 72 44 73 63 74
REMARK SMILES IDX 64 75 68 76 65 77 67 78 66 79 53 80 54 81 58 82 55 83 57 84
REMARK SMILES IDX 56 85
REMARK H PARENT 73 53 51 64
REMARK Flexibility Score: inf
ROOT
ATOM      1  C   UNL A   1      40.668  21.427  27.221  1.00  0.00     0.188 C 
ENDROOT
BRANCH   1   2
ATOM      2  C   UNL A   1      39.568  22.160  26.421  1.00  0.00     0.188 C 
BRANCH   2   3
ATOM      3  O   UNL A   1      38.946  21.363  25.428  1.00  0.00    -0.376 OA
BRANCH   3   4
ATOM      4  C   UNL A   1      37.578  21.029  25.562  1.00  0.00     0.202 C 
BRANCH   4   5
ATOM      5  C   UNL A   1      36.517  22.084  25.220  1.00  0.00     0.261 C 
BRANCH   5   6
ATOM      6  O   UNL A   1      35.512  21.668  24.291  1.00  0.00    -0.460 OA
BRANCH   6   7
ATOM      7  C   UNL A   1      34.228  21.806  24.678  1.00  0.00     0.341 C 
ATOM      8  O   UNL A   1      33.504  20.933  25.127  1.00  0.00    -0.246 OA
BRANCH   7   9
ATOM      9  C   UNL A   1      33.895  23.242  24.697  1.00  0.00     0.095 A 
ATOM     10  C   UNL A   1      33.173  25.957  24.795  1.00  0.00    -0.014 A 
ATOM     11  C   UNL A   1      33.206  25.187  25.968  1.00  0.00     0.010 A 
ATOM     12  C   UNL A   1      33.592  25.365  23.590  1.00  0.00     0.049 A 
ATOM     13  C   UNL A   1      33.557  23.836  25.920  1.00  0.00     0.019 A 
ATOM     14  C   UNL A   1      33.941  24.018  23.544  1.00  0.00     0.138 A 
ATOM     15  F   UNL A   1      34.263  23.484  22.358  1.00  0.00    -0.206 F 
BRANCH  10  16
ATOM     16  C   UNL A   1      32.511  27.271  24.777  1.00  0.00     0.001 A 
ATOM     17  C   UNL A   1      30.661  28.581  23.844  1.00  0.00     0.060 A 
ATOM     18  C   UNL A   1      31.024  29.676  24.628  1.00  0.00     0.017 A 
ATOM     19  C   UNL A   1      31.391  27.394  23.932  1.00  0.00     0.026 A 
ATOM     20  C   UNL A   1      32.124  29.572  25.487  1.00  0.00     0.022 A 
ATOM     21  C   UNL A   1      32.867  28.381  25.560  1.00  0.00     0.048 A 
ATOM     22  Cl  UNL A   1      34.226  28.349  26.628  1.00  0.00    -0.084 Cl
BRANCH  17  23
ATOM     23  C   UNL A   1      29.517  28.595  22.909  1.00  0.00     0.337 C 
ATOM     24  O   UNL A   1      28.466  28.016  23.129  1.00  0.00    -0.246 OA
BRANCH  23  25
ATOM     25  O   UNL A   1      29.866  29.229  21.765  1.00  0.00    -0.465 OA
ATOM     26  C   UNL A   1      29.163  30.456  21.567  1.00  0.00     0.282 C 
ENDBRANCH  23  25
ENDBRANCH  17  23
ENDBRANCH  10  16
ENDBRANCH   7   9
ENDBRANCH   6   7
ENDBRANCH   5   6
ENDBRANCH   4   5
ENDBRANCH   3   4
ENDBRANCH   2   3
ENDBRANCH   1   2
BRANCH   1  27
ATOM     27  O   UNL A   1      40.819  20.020  27.090  1.00  0.00    -0.377 OA
BRANCH  27  28
ATOM     28  C   UNL A   1      42.034  19.393  27.488  1.00  0.00     0.188 C 
BRANCH  28  29
ATOM     29  C   UNL A   1      42.605  18.181  26.713  1.00  0.00     0.188 C 
BRANCH  29  30
ATOM     30  O   UNL A   1      42.909  18.442  25.354  1.00  0.00    -0.376 OA
BRANCH  30  31
ATOM     31  C   UNL A   1      44.146  19.066  25.062  1.00  0.00     0.202 C 
BRANCH  31  32
ATOM     32  C   UNL A   1      44.141  20.591  24.887  1.00  0.00     0.261 C 
BRANCH  32  33
ATOM     33  O   UNL A   1      44.756  21.354  25.935  1.00  0.00    -0.460 OA
BRANCH  33  34
ATOM     34  C   UNL A   1      45.827  22.107  25.612  1.00  0.00     0.338 C 
ATOM     35  O   UNL A   1      46.718  21.832  24.824  1.00  0.00    -0.246 OA
BRANCH  34  36
ATOM     36  C   UNL A   1      45.645  23.428  26.246  1.00  0.00     0.060 A 
ATOM     37  C   UNL A   1      46.749  24.075  26.818  1.00  0.00     0.016 A 
ATOM     38  C   UNL A   1      44.385  24.031  26.258  1.00  0.00     0.016 A 
ATOM     39  C   UNL A   1      46.589  25.317  27.434  1.00  0.00     0.010 A 
ATOM     40  C   UNL A   1      44.221  25.264  26.893  1.00  0.00     0.010 A 
ATOM     41  C   UNL A   1      45.315  25.895  27.512  1.00  0.00    -0.014 A 
BRANCH  41  42
ATOM     42  C   UNL A   1      45.082  27.050  28.411  1.00  0.00     0.031 A 
ATOM     43  C   UNL A   1      44.802  26.777  29.863  1.00  0.00     0.074 A 
ATOM     44  C   UNL A   1      45.125  28.314  27.959  1.00  0.00     0.049 A 
ATOM     45  N   UNL A   1      44.523  27.612  30.830  1.00  0.00    -0.248 NA
ATOM     46  C   UNL A   1      44.837  25.364  30.276  1.00  0.00     0.031 C 
ATOM     47  C   UNL A   1      45.437  28.716  26.590  1.00  0.00     0.029 A 
ATOM     48  N   UNL A   1      44.900  29.497  28.617  1.00  0.00    -0.354 N 
ATOM     49  C   UNL A   1      44.339  26.827  31.961  1.00  0.00     0.074 A 
ATOM     50  C   UNL A   1      44.501  25.449  31.553  1.00  0.00     0.031 C 
ATOM     51  C   UNL A   1      45.381  30.057  26.508  1.00  0.00     0.029 A 
ATOM     52  C   UNL A   1      44.992  30.602  27.808  1.00  0.00     0.049 A 
ATOM     53  H   UNL A   1      44.691  29.549  29.578  1.00  0.00     0.167 HD
ATOM     54  C   UNL A   1      44.063  27.215  33.229  1.00  0.00     0.031 A 
ATOM     55  C   UNL A   1      44.768  31.902  28.082  1.00  0.00     0.031 A 
ATOM     56  C   UNL A   1      43.872  28.585  33.627  1.00  0.00     0.049 A 
ATOM     57  C   UNL A   1      44.362  32.305  29.476  1.00  0.00     0.074 A 
ATOM     58  C   UNL A   1      43.599  29.087  34.888  1.00  0.00     0.029 A 
ATOM     59  N   UNL A   1      43.920  29.670  32.765  1.00  0.00    -0.354 N 
ATOM     60  N   UNL A   1      44.215  31.560  30.545  1.00  0.00    -0.248 NA
ATOM     61  C   UNL A   1      44.097  33.734  29.699  1.00  0.00     0.031 C 
ATOM     62  C   UNL A   1      43.411  30.468  34.774  1.00  0.00     0.029 A 
ATOM     63  C   UNL A   1      43.644  30.836  33.459  1.00  0.00     0.049 A 
ATOM     64  H   UNL A   1      44.119  29.619  31.803  1.00  0.00     0.167 HD
ATOM     65  C   UNL A   1      43.874  32.432  31.574  1.00  0.00     0.074 A 
ATOM     66  C   UNL A   1      43.848  33.762  31.002  1.00  0.00     0.031 C 
ATOM     67  C   UNL A   1      43.613  32.155  32.876  1.00  0.00     0.031 A 
BRANCH  54  68
ATOM     68  C   UNL A   1      43.898  26.130  34.258  1.00  0.00    -0.014 A 
ATOM     69  C   UNL A   1      44.996  25.612  34.964  1.00  0.00     0.009 A 
ATOM     70  C   UNL A   1      42.620  25.611  34.518  1.00  0.00     0.009 A 
ATOM     71  C   UNL A   1      44.824  24.563  35.870  1.00  0.00     0.001 A 
ATOM     72  C   UNL A   1      42.446  24.588  35.452  1.00  0.00     0.001 A 
ATOM     73  C   UNL A   1      43.548  24.055  36.116  1.00  0.00     0.000 A 
ENDBRANCH  54  68
BRANCH  55  74
ATOM     74  C   UNL A   1      44.916  32.923  27.011  1.00  0.00    -0.014 A 
ATOM     75  C   UNL A   1      46.134  33.595  26.828  1.00  0.00     0.009 A 
ATOM     76  C   UNL A   1      43.837  33.234  26.168  1.00  0.00     0.009 A 
ATOM     77  C   UNL A   1      46.263  34.569  25.835  1.00  0.00     0.001 A 
ATOM     78  C   UNL A   1      43.979  34.186  25.156  1.00  0.00     0.001 A 
ATOM     79  C   UNL A   1      45.189  34.858  24.996  1.00  0.00     0.000 A 
ENDBRANCH  55  74
BRANCH  67  80
ATOM     80  C   UNL A   1      43.315  33.317  33.786  1.00  0.00    -0.014 A 
ATOM     81  C   UNL A   1      44.337  34.014  34.449  1.00  0.00     0.009 A 
ATOM     82  C   UNL A   1      41.988  33.749  33.945  1.00  0.00     0.009 A 
ATOM     83  C   UNL A   1      44.033  35.095  35.280  1.00  0.00     0.001 A 
ATOM     84  C   UNL A   1      41.689  34.851  34.749  1.00  0.00     0.001 A 
ATOM     85  C   UNL A   1      42.710  35.516  35.424  1.00  0.00     0.000 A 
ENDBRANCH  67  80
ENDBRANCH  41  42
ENDBRANCH  34  36
ENDBRANCH  33  34
ENDBRANCH  32  33
ENDBRANCH  31  32
ENDBRANCH  30  31
ENDBRANCH  29  30
ENDBRANCH  28  29
ENDBRANCH  27  28
ENDBRANCH   1  27
TORSDOF 23
ENDMDL
MODEL 3
REMARK VINA RESULT:      -8.4      7.583     11.839
REMARK SMILES COC(=O)c1ccc(Cl)c(-c2ccc(C(=O)OCCOCCOCCOCCOC(=O)c3ccc(-c4c5nc(c(-c6ccccc6)c6ccc([nH]6)c(-c6ccccc6)c6nc(c(-c7ccccc7)c7ccc4[nH]7)C=C6)C=C5)cc3)c(F)c2)c1
REMARK SMILES IDX 22 1 21 2 20 3 19 4 18 5 17 6 15 7 16 8 14 9 11 10 12 11
REMARK SMILES IDX 82 12 13 13 80 14 81 15 10 16 5 17 6 18 83 19 7 20 8 21 9 22
REMARK SMILES IDX 3 23 4 24 2 25 1 26 23 27 24 28 25 29 26 30 27 31 28 32
REMARK SMILES IDX 29 33 30 34 31 35 32 36 33 37 79 38 34 39 78 40 35 41 36 42
REMARK SMILES IDX 37 43 72 44 38 45 77 46 71 47 73 48 39 49 76 50 70 51 69 52
REMARK SMILES IDX 40 54 62 55 47 56 61 57 48 58 51 59 60 60 74 61 49 62 50 63
REMARK SMILES IDX 59 65 75 66 52 67 41 68 42 69 46 70 43 71 45 72 44 73 63 74
REMARK SMILES IDX 64 75 68 76 65 77 67 78 66 79 53 80 54 81 58 82 55 83 57 84
REMARK SMILES IDX 56 85
REMARK H PARENT 73 53 51 64
REMARK Flexibility Score: inf
ROOT
ATOM      1  C   UNL A   1      38.535  30.104  28.692  1.00  0.00     0.188 C 
ENDROOT
BRANCH   1   2
ATOM      2  C   UNL A   1      37.850  30.055  30.077  1.00  0.00     0.188 C 
BRANCH   2   3
ATOM      3  O   UNL A   1      37.696  31.323  30.691  1.00  0.00    -0.376 OA
BRANCH   3   4
ATOM      4  C   UNL A   1      36.407  31.753  31.084  1.00  0.00     0.202 C 
BRANCH   4   5
ATOM      5  C   UNL A   1      35.666  32.777  30.214  1.00  0.00     0.261 C 
BRANCH   5   6
ATOM      6  O   UNL A   1      34.491  32.293  29.559  1.00  0.00    -0.460 OA
BRANCH   6   7
ATOM      7  C   UNL A   1      34.449  32.409  28.216  1.00  0.00     0.341 C 
ATOM      8  O   UNL A   1      34.804  33.370  27.555  1.00  0.00    -0.246 OA
BRANCH   7   9
ATOM      9  C   UNL A   1      34.120  31.091  27.642  1.00  0.00     0.095 A 
ATOM     10  C   UNL A   1      33.591  28.578  26.498  1.00  0.00    -0.014 A 
ATOM     11  C   UNL A   1      34.816  28.825  27.138  1.00  0.00     0.010 A 
ATOM     12  C   UNL A   1      32.606  29.583  26.521  1.00  0.00     0.049 A 
ATOM     13  C   UNL A   1      35.084  30.076  27.700  1.00  0.00     0.019 A 
ATOM     14  C   UNL A   1      32.875  30.829  27.081  1.00  0.00     0.138 A 
ATOM     15  F   UNL A   1      31.928  31.775  27.012  1.00  0.00    -0.206 F 
BRANCH  10  16
ATOM     16  C   UNL A   1      33.416  27.398  25.638  1.00  0.00     0.001 A 
ATOM     17  C   UNL A   1      32.669  25.065  25.547  1.00  0.00     0.060 A 
ATOM     18  C   UNL A   1      32.921  25.024  24.177  1.00  0.00     0.017 A 
ATOM     19  C   UNL A   1      32.904  26.243  26.260  1.00  0.00     0.026 A 
ATOM     20  C   UNL A   1      33.416  26.165  23.534  1.00  0.00     0.022 A 
ATOM     21  C   UNL A   1      33.668  27.343  24.258  1.00  0.00     0.048 A 
ATOM     22  Cl  UNL A   1      34.305  28.695  23.389  1.00  0.00    -0.084 Cl
BRANCH  17  23
ATOM     23  C   UNL A   1      32.146  23.914  26.312  1.00  0.00     0.337 C 
ATOM     24  O   UNL A   1      31.439  24.032  27.300  1.00  0.00    -0.246 OA
BRANCH  23  25
ATOM     25  O   UNL A   1      32.664  22.763  25.823  1.00  0.00    -0.465 OA
ATOM     26  C   UNL A   1      31.666  21.802  25.477  1.00  0.00     0.282 C 
ENDBRANCH  23  25
ENDBRANCH  17  23
ENDBRANCH  10  16
ENDBRANCH   7   9
ENDBRANCH   6   7
ENDBRANCH   5   6
ENDBRANCH   4   5
ENDBRANCH   3   4
ENDBRANCH   2   3
ENDBRANCH   1   2
BRANCH   1  27
ATOM     27  O   UNL A   1      38.925  28.895  28.054  1.00  0.00    -0.377 OA
BRANCH  27  28
ATOM     28  C   UNL A   1      39.953  28.910  27.068  1.00  0.00     0.188 C 
BRANCH  28  29
ATOM     29  C   UNL A   1      40.956  27.738  26.936  1.00  0.00     0.188 C 
BRANCH  29  30
ATOM     30  O   UNL A   1      40.362  26.481  26.667  1.00  0.00    -0.376 OA
BRANCH  30  31
ATOM     31  C   UNL A   1      40.773  25.375  27.451  1.00  0.00     0.202 C 
BRANCH  31  32
ATOM     32  C   UNL A   1      41.569  24.268  26.745  1.00  0.00     0.261 C 
BRANCH  32  33
ATOM     33  O   UNL A   1      42.336  24.668  25.599  1.00  0.00    -0.460 OA
BRANCH  33  34
ATOM     34  C   UNL A   1      43.281  23.815  25.154  1.00  0.00     0.338 C 
ATOM     35  O   UNL A   1      43.137  22.891  24.369  1.00  0.00    -0.246 OA
BRANCH  34  36
ATOM     36  C   UNL A   1      44.584  24.306  25.644  1.00  0.00     0.060 A 
ATOM     37  C   UNL A   1      44.798  25.686  25.766  1.00  0.00     0.016 A 
ATOM     38  C   UNL A   1      45.586  23.399  25.997  1.00  0.00     0.016 A 
ATOM     39  C   UNL A   1      46.030  26.164  26.215  1.00  0.00     0.010 A 
ATOM     40  C   UNL A   1      46.825  23.879  26.424  1.00  0.00     0.010 A 
ATOM     41  C   UNL A   1      47.063  25.263  26.502  1.00  0.00    -0.014 A 
BRANCH  41  42
ATOM     42  C   UNL A   1      48.447  25.760  26.686  1.00  0.00     0.031 A 
ATOM     43  C   UNL A   1      49.198  26.239  25.475  1.00  0.00     0.074 A 
ATOM     44  C   UNL A   1      49.027  25.798  27.897  1.00  0.00     0.049 A 
ATOM     45  N   UNL A   1      50.427  26.674  25.374  1.00  0.00    -0.248 NA
ATOM     46  C   UNL A   1      48.457  26.219  24.202  1.00  0.00     0.031 C 
ATOM     47  C   UNL A   1      48.391  25.413  29.155  1.00  0.00     0.029 A 
ATOM     48  N   UNL A   1      50.294  26.180  28.260  1.00  0.00    -0.354 N 
ATOM     49  C   UNL A   1      50.610  26.968  24.029  1.00  0.00     0.074 A 
ATOM     50  C   UNL A   1      49.381  26.627  23.347  1.00  0.00     0.031 C 
ATOM     51  C   UNL A   1      49.275  25.577  30.155  1.00  0.00     0.029 A 
ATOM     52  C   UNL A   1      50.546  26.040  29.601  1.00  0.00     0.049 A 
ATOM     53  H   UNL A   1      50.958  26.522  27.619  1.00  0.00     0.167 HD
ATOM     54  C   UNL A   1      51.703  27.478  23.412  1.00  0.00     0.031 A 
ATOM     55  C   UNL A   1      51.681  26.243  30.299  1.00  0.00     0.031 A 
ATOM     56  C   UNL A   1      52.937  27.788  24.086  1.00  0.00     0.049 A 
ATOM     57  C   UNL A   1      52.918  26.715  29.578  1.00  0.00     0.074 A 
ATOM     58  C   UNL A   1      54.100  28.318  23.557  1.00  0.00     0.029 A 
ATOM     59  N   UNL A   1      53.170  27.579  25.437  1.00  0.00    -0.354 N 
ATOM     60  N   UNL A   1      53.076  27.015  28.311  1.00  0.00    -0.248 NA
ATOM     61  C   UNL A   1      54.132  26.883  30.391  1.00  0.00     0.031 C 
ATOM     62  C   UNL A   1      55.059  28.363  24.573  1.00  0.00     0.029 A 
ATOM     63  C   UNL A   1      54.471  27.935  25.752  1.00  0.00     0.049 A 
ATOM     64  H   UNL A   1      52.509  27.229  26.077  1.00  0.00     0.167 HD
ATOM     65  C   UNL A   1      54.395  27.436  28.180  1.00  0.00     0.074 A 
ATOM     66  C   UNL A   1      54.988  27.365  29.500  1.00  0.00     0.031 C 
ATOM     67  C   UNL A   1      55.052  27.852  27.069  1.00  0.00     0.031 A 
BRANCH  54  68
ATOM     68  C   UNL A   1      51.620  27.677  21.923  1.00  0.00    -0.014 A 
ATOM     69  C   UNL A   1      51.198  28.895  21.365  1.00  0.00     0.009 A 
ATOM     70  C   UNL A   1      51.963  26.621  21.063  1.00  0.00     0.009 A 
ATOM     71  C   UNL A   1      51.073  29.034  19.981  1.00  0.00     0.001 A 
ATOM     72  C   UNL A   1      51.871  26.775  19.679  1.00  0.00     0.001 A 
ATOM     73  C   UNL A   1      51.413  27.975  19.140  1.00  0.00     0.000 A 
ENDBRANCH  54  68
BRANCH  55  74
ATOM     74  C   UNL A   1      51.707  25.996  31.765  1.00  0.00    -0.014 A 
ATOM     75  C   UNL A   1      51.416  27.029  32.669  1.00  0.00     0.009 A 
ATOM     76  C   UNL A   1      52.027  24.725  32.269  1.00  0.00     0.009 A 
ATOM     77  C   UNL A   1      51.462  26.799  34.046  1.00  0.00     0.001 A 
ATOM     78  C   UNL A   1      52.042  24.491  33.645  1.00  0.00     0.001 A 
ATOM     79  C   UNL A   1      51.767  25.529  34.532  1.00  0.00     0.000 A 
ENDBRANCH  55  74
BRANCH  67  80
ATOM     80  C   UNL A   1      56.480  28.303  27.235  1.00  0.00    -0.014 A 
ATOM     81  C   UNL A   1      57.555  27.416  27.071  1.00  0.00     0.009 A 
ATOM     82  C   UNL A   1      56.751  29.651  27.516  1.00  0.00     0.009 A 
ATOM     83  C   UNL A   1      58.870  27.864  27.220  1.00  0.00     0.001 A 
ATOM     84  C   UNL A   1      58.066  30.104  27.632  1.00  0.00     0.001 A 
ATOM     85  C   UNL A   1      59.124  29.208  27.494  1.00  0.00     0.000 A 
ENDBRANCH  67  80
ENDBRANCH  41  42
ENDBRANCH  34  36
ENDBRANCH  33  34
ENDBRANCH  32  33
ENDBRANCH  31  32
ENDBRANCH  30  31
ENDBRANCH  29  30
ENDBRANCH  28  29
ENDBRANCH  27  28
ENDBRANCH   1  27
TORSDOF 23
ENDMDL
