MODEL 1
REMARK VINA RESULT:      -8.2      0.000      0.000
REMARK SMILES CSc1ncc(Cl)c(C(=O)Nc2ccsc2C(=O)OCCOCCOCCOCCOC(=O)c2ccc(-c3c4nc(c(-c5ccccc5)c5ccc([nH]5)c(-c5ccccc5)c5nc(c(-c6ccccc6)c6ccc3[nH]6)C=C5)C=C4)cc2)n1
REMARK SMILES IDX 24 1 23 2 22 3 21 4 20 5 19 6 17 7 18 8 16 9 12 10 13 11
REMARK SMILES IDX 14 12 15 13 11 14 9 15 10 16 8 18 3 19 4 20 82 21 5 22 6 23
REMARK SMILES IDX 7 24 2 25 1 26 25 27 26 28 27 29 28 30 29 31 30 32 31 33
REMARK SMILES IDX 32 34 33 35 34 36 35 37 81 38 36 39 80 40 37 41 38 42 39 43
REMARK SMILES IDX 74 44 40 45 79 46 73 47 75 48 41 49 78 50 72 51 71 52 42 54
REMARK SMILES IDX 64 55 49 56 63 57 50 58 53 59 62 60 76 61 51 62 52 63 61 65
REMARK SMILES IDX 77 66 54 67 43 68 44 69 48 70 45 71 47 72 46 73 65 74 66 75
REMARK SMILES IDX 70 76 67 77 69 78 68 79 55 80 56 81 60 82 57 83 59 84 58 85
REMARK H PARENT 11 17 75 53 53 64
REMARK Flexibility Score: inf
ROOT
ATOM      1  C   UNL A   1      35.677  31.622  28.131  1.00  0.00     0.188 C 
ENDROOT
BRANCH   1   2
ATOM      2  C   UNL A   1      34.463  30.693  28.042  1.00  0.00     0.188 C 
BRANCH   2   3
ATOM      3  O   UNL A   1      33.822  30.779  26.780  1.00  0.00    -0.376 OA
BRANCH   3   4
ATOM      4  C   UNL A   1      33.275  29.600  26.202  1.00  0.00     0.202 C 
BRANCH   4   5
ATOM      5  C   UNL A   1      31.769  29.418  25.909  1.00  0.00     0.261 C 
BRANCH   5   6
ATOM      6  O   UNL A   1      31.349  28.265  25.162  1.00  0.00    -0.459 OA
BRANCH   6   7
ATOM      7  C   UNL A   1      31.266  27.067  25.797  1.00  0.00     0.350 C 
ATOM      8  O   UNL A   1      31.227  26.957  27.018  1.00  0.00    -0.245 OA
BRANCH   7   9
ATOM      9  C   UNL A   1      31.175  25.988  24.812  1.00  0.00     0.136 A 
ATOM     10  C   UNL A   1      31.141  24.594  24.947  1.00  0.00     0.067 A 
ATOM     11  C   UNL A   1      30.990  23.959  23.676  1.00  0.00     0.039 A 
ATOM     12  C   UNL A   1      31.070  24.841  22.624  1.00  0.00     0.068 A 
ATOM     13  S   UNL A   1      31.189  26.452  23.154  1.00  0.00    -0.135 S 
BRANCH  10  14
ATOM     14  N   UNL A   1      31.229  23.966  26.187  1.00  0.00    -0.319 N 
ATOM     15  C   UNL A   1      31.814  22.795  26.621  1.00  0.00     0.276 C 
ATOM     16  O   UNL A   1      31.610  22.446  27.788  1.00  0.00    -0.267 OA
ATOM     17  H   UNL A   1      30.777  24.463  26.906  1.00  0.00     0.170 HD
BRANCH  15  18
ATOM     18  C   UNL A   1      32.719  21.935  25.808  1.00  0.00     0.151 A 
ATOM     19  C   UNL A   1      32.920  19.846  24.859  1.00  0.00     0.188 A 
ATOM     20  N   UNL A   1      34.218  20.025  24.580  1.00  0.00    -0.230 NA
ATOM     21  N   UNL A   1      32.132  20.765  25.425  1.00  0.00    -0.216 NA
ATOM     22  C   UNL A   1      34.760  21.193  24.974  1.00  0.00     0.137 A 
ATOM     23  C   UNL A   1      34.069  22.180  25.644  1.00  0.00     0.090 A 
ATOM     24  Cl  UNL A   1      34.956  23.505  26.265  1.00  0.00    -0.080 Cl
BRANCH  19  25
ATOM     25  S   UNL A   1      32.276  18.212  24.658  1.00  0.00    -0.090 SA
ATOM     26  C   UNL A   1      33.647  17.337  25.453  1.00  0.00     0.094 C 
ENDBRANCH  19  25
ENDBRANCH  15  18
ENDBRANCH  10  14
ENDBRANCH   7   9
ENDBRANCH   6   7
ENDBRANCH   5   6
ENDBRANCH   4   5
ENDBRANCH   3   4
ENDBRANCH   2   3
ENDBRANCH   1   2
BRANCH   1  27
ATOM     27  O   UNL A   1      35.391  32.812  28.854  1.00  0.00    -0.377 OA
BRANCH  27  28
ATOM     28  C   UNL A   1      34.417  33.670  28.264  1.00  0.00     0.188 C 
BRANCH  28  29
ATOM     29  C   UNL A   1      33.528  34.513  29.198  1.00  0.00     0.188 C 
BRANCH  29  30
ATOM     30  O   UNL A   1      33.673  34.157  30.575  1.00  0.00    -0.376 OA
BRANCH  30  31
ATOM     31  C   UNL A   1      34.601  34.933  31.330  1.00  0.00     0.202 C 
BRANCH  31  32
ATOM     32  C   UNL A   1      34.404  34.837  32.849  1.00  0.00     0.261 C 
BRANCH  32  33
ATOM     33  O   UNL A   1      35.534  35.247  33.637  1.00  0.00    -0.460 OA
BRANCH  33  34
ATOM     34  C   UNL A   1      36.093  34.323  34.447  1.00  0.00     0.338 C 
ATOM     35  O   UNL A   1      35.623  33.854  35.467  1.00  0.00    -0.246 OA
BRANCH  34  36
ATOM     36  C   UNL A   1      37.317  33.822  33.793  1.00  0.00     0.060 A 
ATOM     37  C   UNL A   1      37.188  32.932  32.719  1.00  0.00     0.016 A 
ATOM     38  C   UNL A   1      38.581  34.210  34.246  1.00  0.00     0.016 A 
ATOM     39  C   UNL A   1      38.328  32.393  32.122  1.00  0.00     0.010 A 
ATOM     40  C   UNL A   1      39.719  33.658  33.658  1.00  0.00     0.010 A 
ATOM     41  C   UNL A   1      39.597  32.721  32.618  1.00  0.00    -0.014 A 
BRANCH  41  42
ATOM     42  C   UNL A   1      40.785  31.951  32.182  1.00  0.00     0.031 A 
ATOM     43  C   UNL A   1      41.153  30.711  32.949  1.00  0.00     0.074 A 
ATOM     44  C   UNL A   1      41.527  32.343  31.132  1.00  0.00     0.049 A 
ATOM     45  N   UNL A   1      42.166  29.900  32.780  1.00  0.00    -0.248 NA
ATOM     46  C   UNL A   1      40.261  30.339  34.061  1.00  0.00     0.031 C 
ATOM     47  C   UNL A   1      41.262  33.509  30.293  1.00  0.00     0.029 A 
ATOM     48  N   UNL A   1      42.669  31.796  30.604  1.00  0.00    -0.354 N 
ATOM     49  C   UNL A   1      42.035  28.926  33.762  1.00  0.00     0.074 A 
ATOM     50  C   UNL A   1      40.861  29.259  34.540  1.00  0.00     0.031 C 
ATOM     51  C   UNL A   1      42.226  33.597  29.359  1.00  0.00     0.029 A 
ATOM     52  C   UNL A   1      43.187  32.512  29.553  1.00  0.00     0.049 A 
ATOM     53  H   UNL A   1      43.079  30.968  30.945  1.00  0.00     0.167 HD
ATOM     54  C   UNL A   1      42.820  27.849  33.996  1.00  0.00     0.031 A 
ATOM     55  C   UNL A   1      44.317  32.324  28.846  1.00  0.00     0.031 A 
ATOM     56  C   UNL A   1      43.998  27.524  33.241  1.00  0.00     0.049 A 
ATOM     57  C   UNL A   1      45.211  31.156  29.171  1.00  0.00     0.074 A 
ATOM     58  C   UNL A   1      44.848  26.443  33.392  1.00  0.00     0.029 A 
ATOM     59  N   UNL A   1      44.499  28.288  32.200  1.00  0.00    -0.354 N 
ATOM     60  N   UNL A   1      45.053  30.217  30.073  1.00  0.00    -0.248 NA
ATOM     61  C   UNL A   1      46.440  31.020  28.374  1.00  0.00     0.031 C 
ATOM     62  C   UNL A   1      45.892  26.579  32.472  1.00  0.00     0.029 A 
ATOM     63  C   UNL A   1      45.662  27.716  31.715  1.00  0.00     0.049 A 
ATOM     64  H   UNL A   1      44.088  29.113  31.855  1.00  0.00     0.167 HD
ATOM     65  C   UNL A   1      46.144  29.367  29.933  1.00  0.00     0.074 A 
ATOM     66  C   UNL A   1      46.950  29.893  28.851  1.00  0.00     0.031 C 
ATOM     67  C   UNL A   1      46.451  28.249  30.636  1.00  0.00     0.031 A 
BRANCH  54  68
ATOM     68  C   UNL A   1      42.439  26.959  35.144  1.00  0.00    -0.014 A 
ATOM     69  C   UNL A   1      41.406  26.018  35.020  1.00  0.00     0.009 A 
ATOM     70  C   UNL A   1      43.144  27.044  36.353  1.00  0.00     0.009 A 
ATOM     71  C   UNL A   1      41.067  25.198  36.099  1.00  0.00     0.001 A 
ATOM     72  C   UNL A   1      42.819  26.206  37.421  1.00  0.00     0.001 A 
ATOM     73  C   UNL A   1      41.776  25.290  37.296  1.00  0.00     0.000 A 
ENDBRANCH  54  68
BRANCH  55  74
ATOM     74  C   UNL A   1      44.692  33.275  27.768  1.00  0.00    -0.014 A 
ATOM     75  C   UNL A   1      44.285  33.054  26.443  1.00  0.00     0.009 A 
ATOM     76  C   UNL A   1      45.493  34.392  28.054  1.00  0.00     0.009 A 
ATOM     77  C   UNL A   1      44.696  33.916  25.423  1.00  0.00     0.001 A 
ATOM     78  C   UNL A   1      45.880  35.266  27.038  1.00  0.00     0.001 A 
ATOM     79  C   UNL A   1      45.491  35.022  25.721  1.00  0.00     0.000 A 
ENDBRANCH  55  74
BRANCH  67  80
ATOM     80  C   UNL A   1      47.688  27.498  30.236  1.00  0.00    -0.014 A 
ATOM     81  C   UNL A   1      47.634  26.446  29.310  1.00  0.00     0.009 A 
ATOM     82  C   UNL A   1      48.933  27.886  30.756  1.00  0.00     0.009 A 
ATOM     83  C   UNL A   1      48.801  25.777  28.934  1.00  0.00     0.001 A 
ATOM     84  C   UNL A   1      50.101  27.233  30.359  1.00  0.00     0.001 A 
ATOM     85  C   UNL A   1      50.033  26.174  29.454  1.00  0.00     0.000 A 
ENDBRANCH  67  80
ENDBRANCH  41  42
ENDBRANCH  34  36
ENDBRANCH  33  34
ENDBRANCH  32  33
ENDBRANCH  31  32
ENDBRANCH  30  31
ENDBRANCH  29  30
ENDBRANCH  28  29
ENDBRANCH  27  28
ENDBRANCH   1  27
TORSDOF 23
ENDMDL
MODEL 2
REMARK VINA RESULT:      -8.2      3.006      4.436
REMARK SMILES CSc1ncc(Cl)c(C(=O)Nc2ccsc2C(=O)OCCOCCOCCOCCOC(=O)c2ccc(-c3c4nc(c(-c5ccccc5)c5ccc([nH]5)c(-c5ccccc5)c5nc(c(-c6ccccc6)c6ccc3[nH]6)C=C5)C=C4)cc2)n1
REMARK SMILES IDX 24 1 23 2 22 3 21 4 20 5 19 6 17 7 18 8 16 9 12 10 13 11
REMARK SMILES IDX 14 12 15 13 11 14 9 15 10 16 8 18 3 19 4 20 82 21 5 22 6 23
REMARK SMILES IDX 7 24 2 25 1 26 25 27 26 28 27 29 28 30 29 31 30 32 31 33
REMARK SMILES IDX 32 34 33 35 34 36 35 37 81 38 36 39 80 40 37 41 38 42 39 43
REMARK SMILES IDX 74 44 40 45 79 46 73 47 75 48 41 49 78 50 72 51 71 52 42 54
REMARK SMILES IDX 64 55 49 56 63 57 50 58 53 59 62 60 76 61 51 62 52 63 61 65
REMARK SMILES IDX 77 66 54 67 43 68 44 69 48 70 45 71 47 72 46 73 65 74 66 75
REMARK SMILES IDX 70 76 67 77 69 78 68 79 55 80 56 81 60 82 57 83 59 84 58 85
REMARK H PARENT 11 17 75 53 53 64
REMARK Flexibility Score: inf
ROOT
ATOM      1  C   UNL A   1      36.240  30.469  27.629  1.00  0.00     0.188 C 
ENDROOT
BRANCH   1   2
ATOM      2  C   UNL A   1      34.883  29.773  27.766  1.00  0.00     0.188 C 
BRANCH   2   3
ATOM      3  O   UNL A   1      33.932  30.280  26.843  1.00  0.00    -0.376 OA
BRANCH   3   4
ATOM      4  C   UNL A   1      33.235  29.370  26.002  1.00  0.00     0.202 C 
BRANCH   4   5
ATOM      5  C   UNL A   1      31.701  29.189  26.035  1.00  0.00     0.261 C 
BRANCH   5   6
ATOM      6  O   UNL A   1      31.115  28.145  25.239  1.00  0.00    -0.459 OA
BRANCH   6   7
ATOM      7  C   UNL A   1      31.272  26.855  25.632  1.00  0.00     0.350 C 
ATOM      8  O   UNL A   1      31.213  26.499  26.804  1.00  0.00    -0.245 OA
BRANCH   7   9
ATOM      9  C   UNL A   1      31.455  25.997  24.459  1.00  0.00     0.136 A 
ATOM     10  C   UNL A   1      31.117  24.661  24.212  1.00  0.00     0.067 A 
ATOM     11  C   UNL A   1      31.458  24.284  22.876  1.00  0.00     0.039 A 
ATOM     12  C   UNL A   1      32.167  25.256  22.210  1.00  0.00     0.068 A 
ATOM     13  S   UNL A   1      32.311  26.679  23.130  1.00  0.00    -0.135 S 
BRANCH  10  14
ATOM     14  N   UNL A   1      30.512  23.857  25.175  1.00  0.00    -0.319 N 
ATOM     15  C   UNL A   1      30.818  22.626  25.716  1.00  0.00     0.276 C 
ATOM     16  O   UNL A   1      29.999  22.114  26.486  1.00  0.00    -0.267 OA
ATOM     17  H   UNL A   1      29.693  24.252  25.550  1.00  0.00     0.170 HD
BRANCH  15  18
ATOM     18  C   UNL A   1      32.085  21.878  25.485  1.00  0.00     0.151 A 
ATOM     19  C   UNL A   1      32.940  19.782  25.055  1.00  0.00     0.188 A 
ATOM     20  N   UNL A   1      34.200  20.176  25.289  1.00  0.00    -0.230 NA
ATOM     21  N   UNL A   1      31.874  20.586  25.101  1.00  0.00    -0.216 NA
ATOM     22  C   UNL A   1      34.366  21.458  25.665  1.00  0.00     0.137 A 
ATOM     23  C   UNL A   1      33.334  22.356  25.831  1.00  0.00     0.090 A 
ATOM     24  Cl  UNL A   1      33.695  23.880  26.523  1.00  0.00    -0.080 Cl
BRANCH  19  25
ATOM     25  S   UNL A   1      32.662  18.044  24.891  1.00  0.00    -0.090 SA
ATOM     26  C   UNL A   1      34.209  17.655  24.035  1.00  0.00     0.094 C 
ENDBRANCH  19  25
ENDBRANCH  15  18
ENDBRANCH  10  14
ENDBRANCH   7   9
ENDBRANCH   6   7
ENDBRANCH   5   6
ENDBRANCH   4   5
ENDBRANCH   3   4
ENDBRANCH   2   3
ENDBRANCH   1   2
BRANCH   1  27
ATOM     27  O   UNL A   1      36.464  31.416  28.666  1.00  0.00    -0.377 OA
BRANCH  27  28
ATOM     28  C   UNL A   1      35.488  32.451  28.774  1.00  0.00     0.188 C 
BRANCH  28  29
ATOM     29  C   UNL A   1      35.064  32.906  30.183  1.00  0.00     0.188 C 
BRANCH  29  30
ATOM     30  O   UNL A   1      35.447  31.982  31.205  1.00  0.00    -0.376 OA
BRANCH  30  31
ATOM     31  C   UNL A   1      36.636  32.300  31.925  1.00  0.00     0.202 C 
BRANCH  31  32
ATOM     32  C   UNL A   1      36.548  32.016  33.431  1.00  0.00     0.261 C 
BRANCH  32  33
ATOM     33  O   UNL A   1      37.660  32.494  34.207  1.00  0.00    -0.460 OA
BRANCH  33  34
ATOM     34  C   UNL A   1      38.297  31.600  34.994  1.00  0.00     0.338 C 
ATOM     35  O   UNL A   1      37.856  31.039  35.979  1.00  0.00    -0.246 OA
BRANCH  34  36
ATOM     36  C   UNL A   1      39.584  31.265  34.356  1.00  0.00     0.060 A 
ATOM     37  C   UNL A   1      40.076  32.108  33.352  1.00  0.00     0.016 A 
ATOM     38  C   UNL A   1      40.291  30.118  34.730  1.00  0.00     0.016 A 
ATOM     39  C   UNL A   1      41.258  31.781  32.687  1.00  0.00     0.010 A 
ATOM     40  C   UNL A   1      41.465  29.785  34.054  1.00  0.00     0.010 A 
ATOM     41  C   UNL A   1      41.934  30.596  33.006  1.00  0.00    -0.014 A 
BRANCH  41  42
ATOM     42  C   UNL A   1      43.021  30.104  32.129  1.00  0.00     0.031 A 
ATOM     43  C   UNL A   1      42.691  29.059  31.100  1.00  0.00     0.074 A 
ATOM     44  C   UNL A   1      44.278  30.568  32.244  1.00  0.00     0.049 A 
ATOM     45  N   UNL A   1      43.480  28.452  30.251  1.00  0.00    -0.248 NA
ATOM     46  C   UNL A   1      41.282  28.638  31.022  1.00  0.00     0.031 C 
ATOM     47  C   UNL A   1      44.721  31.595  33.183  1.00  0.00     0.029 A 
ATOM     48  N   UNL A   1      45.416  30.215  31.563  1.00  0.00    -0.354 N 
ATOM     49  C   UNL A   1      42.665  27.578  29.541  1.00  0.00     0.074 A 
ATOM     50  C   UNL A   1      41.327  27.713  30.074  1.00  0.00     0.031 C 
ATOM     51  C   UNL A   1      46.044  31.783  33.026  1.00  0.00     0.029 A 
ATOM     52  C   UNL A   1      46.542  30.869  31.998  1.00  0.00     0.049 A 
ATOM     53  H   UNL A   1      45.425  29.556  30.832  1.00  0.00     0.167 HD
ATOM     54  C   UNL A   1      42.999  26.738  28.534  1.00  0.00     0.031 A 
ATOM     55  C   UNL A   1      47.828  30.730  31.622  1.00  0.00     0.031 A 
ATOM     56  C   UNL A   1      44.330  26.583  28.014  1.00  0.00     0.049 A 
ATOM     57  C   UNL A   1      48.184  29.738  30.547  1.00  0.00     0.074 A 
ATOM     58  C   UNL A   1      44.762  25.771  26.981  1.00  0.00     0.029 A 
ATOM     59  N   UNL A   1      45.444  27.249  28.497  1.00  0.00    -0.354 N 
ATOM     60  N   UNL A   1      47.398  28.950  29.853  1.00  0.00    -0.248 NA
ATOM     61  C   UNL A   1      49.608  29.621  30.199  1.00  0.00     0.031 C 
ATOM     62  C   UNL A   1      46.150  25.908  26.872  1.00  0.00     0.029 A 
ATOM     63  C   UNL A   1      46.570  26.845  27.802  1.00  0.00     0.049 A 
ATOM     64  H   UNL A   1      45.436  27.911  29.225  1.00  0.00     0.167 HD
ATOM     65  C   UNL A   1      48.227  28.267  28.970  1.00  0.00     0.074 A 
ATOM     66  C   UNL A   1      49.575  28.741  29.207  1.00  0.00     0.031 C 
ATOM     67  C   UNL A   1      47.903  27.330  28.046  1.00  0.00     0.031 A 
BRANCH  54  68
ATOM     68  C   UNL A   1      41.902  25.895  27.951  1.00  0.00    -0.014 A 
ATOM     69  C   UNL A   1      41.079  26.384  26.925  1.00  0.00     0.009 A 
ATOM     70  C   UNL A   1      41.710  24.585  28.414  1.00  0.00     0.009 A 
ATOM     71  C   UNL A   1      40.064  25.585  26.394  1.00  0.00     0.001 A 
ATOM     72  C   UNL A   1      40.711  23.781  27.864  1.00  0.00     0.001 A 
ATOM     73  C   UNL A   1      39.884  24.283  26.861  1.00  0.00     0.000 A 
ENDBRANCH  54  68
BRANCH  55  74
ATOM     74  C   UNL A   1      48.890  31.532  32.282  1.00  0.00    -0.014 A 
ATOM     75  C   UNL A   1      49.284  32.772  31.755  1.00  0.00     0.009 A 
ATOM     76  C   UNL A   1      49.544  31.042  33.423  1.00  0.00     0.009 A 
ATOM     77  C   UNL A   1      50.329  33.491  32.342  1.00  0.00     0.001 A 
ATOM     78  C   UNL A   1      50.570  31.774  34.023  1.00  0.00     0.001 A 
ATOM     79  C   UNL A   1      50.969  32.993  33.476  1.00  0.00     0.000 A 
ENDBRANCH  55  74
BRANCH  67  80
ATOM     80  C   UNL A   1      49.013  26.784  27.195  1.00  0.00    -0.014 A 
ATOM     81  C   UNL A   1      49.346  27.373  25.966  1.00  0.00     0.009 A 
ATOM     82  C   UNL A   1      49.770  25.695  27.657  1.00  0.00     0.009 A 
ATOM     83  C   UNL A   1      50.399  26.863  25.202  1.00  0.00     0.001 A 
ATOM     84  C   UNL A   1      50.838  25.205  26.904  1.00  0.00     0.001 A 
ATOM     85  C   UNL A   1      51.146  25.784  25.674  1.00  0.00     0.000 A 
ENDBRANCH  67  80
ENDBRANCH  41  42
ENDBRANCH  34  36
ENDBRANCH  33  34
ENDBRANCH  32  33
ENDBRANCH  31  32
ENDBRANCH  30  31
ENDBRANCH  29  30
ENDBRANCH  28  29
ENDBRANCH  27  28
ENDBRANCH   1  27
TORSDOF 23
ENDMDL
MODEL 3
REMARK VINA RESULT:      -8.0      5.427      9.173
REMARK SMILES CSc1ncc(Cl)c(C(=O)Nc2ccsc2C(=O)OCCOCCOCCOCCOC(=O)c2ccc(-c3c4nc(c(-c5ccccc5)c5ccc([nH]5)c(-c5ccccc5)c5nc(c(-c6ccccc6)c6ccc3[nH]6)C=C5)C=C4)cc2)n1
REMARK SMILES IDX 24 1 23 2 22 3 21 4 20 5 19 6 17 7 18 8 16 9 12 10 13 11
REMARK SMILES IDX 14 12 15 13 11 14 9 15 10 16 8 18 3 19 4 20 82 21 5 22 6 23
REMARK SMILES IDX 7 24 2 25 1 26 25 27 26 28 27 29 28 30 29 31 30 32 31 33
REMARK SMILES IDX 32 34 33 35 34 36 35 37 81 38 36 39 80 40 37 41 38 42 39 43
REMARK SMILES IDX 74 44 40 45 79 46 73 47 75 48 41 49 78 50 72 51 71 52 42 54
REMARK SMILES IDX 64 55 49 56 63 57 50 58 53 59 62 60 76 61 51 62 52 63 61 65
REMARK SMILES IDX 77 66 54 67 43 68 44 69 48 70 45 71 47 72 46 73 65 74 66 75
REMARK SMILES IDX 70 76 67 77 69 78 68 79 55 80 56 81 60 82 57 83 59 84 58 85
REMARK H PARENT 11 17 75 53 53 64
REMARK Flexibility Score: inf
ROOT
ATOM      1  C   UNL A   1      37.185  34.369  33.822  1.00  0.00     0.188 C 
ENDROOT
BRANCH   1   2
ATOM      2  C   UNL A   1      38.652  34.559  33.427  1.00  0.00     0.188 C 
BRANCH   2   3
ATOM      3  O   UNL A   1      39.482  34.772  34.558  1.00  0.00    -0.376 OA
BRANCH   3   4
ATOM      4  C   UNL A   1      38.987  34.439  35.848  1.00  0.00     0.202 C 
BRANCH   4   5
ATOM      5  C   UNL A   1      39.868  33.835  36.965  1.00  0.00     0.261 C 
BRANCH   5   6
ATOM      6  O   UNL A   1      40.983  33.010  36.590  1.00  0.00    -0.459 OA
BRANCH   6   7
ATOM      7  C   UNL A   1      40.743  31.822  35.979  1.00  0.00     0.350 C 
ATOM      8  O   UNL A   1      39.965  30.984  36.424  1.00  0.00    -0.245 OA
BRANCH   7   9
ATOM      9  C   UNL A   1      41.494  31.748  34.724  1.00  0.00     0.136 A 
ATOM     10  C   UNL A   1      41.488  30.815  33.680  1.00  0.00     0.067 A 
ATOM     11  C   UNL A   1      42.372  31.213  32.630  1.00  0.00     0.039 A 
ATOM     12  C   UNL A   1      43.125  32.317  32.955  1.00  0.00     0.068 A 
ATOM     13  S   UNL A   1      42.683  32.967  34.463  1.00  0.00    -0.135 S 
BRANCH  10  14
ATOM     14  N   UNL A   1      40.688  29.675  33.708  1.00  0.00    -0.319 N 
ATOM     15  C   UNL A   1      40.956  28.323  33.644  1.00  0.00     0.276 C 
ATOM     16  O   UNL A   1      39.997  27.548  33.573  1.00  0.00    -0.267 OA
ATOM     17  H   UNL A   1      39.729  29.876  33.791  1.00  0.00     0.170 HD
BRANCH  15  18
ATOM     18  C   UNL A   1      42.313  27.713  33.703  1.00  0.00     0.151 A 
ATOM     19  C   UNL A   1      44.106  27.070  32.408  1.00  0.00     0.188 A 
ATOM     20  N   UNL A   1      44.682  26.404  33.419  1.00  0.00    -0.230 NA
ATOM     21  N   UNL A   1      42.965  27.758  32.506  1.00  0.00    -0.216 NA
ATOM     22  C   UNL A   1      44.007  26.383  34.584  1.00  0.00     0.137 A 
ATOM     23  C   UNL A   1      42.781  26.983  34.779  1.00  0.00     0.090 A 
ATOM     24  Cl  UNL A   1      41.960  26.678  36.249  1.00  0.00    -0.080 Cl
BRANCH  19  25
ATOM     25  S   UNL A   1      44.796  26.833  30.798  1.00  0.00    -0.090 SA
ATOM     26  C   UNL A   1      46.200  27.959  30.993  1.00  0.00     0.094 C 
ENDBRANCH  19  25
ENDBRANCH  15  18
ENDBRANCH  10  14
ENDBRANCH   7   9
ENDBRANCH   6   7
ENDBRANCH   5   6
ENDBRANCH   4   5
ENDBRANCH   3   4
ENDBRANCH   2   3
ENDBRANCH   1   2
BRANCH   1  27
ATOM     27  O   UNL A   1      36.307  35.148  33.019  1.00  0.00    -0.377 OA
BRANCH  27  28
ATOM     28  C   UNL A   1      35.003  34.603  32.829  1.00  0.00     0.188 C 
BRANCH  28  29
ATOM     29  C   UNL A   1      34.503  34.399  31.386  1.00  0.00     0.188 C 
BRANCH  29  30
ATOM     30  O   UNL A   1      34.711  33.066  30.909  1.00  0.00    -0.376 OA
BRANCH  30  31
ATOM     31  C   UNL A   1      35.008  32.084  31.898  1.00  0.00     0.202 C 
BRANCH  31  32
ATOM     32  C   UNL A   1      36.341  31.357  31.676  1.00  0.00     0.261 C 
BRANCH  32  33
ATOM     33  O   UNL A   1      36.226  29.969  31.318  1.00  0.00    -0.460 OA
BRANCH  33  34
ATOM     34  C   UNL A   1      36.321  29.659  30.007  1.00  0.00     0.338 C 
ATOM     35  O   UNL A   1      35.413  29.577  29.200  1.00  0.00    -0.246 OA
BRANCH  34  36
ATOM     36  C   UNL A   1      37.752  29.606  29.652  1.00  0.00     0.060 A 
ATOM     37  C   UNL A   1      38.120  29.801  28.316  1.00  0.00     0.016 A 
ATOM     38  C   UNL A   1      38.721  29.348  30.626  1.00  0.00     0.016 A 
ATOM     39  C   UNL A   1      39.460  29.694  27.941  1.00  0.00     0.010 A 
ATOM     40  C   UNL A   1      40.058  29.225  30.247  1.00  0.00     0.010 A 
ATOM     41  C   UNL A   1      40.428  29.363  28.898  1.00  0.00    -0.014 A 
BRANCH  41  42
ATOM     42  C   UNL A   1      41.792  28.977  28.469  1.00  0.00     0.031 A 
ATOM     43  C   UNL A   1      42.048  27.538  28.114  1.00  0.00     0.074 A 
ATOM     44  C   UNL A   1      42.786  29.879  28.399  1.00  0.00     0.049 A 
ATOM     45  N   UNL A   1      43.164  26.959  27.751  1.00  0.00    -0.248 NA
ATOM     46  C   UNL A   1      40.891  26.629  28.184  1.00  0.00     0.031 C 
ATOM     47  C   UNL A   1      42.661  31.304  28.692  1.00  0.00     0.029 A 
ATOM     48  N   UNL A   1      44.108  29.714  28.067  1.00  0.00    -0.354 N 
ATOM     49  C   UNL A   1      42.845  25.621  27.552  1.00  0.00     0.074 A 
ATOM     50  C   UNL A   1      41.439  25.468  27.858  1.00  0.00     0.031 C 
ATOM     51  C   UNL A   1      43.866  31.885  28.538  1.00  0.00     0.029 A 
ATOM     52  C   UNL A   1      44.846  30.867  28.164  1.00  0.00     0.049 A 
ATOM     53  H   UNL A   1      44.490  28.851  27.786  1.00  0.00     0.167 HD
ATOM     54  C   UNL A   1      43.648  24.610  27.148  1.00  0.00     0.031 A 
ATOM     55  C   UNL A   1      46.167  31.070  27.991  1.00  0.00     0.031 A 
ATOM     56  C   UNL A   1      45.049  24.751  26.863  1.00  0.00     0.049 A 
ATOM     57  C   UNL A   1      47.053  29.913  27.609  1.00  0.00     0.074 A 
ATOM     58  C   UNL A   1      45.942  23.787  26.429  1.00  0.00     0.029 A 
ATOM     59  N   UNL A   1      45.762  25.931  26.994  1.00  0.00    -0.354 N 
ATOM     60  N   UNL A   1      46.731  28.663  27.381  1.00  0.00    -0.248 NA
ATOM     61  C   UNL A   1      48.487  30.200  27.457  1.00  0.00     0.031 C 
ATOM     62  C   UNL A   1      47.208  24.374  26.345  1.00  0.00     0.029 A 
ATOM     63  C   UNL A   1      47.091  25.714  26.676  1.00  0.00     0.049 A 
ATOM     64  H   UNL A   1      45.381  26.795  27.271  1.00  0.00     0.167 HD
ATOM     65  C   UNL A   1      47.914  28.023  27.031  1.00  0.00     0.074 A 
ATOM     66  C   UNL A   1      48.959  29.024  27.066  1.00  0.00     0.031 C 
ATOM     67  C   UNL A   1      48.118  26.722  26.710  1.00  0.00     0.031 A 
BRANCH  54  68
ATOM     68  C   UNL A   1      43.027  23.249  27.025  1.00  0.00    -0.014 A 
ATOM     69  C   UNL A   1      42.819  22.441  28.153  1.00  0.00     0.009 A 
ATOM     70  C   UNL A   1      42.619  22.781  25.767  1.00  0.00     0.009 A 
ATOM     71  C   UNL A   1      42.239  21.177  28.018  1.00  0.00     0.001 A 
ATOM     72  C   UNL A   1      42.019  21.528  25.639  1.00  0.00     0.001 A 
ATOM     73  C   UNL A   1      41.836  20.725  26.763  1.00  0.00     0.000 A 
ENDBRANCH  54  68
BRANCH  55  74
ATOM     74  C   UNL A   1      46.749  32.421  28.199  1.00  0.00    -0.014 A 
ATOM     75  C   UNL A   1      47.166  32.834  29.474  1.00  0.00     0.009 A 
ATOM     76  C   UNL A   1      46.856  33.321  27.126  1.00  0.00     0.009 A 
ATOM     77  C   UNL A   1      47.651  34.128  29.675  1.00  0.00     0.001 A 
ATOM     78  C   UNL A   1      47.366  34.604  27.325  1.00  0.00     0.001 A 
ATOM     79  C   UNL A   1      47.753  35.012  28.601  1.00  0.00     0.000 A 
ENDBRANCH  55  74
BRANCH  67  80
ATOM     80  C   UNL A   1      49.513  26.313  26.333  1.00  0.00    -0.014 A 
ATOM     81  C   UNL A   1      50.344  25.636  27.238  1.00  0.00     0.009 A 
ATOM     82  C   UNL A   1      49.981  26.564  25.033  1.00  0.00     0.009 A 
ATOM     83  C   UNL A   1      51.629  25.243  26.856  1.00  0.00     0.001 A 
ATOM     84  C   UNL A   1      51.256  26.147  24.647  1.00  0.00     0.001 A 
ATOM     85  C   UNL A   1      52.082  25.494  25.561  1.00  0.00     0.000 A 
ENDBRANCH  67  80
ENDBRANCH  41  42
ENDBRANCH  34  36
ENDBRANCH  33  34
ENDBRANCH  32  33
ENDBRANCH  31  32
ENDBRANCH  30  31
ENDBRANCH  29  30
ENDBRANCH  28  29
ENDBRANCH  27  28
ENDBRANCH   1  27
TORSDOF 23
ENDMDL
