MODEL 1
REMARK VINA RESULT:     -10.2      0.000      0.000
REMARK SMILES C[C@H]1[C@@H](C(=O)OCCOCCOCCOCCOC(=O)c2ccc(-c3c4nc(c(-c5ccccc5)c5ccc([nH]5)c(-c5ccccc5)c5nc(c(-c6ccccc6)c6ccc3[nH]6)C=C5)C=C4)cc2)CCN1C(=O)c1cc2cc(F)ccc2s1
REMARK SMILES IDX 12 1 11 2 10 3 9 4 8 5 7 6 6 7 4 8 5 9 3 10 1 11 2 12 71 13
REMARK SMILES IDX 69 14 70 15 72 16 73 17 74 18 75 19 83 20 76 21 82 22 77 23
REMARK SMILES IDX 81 24 78 25 80 26 79 27 13 28 14 29 15 30 16 31 17 32 18 33
REMARK SMILES IDX 19 34 20 35 21 36 22 37 68 38 23 39 67 40 24 41 25 42 26 43
REMARK SMILES IDX 61 44 27 45 66 46 60 47 62 48 28 49 65 50 59 51 58 52 29 54
REMARK SMILES IDX 51 55 36 56 50 57 37 58 40 59 49 60 63 61 38 62 39 63 48 65
REMARK SMILES IDX 64 66 41 67 30 68 31 69 35 70 32 71 34 72 33 73 52 74 53 75
REMARK SMILES IDX 57 76 54 77 56 78 55 79 42 80 43 81 47 82 44 83 46 84 45 85
REMARK H PARENT 62 53 40 64
REMARK Flexibility Score: inf
ROOT
ATOM      1  O   UNL A   1      40.118  21.141  26.096  1.00  0.00    -0.377 OA
ENDROOT
BRANCH   1   2
ATOM      2  C   UNL A   1      38.984  21.978  26.286  1.00  0.00     0.188 C 
BRANCH   2   3
ATOM      3  C   UNL A   1      37.792  22.047  25.307  1.00  0.00     0.188 C 
BRANCH   3   4
ATOM      4  O   UNL A   1      36.610  21.449  25.791  1.00  0.00    -0.376 OA
BRANCH   4   5
ATOM      5  C   UNL A   1      35.492  22.250  26.097  1.00  0.00     0.202 C 
BRANCH   5   6
ATOM      6  C   UNL A   1      34.365  21.736  27.008  1.00  0.00     0.261 C 
BRANCH   6   7
ATOM      7  O   UNL A   1      33.049  22.271  26.803  1.00  0.00    -0.463 OA
BRANCH   7   8
ATOM      8  C   UNL A   1      32.339  21.787  25.763  1.00  0.00     0.311 C 
ATOM      9  O   UNL A   1      32.648  20.770  25.150  1.00  0.00    -0.252 OA
BRANCH   8  10
ATOM     10  C   UNL A   1      31.054  22.549  25.447  1.00  0.00     0.123 C 
ATOM     11  C   UNL A   1      31.944  23.499  23.159  1.00  0.00     0.032 C 
ATOM     12  C   UNL A   1      30.863  23.496  24.232  1.00  0.00     0.096 C 
ATOM     13  N   UNL A   1      30.503  24.800  24.805  1.00  0.00    -0.334 N 
ATOM     14  C   UNL A   1      30.632  23.346  26.689  1.00  0.00     0.039 C 
ATOM     15  C   UNL A   1      30.367  24.760  26.243  1.00  0.00     0.121 C 
BRANCH  13  16
ATOM     16  C   UNL A   1      29.997  25.938  24.193  1.00  0.00     0.264 C 
ATOM     17  O   UNL A   1      28.822  26.263  24.396  1.00  0.00    -0.268 OA
BRANCH  16  18
ATOM     18  C   UNL A   1      30.836  26.794  23.377  1.00  0.00     0.093 A 
ATOM     19  C   UNL A   1      30.382  27.745  22.470  1.00  0.00     0.034 A 
ATOM     20  S   UNL A   1      32.183  27.513  24.204  1.00  0.00    -0.130 S 
ATOM     21  C   UNL A   1      30.393  29.022  23.162  1.00  0.00    -0.004 A 
ATOM     22  C   UNL A   1      31.285  28.997  24.244  1.00  0.00     0.035 A 
ATOM     23  C   UNL A   1      29.581  30.167  22.993  1.00  0.00     0.048 A 
ATOM     24  C   UNL A   1      31.355  30.036  25.188  1.00  0.00     0.022 A 
ATOM     25  C   UNL A   1      29.605  31.165  23.968  1.00  0.00     0.123 A 
ATOM     26  C   UNL A   1      30.460  31.099  25.057  1.00  0.00     0.041 A 
ATOM     27  F   UNL A   1      28.747  32.188  23.870  1.00  0.00    -0.207 F 
ENDBRANCH  16  18
ENDBRANCH  13  16
ENDBRANCH   8  10
ENDBRANCH   7   8
ENDBRANCH   6   7
ENDBRANCH   5   6
ENDBRANCH   4   5
ENDBRANCH   3   4
ENDBRANCH   2   3
ENDBRANCH   1   2
BRANCH   1  28
ATOM     28  C   UNL A   1      41.420  21.686  26.208  1.00  0.00     0.188 C 
BRANCH  28  29
ATOM     29  C   UNL A   1      42.589  20.686  26.245  1.00  0.00     0.188 C 
BRANCH  29  30
ATOM     30  O   UNL A   1      43.376  20.681  25.062  1.00  0.00    -0.376 OA
BRANCH  30  31
ATOM     31  C   UNL A   1      44.614  21.379  25.107  1.00  0.00     0.202 C 
BRANCH  31  32
ATOM     32  C   UNL A   1      44.768  22.620  24.212  1.00  0.00     0.261 C 
BRANCH  32  33
ATOM     33  O   UNL A   1      43.997  23.774  24.583  1.00  0.00    -0.460 OA
BRANCH  33  34
ATOM     34  C   UNL A   1      44.667  24.859  25.014  1.00  0.00     0.338 C 
ATOM     35  O   UNL A   1      45.729  25.294  24.594  1.00  0.00    -0.246 OA
BRANCH  34  36
ATOM     36  C   UNL A   1      43.802  25.572  25.969  1.00  0.00     0.060 A 
ATOM     37  C   UNL A   1      43.779  26.973  25.936  1.00  0.00     0.016 A 
ATOM     38  C   UNL A   1      43.028  24.869  26.895  1.00  0.00     0.016 A 
ATOM     39  C   UNL A   1      43.019  27.677  26.865  1.00  0.00     0.010 A 
ATOM     40  C   UNL A   1      42.288  25.578  27.846  1.00  0.00     0.010 A 
ATOM     41  C   UNL A   1      42.323  26.982  27.863  1.00  0.00    -0.014 A 
BRANCH  41  42
ATOM     42  C   UNL A   1      41.863  27.738  29.051  1.00  0.00     0.031 A 
ATOM     43  C   UNL A   1      40.522  28.417  28.977  1.00  0.00     0.074 A 
ATOM     44  C   UNL A   1      42.569  27.750  30.195  1.00  0.00     0.049 A 
ATOM     45  N   UNL A   1      39.872  29.079  29.901  1.00  0.00    -0.248 NA
ATOM     46  C   UNL A   1      39.816  28.333  27.687  1.00  0.00     0.031 C 
ATOM     47  C   UNL A   1      43.853  27.085  30.406  1.00  0.00     0.029 A 
ATOM     48  N   UNL A   1      42.287  28.337  31.402  1.00  0.00    -0.354 N 
ATOM     49  C   UNL A   1      38.686  29.487  29.303  1.00  0.00     0.074 A 
ATOM     50  C   UNL A   1      38.722  29.036  27.929  1.00  0.00     0.031 C 
ATOM     51  C   UNL A   1      44.247  27.298  31.675  1.00  0.00     0.029 A 
ATOM     52  C   UNL A   1      43.257  28.134  32.352  1.00  0.00     0.049 A 
ATOM     53  H   UNL A   1      41.467  28.855  31.571  1.00  0.00     0.167 HD
ATOM     54  C   UNL A   1      37.651  30.167  29.849  1.00  0.00     0.031 A 
ATOM     55  C   UNL A   1      43.335  28.581  33.620  1.00  0.00     0.031 A 
ATOM     56  C   UNL A   1      37.624  30.633  31.208  1.00  0.00     0.049 A 
ATOM     57  C   UNL A   1      42.208  29.410  34.180  1.00  0.00     0.074 A 
ATOM     58  C   UNL A   1      36.622  31.330  31.861  1.00  0.00     0.029 A 
ATOM     59  N   UNL A   1      38.653  30.461  32.120  1.00  0.00    -0.354 N 
ATOM     60  N   UNL A   1      41.078  29.765  33.616  1.00  0.00    -0.248 NA
ATOM     61  C   UNL A   1      42.363  29.885  35.563  1.00  0.00     0.031 C 
ATOM     62  C   UNL A   1      37.074  31.637  33.148  1.00  0.00     0.029 A 
ATOM     63  C   UNL A   1      38.324  31.063  33.323  1.00  0.00     0.049 A 
ATOM     64  H   UNL A   1      39.494  29.981  31.940  1.00  0.00     0.167 HD
ATOM     65  C   UNL A   1      40.376  30.473  34.584  1.00  0.00     0.074 A 
ATOM     66  C   UNL A   1      41.198  30.478  35.776  1.00  0.00     0.031 C 
ATOM     67  C   UNL A   1      39.157  31.064  34.499  1.00  0.00     0.031 A 
BRANCH  54  68
ATOM     68  C   UNL A   1      36.484  30.480  28.954  1.00  0.00    -0.014 A 
ATOM     69  C   UNL A   1      35.723  29.464  28.353  1.00  0.00     0.009 A 
ATOM     70  C   UNL A   1      36.130  31.818  28.720  1.00  0.00     0.009 A 
ATOM     71  C   UNL A   1      34.658  29.782  27.507  1.00  0.00     0.001 A 
ATOM     72  C   UNL A   1      35.044  32.134  27.902  1.00  0.00     0.001 A 
ATOM     73  C   UNL A   1      34.316  31.116  27.288  1.00  0.00     0.000 A 
ENDBRANCH  54  68
BRANCH  55  74
ATOM     74  C   UNL A   1      44.528  28.268  34.452  1.00  0.00    -0.014 A 
ATOM     75  C   UNL A   1      44.560  27.127  35.268  1.00  0.00     0.009 A 
ATOM     76  C   UNL A   1      45.632  29.136  34.461  1.00  0.00     0.009 A 
ATOM     77  C   UNL A   1      45.657  26.879  36.098  1.00  0.00     0.001 A 
ATOM     78  C   UNL A   1      46.741  28.868  35.266  1.00  0.00     0.001 A 
ATOM     79  C   UNL A   1      46.748  27.746  36.093  1.00  0.00     0.000 A 
ENDBRANCH  55  74
BRANCH  67  80
ATOM     80  C   UNL A   1      38.619  31.721  35.742  1.00  0.00    -0.014 A 
ATOM     81  C   UNL A   1      37.991  30.981  36.754  1.00  0.00     0.009 A 
ATOM     82  C   UNL A   1      38.768  33.108  35.910  1.00  0.00     0.009 A 
ATOM     83  C   UNL A   1      37.477  31.622  37.885  1.00  0.00     0.001 A 
ATOM     84  C   UNL A   1      38.287  33.741  37.057  1.00  0.00     0.001 A 
ATOM     85  C   UNL A   1      37.629  33.000  38.036  1.00  0.00     0.000 A 
ENDBRANCH  67  80
ENDBRANCH  41  42
ENDBRANCH  34  36
ENDBRANCH  33  34
ENDBRANCH  32  33
ENDBRANCH  31  32
ENDBRANCH  30  31
ENDBRANCH  29  30
ENDBRANCH  28  29
ENDBRANCH   1  28
TORSDOF 22
ENDMDL
MODEL 2
REMARK VINA RESULT:     -10.2      1.723      6.001
REMARK SMILES C[C@H]1[C@@H](C(=O)OCCOCCOCCOCCOC(=O)c2ccc(-c3c4nc(c(-c5ccccc5)c5ccc([nH]5)c(-c5ccccc5)c5nc(c(-c6ccccc6)c6ccc3[nH]6)C=C5)C=C4)cc2)CCN1C(=O)c1cc2cc(F)ccc2s1
REMARK SMILES IDX 12 1 11 2 10 3 9 4 8 5 7 6 6 7 4 8 5 9 3 10 1 11 2 12 71 13
REMARK SMILES IDX 69 14 70 15 72 16 73 17 74 18 75 19 83 20 76 21 82 22 77 23
REMARK SMILES IDX 81 24 78 25 80 26 79 27 13 28 14 29 15 30 16 31 17 32 18 33
REMARK SMILES IDX 19 34 20 35 21 36 22 37 68 38 23 39 67 40 24 41 25 42 26 43
REMARK SMILES IDX 61 44 27 45 66 46 60 47 62 48 28 49 65 50 59 51 58 52 29 54
REMARK SMILES IDX 51 55 36 56 50 57 37 58 40 59 49 60 63 61 38 62 39 63 48 65
REMARK SMILES IDX 64 66 41 67 30 68 31 69 35 70 32 71 34 72 33 73 52 74 53 75
REMARK SMILES IDX 57 76 54 77 56 78 55 79 42 80 43 81 47 82 44 83 46 84 45 85
REMARK H PARENT 62 53 40 64
REMARK Flexibility Score: inf
ROOT
ATOM      1  O   UNL A   1      41.837  21.452  25.674  1.00  0.00    -0.377 OA
ENDROOT
BRANCH   1   2
ATOM      2  C   UNL A   1      41.109  21.426  26.895  1.00  0.00     0.188 C 
BRANCH   2   3
ATOM      3  C   UNL A   1      39.909  22.348  27.201  1.00  0.00     0.188 C 
BRANCH   3   4
ATOM      4  O   UNL A   1      38.942  22.397  26.175  1.00  0.00    -0.376 OA
BRANCH   4   5
ATOM      5  C   UNL A   1      38.041  23.479  26.109  1.00  0.00     0.202 C 
BRANCH   5   6
ATOM      6  C   UNL A   1      36.553  23.262  25.794  1.00  0.00     0.261 C 
BRANCH   6   7
ATOM      7  O   UNL A   1      35.988  24.010  24.707  1.00  0.00    -0.463 OA
BRANCH   7   8
ATOM      8  C   UNL A   1      35.854  23.377  23.524  1.00  0.00     0.311 C 
ATOM      9  O   UNL A   1      36.806  23.015  22.840  1.00  0.00    -0.252 OA
BRANCH   8  10
ATOM     10  C   UNL A   1      34.416  23.054  23.123  1.00  0.00     0.123 C 
ATOM     11  C   UNL A   1      33.699  25.579  22.906  1.00  0.00     0.032 C 
ATOM     12  C   UNL A   1      33.295  24.110  22.923  1.00  0.00     0.096 C 
ATOM     13  N   UNL A   1      32.230  23.733  23.862  1.00  0.00    -0.334 N 
ATOM     14  C   UNL A   1      33.855  22.003  24.090  1.00  0.00     0.039 C 
ATOM     15  C   UNL A   1      32.522  22.511  24.575  1.00  0.00     0.121 C 
BRANCH  13  16
ATOM     16  C   UNL A   1      30.917  24.172  23.951  1.00  0.00     0.264 C 
ATOM     17  O   UNL A   1      30.087  23.767  23.132  1.00  0.00    -0.268 OA
BRANCH  16  18
ATOM     18  C   UNL A   1      30.482  25.043  25.027  1.00  0.00     0.093 A 
ATOM     19  C   UNL A   1      31.236  25.391  26.141  1.00  0.00     0.034 A 
ATOM     20  S   UNL A   1      29.663  26.488  24.521  1.00  0.00    -0.130 S 
ATOM     21  C   UNL A   1      31.848  26.675  25.849  1.00  0.00    -0.004 A 
ATOM     22  C   UNL A   1      31.126  27.358  24.858  1.00  0.00     0.035 A 
ATOM     23  C   UNL A   1      33.066  27.237  26.294  1.00  0.00     0.048 A 
ATOM     24  C   UNL A   1      31.599  28.539  24.260  1.00  0.00     0.022 A 
ATOM     25  C   UNL A   1      33.565  28.371  25.651  1.00  0.00     0.123 A 
ATOM     26  C   UNL A   1      32.859  29.004  24.640  1.00  0.00     0.041 A 
ATOM     27  F   UNL A   1      34.777  28.829  25.989  1.00  0.00    -0.207 F 
ENDBRANCH  16  18
ENDBRANCH  13  16
ENDBRANCH   8  10
ENDBRANCH   7   8
ENDBRANCH   6   7
ENDBRANCH   5   6
ENDBRANCH   4   5
ENDBRANCH   3   4
ENDBRANCH   2   3
ENDBRANCH   1   2
BRANCH   1  28
ATOM     28  C   UNL A   1      43.247  21.581  25.700  1.00  0.00     0.188 C 
BRANCH  28  29
ATOM     29  C   UNL A   1      44.064  20.319  25.366  1.00  0.00     0.188 C 
BRANCH  29  30
ATOM     30  O   UNL A   1      45.401  20.592  24.967  1.00  0.00    -0.376 OA
BRANCH  30  31
ATOM     31  C   UNL A   1      45.894  21.901  25.217  1.00  0.00     0.202 C 
BRANCH  31  32
ATOM     32  C   UNL A   1      45.744  22.948  24.101  1.00  0.00     0.261 C 
BRANCH  32  33
ATOM     33  O   UNL A   1      45.020  24.142  24.439  1.00  0.00    -0.460 OA
BRANCH  33  34
ATOM     34  C   UNL A   1      45.650  25.060  25.195  1.00  0.00     0.338 C 
ATOM     35  O   UNL A   1      46.805  25.445  25.091  1.00  0.00    -0.246 OA
BRANCH  34  36
ATOM     36  C   UNL A   1      44.645  25.688  26.070  1.00  0.00     0.060 A 
ATOM     37  C   UNL A   1      44.632  27.086  26.180  1.00  0.00     0.016 A 
ATOM     38  C   UNL A   1      43.731  24.910  26.783  1.00  0.00     0.016 A 
ATOM     39  C   UNL A   1      43.736  27.705  27.045  1.00  0.00     0.010 A 
ATOM     40  C   UNL A   1      42.851  25.531  27.673  1.00  0.00     0.010 A 
ATOM     41  C   UNL A   1      42.887  26.925  27.842  1.00  0.00    -0.014 A 
BRANCH  41  42
ATOM     42  C   UNL A   1      42.246  27.564  29.015  1.00  0.00     0.031 A 
ATOM     43  C   UNL A   1      42.894  27.372  30.361  1.00  0.00     0.074 A 
ATOM     44  C   UNL A   1      41.174  28.363  28.884  1.00  0.00     0.049 A 
ATOM     45  N   UNL A   1      42.566  27.881  31.521  1.00  0.00    -0.248 NA
ATOM     46  C   UNL A   1      44.075  26.494  30.400  1.00  0.00     0.031 C 
ATOM     47  C   UNL A   1      40.492  28.669  27.628  1.00  0.00     0.029 A 
ATOM     48  N   UNL A   1      40.482  29.077  29.829  1.00  0.00    -0.354 N 
ATOM     49  C   UNL A   1      43.498  27.383  32.423  1.00  0.00     0.074 A 
ATOM     50  C   UNL A   1      44.378  26.503  31.688  1.00  0.00     0.031 C 
ATOM     51  C   UNL A   1      39.478  29.517  27.881  1.00  0.00     0.029 A 
ATOM     52  C   UNL A   1      39.426  29.789  29.316  1.00  0.00     0.049 A 
ATOM     53  H   UNL A   1      40.721  29.079  30.784  1.00  0.00     0.167 HD
ATOM     54  C   UNL A   1      43.621  27.642  33.746  1.00  0.00     0.031 A 
ATOM     55  C   UNL A   1      38.519  30.565  29.941  1.00  0.00     0.031 A 
ATOM     56  C   UNL A   1      42.734  28.501  34.483  1.00  0.00     0.049 A 
ATOM     57  C   UNL A   1      38.626  30.771  31.430  1.00  0.00     0.074 A 
ATOM     58  C   UNL A   1      42.772  28.832  35.826  1.00  0.00     0.029 A 
ATOM     59  N   UNL A   1      41.639  29.154  33.939  1.00  0.00    -0.354 N 
ATOM     60  N   UNL A   1      39.528  30.318  32.269  1.00  0.00    -0.248 NA
ATOM     61  C   UNL A   1      37.593  31.611  32.055  1.00  0.00     0.031 C 
ATOM     62  C   UNL A   1      41.661  29.633  36.107  1.00  0.00     0.029 A 
ATOM     63  C   UNL A   1      40.976  29.865  34.925  1.00  0.00     0.049 A 
ATOM     64  H   UNL A   1      41.372  29.118  32.991  1.00  0.00     0.167 HD
ATOM     65  C   UNL A   1      39.192  30.847  33.510  1.00  0.00     0.074 A 
ATOM     66  C   UNL A   1      38.017  31.669  33.309  1.00  0.00     0.031 C 
ATOM     67  C   UNL A   1      39.803  30.673  34.709  1.00  0.00     0.031 A 
BRANCH  54  68
ATOM     68  C   UNL A   1      44.734  26.951  34.484  1.00  0.00    -0.014 A 
ATOM     69  C   UNL A   1      44.561  25.679  35.053  1.00  0.00     0.009 A 
ATOM     70  C   UNL A   1      45.984  27.579  34.598  1.00  0.00     0.009 A 
ATOM     71  C   UNL A   1      45.604  25.068  35.753  1.00  0.00     0.001 A 
ATOM     72  C   UNL A   1      47.035  26.952  35.269  1.00  0.00     0.001 A 
ATOM     73  C   UNL A   1      46.841  25.702  35.855  1.00  0.00     0.000 A 
ENDBRANCH  54  68
BRANCH  55  74
ATOM     74  C   UNL A   1      37.418  31.200  29.168  1.00  0.00    -0.014 A 
ATOM     75  C   UNL A   1      37.404  32.584  28.937  1.00  0.00     0.009 A 
ATOM     76  C   UNL A   1      36.352  30.425  28.686  1.00  0.00     0.009 A 
ATOM     77  C   UNL A   1      36.330  33.181  28.270  1.00  0.00     0.001 A 
ATOM     78  C   UNL A   1      35.297  31.018  27.990  1.00  0.00     0.001 A 
ATOM     79  C   UNL A   1      35.281  32.398  27.793  1.00  0.00     0.000 A 
ENDBRANCH  55  74
BRANCH  67  80
ATOM     80  C   UNL A   1      39.239  31.425  35.886  1.00  0.00    -0.014 A 
ATOM     81  C   UNL A   1      38.100  30.975  36.570  1.00  0.00     0.009 A 
ATOM     82  C   UNL A   1      39.878  32.594  36.330  1.00  0.00     0.009 A 
ATOM     83  C   UNL A   1      37.583  31.709  37.642  1.00  0.00     0.001 A 
ATOM     84  C   UNL A   1      39.382  33.304  37.424  1.00  0.00     0.001 A 
ATOM     85  C   UNL A   1      38.226  32.869  38.069  1.00  0.00     0.000 A 
ENDBRANCH  67  80
ENDBRANCH  41  42
ENDBRANCH  34  36
ENDBRANCH  33  34
ENDBRANCH  32  33
ENDBRANCH  31  32
ENDBRANCH  30  31
ENDBRANCH  29  30
ENDBRANCH  28  29
ENDBRANCH   1  28
TORSDOF 22
ENDMDL
MODEL 3
REMARK VINA RESULT:     -10.1      3.566      6.854
REMARK SMILES C[C@H]1[C@@H](C(=O)OCCOCCOCCOCCOC(=O)c2ccc(-c3c4nc(c(-c5ccccc5)c5ccc([nH]5)c(-c5ccccc5)c5nc(c(-c6ccccc6)c6ccc3[nH]6)C=C5)C=C4)cc2)CCN1C(=O)c1cc2cc(F)ccc2s1
REMARK SMILES IDX 12 1 11 2 10 3 9 4 8 5 7 6 6 7 4 8 5 9 3 10 1 11 2 12 71 13
REMARK SMILES IDX 69 14 70 15 72 16 73 17 74 18 75 19 83 20 76 21 82 22 77 23
REMARK SMILES IDX 81 24 78 25 80 26 79 27 13 28 14 29 15 30 16 31 17 32 18 33
REMARK SMILES IDX 19 34 20 35 21 36 22 37 68 38 23 39 67 40 24 41 25 42 26 43
REMARK SMILES IDX 61 44 27 45 66 46 60 47 62 48 28 49 65 50 59 51 58 52 29 54
REMARK SMILES IDX 51 55 36 56 50 57 37 58 40 59 49 60 63 61 38 62 39 63 48 65
REMARK SMILES IDX 64 66 41 67 30 68 31 69 35 70 32 71 34 72 33 73 52 74 53 75
REMARK SMILES IDX 57 76 54 77 56 78 55 79 42 80 43 81 47 82 44 83 46 84 45 85
REMARK H PARENT 62 53 40 64
REMARK Flexibility Score: inf
ROOT
ATOM      1  O   UNL A   1      39.992  20.828  26.362  1.00  0.00    -0.377 OA
ENDROOT
BRANCH   1   2
ATOM      2  C   UNL A   1      39.209  22.010  26.245  1.00  0.00     0.188 C 
BRANCH   2   3
ATOM      3  C   UNL A   1      37.942  22.119  25.370  1.00  0.00     0.188 C 
BRANCH   3   4
ATOM      4  O   UNL A   1      36.818  21.447  25.894  1.00  0.00    -0.376 OA
BRANCH   4   5
ATOM      5  C   UNL A   1      35.629  22.159  26.149  1.00  0.00     0.202 C 
BRANCH   5   6
ATOM      6  C   UNL A   1      34.273  21.443  26.248  1.00  0.00     0.261 C 
BRANCH   6   7
ATOM      7  O   UNL A   1      33.091  22.257  26.261  1.00  0.00    -0.463 OA
BRANCH   7   8
ATOM      8  C   UNL A   1      32.013  21.794  25.597  1.00  0.00     0.311 C 
ATOM      9  O   UNL A   1      31.900  20.631  25.222  1.00  0.00    -0.252 OA
BRANCH   8  10
ATOM     10  C   UNL A   1      30.884  22.804  25.413  1.00  0.00     0.123 C 
ATOM     11  C   UNL A   1      31.449  23.279  22.886  1.00  0.00     0.032 C 
ATOM     12  C   UNL A   1      30.646  23.642  24.128  1.00  0.00     0.096 C 
ATOM     13  N   UNL A   1      30.702  25.046  24.559  1.00  0.00    -0.334 N 
ATOM     14  C   UNL A   1      30.914  23.801  26.580  1.00  0.00     0.039 C 
ATOM     15  C   UNL A   1      30.869  25.185  25.987  1.00  0.00     0.121 C 
BRANCH  13  16
ATOM     16  C   UNL A   1      30.333  26.204  23.890  1.00  0.00     0.264 C 
ATOM     17  O   UNL A   1      29.134  26.484  23.781  1.00  0.00    -0.268 OA
BRANCH  16  18
ATOM     18  C   UNL A   1      31.324  27.129  23.376  1.00  0.00     0.093 A 
ATOM     19  C   UNL A   1      31.326  28.505  23.573  1.00  0.00     0.034 A 
ATOM     20  S   UNL A   1      32.973  26.611  23.542  1.00  0.00    -0.130 S 
ATOM     21  C   UNL A   1      32.207  28.767  24.697  1.00  0.00    -0.004 A 
ATOM     22  C   UNL A   1      33.119  27.716  24.872  1.00  0.00     0.035 A 
ATOM     23  C   UNL A   1      32.185  29.799  25.663  1.00  0.00     0.048 A 
ATOM     24  C   UNL A   1      33.962  27.628  25.993  1.00  0.00     0.022 A 
ATOM     25  C   UNL A   1      32.974  29.674  26.807  1.00  0.00     0.123 A 
ATOM     26  C   UNL A   1      33.835  28.602  26.985  1.00  0.00     0.041 A 
ATOM     27  F   UNL A   1      32.859  30.589  27.778  1.00  0.00    -0.207 F 
ENDBRANCH  16  18
ENDBRANCH  13  16
ENDBRANCH   8  10
ENDBRANCH   7   8
ENDBRANCH   6   7
ENDBRANCH   5   6
ENDBRANCH   4   5
ENDBRANCH   3   4
ENDBRANCH   2   3
ENDBRANCH   1   2
BRANCH   1  28
ATOM     28  C   UNL A   1      41.403  20.908  26.273  1.00  0.00     0.188 C 
BRANCH  28  29
ATOM     29  C   UNL A   1      42.197  19.665  26.715  1.00  0.00     0.188 C 
BRANCH  29  30
ATOM     30  O   UNL A   1      42.536  18.793  25.646  1.00  0.00    -0.376 OA
BRANCH  30  31
ATOM     31  C   UNL A   1      43.919  18.633  25.358  1.00  0.00     0.202 C 
BRANCH  31  32
ATOM     32  C   UNL A   1      44.491  19.394  24.150  1.00  0.00     0.261 C 
BRANCH  32  33
ATOM     33  O   UNL A   1      44.429  20.828  24.212  1.00  0.00    -0.460 OA
BRANCH  33  34
ATOM     34  C   UNL A   1      45.472  21.474  24.766  1.00  0.00     0.338 C 
ATOM     35  O   UNL A   1      46.661  21.238  24.611  1.00  0.00    -0.246 OA
BRANCH  34  36
ATOM     36  C   UNL A   1      44.949  22.665  25.457  1.00  0.00     0.060 A 
ATOM     37  C   UNL A   1      44.710  23.825  24.706  1.00  0.00     0.016 A 
ATOM     38  C   UNL A   1      44.703  22.644  26.832  1.00  0.00     0.016 A 
ATOM     39  C   UNL A   1      44.275  24.984  25.340  1.00  0.00     0.010 A 
ATOM     40  C   UNL A   1      44.292  23.816  27.471  1.00  0.00     0.010 A 
ATOM     41  C   UNL A   1      44.126  25.000  26.733  1.00  0.00    -0.014 A 
BRANCH  41  42
ATOM     42  C   UNL A   1      44.056  26.314  27.414  1.00  0.00     0.031 A 
ATOM     43  C   UNL A   1      45.348  27.045  27.666  1.00  0.00     0.074 A 
ATOM     44  C   UNL A   1      42.880  26.886  27.722  1.00  0.00     0.049 A 
ATOM     45  N   UNL A   1      45.546  28.232  28.181  1.00  0.00    -0.248 NA
ATOM     46  C   UNL A   1      46.584  26.344  27.277  1.00  0.00     0.031 C 
ATOM     47  C   UNL A   1      41.563  26.303  27.479  1.00  0.00     0.029 A 
ATOM     48  N   UNL A   1      42.612  28.103  28.295  1.00  0.00    -0.354 N 
ATOM     49  C   UNL A   1      46.923  28.416  28.177  1.00  0.00     0.074 A 
ATOM     50  C   UNL A   1      47.515  27.207  27.649  1.00  0.00     0.031 C 
ATOM     51  C   UNL A   1      40.621  27.168  27.897  1.00  0.00     0.029 A 
ATOM     52  C   UNL A   1      41.271  28.350  28.459  1.00  0.00     0.049 A 
ATOM     53  H   UNL A   1      43.314  28.739  28.564  1.00  0.00     0.167 HD
ATOM     54  C   UNL A   1      47.635  29.499  28.567  1.00  0.00     0.031 A 
ATOM     55  C   UNL A   1      40.646  29.410  29.009  1.00  0.00     0.031 A 
ATOM     56  C   UNL A   1      47.049  30.693  29.112  1.00  0.00     0.049 A 
ATOM     57  C   UNL A   1      41.466  30.568  29.516  1.00  0.00     0.074 A 
ATOM     58  C   UNL A   1      47.682  31.847  29.537  1.00  0.00     0.029 A 
ATOM     59  N   UNL A   1      45.691  30.879  29.320  1.00  0.00    -0.354 N 
ATOM     60  N   UNL A   1      42.766  30.744  29.481  1.00  0.00    -0.248 NA
ATOM     61  C   UNL A   1      40.725  31.684  30.124  1.00  0.00     0.031 C 
ATOM     62  C   UNL A   1      46.711  32.707  30.063  1.00  0.00     0.029 A 
ATOM     63  C   UNL A   1      45.467  32.119  29.893  1.00  0.00     0.049 A 
ATOM     64  H   UNL A   1      44.989  30.226  29.093  1.00  0.00     0.167 HD
ATOM     65  C   UNL A   1      42.994  32.001  30.029  1.00  0.00     0.074 A 
ATOM     66  C   UNL A   1      41.697  32.550  30.367  1.00  0.00     0.031 C 
ATOM     67  C   UNL A   1      44.170  32.648  30.230  1.00  0.00     0.031 A 
BRANCH  54  68
ATOM     68  C   UNL A   1      49.133  29.416  28.456  1.00  0.00    -0.014 A 
ATOM     69  C   UNL A   1      49.810  29.857  27.308  1.00  0.00     0.009 A 
ATOM     70  C   UNL A   1      49.879  28.899  29.526  1.00  0.00     0.009 A 
ATOM     71  C   UNL A   1      51.200  29.747  27.219  1.00  0.00     0.001 A 
ATOM     72  C   UNL A   1      51.271  28.821  29.449  1.00  0.00     0.001 A 
ATOM     73  C   UNL A   1      51.929  29.235  28.292  1.00  0.00     0.000 A 
ENDBRANCH  54  68
BRANCH  55  74
ATOM     74  C   UNL A   1      39.163  29.427  29.125  1.00  0.00    -0.014 A 
ATOM     75  C   UNL A   1      38.361  29.851  28.054  1.00  0.00     0.009 A 
ATOM     76  C   UNL A   1      38.542  29.050  30.326  1.00  0.00     0.009 A 
ATOM     77  C   UNL A   1      36.972  29.929  28.196  1.00  0.00     0.001 A 
ATOM     78  C   UNL A   1      37.152  29.097  30.454  1.00  0.00     0.001 A 
ATOM     79  C   UNL A   1      36.369  29.548  29.393  1.00  0.00     0.000 A 
ENDBRANCH  55  74
BRANCH  67  80
ATOM     80  C   UNL A   1      44.103  34.041  30.799  1.00  0.00    -0.014 A 
ATOM     81  C   UNL A   1      43.971  35.168  29.975  1.00  0.00     0.009 A 
ATOM     82  C   UNL A   1      44.151  34.221  32.192  1.00  0.00     0.009 A 
ATOM     83  C   UNL A   1      43.940  36.450  30.530  1.00  0.00     0.001 A 
ATOM     84  C   UNL A   1      44.082  35.500  32.745  1.00  0.00     0.001 A 
ATOM     85  C   UNL A   1      43.992  36.614  31.913  1.00  0.00     0.000 A 
ENDBRANCH  67  80
ENDBRANCH  41  42
ENDBRANCH  34  36
ENDBRANCH  33  34
ENDBRANCH  32  33
ENDBRANCH  31  32
ENDBRANCH  30  31
ENDBRANCH  29  30
ENDBRANCH  28  29
ENDBRANCH   1  28
TORSDOF 22
ENDMDL
