MODEL 1
REMARK VINA RESULT:     -11.3      0.000      0.000
REMARK SMILES O=C(OCCOCCOCCOCCOC(=O)[C@H](c1c[nH]c2cc(F)ccc12)[NH+]1CC[NH+](CC(=O)N2CCOCC2)CC1)c1ccc(-c2c3nc(c(-c4ccccc4)c4ccc([nH]4)c(-c4ccccc4)c4nc(c(-c5ccccc5)c5ccc2[nH]5)C=C4)C=C3)cc1
REMARK SMILES IDX 10 1 9 2 8 3 7 4 6 5 5 6 4 7 3 8 2 9 1 10 44 11 45 12 91 13
REMARK SMILES IDX 46 14 90 15 47 16 48 17 49 18 84 19 50 20 89 21 83 22 85 23
REMARK SMILES IDX 51 24 88 25 82 26 81 27 52 29 74 30 59 31 73 32 60 33 63 34
REMARK SMILES IDX 72 35 86 36 61 37 62 38 71 40 87 41 64 42 53 43 54 44 58 45
REMARK SMILES IDX 55 46 57 47 56 48 75 49 76 50 80 51 77 52 79 53 78 54 65 55
REMARK SMILES IDX 66 56 70 57 67 58 69 59 68 60 11 61 12 62 13 63 14 64 15 65
REMARK SMILES IDX 16 66 17 67 18 68 29 69 30 70 43 71 31 73 42 74 32 75 33 77
REMARK SMILES IDX 34 78 35 79 36 80 37 81 41 82 38 83 40 84 39 85 19 86 20 87
REMARK SMILES IDX 28 88 21 89 22 90 27 91 23 93 26 94 24 95 25 96
REMARK H PARENT 85 28 63 39 29 72 32 76 21 92
REMARK Flexibility Score: inf
ROOT
ATOM      1  C   UNL A   1      40.083  20.501  26.495  1.00  0.00     0.188 C 
ENDROOT
BRANCH   1   2
ATOM      2  O   UNL A   1      40.891  19.564  25.783  1.00  0.00    -0.377 OA
BRANCH   2   3
ATOM      3  C   UNL A   1      42.077  19.095  26.412  1.00  0.00     0.188 C 
BRANCH   3   4
ATOM      4  C   UNL A   1      43.279  18.968  25.493  1.00  0.00     0.188 C 
BRANCH   4   5
ATOM      5  O   UNL A   1      43.594  20.211  24.888  1.00  0.00    -0.376 OA
BRANCH   5   6
ATOM      6  C   UNL A   1      43.533  21.385  25.697  1.00  0.00     0.202 C 
BRANCH   6   7
ATOM      7  C   UNL A   1      42.998  22.589  24.943  1.00  0.00     0.261 C 
BRANCH   7   8
ATOM      8  O   UNL A   1      42.570  23.562  25.902  1.00  0.00    -0.460 OA
BRANCH   8   9
ATOM      9  C   UNL A   1      42.829  24.844  25.547  1.00  0.00     0.338 C 
ATOM     10  O   UNL A   1      43.694  25.237  24.777  1.00  0.00    -0.246 OA
BRANCH   9  11
ATOM     11  C   UNL A   1      41.919  25.710  26.319  1.00  0.00     0.060 A 
ATOM     12  C   UNL A   1      41.921  27.095  26.089  1.00  0.00     0.016 A 
ATOM     13  C   UNL A   1      41.111  25.157  27.307  1.00  0.00     0.016 A 
ATOM     14  C   UNL A   1      41.200  27.950  26.880  1.00  0.00     0.010 A 
ATOM     15  C   UNL A   1      40.432  26.020  28.162  1.00  0.00     0.010 A 
ATOM     16  C   UNL A   1      40.541  27.410  27.974  1.00  0.00    -0.014 A 
BRANCH  16  17
ATOM     17  C   UNL A   1      40.326  28.336  29.085  1.00  0.00     0.031 A 
ATOM     18  C   UNL A   1      41.283  28.239  30.232  1.00  0.00     0.074 A 
ATOM     19  C   UNL A   1      39.432  29.325  28.970  1.00  0.00     0.049 A 
ATOM     20  N   UNL A   1      41.222  28.785  31.411  1.00  0.00    -0.248 NA
ATOM     21  C   UNL A   1      42.486  27.409  30.013  1.00  0.00     0.031 C 
ATOM     22  C   UNL A   1      38.646  29.619  27.770  1.00  0.00     0.029 A 
ATOM     23  N   UNL A   1      39.044  30.265  29.877  1.00  0.00    -0.354 N 
ATOM     24  C   UNL A   1      42.332  28.307  32.095  1.00  0.00     0.074 A 
ATOM     25  C   UNL A   1      43.069  27.454  31.197  1.00  0.00     0.031 C 
ATOM     26  C   UNL A   1      37.830  30.651  28.034  1.00  0.00     0.029 A 
ATOM     27  C   UNL A   1      37.984  31.015  29.438  1.00  0.00     0.049 A 
ATOM     28  H   UNL A   1      39.476  30.392  30.751  1.00  0.00     0.167 HD
ATOM     29  C   UNL A   1      42.663  28.538  33.384  1.00  0.00     0.031 A 
ATOM     30  C   UNL A   1      37.180  31.828  30.142  1.00  0.00     0.031 A 
ATOM     31  C   UNL A   1      41.863  29.380  34.227  1.00  0.00     0.049 A 
ATOM     32  C   UNL A   1      37.470  31.976  31.609  1.00  0.00     0.074 A 
ATOM     33  C   UNL A   1      42.000  29.657  35.571  1.00  0.00     0.029 A 
ATOM     34  N   UNL A   1      40.750  30.084  33.775  1.00  0.00    -0.354 N 
ATOM     35  N   UNL A   1      38.440  31.435  32.314  1.00  0.00    -0.248 NA
ATOM     36  C   UNL A   1      36.558  32.819  32.385  1.00  0.00     0.031 C 
ATOM     37  C   UNL A   1      40.931  30.480  35.944  1.00  0.00     0.029 A 
ATOM     38  C   UNL A   1      40.173  30.776  34.817  1.00  0.00     0.049 A 
ATOM     39  H   UNL A   1      40.423  30.086  32.846  1.00  0.00     0.167 HD
ATOM     40  C   UNL A   1      38.275  31.892  33.611  1.00  0.00     0.074 A 
ATOM     41  C   UNL A   1      37.107  32.757  33.591  1.00  0.00     0.031 C 
ATOM     42  C   UNL A   1      39.013  31.632  34.720  1.00  0.00     0.031 A 
BRANCH  29  43
ATOM     43  C   UNL A   1      43.818  27.753  33.940  1.00  0.00    -0.014 A 
ATOM     44  C   UNL A   1      45.133  28.249  33.940  1.00  0.00     0.009 A 
ATOM     45  C   UNL A   1      43.595  26.437  34.376  1.00  0.00     0.009 A 
ATOM     46  C   UNL A   1      46.201  27.423  34.304  1.00  0.00     0.001 A 
ATOM     47  C   UNL A   1      44.660  25.626  34.769  1.00  0.00     0.001 A 
ATOM     48  C   UNL A   1      45.965  26.112  34.716  1.00  0.00     0.000 A 
ENDBRANCH  29  43
BRANCH  30  49
ATOM     49  C   UNL A   1      36.002  32.446  29.480  1.00  0.00    -0.014 A 
ATOM     50  C   UNL A   1      35.917  33.831  29.301  1.00  0.00     0.009 A 
ATOM     51  C   UNL A   1      34.979  31.632  28.958  1.00  0.00     0.009 A 
ATOM     52  C   UNL A   1      34.832  34.390  28.617  1.00  0.00     0.001 A 
ATOM     53  C   UNL A   1      33.912  32.189  28.250  1.00  0.00     0.001 A 
ATOM     54  C   UNL A   1      33.836  33.570  28.085  1.00  0.00     0.000 A 
ENDBRANCH  30  49
BRANCH  42  55
ATOM     55  C   UNL A   1      38.616  32.340  35.979  1.00  0.00    -0.014 A 
ATOM     56  C   UNL A   1      37.847  31.702  36.963  1.00  0.00     0.009 A 
ATOM     57  C   UNL A   1      39.124  33.625  36.223  1.00  0.00     0.009 A 
ATOM     58  C   UNL A   1      37.587  32.349  38.171  1.00  0.00     0.001 A 
ATOM     59  C   UNL A   1      38.888  34.256  37.442  1.00  0.00     0.001 A 
ATOM     60  C   UNL A   1      38.117  33.618  38.412  1.00  0.00     0.000 A 
ENDBRANCH  42  55
ENDBRANCH  16  17
ENDBRANCH   9  11
ENDBRANCH   8   9
ENDBRANCH   7   8
ENDBRANCH   6   7
ENDBRANCH   5   6
ENDBRANCH   4   5
ENDBRANCH   3   4
ENDBRANCH   2   3
ENDBRANCH   1   2
BRANCH   1  61
ATOM     61  C   UNL A   1      39.277  21.608  25.777  1.00  0.00     0.188 C 
BRANCH  61  62
ATOM     62  O   UNL A   1      37.864  21.458  25.742  1.00  0.00    -0.376 OA
BRANCH  62  63
ATOM     63  C   UNL A   1      37.277  21.505  24.450  1.00  0.00     0.202 C 
BRANCH  63  64
ATOM     64  C   UNL A   1      36.252  22.634  24.242  1.00  0.00     0.261 C 
BRANCH  64  65
ATOM     65  O   UNL A   1      34.844  22.327  24.028  1.00  0.00    -0.459 OA
BRANCH  65  66
ATOM     66  C   UNL A   1      33.960  22.466  25.058  1.00  0.00     0.370 C 
ATOM     67  O   UNL A   1      34.312  22.435  26.237  1.00  0.00    -0.245 OA
BRANCH  66  68
ATOM     68  C   UNL A   1      32.447  22.447  24.624  1.00  0.00     0.328 C 
BRANCH  68  69
ATOM     69  N   UNL A   1      32.108  23.648  23.742  1.00  0.00    -0.310 N 
ATOM     70  C   UNL A   1      30.677  23.933  23.360  1.00  0.00     0.325 C 
ATOM     71  C   UNL A   1      32.484  24.875  24.418  1.00  0.00     0.325 C 
ATOM     72  H   UNL A   1      32.610  23.381  22.896  1.00  0.00     0.349 HD
ATOM     73  C   UNL A   1      30.066  25.503  23.689  1.00  0.00     0.325 C 
ATOM     74  C   UNL A   1      31.419  25.232  25.498  1.00  0.00     0.325 C 
ATOM     75  N   UNL A   1      30.530  26.178  24.943  1.00  0.00    -0.318 N 
ATOM     76  H   UNL A   1      29.634  26.444  25.351  1.00  0.00     0.348 HD
BRANCH  75  77
ATOM     77  C   UNL A   1      31.153  27.520  25.105  1.00  0.00     0.364 C 
BRANCH  77  78
ATOM     78  C   UNL A   1      31.101  28.578  23.936  1.00  0.00     0.277 C 
ATOM     79  O   UNL A   1      32.193  29.068  23.600  1.00  0.00    -0.268 OA
ATOM     80  N   UNL A   1      29.926  28.991  23.238  1.00  0.00    -0.333 N 
ATOM     81  C   UNL A   1      28.498  28.840  23.629  1.00  0.00     0.148 C 
ATOM     82  C   UNL A   1      30.157  30.062  22.253  1.00  0.00     0.148 C 
ATOM     83  C   UNL A   1      27.399  29.376  22.686  1.00  0.00     0.181 C 
ATOM     84  C   UNL A   1      29.001  30.292  21.280  1.00  0.00     0.181 C 
ATOM     85  O   UNL A   1      27.800  30.564  22.001  1.00  0.00    -0.378 OA
ENDBRANCH  77  78
ENDBRANCH  75  77
ENDBRANCH  68  69
BRANCH  68  86
ATOM     86  C   UNL A   1      32.246  21.077  23.817  1.00  0.00     0.046 A 
ATOM     87  C   UNL A   1      31.977  20.929  22.457  1.00  0.00     0.094 A 
ATOM     88  C   UNL A   1      32.480  19.702  24.270  1.00  0.00     0.009 A 
ATOM     89  N   UNL A   1      32.172  19.639  22.063  1.00  0.00    -0.361 N 
ATOM     90  C   UNL A   1      32.458  18.862  23.144  1.00  0.00     0.049 A 
ATOM     91  C   UNL A   1      32.771  19.078  25.509  1.00  0.00     0.014 A 
ATOM     92  H   UNL A   1      32.115  19.318  21.133  1.00  0.00     0.166 HD
ATOM     93  C   UNL A   1      32.706  17.485  23.173  1.00  0.00     0.065 A 
ATOM     94  C   UNL A   1      32.993  17.686  25.563  1.00  0.00     0.040 A 
ATOM     95  C   UNL A   1      32.962  16.916  24.409  1.00  0.00     0.125 A 
ATOM     96  F   UNL A   1      33.185  15.597  24.482  1.00  0.00    -0.207 F 
ENDBRANCH  68  86
ENDBRANCH  66  68
ENDBRANCH  65  66
ENDBRANCH  64  65
ENDBRANCH  63  64
ENDBRANCH  62  63
ENDBRANCH  61  62
ENDBRANCH   1  61
TORSDOF 24
ENDMDL
MODEL 2
REMARK VINA RESULT:     -10.6      4.972      8.517
REMARK SMILES O=C(OCCOCCOCCOCCOC(=O)[C@H](c1c[nH]c2cc(F)ccc12)[NH+]1CC[NH+](CC(=O)N2CCOCC2)CC1)c1ccc(-c2c3nc(c(-c4ccccc4)c4ccc([nH]4)c(-c4ccccc4)c4nc(c(-c5ccccc5)c5ccc2[nH]5)C=C4)C=C3)cc1
REMARK SMILES IDX 10 1 9 2 8 3 7 4 6 5 5 6 4 7 3 8 2 9 1 10 44 11 45 12 91 13
REMARK SMILES IDX 46 14 90 15 47 16 48 17 49 18 84 19 50 20 89 21 83 22 85 23
REMARK SMILES IDX 51 24 88 25 82 26 81 27 52 29 74 30 59 31 73 32 60 33 63 34
REMARK SMILES IDX 72 35 86 36 61 37 62 38 71 40 87 41 64 42 53 43 54 44 58 45
REMARK SMILES IDX 55 46 57 47 56 48 75 49 76 50 80 51 77 52 79 53 78 54 65 55
REMARK SMILES IDX 66 56 70 57 67 58 69 59 68 60 11 61 12 62 13 63 14 64 15 65
REMARK SMILES IDX 16 66 17 67 18 68 29 69 30 70 43 71 31 73 42 74 32 75 33 77
REMARK SMILES IDX 34 78 35 79 36 80 37 81 41 82 38 83 40 84 39 85 19 86 20 87
REMARK SMILES IDX 28 88 21 89 22 90 27 91 23 93 26 94 24 95 25 96
REMARK H PARENT 85 28 63 39 29 72 32 76 21 92
REMARK Flexibility Score: inf
ROOT
ATOM      1  C   UNL A   1      37.546  23.310  25.828  1.00  0.00     0.188 C 
ENDROOT
BRANCH   1   2
ATOM      2  O   UNL A   1      38.095  22.141  25.219  1.00  0.00    -0.377 OA
BRANCH   2   3
ATOM      3  C   UNL A   1      39.185  21.501  25.872  1.00  0.00     0.188 C 
BRANCH   3   4
ATOM      4  C   UNL A   1      39.806  22.298  27.006  1.00  0.00     0.188 C 
BRANCH   4   5
ATOM      5  O   UNL A   1      41.056  21.751  27.391  1.00  0.00    -0.376 OA
BRANCH   5   6
ATOM      6  C   UNL A   1      42.054  21.587  26.384  1.00  0.00     0.202 C 
BRANCH   6   7
ATOM      7  C   UNL A   1      42.550  20.156  26.280  1.00  0.00     0.261 C 
BRANCH   7   8
ATOM      8  O   UNL A   1      42.992  19.933  24.936  1.00  0.00    -0.460 OA
BRANCH   8   9
ATOM      9  C   UNL A   1      44.333  19.784  24.809  1.00  0.00     0.338 C 
ATOM     10  O   UNL A   1      44.959  18.734  24.777  1.00  0.00    -0.246 OA
BRANCH   9  11
ATOM     11  C   UNL A   1      44.929  21.132  24.787  1.00  0.00     0.060 A 
ATOM     12  C   UNL A   1      45.812  21.515  25.811  1.00  0.00     0.016 A 
ATOM     13  C   UNL A   1      44.567  22.032  23.791  1.00  0.00     0.016 A 
ATOM     14  C   UNL A   1      46.273  22.801  25.909  1.00  0.00     0.010 A 
ATOM     15  C   UNL A   1      44.971  23.358  23.921  1.00  0.00     0.010 A 
ATOM     16  C   UNL A   1      45.766  23.735  25.019  1.00  0.00    -0.014 A 
BRANCH  16  17
ATOM     17  C   UNL A   1      45.773  25.115  25.501  1.00  0.00     0.031 A 
ATOM     18  C   UNL A   1      47.068  25.857  25.388  1.00  0.00     0.074 A 
ATOM     19  C   UNL A   1      44.625  25.712  25.843  1.00  0.00     0.049 A 
ATOM     20  N   UNL A   1      47.415  27.001  25.901  1.00  0.00    -0.248 NA
ATOM     21  C   UNL A   1      48.122  25.215  24.576  1.00  0.00     0.031 C 
ATOM     22  C   UNL A   1      43.294  25.111  25.732  1.00  0.00     0.029 A 
ATOM     23  N   UNL A   1      44.401  26.957  26.348  1.00  0.00    -0.354 N 
ATOM     24  C   UNL A   1      48.744  27.178  25.537  1.00  0.00     0.074 A 
ATOM     25  C   UNL A   1      49.136  26.046  24.735  1.00  0.00     0.031 C 
ATOM     26  C   UNL A   1      42.389  25.984  26.202  1.00  0.00     0.029 A 
ATOM     27  C   UNL A   1      43.096  27.149  26.721  1.00  0.00     0.049 A 
ATOM     28  H   UNL A   1      45.100  27.645  26.436  1.00  0.00     0.167 HD
ATOM     29  C   UNL A   1      49.564  28.191  25.895  1.00  0.00     0.031 A 
ATOM     30  C   UNL A   1      42.573  28.122  27.483  1.00  0.00     0.031 A 
ATOM     31  C   UNL A   1      49.108  29.273  26.720  1.00  0.00     0.049 A 
ATOM     32  C   UNL A   1      43.518  29.174  27.994  1.00  0.00     0.074 A 
ATOM     33  C   UNL A   1      49.818  30.331  27.246  1.00  0.00     0.029 A 
ATOM     34  N   UNL A   1      47.789  29.413  27.141  1.00  0.00    -0.354 N 
ATOM     35  N   UNL A   1      44.808  29.299  27.770  1.00  0.00    -0.248 NA
ATOM     36  C   UNL A   1      42.954  30.203  28.871  1.00  0.00     0.031 C 
ATOM     37  C   UNL A   1      48.938  31.078  28.038  1.00  0.00     0.029 A 
ATOM     38  C   UNL A   1      47.665  30.527  27.943  1.00  0.00     0.049 A 
ATOM     39  H   UNL A   1      47.052  28.806  26.902  1.00  0.00     0.167 HD
ATOM     40  C   UNL A   1      45.209  30.435  28.455  1.00  0.00     0.074 A 
ATOM     41  C   UNL A   1      44.019  30.961  29.102  1.00  0.00     0.031 C 
ATOM     42  C   UNL A   1      46.440  31.000  28.545  1.00  0.00     0.031 A 
BRANCH  29  43
ATOM     43  C   UNL A   1      51.013  28.055  25.520  1.00  0.00    -0.014 A 
ATOM     44  C   UNL A   1      51.978  27.559  26.412  1.00  0.00     0.009 A 
ATOM     45  C   UNL A   1      51.437  28.540  24.272  1.00  0.00     0.009 A 
ATOM     46  C   UNL A   1      53.337  27.611  26.087  1.00  0.00     0.001 A 
ATOM     47  C   UNL A   1      52.792  28.561  23.937  1.00  0.00     0.001 A 
ATOM     48  C   UNL A   1      53.743  28.113  24.852  1.00  0.00     0.000 A 
ENDBRANCH  29  43
BRANCH  30  49
ATOM     49  C   UNL A   1      41.140  28.059  27.869  1.00  0.00    -0.014 A 
ATOM     50  C   UNL A   1      40.723  27.319  28.981  1.00  0.00     0.009 A 
ATOM     51  C   UNL A   1      40.183  28.806  27.156  1.00  0.00     0.009 A 
ATOM     52  C   UNL A   1      39.378  27.323  29.369  1.00  0.00     0.001 A 
ATOM     53  C   UNL A   1      38.848  28.832  27.562  1.00  0.00     0.001 A 
ATOM     54  C   UNL A   1      38.445  28.086  28.667  1.00  0.00     0.000 A 
ENDBRANCH  30  49
BRANCH  42  55
ATOM     55  C   UNL A   1      46.542  32.281  29.316  1.00  0.00    -0.014 A 
ATOM     56  C   UNL A   1      46.514  33.525  28.670  1.00  0.00     0.009 A 
ATOM     57  C   UNL A   1      46.548  32.229  30.718  1.00  0.00     0.009 A 
ATOM     58  C   UNL A   1      46.501  34.699  29.422  1.00  0.00     0.001 A 
ATOM     59  C   UNL A   1      46.504  33.402  31.466  1.00  0.00     0.001 A 
ATOM     60  C   UNL A   1      46.484  34.636  30.817  1.00  0.00     0.000 A 
ENDBRANCH  42  55
ENDBRANCH  16  17
ENDBRANCH   9  11
ENDBRANCH   8   9
ENDBRANCH   7   8
ENDBRANCH   6   7
ENDBRANCH   5   6
ENDBRANCH   4   5
ENDBRANCH   3   4
ENDBRANCH   2   3
ENDBRANCH   1   2
BRANCH   1  61
ATOM     61  C   UNL A   1      36.240  23.966  25.324  1.00  0.00     0.188 C 
BRANCH  61  62
ATOM     62  O   UNL A   1      35.035  23.238  25.517  1.00  0.00    -0.376 OA
BRANCH  62  63
ATOM     63  C   UNL A   1      33.937  23.993  26.007  1.00  0.00     0.202 C 
BRANCH  63  64
ATOM     64  C   UNL A   1      33.065  24.651  24.923  1.00  0.00     0.261 C 
BRANCH  64  65
ATOM     65  O   UNL A   1      33.661  25.526  23.922  1.00  0.00    -0.459 OA
BRANCH  65  66
ATOM     66  C   UNL A   1      32.950  26.590  23.450  1.00  0.00     0.370 C 
ATOM     67  O   UNL A   1      33.112  27.039  22.314  1.00  0.00    -0.245 OA
BRANCH  66  68
ATOM     68  C   UNL A   1      32.079  27.324  24.535  1.00  0.00     0.328 C 
BRANCH  68  69
ATOM     69  N   UNL A   1      32.610  28.729  24.815  1.00  0.00    -0.310 N 
ATOM     70  C   UNL A   1      31.858  29.659  25.736  1.00  0.00     0.325 C 
ATOM     71  C   UNL A   1      33.901  28.644  25.471  1.00  0.00     0.325 C 
ATOM     72  H   UNL A   1      32.563  29.117  23.874  1.00  0.00     0.349 HD
ATOM     73  C   UNL A   1      32.726  30.352  27.044  1.00  0.00     0.325 C 
ATOM     74  C   UNL A   1      33.709  28.301  26.979  1.00  0.00     0.325 C 
ATOM     75  N   UNL A   1      33.764  29.504  27.715  1.00  0.00    -0.318 N 
ATOM     76  H   UNL A   1      33.481  29.604  28.689  1.00  0.00     0.348 HD
BRANCH  75  77
ATOM     77  C   UNL A   1      35.200  29.806  27.961  1.00  0.00     0.364 C 
BRANCH  77  78
ATOM     78  C   UNL A   1      35.650  30.565  29.270  1.00  0.00     0.277 C 
ATOM     79  O   UNL A   1      36.319  29.900  30.078  1.00  0.00    -0.268 OA
ATOM     80  N   UNL A   1      35.371  31.931  29.578  1.00  0.00    -0.333 N 
ATOM     81  C   UNL A   1      34.350  32.839  28.989  1.00  0.00     0.148 C 
ATOM     82  C   UNL A   1      35.834  32.352  30.911  1.00  0.00     0.148 C 
ATOM     83  C   UNL A   1      34.249  34.292  29.500  1.00  0.00     0.181 C 
ATOM     84  C   UNL A   1      35.839  33.864  31.135  1.00  0.00     0.181 C 
ATOM     85  O   UNL A   1      34.538  34.400  30.895  1.00  0.00    -0.378 OA
ENDBRANCH  77  78
ENDBRANCH  75  77
ENDBRANCH  68  69
BRANCH  68  86
ATOM     86  C   UNL A   1      30.597  27.389  23.930  1.00  0.00     0.046 A 
ATOM     87  C   UNL A   1      29.510  26.582  24.266  1.00  0.00     0.094 A 
ATOM     88  C   UNL A   1      30.008  28.405  23.050  1.00  0.00     0.009 A 
ATOM     89  N   UNL A   1      28.348  27.111  23.789  1.00  0.00    -0.361 N 
ATOM     90  C   UNL A   1      28.617  28.208  23.026  1.00  0.00     0.049 A 
ATOM     91  C   UNL A   1      30.495  29.514  22.316  1.00  0.00     0.014 A 
ATOM     92  H   UNL A   1      27.448  26.753  23.968  1.00  0.00     0.166 HD
ATOM     93  C   UNL A   1      27.709  29.024  22.343  1.00  0.00     0.065 A 
ATOM     94  C   UNL A   1      29.598  30.331  21.595  1.00  0.00     0.040 A 
ATOM     95  C   UNL A   1      28.233  30.082  21.619  1.00  0.00     0.125 A 
ATOM     96  F   UNL A   1      27.399  30.876  20.935  1.00  0.00    -0.207 F 
ENDBRANCH  68  86
ENDBRANCH  66  68
ENDBRANCH  65  66
ENDBRANCH  64  65
ENDBRANCH  63  64
ENDBRANCH  62  63
ENDBRANCH  61  62
ENDBRANCH   1  61
TORSDOF 24
ENDMDL
MODEL 3
REMARK VINA RESULT:     -10.5      4.169     10.497
REMARK SMILES O=C(OCCOCCOCCOCCOC(=O)[C@H](c1c[nH]c2cc(F)ccc12)[NH+]1CC[NH+](CC(=O)N2CCOCC2)CC1)c1ccc(-c2c3nc(c(-c4ccccc4)c4ccc([nH]4)c(-c4ccccc4)c4nc(c(-c5ccccc5)c5ccc2[nH]5)C=C4)C=C3)cc1
REMARK SMILES IDX 10 1 9 2 8 3 7 4 6 5 5 6 4 7 3 8 2 9 1 10 44 11 45 12 91 13
REMARK SMILES IDX 46 14 90 15 47 16 48 17 49 18 84 19 50 20 89 21 83 22 85 23
REMARK SMILES IDX 51 24 88 25 82 26 81 27 52 29 74 30 59 31 73 32 60 33 63 34
REMARK SMILES IDX 72 35 86 36 61 37 62 38 71 40 87 41 64 42 53 43 54 44 58 45
REMARK SMILES IDX 55 46 57 47 56 48 75 49 76 50 80 51 77 52 79 53 78 54 65 55
REMARK SMILES IDX 66 56 70 57 67 58 69 59 68 60 11 61 12 62 13 63 14 64 15 65
REMARK SMILES IDX 16 66 17 67 18 68 29 69 30 70 43 71 31 73 42 74 32 75 33 77
REMARK SMILES IDX 34 78 35 79 36 80 37 81 41 82 38 83 40 84 39 85 19 86 20 87
REMARK SMILES IDX 28 88 21 89 22 90 27 91 23 93 26 94 24 95 25 96
REMARK H PARENT 85 28 63 39 29 72 32 76 21 92
REMARK Flexibility Score: inf
ROOT
ATOM      1  C   UNL A   1      32.905  33.341  27.454  1.00  0.00     0.188 C 
ENDROOT
BRANCH   1   2
ATOM      2  O   UNL A   1      32.794  34.017  28.706  1.00  0.00    -0.377 OA
BRANCH   2   3
ATOM      3  C   UNL A   1      33.961  34.639  29.231  1.00  0.00     0.188 C 
BRANCH   3   4
ATOM      4  C   UNL A   1      34.813  33.749  30.120  1.00  0.00     0.188 C 
BRANCH   4   5
ATOM      5  O   UNL A   1      35.230  34.439  31.286  1.00  0.00    -0.376 OA
BRANCH   5   6
ATOM      6  C   UNL A   1      34.532  34.180  32.504  1.00  0.00     0.202 C 
BRANCH   6   7
ATOM      7  C   UNL A   1      35.435  34.246  33.722  1.00  0.00     0.261 C 
BRANCH   7   8
ATOM      8  O   UNL A   1      36.702  33.680  33.369  1.00  0.00    -0.460 OA
BRANCH   8   9
ATOM      9  C   UNL A   1      37.009  32.542  34.038  1.00  0.00     0.338 C 
ATOM     10  O   UNL A   1      36.898  32.339  35.239  1.00  0.00    -0.246 OA
BRANCH   9  11
ATOM     11  C   UNL A   1      37.578  31.595  33.062  1.00  0.00     0.060 A 
ATOM     12  C   UNL A   1      38.152  30.397  33.517  1.00  0.00     0.016 A 
ATOM     13  C   UNL A   1      37.594  31.921  31.711  1.00  0.00     0.016 A 
ATOM     14  C   UNL A   1      38.819  29.558  32.663  1.00  0.00     0.010 A 
ATOM     15  C   UNL A   1      38.330  31.115  30.847  1.00  0.00     0.010 A 
ATOM     16  C   UNL A   1      38.988  29.978  31.352  1.00  0.00    -0.014 A 
BRANCH  16  17
ATOM     17  C   UNL A   1      40.157  29.424  30.671  1.00  0.00     0.031 A 
ATOM     18  C   UNL A   1      41.441  30.179  30.824  1.00  0.00     0.074 A 
ATOM     19  C   UNL A   1      40.093  28.212  30.107  1.00  0.00     0.049 A 
ATOM     20  N   UNL A   1      42.567  30.035  30.189  1.00  0.00    -0.248 NA
ATOM     21  C   UNL A   1      41.455  31.247  31.844  1.00  0.00     0.031 C 
ATOM     22  C   UNL A   1      38.932  27.321  30.148  1.00  0.00     0.029 A 
ATOM     23  N   UNL A   1      41.031  27.525  29.397  1.00  0.00    -0.354 N 
ATOM     24  C   UNL A   1      43.394  31.039  30.678  1.00  0.00     0.074 A 
ATOM     25  C   UNL A   1      42.659  31.765  31.683  1.00  0.00     0.031 C 
ATOM     26  C   UNL A   1      39.217  26.213  29.446  1.00  0.00     0.029 A 
ATOM     27  C   UNL A   1      40.536  26.372  28.845  1.00  0.00     0.049 A 
ATOM     28  H   UNL A   1      41.962  27.825  29.290  1.00  0.00     0.167 HD
ATOM     29  C   UNL A   1      44.647  31.339  30.271  1.00  0.00     0.031 A 
ATOM     30  C   UNL A   1      41.072  25.599  27.887  1.00  0.00     0.031 A 
ATOM     31  C   UNL A   1      45.306  30.585  29.243  1.00  0.00     0.049 A 
ATOM     32  C   UNL A   1      42.408  26.016  27.339  1.00  0.00     0.074 A 
ATOM     33  C   UNL A   1      46.533  30.798  28.651  1.00  0.00     0.029 A 
ATOM     34  N   UNL A   1      44.755  29.452  28.651  1.00  0.00    -0.354 N 
ATOM     35  N   UNL A   1      43.161  27.036  27.694  1.00  0.00    -0.248 NA
ATOM     36  C   UNL A   1      42.965  25.203  26.256  1.00  0.00     0.031 C 
ATOM     37  C   UNL A   1      46.696  29.827  27.656  1.00  0.00     0.029 A 
ATOM     38  C   UNL A   1      45.605  28.966  27.681  1.00  0.00     0.049 A 
ATOM     39  H   UNL A   1      43.887  29.055  28.889  1.00  0.00     0.167 HD
ATOM     40  C   UNL A   1      44.293  26.974  26.898  1.00  0.00     0.074 A 
ATOM     41  C   UNL A   1      44.124  25.812  26.042  1.00  0.00     0.031 C 
ATOM     42  C   UNL A   1      45.376  27.791  26.872  1.00  0.00     0.031 A 
BRANCH  29  43
ATOM     43  C   UNL A   1      45.261  32.590  30.833  1.00  0.00    -0.014 A 
ATOM     44  C   UNL A   1      45.152  33.835  30.191  1.00  0.00     0.009 A 
ATOM     45  C   UNL A   1      46.061  32.494  31.983  1.00  0.00     0.009 A 
ATOM     46  C   UNL A   1      45.881  34.936  30.653  1.00  0.00     0.001 A 
ATOM     47  C   UNL A   1      46.762  33.602  32.460  1.00  0.00     0.001 A 
ATOM     48  C   UNL A   1      46.686  34.819  31.785  1.00  0.00     0.000 A 
ENDBRANCH  29  43
BRANCH  30  49
ATOM     49  C   UNL A   1      40.292  24.457  27.347  1.00  0.00    -0.014 A 
ATOM     50  C   UNL A   1      39.207  24.665  26.486  1.00  0.00     0.009 A 
ATOM     51  C   UNL A   1      40.679  23.136  27.640  1.00  0.00     0.009 A 
ATOM     52  C   UNL A   1      38.525  23.575  25.935  1.00  0.00     0.001 A 
ATOM     53  C   UNL A   1      40.015  22.051  27.065  1.00  0.00     0.001 A 
ATOM     54  C   UNL A   1      38.934  22.271  26.216  1.00  0.00     0.000 A 
ENDBRANCH  30  49
BRANCH  42  55
ATOM     55  C   UNL A   1      46.483  27.418  25.933  1.00  0.00    -0.014 A 
ATOM     56  C   UNL A   1      47.423  26.434  26.270  1.00  0.00     0.009 A 
ATOM     57  C   UNL A   1      46.504  27.985  24.650  1.00  0.00     0.009 A 
ATOM     58  C   UNL A   1      48.374  26.031  25.332  1.00  0.00     0.001 A 
ATOM     59  C   UNL A   1      47.435  27.559  23.707  1.00  0.00     0.001 A 
ATOM     60  C   UNL A   1      48.371  26.585  24.051  1.00  0.00     0.000 A 
ENDBRANCH  42  55
ENDBRANCH  16  17
ENDBRANCH   9  11
ENDBRANCH   8   9
ENDBRANCH   7   8
ENDBRANCH   6   7
ENDBRANCH   5   6
ENDBRANCH   4   5
ENDBRANCH   3   4
ENDBRANCH   2   3
ENDBRANCH   1   2
BRANCH   1  61
ATOM     61  C   UNL A   1      33.203  31.827  27.358  1.00  0.00     0.188 C 
BRANCH  61  62
ATOM     62  O   UNL A   1      32.099  30.942  27.493  1.00  0.00    -0.376 OA
BRANCH  62  63
ATOM     63  C   UNL A   1      31.908  30.035  26.417  1.00  0.00     0.202 C 
BRANCH  63  64
ATOM     64  C   UNL A   1      31.731  28.563  26.831  1.00  0.00     0.261 C 
BRANCH  64  65
ATOM     65  O   UNL A   1      31.242  27.578  25.875  1.00  0.00    -0.459 OA
BRANCH  65  66
ATOM     66  C   UNL A   1      32.064  27.140  24.879  1.00  0.00     0.370 C 
ATOM     67  O   UNL A   1      33.188  27.610  24.698  1.00  0.00    -0.245 OA
BRANCH  66  68
ATOM     68  C   UNL A   1      31.383  26.155  23.859  1.00  0.00     0.328 C 
BRANCH  68  69
ATOM     69  N   UNL A   1      31.220  24.759  24.460  1.00  0.00    -0.310 N 
ATOM     70  C   UNL A   1      30.916  23.578  23.573  1.00  0.00     0.325 C 
ATOM     71  C   UNL A   1      32.462  24.347  25.088  1.00  0.00     0.325 C 
ATOM     72  H   UNL A   1      30.404  24.925  25.050  1.00  0.00     0.349 HD
ATOM     73  C   UNL A   1      31.952  22.214  23.687  1.00  0.00     0.325 C 
ATOM     74  C   UNL A   1      33.474  23.876  24.000  1.00  0.00     0.325 C 
ATOM     75  N   UNL A   1      33.410  22.468  23.920  1.00  0.00    -0.318 N 
ATOM     76  H   UNL A   1      33.817  21.909  23.170  1.00  0.00     0.348 HD
BRANCH  75  77
ATOM     77  C   UNL A   1      34.294  21.924  24.987  1.00  0.00     0.364 C 
BRANCH  77  78
ATOM     78  C   UNL A   1      34.982  20.514  24.820  1.00  0.00     0.277 C 
ATOM     79  O   UNL A   1      36.219  20.525  24.703  1.00  0.00    -0.268 OA
ATOM     80  N   UNL A   1      34.309  19.254  24.816  1.00  0.00    -0.333 N 
ATOM     81  C   UNL A   1      32.865  18.959  24.604  1.00  0.00     0.148 C 
ATOM     82  C   UNL A   1      35.190  18.104  24.550  1.00  0.00     0.148 C 
ATOM     83  C   UNL A   1      32.381  17.495  24.650  1.00  0.00     0.181 C 
ATOM     84  C   UNL A   1      34.567  16.742  24.856  1.00  0.00     0.181 C 
ATOM     85  O   UNL A   1      33.350  16.584  24.126  1.00  0.00    -0.378 OA
ENDBRANCH  77  78
ENDBRANCH  75  77
ENDBRANCH  68  69
BRANCH  68  86
ATOM     86  C   UNL A   1      29.954  26.797  23.525  1.00  0.00     0.046 A 
ATOM     87  C   UNL A   1      28.702  26.324  23.917  1.00  0.00     0.094 A 
ATOM     88  C   UNL A   1      29.651  28.096  22.914  1.00  0.00     0.009 A 
ATOM     89  N   UNL A   1      27.743  27.272  23.722  1.00  0.00    -0.361 N 
ATOM     90  C   UNL A   1      28.282  28.354  23.093  1.00  0.00     0.049 A 
ATOM     91  C   UNL A   1      30.401  29.116  22.279  1.00  0.00     0.014 A 
ATOM     92  H   UNL A   1      26.800  27.187  23.994  1.00  0.00     0.166 HD
ATOM     93  C   UNL A   1      27.635  29.530  22.698  1.00  0.00     0.065 A 
ATOM     94  C   UNL A   1      29.761  30.296  21.845  1.00  0.00     0.040 A 
ATOM     95  C   UNL A   1      28.403  30.488  22.059  1.00  0.00     0.125 A 
ATOM     96  F   UNL A   1      27.818  31.621  21.647  1.00  0.00    -0.207 F 
ENDBRANCH  68  86
ENDBRANCH  66  68
ENDBRANCH  65  66
ENDBRANCH  64  65
ENDBRANCH  63  64
ENDBRANCH  62  63
ENDBRANCH  61  62
ENDBRANCH   1  61
TORSDOF 24
ENDMDL
