MODEL 1
REMARK VINA RESULT:     -12.7      0.000      0.000
REMARK SMILES O=C(Cn1c(SCCOc2ccccc2Cl)nc2ccccc21)OCCOCCOCCOCCOC(=O)c1ccc(-c2c3nc(c(-c4ccccc4)c4ccc([nH]4)c(-c4ccccc4)c4nc(c(-c5ccccc5)c5ccc2[nH]5)C=C4)C=C3)cc1
REMARK SMILES IDX 28 1 27 2 26 3 25 4 24 5 2 6 1 7 3 8 4 9 5 10 23 11 17 12
REMARK SMILES IDX 18 13 22 14 19 15 21 16 20 17 6 18 7 19 8 20 9 21 10 22
REMARK SMILES IDX 11 23 15 24 12 25 14 26 16 27 13 28 29 29 30 30 31 31 32 32
REMARK SMILES IDX 33 33 34 34 35 35 36 36 37 37 38 38 39 39 40 40 86 41 41 42
REMARK SMILES IDX 85 43 42 44 43 45 44 46 79 47 45 48 84 49 78 50 80 51 46 52
REMARK SMILES IDX 83 53 77 54 76 55 47 57 69 58 54 59 68 60 55 61 58 62 67 63
REMARK SMILES IDX 81 64 56 65 57 66 66 68 82 69 59 70 48 71 49 72 53 73 50 74
REMARK SMILES IDX 52 75 51 76 70 77 71 78 75 79 72 80 74 81 73 82 60 83 61 84
REMARK SMILES IDX 65 85 62 86 64 87 63 88
REMARK H PARENT 80 56 58 67
REMARK Flexibility Score: inf
ROOT
ATOM      1  C   UNL A   1      37.685  23.245  25.136  1.00  0.00     0.188 C 
ENDROOT
BRANCH   1   2
ATOM      2  O   UNL A   1      36.772  23.997  25.933  1.00  0.00    -0.376 OA
BRANCH   2   3
ATOM      3  C   UNL A   1      35.321  23.639  26.203  1.00  0.00     0.202 C 
BRANCH   3   4
ATOM      4  C   UNL A   1      34.710  21.667  26.891  1.00  0.00     0.261 C 
BRANCH   4   5
ATOM      5  O   UNL A   1      34.166  20.796  25.249  1.00  0.00    -0.462 OA
BRANCH   5   6
ATOM      6  C   UNL A   1      32.449  20.813  24.921  1.00  0.00     0.326 C 
ATOM      7  O   UNL A   1      31.873  19.734  24.786  1.00  0.00    -0.250 OA
BRANCH   6   8
ATOM      8  C   UNL A   1      31.625  22.556  24.703  1.00  0.00     0.247 C 
BRANCH   8   9
ATOM      9  N   UNL A   1      32.443  24.167  24.548  1.00  0.00    -0.308 N 
ATOM     10  C   UNL A   1      32.330  25.672  25.065  1.00  0.00     0.169 A 
ATOM     11  C   UNL A   1      32.987  24.375  23.249  1.00  0.00     0.069 A 
ATOM     12  N   UNL A   1      32.772  26.489  24.129  1.00  0.00    -0.222 NA
ATOM     13  C   UNL A   1      32.896  25.742  23.001  1.00  0.00     0.090 A 
ATOM     14  C   UNL A   1      33.253  23.461  22.226  1.00  0.00     0.028 A 
ATOM     15  C   UNL A   1      32.784  26.199  21.680  1.00  0.00     0.030 A 
ATOM     16  C   UNL A   1      33.087  23.925  20.918  1.00  0.00     0.002 A 
ATOM     17  C   UNL A   1      32.796  25.260  20.649  1.00  0.00     0.002 A 
BRANCH  10  18
ATOM     18  S   UNL A   1      31.507  26.879  26.626  1.00  0.00    -0.084 SA
BRANCH  18  19
ATOM     19  C   UNL A   1      32.932  28.589  27.264  1.00  0.00     0.119 C 
BRANCH  19  20
ATOM     20  C   UNL A   1      32.381  30.385  26.526  1.00  0.00     0.241 C 
BRANCH  20  21
ATOM     21  O   UNL A   1      31.608  29.858  24.728  1.00  0.00    -0.491 OA
BRANCH  21  22
ATOM     22  C   UNL A   1      30.023  30.031  23.981  1.00  0.00     0.137 A 
ATOM     23  C   UNL A   1      29.360  31.308  24.007  1.00  0.00     0.048 A 
ATOM     24  C   UNL A   1      29.357  29.014  23.206  1.00  0.00     0.083 A 
ATOM     25  C   UNL A   1      28.083  31.526  23.495  1.00  0.00     0.004 A 
ATOM     26  C   UNL A   1      28.108  29.313  22.614  1.00  0.00     0.024 A 
ATOM     27  Cl  UNL A   1      29.756  27.363  22.837  1.00  0.00    -0.080 Cl
ATOM     28  C   UNL A   1      27.460  30.529  22.787  1.00  0.00     0.002 A 
ENDBRANCH  21  22
ENDBRANCH  20  21
ENDBRANCH  19  20
ENDBRANCH  18  19
ENDBRANCH  10  18
ENDBRANCH   8   9
ENDBRANCH   6   8
ENDBRANCH   5   6
ENDBRANCH   4   5
ENDBRANCH   3   4
ENDBRANCH   2   3
ENDBRANCH   1   2
BRANCH   1  29
ATOM     29  C   UNL A   1      38.088  21.912  25.779  1.00  0.00     0.188 C 
BRANCH  29  30
ATOM     30  O   UNL A   1      37.877  20.750  25.010  1.00  0.00    -0.377 OA
BRANCH  30  31
ATOM     31  C   UNL A   1      38.605  19.588  25.294  1.00  0.00     0.188 C 
BRANCH  31  32
ATOM     32  C   UNL A   1      40.047  19.733  25.877  1.00  0.00     0.188 C 
BRANCH  32  33
ATOM     33  O   UNL A   1      40.995  18.714  25.636  1.00  0.00    -0.376 OA
BRANCH  33  34
ATOM     34  C   UNL A   1      42.147  18.720  26.455  1.00  0.00     0.202 C 
BRANCH  34  35
ATOM     35  C   UNL A   1      43.191  19.877  26.303  1.00  0.00     0.261 C 
BRANCH  35  36
ATOM     36  O   UNL A   1      44.306  19.709  25.357  1.00  0.00    -0.460 OA
BRANCH  36  37
ATOM     37  C   UNL A   1      44.725  20.702  24.518  1.00  0.00     0.338 C 
ATOM     38  O   UNL A   1      44.944  20.535  23.329  1.00  0.00    -0.246 OA
BRANCH  37  39
ATOM     39  C   UNL A   1      44.561  22.119  25.131  1.00  0.00     0.060 A 
ATOM     40  C   UNL A   1      45.223  22.634  26.255  1.00  0.00     0.016 A 
ATOM     41  C   UNL A   1      43.487  22.894  24.645  1.00  0.00     0.016 A 
ATOM     42  C   UNL A   1      44.719  23.791  26.931  1.00  0.00     0.010 A 
ATOM     43  C   UNL A   1      42.984  24.045  25.319  1.00  0.00     0.010 A 
ATOM     44  C   UNL A   1      43.550  24.493  26.512  1.00  0.00    -0.014 A 
BRANCH  44  45
ATOM     45  C   UNL A   1      43.154  25.798  27.203  1.00  0.00     0.031 A 
ATOM     46  C   UNL A   1      44.207  26.801  26.955  1.00  0.00     0.074 A 
ATOM     47  C   UNL A   1      42.048  26.238  27.887  1.00  0.00     0.049 A 
ATOM     48  N   UNL A   1      45.085  27.223  27.797  1.00  0.00    -0.248 NA
ATOM     49  C   UNL A   1      44.440  27.199  25.558  1.00  0.00     0.031 C 
ATOM     50  C   UNL A   1      40.807  25.502  28.031  1.00  0.00     0.029 A 
ATOM     51  N   UNL A   1      41.744  27.388  28.631  1.00  0.00    -0.354 N 
ATOM     52  C   UNL A   1      45.826  28.155  27.084  1.00  0.00     0.074 A 
ATOM     53  C   UNL A   1      45.549  27.924  25.690  1.00  0.00     0.031 C 
ATOM     54  C   UNL A   1      39.841  26.224  28.635  1.00  0.00     0.029 A 
ATOM     55  C   UNL A   1      40.386  27.498  29.033  1.00  0.00     0.049 A 
ATOM     56  H   UNL A   1      42.421  28.066  28.856  1.00  0.00     0.167 HD
ATOM     57  C   UNL A   1      46.315  29.257  27.708  1.00  0.00     0.031 A 
ATOM     58  C   UNL A   1      39.683  28.446  29.734  1.00  0.00     0.031 A 
ATOM     59  C   UNL A   1      46.381  29.070  29.132  1.00  0.00     0.049 A 
ATOM     60  C   UNL A   1      40.647  29.334  30.405  1.00  0.00     0.074 A 
ATOM     61  C   UNL A   1      47.026  28.185  29.970  1.00  0.00     0.029 A 
ATOM     62  N   UNL A   1      45.383  29.658  29.864  1.00  0.00    -0.354 N 
ATOM     63  N   UNL A   1      41.381  28.986  31.422  1.00  0.00    -0.248 NA
ATOM     64  C   UNL A   1      41.152  30.404  29.571  1.00  0.00     0.031 C 
ATOM     65  C   UNL A   1      46.141  27.993  31.062  1.00  0.00     0.029 A 
ATOM     66  C   UNL A   1      45.048  28.849  30.909  1.00  0.00     0.049 A 
ATOM     67  H   UNL A   1      44.971  30.530  29.667  1.00  0.00     0.167 HD
ATOM     68  C   UNL A   1      42.643  29.452  31.084  1.00  0.00     0.074 A 
ATOM     69  C   UNL A   1      42.434  30.308  29.917  1.00  0.00     0.031 C 
ATOM     70  C   UNL A   1      43.771  28.880  31.587  1.00  0.00     0.031 A 
BRANCH  57  71
ATOM     71  C   UNL A   1      46.258  30.623  27.076  1.00  0.00    -0.014 A 
ATOM     72  C   UNL A   1      45.054  31.296  26.786  1.00  0.00     0.009 A 
ATOM     73  C   UNL A   1      47.436  31.386  27.014  1.00  0.00     0.009 A 
ATOM     74  C   UNL A   1      45.020  32.643  26.424  1.00  0.00     0.001 A 
ATOM     75  C   UNL A   1      47.402  32.748  26.696  1.00  0.00     0.001 A 
ATOM     76  C   UNL A   1      46.196  33.373  26.393  1.00  0.00     0.000 A 
ENDBRANCH  57  71
BRANCH  58  77
ATOM     77  C   UNL A   1      38.256  28.885  29.518  1.00  0.00    -0.014 A 
ATOM     78  C   UNL A   1      37.827  29.245  28.227  1.00  0.00     0.009 A 
ATOM     79  C   UNL A   1      37.396  29.241  30.583  1.00  0.00     0.009 A 
ATOM     80  C   UNL A   1      36.655  29.984  28.004  1.00  0.00     0.001 A 
ATOM     81  C   UNL A   1      36.217  29.984  30.361  1.00  0.00     0.001 A 
ATOM     82  C   UNL A   1      35.864  30.377  29.073  1.00  0.00     0.000 A 
ENDBRANCH  58  77
BRANCH  70  83
ATOM     83  C   UNL A   1      43.712  28.025  32.821  1.00  0.00    -0.014 A 
ATOM     84  C   UNL A   1      44.022  28.658  34.040  1.00  0.00     0.009 A 
ATOM     85  C   UNL A   1      43.728  26.630  32.766  1.00  0.00     0.009 A 
ATOM     86  C   UNL A   1      44.404  27.924  35.163  1.00  0.00     0.001 A 
ATOM     87  C   UNL A   1      44.122  25.909  33.895  1.00  0.00     0.001 A 
ATOM     88  C   UNL A   1      44.466  26.542  35.087  1.00  0.00     0.000 A 
ENDBRANCH  70  83
ENDBRANCH  44  45
ENDBRANCH  37  39
ENDBRANCH  36  37
ENDBRANCH  35  36
ENDBRANCH  34  35
ENDBRANCH  33  34
ENDBRANCH  32  33
ENDBRANCH  31  32
ENDBRANCH  30  31
ENDBRANCH  29  30
ENDBRANCH   1  29
TORSDOF 26
ENDMDL
MODEL 2
REMARK VINA RESULT:     -11.5      2.228      3.136
REMARK SMILES O=C(Cn1c(SCCOc2ccccc2Cl)nc2ccccc21)OCCOCCOCCOCCOC(=O)c1ccc(-c2c3nc(c(-c4ccccc4)c4ccc([nH]4)c(-c4ccccc4)c4nc(c(-c5ccccc5)c5ccc2[nH]5)C=C4)C=C3)cc1
REMARK SMILES IDX 28 1 27 2 26 3 25 4 24 5 2 6 1 7 3 8 4 9 5 10 23 11 17 12
REMARK SMILES IDX 18 13 22 14 19 15 21 16 20 17 6 18 7 19 8 20 9 21 10 22
REMARK SMILES IDX 11 23 15 24 12 25 14 26 16 27 13 28 29 29 30 30 31 31 32 32
REMARK SMILES IDX 33 33 34 34 35 35 36 36 37 37 38 38 39 39 40 40 86 41 41 42
REMARK SMILES IDX 85 43 42 44 43 45 44 46 79 47 45 48 84 49 78 50 80 51 46 52
REMARK SMILES IDX 83 53 77 54 76 55 47 57 69 58 54 59 68 60 55 61 58 62 67 63
REMARK SMILES IDX 81 64 56 65 57 66 66 68 82 69 59 70 48 71 49 72 53 73 50 74
REMARK SMILES IDX 52 75 51 76 70 77 71 78 75 79 72 80 74 81 73 82 60 83 61 84
REMARK SMILES IDX 65 85 62 86 64 87 63 88
REMARK H PARENT 80 56 58 67
REMARK Flexibility Score: inf
ROOT
ATOM      1  C   UNL A   1      37.470  23.720  25.288  1.00  0.00     0.188 C 
ENDROOT
BRANCH   1   2
ATOM      2  O   UNL A   1      36.156  23.785  25.841  1.00  0.00    -0.376 OA
BRANCH   2   3
ATOM      3  C   UNL A   1      35.280  22.597  26.201  1.00  0.00     0.202 C 
BRANCH   3   4
ATOM      4  C   UNL A   1      35.392  20.698  25.143  1.00  0.00     0.261 C 
BRANCH   4   5
ATOM      5  O   UNL A   1      33.849  20.774  23.975  1.00  0.00    -0.462 OA
BRANCH   5   6
ATOM      6  C   UNL A   1      32.308  20.979  24.775  1.00  0.00     0.326 C 
ATOM      7  O   UNL A   1      31.762  19.982  25.247  1.00  0.00    -0.250 OA
BRANCH   6   8
ATOM      8  C   UNL A   1      31.553  22.766  24.757  1.00  0.00     0.247 C 
BRANCH   8   9
ATOM      9  N   UNL A   1      32.431  24.349  24.646  1.00  0.00    -0.308 N 
ATOM     10  C   UNL A   1      32.380  25.840  25.211  1.00  0.00     0.169 A 
ATOM     11  C   UNL A   1      32.973  24.578  23.349  1.00  0.00     0.069 A 
ATOM     12  N   UNL A   1      32.846  26.669  24.297  1.00  0.00    -0.222 NA
ATOM     13  C   UNL A   1      32.932  25.954  23.144  1.00  0.00     0.090 A 
ATOM     14  C   UNL A   1      33.195  23.687  22.295  1.00  0.00     0.028 A 
ATOM     15  C   UNL A   1      32.827  26.456  21.840  1.00  0.00     0.030 A 
ATOM     16  C   UNL A   1      33.038  24.198  21.005  1.00  0.00     0.002 A 
ATOM     17  C   UNL A   1      32.795  25.551  20.780  1.00  0.00     0.002 A 
BRANCH  10  18
ATOM     18  S   UNL A   1      31.616  27.027  26.816  1.00  0.00    -0.084 SA
BRANCH  18  19
ATOM     19  C   UNL A   1      32.966  28.848  27.287  1.00  0.00     0.119 C 
BRANCH  19  20
ATOM     20  C   UNL A   1      32.206  30.587  26.598  1.00  0.00     0.241 C 
BRANCH  20  21
ATOM     21  O   UNL A   1      31.497  30.022  24.786  1.00  0.00    -0.491 OA
BRANCH  21  22
ATOM     22  C   UNL A   1      29.924  30.124  24.002  1.00  0.00     0.137 A 
ATOM     23  C   UNL A   1      29.267  31.400  23.889  1.00  0.00     0.048 A 
ATOM     24  C   UNL A   1      29.262  29.036  23.326  1.00  0.00     0.083 A 
ATOM     25  C   UNL A   1      27.998  31.570  23.339  1.00  0.00     0.004 A 
ATOM     26  C   UNL A   1      28.023  29.278  22.690  1.00  0.00     0.024 A 
ATOM     27  Cl  UNL A   1      29.658  27.354  23.133  1.00  0.00    -0.080 Cl
ATOM     28  C   UNL A   1      27.380  30.508  22.728  1.00  0.00     0.002 A 
ENDBRANCH  21  22
ENDBRANCH  20  21
ENDBRANCH  19  20
ENDBRANCH  18  19
ENDBRANCH  10  18
ENDBRANCH   8   9
ENDBRANCH   6   8
ENDBRANCH   5   6
ENDBRANCH   4   5
ENDBRANCH   3   4
ENDBRANCH   2   3
ENDBRANCH   1   2
BRANCH   1  29
ATOM     29  C   UNL A   1      38.508  23.157  26.267  1.00  0.00     0.188 C 
BRANCH  29  30
ATOM     30  O   UNL A   1      39.239  22.033  25.835  1.00  0.00    -0.377 OA
BRANCH  30  31
ATOM     31  C   UNL A   1      40.129  21.404  26.714  1.00  0.00     0.188 C 
BRANCH  31  32
ATOM     32  C   UNL A   1      41.507  22.085  26.995  1.00  0.00     0.188 C 
BRANCH  32  33
ATOM     33  O   UNL A   1      42.536  21.334  27.605  1.00  0.00    -0.376 OA
BRANCH  33  34
ATOM     34  C   UNL A   1      43.498  22.066  28.339  1.00  0.00     0.202 C 
BRANCH  34  35
ATOM     35  C   UNL A   1      44.024  23.427  27.771  1.00  0.00     0.261 C 
BRANCH  35  36
ATOM     36  O   UNL A   1      44.880  23.414  26.573  1.00  0.00    -0.460 OA
BRANCH  36  37
ATOM     37  C   UNL A   1      44.815  24.375  25.604  1.00  0.00     0.338 C 
ATOM     38  O   UNL A   1      44.815  24.130  24.408  1.00  0.00    -0.246 OA
BRANCH  37  39
ATOM     39  C   UNL A   1      44.394  25.763  26.157  1.00  0.00     0.060 A 
ATOM     40  C   UNL A   1      44.986  26.464  27.218  1.00  0.00     0.016 A 
ATOM     41  C   UNL A   1      43.164  26.277  25.695  1.00  0.00     0.016 A 
ATOM     42  C   UNL A   1      44.287  27.534  27.865  1.00  0.00     0.010 A 
ATOM     43  C   UNL A   1      42.468  27.341  26.340  1.00  0.00     0.010 A 
ATOM     44  C   UNL A   1      42.983  27.962  27.477  1.00  0.00    -0.014 A 
BRANCH  44  45
ATOM     45  C   UNL A   1      42.361  29.198  28.126  1.00  0.00     0.031 A 
ATOM     46  C   UNL A   1      43.317  30.317  28.022  1.00  0.00     0.074 A 
ATOM     47  C   UNL A   1      41.137  29.496  28.672  1.00  0.00     0.049 A 
ATOM     48  N   UNL A   1      44.031  30.813  28.971  1.00  0.00    -0.248 NA
ATOM     49  C   UNL A   1      43.673  30.771  26.669  1.00  0.00     0.031 C 
ATOM     50  C   UNL A   1      39.978  28.625  28.653  1.00  0.00     0.029 A 
ATOM     51  N   UNL A   1      40.617  30.588  29.383  1.00  0.00    -0.354 N 
ATOM     52  C   UNL A   1      44.745  31.837  28.366  1.00  0.00     0.074 A 
ATOM     53  C   UNL A   1      44.669  31.610  26.945  1.00  0.00     0.031 C 
ATOM     54  C   UNL A   1      38.870  29.221  29.139  1.00  0.00     0.029 A 
ATOM     55  C   UNL A   1      39.216  30.538  29.614  1.00  0.00     0.049 A 
ATOM     56  H   UNL A   1      41.180  31.331  29.698  1.00  0.00     0.167 HD
ATOM     57  C   UNL A   1      45.027  32.971  29.056  1.00  0.00     0.031 A 
ATOM     58  C   UNL A   1      38.329  31.385  30.231  1.00  0.00     0.031 A 
ATOM     59  C   UNL A   1      44.938  32.760  30.475  1.00  0.00     0.049 A 
ATOM     60  C   UNL A   1      39.098  32.358  31.027  1.00  0.00     0.074 A 
ATOM     61  C   UNL A   1      45.570  31.931  31.378  1.00  0.00     0.029 A 
ATOM     62  N   UNL A   1      43.797  33.216  31.083  1.00  0.00    -0.354 N 
ATOM     63  N   UNL A   1      39.736  32.069  32.123  1.00  0.00    -0.248 NA
ATOM     64  C   UNL A   1      39.577  33.497  30.272  1.00  0.00     0.031 C 
ATOM     65  C   UNL A   1      44.585  31.617  32.350  1.00  0.00     0.029 A 
ATOM     66  C   UNL A   1      43.430  32.350  32.070  1.00  0.00     0.049 A 
ATOM     67  H   UNL A   1      43.318  34.042  30.845  1.00  0.00     0.167 HD
ATOM     68  C   UNL A   1      40.969  32.680  31.950  1.00  0.00     0.074 A 
ATOM     69  C   UNL A   1      40.810  33.535  30.775  1.00  0.00     0.031 C 
ATOM     70  C   UNL A   1      42.084  32.224  32.584  1.00  0.00     0.031 A 
BRANCH  57  71
ATOM     71  C   UNL A   1      44.895  34.338  28.436  1.00  0.00    -0.014 A 
ATOM     72  C   UNL A   1      45.994  35.177  28.163  1.00  0.00     0.009 A 
ATOM     73  C   UNL A   1      43.669  34.696  27.852  1.00  0.00     0.009 A 
ATOM     74  C   UNL A   1      45.879  36.326  27.380  1.00  0.00     0.001 A 
ATOM     75  C   UNL A   1      43.559  35.822  27.028  1.00  0.00     0.001 A 
ATOM     76  C   UNL A   1      44.661  36.641  26.800  1.00  0.00     0.000 A 
ENDBRANCH  57  71
BRANCH  58  77
ATOM     77  C   UNL A   1      36.899  31.669  29.843  1.00  0.00    -0.014 A 
ATOM     78  C   UNL A   1      36.595  32.019  28.514  1.00  0.00     0.009 A 
ATOM     79  C   UNL A   1      35.880  31.894  30.797  1.00  0.00     0.009 A 
ATOM     80  C   UNL A   1      35.384  32.629  28.157  1.00  0.00     0.001 A 
ATOM     81  C   UNL A   1      34.659  32.507  30.439  1.00  0.00     0.001 A 
ATOM     82  C   UNL A   1      34.426  32.899  29.123  1.00  0.00     0.000 A 
ENDBRANCH  58  77
BRANCH  70  83
ATOM     83  C   UNL A   1      41.971  31.339  33.792  1.00  0.00    -0.014 A 
ATOM     84  C   UNL A   1      41.689  29.979  33.552  1.00  0.00     0.009 A 
ATOM     85  C   UNL A   1      41.772  31.848  35.076  1.00  0.00     0.009 A 
ATOM     86  C   UNL A   1      41.160  29.161  34.549  1.00  0.00     0.001 A 
ATOM     87  C   UNL A   1      41.231  31.019  36.061  1.00  0.00     0.001 A 
ATOM     88  C   UNL A   1      40.919  29.686  35.808  1.00  0.00     0.000 A 
ENDBRANCH  70  83
ENDBRANCH  44  45
ENDBRANCH  37  39
ENDBRANCH  36  37
ENDBRANCH  35  36
ENDBRANCH  34  35
ENDBRANCH  33  34
ENDBRANCH  32  33
ENDBRANCH  31  32
ENDBRANCH  30  31
ENDBRANCH  29  30
ENDBRANCH   1  29
TORSDOF 26
ENDMDL
MODEL 3
REMARK VINA RESULT:     -10.9      3.062      7.766
REMARK SMILES O=C(Cn1c(SCCOc2ccccc2Cl)nc2ccccc21)OCCOCCOCCOCCOC(=O)c1ccc(-c2c3nc(c(-c4ccccc4)c4ccc([nH]4)c(-c4ccccc4)c4nc(c(-c5ccccc5)c5ccc2[nH]5)C=C4)C=C3)cc1
REMARK SMILES IDX 28 1 27 2 26 3 25 4 24 5 2 6 1 7 3 8 4 9 5 10 23 11 17 12
REMARK SMILES IDX 18 13 22 14 19 15 21 16 20 17 6 18 7 19 8 20 9 21 10 22
REMARK SMILES IDX 11 23 15 24 12 25 14 26 16 27 13 28 29 29 30 30 31 31 32 32
REMARK SMILES IDX 33 33 34 34 35 35 36 36 37 37 38 38 39 39 40 40 86 41 41 42
REMARK SMILES IDX 85 43 42 44 43 45 44 46 79 47 45 48 84 49 78 50 80 51 46 52
REMARK SMILES IDX 83 53 77 54 76 55 47 57 69 58 54 59 68 60 55 61 58 62 67 63
REMARK SMILES IDX 81 64 56 65 57 66 66 68 82 69 59 70 48 71 49 72 53 73 50 74
REMARK SMILES IDX 52 75 51 76 70 77 71 78 75 79 72 80 74 81 73 82 60 83 61 84
REMARK SMILES IDX 65 85 62 86 64 87 63 88
REMARK H PARENT 80 56 58 67
REMARK Flexibility Score: inf
ROOT
ATOM      1  C   UNL A   1      42.330  22.705  28.671  1.00  0.00     0.188 C 
ENDROOT
BRANCH   1   2
ATOM      2  O   UNL A   1      42.399  21.607  27.762  1.00  0.00    -0.376 OA
BRANCH   2   3
ATOM      3  C   UNL A   1      41.740  21.539  26.396  1.00  0.00     0.202 C 
BRANCH   3   4
ATOM      4  C   UNL A   1      39.580  21.462  26.140  1.00  0.00     0.261 C 
BRANCH   4   5
ATOM      5  O   UNL A   1      39.105  23.333  25.981  1.00  0.00    -0.462 OA
BRANCH   5   6
ATOM      6  C   UNL A   1      37.399  23.663  25.791  1.00  0.00     0.326 C 
ATOM      7  O   UNL A   1      36.757  23.991  26.788  1.00  0.00    -0.250 OA
BRANCH   6   8
ATOM      8  C   UNL A   1      36.652  23.383  24.022  1.00  0.00     0.247 C 
BRANCH   8   9
ATOM      9  N   UNL A   1      34.909  23.429  23.525  1.00  0.00    -0.308 N 
ATOM     10  C   UNL A   1      33.711  24.456  23.291  1.00  0.00     0.169 A 
ATOM     11  C   UNL A   1      34.189  22.283  23.966  1.00  0.00     0.069 A 
ATOM     12  N   UNL A   1      32.568  23.866  23.579  1.00  0.00    -0.222 NA
ATOM     13  C   UNL A   1      32.887  22.709  24.215  1.00  0.00     0.090 A 
ATOM     14  C   UNL A   1      34.655  21.047  24.424  1.00  0.00     0.028 A 
ATOM     15  C   UNL A   1      32.111  22.038  25.170  1.00  0.00     0.030 A 
ATOM     16  C   UNL A   1      33.891  20.420  25.411  1.00  0.00     0.002 A 
ATOM     17  C   UNL A   1      32.665  20.939  25.824  1.00  0.00     0.002 A 
BRANCH  10  18
ATOM     18  S   UNL A   1      33.285  26.515  22.906  1.00  0.00    -0.084 SA
BRANCH  18  19
ATOM     19  C   UNL A   1      31.154  26.833  22.058  1.00  0.00     0.119 C 
BRANCH  19  20
ATOM     20  C   UNL A   1      29.708  26.514  23.431  1.00  0.00     0.241 C 
BRANCH  20  21
ATOM     21  O   UNL A   1      30.741  26.743  25.159  1.00  0.00    -0.491 OA
BRANCH  21  22
ATOM     22  C   UNL A   1      31.730  28.036  25.831  1.00  0.00     0.137 A 
ATOM     23  C   UNL A   1      32.837  27.710  26.692  1.00  0.00     0.048 A 
ATOM     24  C   UNL A   1      31.612  29.431  25.490  1.00  0.00     0.083 A 
ATOM     25  C   UNL A   1      33.637  28.665  27.316  1.00  0.00     0.004 A 
ATOM     26  C   UNL A   1      32.514  30.355  26.067  1.00  0.00     0.024 A 
ATOM     27  Cl  UNL A   1      30.502  30.308  24.480  1.00  0.00    -0.080 Cl
ATOM     28  C   UNL A   1      33.482  29.990  26.994  1.00  0.00     0.002 A 
ENDBRANCH  21  22
ENDBRANCH  20  21
ENDBRANCH  19  20
ENDBRANCH  18  19
ENDBRANCH  10  18
ENDBRANCH   8   9
ENDBRANCH   6   8
ENDBRANCH   5   6
ENDBRANCH   4   5
ENDBRANCH   3   4
ENDBRANCH   2   3
ENDBRANCH   1   2
BRANCH   1  29
ATOM     29  C   UNL A   1      43.579  22.838  29.551  1.00  0.00     0.188 C 
BRANCH  29  30
ATOM     30  O   UNL A   1      43.393  23.391  30.833  1.00  0.00    -0.377 OA
BRANCH  30  31
ATOM     31  C   UNL A   1      44.461  23.422  31.738  1.00  0.00     0.188 C 
BRANCH  31  32
ATOM     32  C   UNL A   1      44.164  23.776  33.231  1.00  0.00     0.188 C 
BRANCH  32  33
ATOM     33  O   UNL A   1      44.877  23.110  34.252  1.00  0.00    -0.376 OA
BRANCH  33  34
ATOM     34  C   UNL A   1      44.332  23.190  35.554  1.00  0.00     0.202 C 
BRANCH  34  35
ATOM     35  C   UNL A   1      44.789  24.345  36.508  1.00  0.00     0.261 C 
BRANCH  35  36
ATOM     36  O   UNL A   1      43.851  24.835  37.531  1.00  0.00    -0.460 OA
BRANCH  36  37
ATOM     37  C   UNL A   1      43.490  26.148  37.640  1.00  0.00     0.338 C 
ATOM     38  O   UNL A   1      43.664  26.816  38.646  1.00  0.00    -0.246 OA
BRANCH  37  39
ATOM     39  C   UNL A   1      43.161  26.799  36.269  1.00  0.00     0.060 A 
ATOM     40  C   UNL A   1      42.223  26.354  35.327  1.00  0.00     0.016 A 
ATOM     41  C   UNL A   1      44.040  27.811  35.828  1.00  0.00     0.016 A 
ATOM     42  C   UNL A   1      42.280  26.810  33.970  1.00  0.00     0.010 A 
ATOM     43  C   UNL A   1      44.098  28.263  34.477  1.00  0.00     0.010 A 
ATOM     44  C   UNL A   1      43.258  27.734  33.498  1.00  0.00    -0.014 A 
BRANCH  44  45
ATOM     45  C   UNL A   1      43.170  28.276  32.072  1.00  0.00     0.031 A 
ATOM     46  C   UNL A   1      41.751  28.511  31.743  1.00  0.00     0.074 A 
ATOM     47  C   UNL A   1      44.083  28.655  31.118  1.00  0.00     0.049 A 
ATOM     48  N   UNL A   1      41.009  27.799  30.968  1.00  0.00    -0.248 NA
ATOM     49  C   UNL A   1      41.034  29.514  32.546  1.00  0.00     0.031 C 
ATOM     50  C   UNL A   1      45.516  28.738  31.319  1.00  0.00     0.029 A 
ATOM     51  N   UNL A   1      43.998  29.026  29.768  1.00  0.00    -0.354 N 
ATOM     52  C   UNL A   1      39.779  28.439  30.986  1.00  0.00     0.074 A 
ATOM     53  C   UNL A   1      39.785  29.316  32.129  1.00  0.00     0.031 C 
ATOM     54  C   UNL A   1      46.161  29.268  30.260  1.00  0.00     0.029 A 
ATOM     55  C   UNL A   1      45.209  29.511  29.204  1.00  0.00     0.049 A 
ATOM     56  H   UNL A   1      43.164  28.955  29.251  1.00  0.00     0.167 HD
ATOM     57  C   UNL A   1      39.007  28.464  29.869  1.00  0.00     0.031 A 
ATOM     58  C   UNL A   1      45.549  29.985  27.962  1.00  0.00     0.031 A 
ATOM     59  C   UNL A   1      39.379  27.423  28.950  1.00  0.00     0.049 A 
ATOM     60  C   UNL A   1      44.480  29.616  27.018  1.00  0.00     0.074 A 
ATOM     61  C   UNL A   1      39.431  26.046  29.007  1.00  0.00     0.029 A 
ATOM     62  N   UNL A   1      40.143  27.808  27.879  1.00  0.00    -0.354 N 
ATOM     63  N   UNL A   1      44.255  28.404  26.601  1.00  0.00    -0.248 NA
ATOM     64  C   UNL A   1      43.359  30.533  27.001  1.00  0.00     0.031 C 
ATOM     65  C   UNL A   1      40.539  25.681  28.201  1.00  0.00     0.029 A 
ATOM     66  C   UNL A   1      41.050  26.830  27.594  1.00  0.00     0.049 A 
ATOM     67  H   UNL A   1      40.051  28.658  27.392  1.00  0.00     0.167 HD
ATOM     68  C   UNL A   1      42.879  28.271  26.724  1.00  0.00     0.074 A 
ATOM     69  C   UNL A   1      42.388  29.622  26.991  1.00  0.00     0.031 C 
ATOM     70  C   UNL A   1      42.294  27.054  26.891  1.00  0.00     0.031 A 
BRANCH  57  71
ATOM     71  C   UNL A   1      38.282  29.708  29.427  1.00  0.00    -0.014 A 
ATOM     72  C   UNL A   1      36.882  29.777  29.271  1.00  0.00     0.009 A 
ATOM     73  C   UNL A   1      38.976  30.928  29.427  1.00  0.00     0.009 A 
ATOM     74  C   UNL A   1      36.211  30.988  29.093  1.00  0.00     0.001 A 
ATOM     75  C   UNL A   1      38.302  32.147  29.296  1.00  0.00     0.001 A 
ATOM     76  C   UNL A   1      36.922  32.176  29.120  1.00  0.00     0.000 A 
ENDBRANCH  57  71
BRANCH  58  77
ATOM     77  C   UNL A   1      46.521  31.090  27.628  1.00  0.00    -0.014 A 
ATOM     78  C   UNL A   1      47.586  31.368  28.505  1.00  0.00     0.009 A 
ATOM     79  C   UNL A   1      46.260  32.062  26.635  1.00  0.00     0.009 A 
ATOM     80  C   UNL A   1      48.303  32.572  28.456  1.00  0.00     0.001 A 
ATOM     81  C   UNL A   1      46.982  33.274  26.583  1.00  0.00     0.001 A 
ATOM     82  C   UNL A   1      47.984  33.538  27.513  1.00  0.00     0.000 A 
ENDBRANCH  58  77
BRANCH  70  83
ATOM     83  C   UNL A   1      43.031  25.795  26.535  1.00  0.00    -0.014 A 
ATOM     84  C   UNL A   1      44.211  25.531  27.257  1.00  0.00     0.009 A 
ATOM     85  C   UNL A   1      42.810  25.112  25.337  1.00  0.00     0.009 A 
ATOM     86  C   UNL A   1      45.182  24.658  26.767  1.00  0.00     0.001 A 
ATOM     87  C   UNL A   1      43.796  24.249  24.854  1.00  0.00     0.001 A 
ATOM     88  C   UNL A   1      44.979  24.022  25.553  1.00  0.00     0.000 A 
ENDBRANCH  70  83
ENDBRANCH  44  45
ENDBRANCH  37  39
ENDBRANCH  36  37
ENDBRANCH  35  36
ENDBRANCH  34  35
ENDBRANCH  33  34
ENDBRANCH  32  33
ENDBRANCH  31  32
ENDBRANCH  30  31
ENDBRANCH  29  30
ENDBRANCH   1  29
TORSDOF 26
ENDMDL
