MODEL 1
REMARK VINA RESULT:      -9.0      0.000      0.000
REMARK SMILES CCc1ncc(S(=O)(=O)NCc2ccc(C(=O)OCCOCCOCCOCCOC(=O)c3ccc(-c4c5nc(c(-c6ccccc6)c6ccc([nH]6)c(-c6ccccc6)c6nc(c(-c7ccccc7)c7ccc4[nH]7)C=C6)C=C5)cc3)o2)[nH]1
REMARK SMILES IDX 22 1 21 2 20 3 19 4 18 5 16 6 17 7 15 8 12 9 13 10 81 11
REMARK SMILES IDX 14 12 11 13 10 14 7 16 8 17 9 18 6 19 3 20 4 21 82 22 5 23
REMARK SMILES IDX 2 25 1 26 23 27 24 28 25 29 26 30 27 31 28 32 29 33 30 34
REMARK SMILES IDX 31 35 32 36 33 37 34 38 80 39 35 40 79 41 36 42 37 43 38 44
REMARK SMILES IDX 73 45 39 46 78 47 72 48 74 49 40 50 77 51 71 52 70 53 41 55
REMARK SMILES IDX 63 56 48 57 62 58 49 59 52 60 61 61 75 62 50 63 51 64 60 66
REMARK SMILES IDX 76 67 53 68 42 69 43 70 47 71 44 72 46 73 45 74 64 75 65 76
REMARK SMILES IDX 69 77 66 78 68 79 67 80 54 81 55 82 59 83 56 84 58 85 57 86
REMARK H PARENT 10 15 82 24 74 54 52 65
REMARK Flexibility Score: inf
ROOT
ATOM      1  C   UNL A   1      31.124  23.332  24.845  1.00  0.00     0.188 C 
ENDROOT
BRANCH   1   2
ATOM      2  O   UNL A   1      30.593  24.481  24.187  1.00  0.00    -0.376 OA
BRANCH   2   3
ATOM      3  C   UNL A   1      31.500  25.280  23.438  1.00  0.00     0.202 C 
BRANCH   3   4
ATOM      4  C   UNL A   1      31.698  26.737  23.889  1.00  0.00     0.261 C 
BRANCH   4   5
ATOM      5  O   UNL A   1      32.932  27.036  24.557  1.00  0.00    -0.457 OA
BRANCH   5   6
ATOM      6  C   UNL A   1      33.527  28.232  24.312  1.00  0.00     0.374 C 
ATOM      7  O   UNL A   1      34.094  28.527  23.267  1.00  0.00    -0.242 OA
BRANCH   6   8
ATOM      8  C   UNL A   1      33.242  29.112  25.421  1.00  0.00     0.211 A 
ATOM      9  C   UNL A   1      33.777  30.402  27.131  1.00  0.00     0.119 A 
ATOM     10  C   UNL A   1      32.439  30.622  26.879  1.00  0.00     0.048 A 
ATOM     11  O   UNL A   1      34.263  29.460  26.270  1.00  0.00    -0.453 OA
ATOM     12  C   UNL A   1      32.104  29.820  25.765  1.00  0.00     0.058 A 
BRANCH   9  13
ATOM     13  C   UNL A   1      34.717  30.927  28.149  1.00  0.00     0.174 C 
BRANCH  13  14
ATOM     14  N   UNL A   1      34.202  32.090  28.883  1.00  0.00    -0.202 NA
ATOM     15  H   UNL A   1      33.196  32.113  28.719  1.00  0.00     0.141 HD
BRANCH  14  16
ATOM     16  S   UNL A   1      34.763  33.634  28.578  1.00  0.00     0.258 S 
ATOM     17  O   UNL A   1      34.377  34.022  27.241  1.00  0.00    -0.205 OA
ATOM     18  O   UNL A   1      36.149  33.677  28.980  1.00  0.00    -0.205 OA
BRANCH  16  19
ATOM     19  C   UNL A   1      33.968  34.801  29.605  1.00  0.00     0.167 A 
ATOM     20  C   UNL A   1      33.634  36.023  31.442  1.00  0.00     0.106 A 
ATOM     21  N   UNL A   1      32.687  36.387  30.602  1.00  0.00    -0.240 NA
ATOM     22  N   UNL A   1      34.426  35.054  30.878  1.00  0.00    -0.332 N 
ATOM     23  C   UNL A   1      32.870  35.622  29.480  1.00  0.00     0.153 A 
ATOM     24  H   UNL A   1      35.192  34.613  31.312  1.00  0.00     0.169 HD
BRANCH  20  25
ATOM     25  C   UNL A   1      33.848  36.516  32.834  1.00  0.00     0.072 C 
ATOM     26  C   UNL A   1      33.995  38.029  32.895  1.00  0.00     0.012 C 
ENDBRANCH  20  25
ENDBRANCH  16  19
ENDBRANCH  14  16
ENDBRANCH  13  14
ENDBRANCH   9  13
ENDBRANCH   6   8
ENDBRANCH   5   6
ENDBRANCH   4   5
ENDBRANCH   3   4
ENDBRANCH   2   3
ENDBRANCH   1   2
BRANCH   1  27
ATOM     27  C   UNL A   1      30.992  23.414  26.375  1.00  0.00     0.188 C 
BRANCH  27  28
ATOM     28  O   UNL A   1      32.239  23.251  27.035  1.00  0.00    -0.377 OA
BRANCH  28  29
ATOM     29  C   UNL A   1      33.351  22.837  26.244  1.00  0.00     0.188 C 
BRANCH  29  30
ATOM     30  C   UNL A   1      34.054  21.476  26.465  1.00  0.00     0.188 C 
BRANCH  30  31
ATOM     31  O   UNL A   1      34.285  20.733  25.270  1.00  0.00    -0.376 OA
BRANCH  31  32
ATOM     32  C   UNL A   1      35.623  20.694  24.790  1.00  0.00     0.202 C 
BRANCH  32  33
ATOM     33  C   UNL A   1      36.640  21.289  25.771  1.00  0.00     0.261 C 
BRANCH  33  34
ATOM     34  O   UNL A   1      37.925  21.578  25.198  1.00  0.00    -0.460 OA
BRANCH  34  35
ATOM     35  C   UNL A   1      39.008  21.361  25.975  1.00  0.00     0.338 C 
ATOM     36  O   UNL A   1      39.648  20.332  26.086  1.00  0.00    -0.246 OA
BRANCH  35  37
ATOM     37  C   UNL A   1      39.409  22.655  26.555  1.00  0.00     0.060 A 
ATOM     38  C   UNL A   1      38.855  23.832  26.036  1.00  0.00     0.016 A 
ATOM     39  C   UNL A   1      40.335  22.701  27.600  1.00  0.00     0.016 A 
ATOM     40  C   UNL A   1      39.265  25.068  26.536  1.00  0.00     0.010 A 
ATOM     41  C   UNL A   1      40.754  23.938  28.088  1.00  0.00     0.010 A 
ATOM     42  C   UNL A   1      40.248  25.126  27.533  1.00  0.00    -0.014 A 
BRANCH  42  43
ATOM     43  C   UNL A   1      40.905  26.412  27.857  1.00  0.00     0.031 A 
ATOM     44  C   UNL A   1      42.269  26.675  27.284  1.00  0.00     0.074 A 
ATOM     45  C   UNL A   1      40.315  27.321  28.650  1.00  0.00     0.049 A 
ATOM     46  N   UNL A   1      43.066  27.695  27.471  1.00  0.00    -0.248 NA
ATOM     47  C   UNL A   1      42.808  25.644  26.380  1.00  0.00     0.031 C 
ATOM     48  C   UNL A   1      38.982  27.202  29.235  1.00  0.00     0.029 A 
ATOM     49  N   UNL A   1      40.781  28.528  29.107  1.00  0.00    -0.354 N 
ATOM     50  C   UNL A   1      44.201  27.425  26.715  1.00  0.00     0.074 A 
ATOM     51  C   UNL A   1      44.002  26.136  26.092  1.00  0.00     0.031 C 
ATOM     52  C   UNL A   1      38.738  28.294  29.983  1.00  0.00     0.029 A 
ATOM     53  C   UNL A   1      39.910  29.168  29.954  1.00  0.00     0.049 A 
ATOM     54  H   UNL A   1      41.656  28.901  28.852  1.00  0.00     0.167 HD
ATOM     55  C   UNL A   1      45.309  28.184  26.550  1.00  0.00     0.031 A 
ATOM     56  C   UNL A   1      40.055  30.317  30.641  1.00  0.00     0.031 A 
ATOM     57  C   UNL A   1      45.522  29.452  27.192  1.00  0.00     0.049 A 
ATOM     58  C   UNL A   1      41.334  31.102  30.513  1.00  0.00     0.074 A 
ATOM     59  C   UNL A   1      46.608  30.302  27.084  1.00  0.00     0.029 A 
ATOM     60  N   UNL A   1      44.632  30.047  28.071  1.00  0.00    -0.354 N 
ATOM     61  N   UNL A   1      42.388  30.854  29.774  1.00  0.00    -0.248 NA
ATOM     62  C   UNL A   1      41.439  32.331  31.313  1.00  0.00     0.031 C 
ATOM     63  C   UNL A   1      46.398  31.387  27.941  1.00  0.00     0.029 A 
ATOM     64  C   UNL A   1      45.156  31.240  28.537  1.00  0.00     0.049 A 
ATOM     65  H   UNL A   1      43.757  29.675  28.328  1.00  0.00     0.167 HD
ATOM     66  C   UNL A   1      43.267  31.908  29.995  1.00  0.00     0.074 A 
ATOM     67  C   UNL A   1      42.618  32.803  30.932  1.00  0.00     0.031 C 
ATOM     68  C   UNL A   1      44.497  32.120  29.468  1.00  0.00     0.031 A 
BRANCH  55  69
ATOM     69  C   UNL A   1      46.391  27.629  25.670  1.00  0.00    -0.014 A 
ATOM     70  C   UNL A   1      46.497  28.004  24.321  1.00  0.00     0.009 A 
ATOM     71  C   UNL A   1      47.321  26.720  26.198  1.00  0.00     0.009 A 
ATOM     72  C   UNL A   1      47.488  27.449  23.508  1.00  0.00     0.001 A 
ATOM     73  C   UNL A   1      48.327  26.188  25.391  1.00  0.00     0.001 A 
ATOM     74  C   UNL A   1      48.404  26.544  24.044  1.00  0.00     0.000 A 
ENDBRANCH  55  69
BRANCH  56  75
ATOM     75  C   UNL A   1      38.964  30.795  31.529  1.00  0.00    -0.014 A 
ATOM     76  C   UNL A   1      39.022  30.572  32.914  1.00  0.00     0.009 A 
ATOM     77  C   UNL A   1      37.849  31.459  30.996  1.00  0.00     0.009 A 
ATOM     78  C   UNL A   1      37.977  30.986  33.742  1.00  0.00     0.001 A 
ATOM     79  C   UNL A   1      36.816  31.895  31.830  1.00  0.00     0.001 A 
ATOM     80  C   UNL A   1      36.877  31.650  33.201  1.00  0.00     0.000 A 
ENDBRANCH  56  75
BRANCH  68  81
ATOM     81  C   UNL A   1      45.209  33.386  29.854  1.00  0.00    -0.014 A 
ATOM     82  C   UNL A   1      45.125  34.542  29.064  1.00  0.00     0.009 A 
ATOM     83  C   UNL A   1      45.931  33.434  31.058  1.00  0.00     0.009 A 
ATOM     84  C   UNL A   1      45.773  35.714  29.460  1.00  0.00     0.001 A 
ATOM     85  C   UNL A   1      46.554  34.614  31.464  1.00  0.00     0.001 A 
ATOM     86  C   UNL A   1      46.483  35.751  30.661  1.00  0.00     0.000 A 
ENDBRANCH  68  81
ENDBRANCH  42  43
ENDBRANCH  35  37
ENDBRANCH  34  35
ENDBRANCH  33  34
ENDBRANCH  32  33
ENDBRANCH  31  32
ENDBRANCH  30  31
ENDBRANCH  29  30
ENDBRANCH  28  29
ENDBRANCH  27  28
ENDBRANCH   1  27
TORSDOF 25
ENDMDL
MODEL 2
REMARK VINA RESULT:      -8.3      3.844      6.761
REMARK SMILES CCc1ncc(S(=O)(=O)NCc2ccc(C(=O)OCCOCCOCCOCCOC(=O)c3ccc(-c4c5nc(c(-c6ccccc6)c6ccc([nH]6)c(-c6ccccc6)c6nc(c(-c7ccccc7)c7ccc4[nH]7)C=C6)C=C5)cc3)o2)[nH]1
REMARK SMILES IDX 22 1 21 2 20 3 19 4 18 5 16 6 17 7 15 8 12 9 13 10 81 11
REMARK SMILES IDX 14 12 11 13 10 14 7 16 8 17 9 18 6 19 3 20 4 21 82 22 5 23
REMARK SMILES IDX 2 25 1 26 23 27 24 28 25 29 26 30 27 31 28 32 29 33 30 34
REMARK SMILES IDX 31 35 32 36 33 37 34 38 80 39 35 40 79 41 36 42 37 43 38 44
REMARK SMILES IDX 73 45 39 46 78 47 72 48 74 49 40 50 77 51 71 52 70 53 41 55
REMARK SMILES IDX 63 56 48 57 62 58 49 59 52 60 61 61 75 62 50 63 51 64 60 66
REMARK SMILES IDX 76 67 53 68 42 69 43 70 47 71 44 72 46 73 45 74 64 75 65 76
REMARK SMILES IDX 69 77 66 78 68 79 67 80 54 81 55 82 59 83 56 84 58 85 57 86
REMARK H PARENT 10 15 82 24 74 54 52 65
REMARK Flexibility Score: inf
ROOT
ATOM      1  C   UNL A   1      31.173  23.454  25.040  1.00  0.00     0.188 C 
ENDROOT
BRANCH   1   2
ATOM      2  O   UNL A   1      30.692  24.666  24.460  1.00  0.00    -0.376 OA
BRANCH   2   3
ATOM      3  C   UNL A   1      31.610  25.746  24.357  1.00  0.00     0.202 C 
BRANCH   3   4
ATOM      4  C   UNL A   1      31.256  27.047  25.099  1.00  0.00     0.261 C 
BRANCH   4   5
ATOM      5  O   UNL A   1      31.968  28.226  24.696  1.00  0.00    -0.457 OA
BRANCH   5   6
ATOM      6  C   UNL A   1      31.285  29.395  24.604  1.00  0.00     0.374 C 
ATOM      7  O   UNL A   1      30.374  29.611  23.814  1.00  0.00    -0.242 OA
BRANCH   6   8
ATOM      8  C   UNL A   1      31.717  30.256  25.680  1.00  0.00     0.211 A 
ATOM      9  C   UNL A   1      33.164  31.022  27.161  1.00  0.00     0.119 A 
ATOM     10  C   UNL A   1      32.108  31.909  27.152  1.00  0.00     0.048 A 
ATOM     11  O   UNL A   1      32.918  29.998  26.293  1.00  0.00    -0.453 OA
ATOM     12  C   UNL A   1      31.196  31.435  26.183  1.00  0.00     0.058 A 
BRANCH   9  13
ATOM     13  C   UNL A   1      34.422  30.951  27.942  1.00  0.00     0.174 C 
BRANCH  13  14
ATOM     14  N   UNL A   1      34.456  31.866  29.090  1.00  0.00    -0.202 NA
ATOM     15  H   UNL A   1      33.485  32.036  29.352  1.00  0.00     0.141 HD
BRANCH  14  16
ATOM     16  S   UNL A   1      35.186  33.365  28.990  1.00  0.00     0.258 S 
ATOM     17  O   UNL A   1      35.577  33.612  27.622  1.00  0.00    -0.205 OA
ATOM     18  O   UNL A   1      36.158  33.443  30.054  1.00  0.00    -0.205 OA
BRANCH  16  19
ATOM     19  C   UNL A   1      34.044  34.639  29.341  1.00  0.00     0.167 A 
ATOM     20  C   UNL A   1      32.821  36.000  30.618  1.00  0.00     0.106 A 
ATOM     21  N   UNL A   1      32.557  36.354  29.377  1.00  0.00    -0.240 NA
ATOM     22  N   UNL A   1      33.710  34.956  30.639  1.00  0.00    -0.332 N 
ATOM     23  C   UNL A   1      33.286  35.505  28.585  1.00  0.00     0.153 A 
ATOM     24  H   UNL A   1      34.052  34.507  31.446  1.00  0.00     0.169 HD
BRANCH  20  25
ATOM     25  C   UNL A   1      32.239  36.576  31.866  1.00  0.00     0.072 C 
ATOM     26  C   UNL A   1      31.650  35.509  32.775  1.00  0.00     0.012 C 
ENDBRANCH  20  25
ENDBRANCH  16  19
ENDBRANCH  14  16
ENDBRANCH  13  14
ENDBRANCH   9  13
ENDBRANCH   6   8
ENDBRANCH   5   6
ENDBRANCH   4   5
ENDBRANCH   3   4
ENDBRANCH   2   3
ENDBRANCH   1   2
BRANCH   1  27
ATOM     27  C   UNL A   1      30.854  23.351  26.541  1.00  0.00     0.188 C 
BRANCH  27  28
ATOM     28  O   UNL A   1      31.947  22.843  27.292  1.00  0.00    -0.377 OA
BRANCH  28  29
ATOM     29  C   UNL A   1      33.186  22.662  26.608  1.00  0.00     0.188 C 
BRANCH  29  30
ATOM     30  C   UNL A   1      33.988  21.341  26.696  1.00  0.00     0.188 C 
BRANCH  30  31
ATOM     31  O   UNL A   1      34.490  20.874  25.446  1.00  0.00    -0.376 OA
BRANCH  31  32
ATOM     32  C   UNL A   1      35.758  21.375  25.040  1.00  0.00     0.202 C 
BRANCH  32  33
ATOM     33  C   UNL A   1      36.629  21.849  26.209  1.00  0.00     0.261 C 
BRANCH  33  34
ATOM     34  O   UNL A   1      37.952  22.266  25.839  1.00  0.00    -0.460 OA
BRANCH  34  35
ATOM     35  C   UNL A   1      38.935  21.343  25.923  1.00  0.00     0.338 C 
ATOM     36  O   UNL A   1      38.847  20.145  25.727  1.00  0.00    -0.246 OA
BRANCH  35  37
ATOM     37  C   UNL A   1      40.206  22.060  26.129  1.00  0.00     0.060 A 
ATOM     38  C   UNL A   1      41.397  21.326  26.192  1.00  0.00     0.016 A 
ATOM     39  C   UNL A   1      40.215  23.450  26.270  1.00  0.00     0.016 A 
ATOM     40  C   UNL A   1      42.602  21.982  26.441  1.00  0.00     0.010 A 
ATOM     41  C   UNL A   1      41.418  24.103  26.533  1.00  0.00     0.010 A 
ATOM     42  C   UNL A   1      42.610  23.367  26.656  1.00  0.00    -0.014 A 
BRANCH  42  43
ATOM     43  C   UNL A   1      43.811  24.027  27.213  1.00  0.00     0.031 A 
ATOM     44  C   UNL A   1      43.974  24.059  28.707  1.00  0.00     0.074 A 
ATOM     45  C   UNL A   1      44.732  24.597  26.417  1.00  0.00     0.049 A 
ATOM     46  N   UNL A   1      44.905  24.627  29.429  1.00  0.00    -0.248 NA
ATOM     47  C   UNL A   1      42.944  23.359  29.491  1.00  0.00     0.031 C 
ATOM     48  C   UNL A   1      44.708  24.600  24.957  1.00  0.00     0.029 A 
ATOM     49  N   UNL A   1      45.866  25.298  26.741  1.00  0.00    -0.354 N 
ATOM     50  C   UNL A   1      44.569  24.358  30.750  1.00  0.00     0.074 A 
ATOM     51  C   UNL A   1      43.336  23.603  30.731  1.00  0.00     0.031 C 
ATOM     52  C   UNL A   1      45.780  25.279  24.508  1.00  0.00     0.029 A 
ATOM     53  C   UNL A   1      46.542  25.784  25.649  1.00  0.00     0.049 A 
ATOM     54  H   UNL A   1      46.168  25.437  27.668  1.00  0.00     0.167 HD
ATOM     55  C   UNL A   1      45.229  24.704  31.880  1.00  0.00     0.031 A 
ATOM     56  C   UNL A   1      47.637  26.564  25.584  1.00  0.00     0.031 A 
ATOM     57  C   UNL A   1      46.439  25.479  31.903  1.00  0.00     0.049 A 
ATOM     58  C   UNL A   1      48.305  27.013  26.857  1.00  0.00     0.074 A 
ATOM     59  C   UNL A   1      47.189  25.876  32.995  1.00  0.00     0.029 A 
ATOM     60  N   UNL A   1      47.070  25.984  30.777  1.00  0.00    -0.354 N 
ATOM     61  N   UNL A   1      47.997  26.730  28.099  1.00  0.00    -0.248 NA
ATOM     62  C   UNL A   1      49.479  27.889  26.716  1.00  0.00     0.031 C 
ATOM     63  C   UNL A   1      48.245  26.668  32.533  1.00  0.00     0.029 A 
ATOM     64  C   UNL A   1      48.185  26.715  31.150  1.00  0.00     0.049 A 
ATOM     65  H   UNL A   1      46.769  25.846  29.850  1.00  0.00     0.167 HD
ATOM     66  C   UNL A   1      48.953  27.364  28.885  1.00  0.00     0.074 A 
ATOM     67  C   UNL A   1      49.857  28.041  27.977  1.00  0.00     0.031 C 
ATOM     68  C   UNL A   1      49.075  27.380  30.234  1.00  0.00     0.031 A 
BRANCH  55  69
ATOM     69  C   UNL A   1      44.620  24.276  33.184  1.00  0.00    -0.014 A 
ATOM     70  C   UNL A   1      44.858  22.998  33.714  1.00  0.00     0.009 A 
ATOM     71  C   UNL A   1      43.800  25.166  33.894  1.00  0.00     0.009 A 
ATOM     72  C   UNL A   1      44.252  22.606  34.910  1.00  0.00     0.001 A 
ATOM     73  C   UNL A   1      43.219  24.782  35.103  1.00  0.00     0.001 A 
ATOM     74  C   UNL A   1      43.437  23.498  35.605  1.00  0.00     0.000 A 
ENDBRANCH  55  69
BRANCH  56  75
ATOM     75  C   UNL A   1      48.170  26.989  24.264  1.00  0.00    -0.014 A 
ATOM     76  C   UNL A   1      47.480  27.932  23.486  1.00  0.00     0.009 A 
ATOM     77  C   UNL A   1      49.360  26.440  23.764  1.00  0.00     0.009 A 
ATOM     78  C   UNL A   1      47.961  28.300  22.228  1.00  0.00     0.001 A 
ATOM     79  C   UNL A   1      49.853  26.829  22.516  1.00  0.00     0.001 A 
ATOM     80  C   UNL A   1      49.149  27.752  21.746  1.00  0.00     0.000 A 
ENDBRANCH  56  75
BRANCH  68  81
ATOM     81  C   UNL A   1      50.249  28.117  30.815  1.00  0.00    -0.014 A 
ATOM     82  C   UNL A   1      51.547  27.586  30.761  1.00  0.00     0.009 A 
ATOM     83  C   UNL A   1      50.058  29.390  31.378  1.00  0.00     0.009 A 
ATOM     84  C   UNL A   1      52.625  28.304  31.283  1.00  0.00     0.001 A 
ATOM     85  C   UNL A   1      51.141  30.116  31.873  1.00  0.00     0.001 A 
ATOM     86  C   UNL A   1      52.422  29.569  31.834  1.00  0.00     0.000 A 
ENDBRANCH  68  81
ENDBRANCH  42  43
ENDBRANCH  35  37
ENDBRANCH  34  35
ENDBRANCH  33  34
ENDBRANCH  32  33
ENDBRANCH  31  32
ENDBRANCH  30  31
ENDBRANCH  29  30
ENDBRANCH  28  29
ENDBRANCH  27  28
ENDBRANCH   1  27
TORSDOF 25
ENDMDL
MODEL 3
REMARK VINA RESULT:      -8.0      1.852      2.373
REMARK SMILES CCc1ncc(S(=O)(=O)NCc2ccc(C(=O)OCCOCCOCCOCCOC(=O)c3ccc(-c4c5nc(c(-c6ccccc6)c6ccc([nH]6)c(-c6ccccc6)c6nc(c(-c7ccccc7)c7ccc4[nH]7)C=C6)C=C5)cc3)o2)[nH]1
REMARK SMILES IDX 22 1 21 2 20 3 19 4 18 5 16 6 17 7 15 8 12 9 13 10 81 11
REMARK SMILES IDX 14 12 11 13 10 14 7 16 8 17 9 18 6 19 3 20 4 21 82 22 5 23
REMARK SMILES IDX 2 25 1 26 23 27 24 28 25 29 26 30 27 31 28 32 29 33 30 34
REMARK SMILES IDX 31 35 32 36 33 37 34 38 80 39 35 40 79 41 36 42 37 43 38 44
REMARK SMILES IDX 73 45 39 46 78 47 72 48 74 49 40 50 77 51 71 52 70 53 41 55
REMARK SMILES IDX 63 56 48 57 62 58 49 59 52 60 61 61 75 62 50 63 51 64 60 66
REMARK SMILES IDX 76 67 53 68 42 69 43 70 47 71 44 72 46 73 45 74 64 75 65 76
REMARK SMILES IDX 69 77 66 78 68 79 67 80 54 81 55 82 59 83 56 84 58 85 57 86
REMARK H PARENT 10 15 82 24 74 54 52 65
REMARK Flexibility Score: inf
ROOT
ATOM      1  C   UNL A   1      31.044  23.522  25.016  1.00  0.00     0.188 C 
ENDROOT
BRANCH   1   2
ATOM      2  O   UNL A   1      30.553  24.688  24.356  1.00  0.00    -0.376 OA
BRANCH   2   3
ATOM      3  C   UNL A   1      31.478  25.742  24.124  1.00  0.00     0.202 C 
BRANCH   3   4
ATOM      4  C   UNL A   1      31.216  27.081  24.836  1.00  0.00     0.261 C 
BRANCH   4   5
ATOM      5  O   UNL A   1      31.878  28.233  24.294  1.00  0.00    -0.457 OA
BRANCH   5   6
ATOM      6  C   UNL A   1      31.194  29.403  24.234  1.00  0.00     0.374 C 
ATOM      7  O   UNL A   1      30.331  29.666  23.404  1.00  0.00    -0.242 OA
BRANCH   6   8
ATOM      8  C   UNL A   1      31.554  30.196  25.387  1.00  0.00     0.211 A 
ATOM      9  C   UNL A   1      32.926  30.926  26.954  1.00  0.00     0.119 A 
ATOM     10  C   UNL A   1      31.814  31.740  26.999  1.00  0.00     0.048 A 
ATOM     11  O   UNL A   1      32.760  29.965  25.999  1.00  0.00    -0.453 OA
ATOM     12  C   UNL A   1      30.949  31.292  25.976  1.00  0.00     0.058 A 
BRANCH   9  13
ATOM     13  C   UNL A   1      34.175  30.870  27.750  1.00  0.00     0.174 C 
BRANCH  13  14
ATOM     14  N   UNL A   1      34.213  31.835  28.856  1.00  0.00    -0.202 NA
ATOM     15  H   UNL A   1      33.245  31.984  29.143  1.00  0.00     0.141 HD
BRANCH  14  16
ATOM     16  S   UNL A   1      34.887  33.352  28.670  1.00  0.00     0.258 S 
ATOM     17  O   UNL A   1      34.886  33.702  27.269  1.00  0.00    -0.205 OA
ATOM     18  O   UNL A   1      36.115  33.374  29.429  1.00  0.00    -0.205 OA
BRANCH  16  19
ATOM     19  C   UNL A   1      33.887  34.574  29.414  1.00  0.00     0.167 A 
ATOM     20  C   UNL A   1      32.940  35.710  31.086  1.00  0.00     0.106 A 
ATOM     21  N   UNL A   1      32.528  36.301  29.984  1.00  0.00    -0.240 NA
ATOM     22  N   UNL A   1      33.757  34.650  30.783  1.00  0.00    -0.332 N 
ATOM     23  C   UNL A   1      33.085  35.593  28.951  1.00  0.00     0.153 A 
ATOM     24  H   UNL A   1      34.180  34.044  31.434  1.00  0.00     0.169 HD
BRANCH  20  25
ATOM     25  C   UNL A   1      32.575  36.058  32.491  1.00  0.00     0.072 C 
ATOM     26  C   UNL A   1      33.754  36.615  33.273  1.00  0.00     0.012 C 
ENDBRANCH  20  25
ENDBRANCH  16  19
ENDBRANCH  14  16
ENDBRANCH  13  14
ENDBRANCH   9  13
ENDBRANCH   6   8
ENDBRANCH   5   6
ENDBRANCH   4   5
ENDBRANCH   3   4
ENDBRANCH   2   3
ENDBRANCH   1   2
BRANCH   1  27
ATOM     27  C   UNL A   1      30.695  23.499  26.513  1.00  0.00     0.188 C 
BRANCH  27  28
ATOM     28  O   UNL A   1      31.764  23.012  27.311  1.00  0.00    -0.377 OA
BRANCH  28  29
ATOM     29  C   UNL A   1      33.001  22.740  26.654  1.00  0.00     0.188 C 
BRANCH  29  30
ATOM     30  C   UNL A   1      33.714  21.371  26.782  1.00  0.00     0.188 C 
BRANCH  30  31
ATOM     31  O   UNL A   1      34.166  20.827  25.544  1.00  0.00    -0.376 OA
BRANCH  31  32
ATOM     32  C   UNL A   1      35.394  21.331  25.036  1.00  0.00     0.202 C 
BRANCH  32  33
ATOM     33  C   UNL A   1      36.194  22.140  26.064  1.00  0.00     0.261 C 
BRANCH  33  34
ATOM     34  O   UNL A   1      37.452  22.639  25.585  1.00  0.00    -0.460 OA
BRANCH  34  35
ATOM     35  C   UNL A   1      38.568  22.020  26.027  1.00  0.00     0.338 C 
ATOM     36  O   UNL A   1      38.851  20.840  25.932  1.00  0.00    -0.246 OA
BRANCH  35  37
ATOM     37  C   UNL A   1      39.496  23.060  26.506  1.00  0.00     0.060 A 
ATOM     38  C   UNL A   1      40.601  22.680  27.279  1.00  0.00     0.016 A 
ATOM     39  C   UNL A   1      39.266  24.404  26.202  1.00  0.00     0.016 A 
ATOM     40  C   UNL A   1      41.459  23.656  27.787  1.00  0.00     0.010 A 
ATOM     41  C   UNL A   1      40.116  25.379  26.722  1.00  0.00     0.010 A 
ATOM     42  C   UNL A   1      41.193  25.011  27.546  1.00  0.00    -0.014 A 
BRANCH  42  43
ATOM     43  C   UNL A   1      41.903  26.057  28.316  1.00  0.00     0.031 A 
ATOM     44  C   UNL A   1      43.404  26.098  28.236  1.00  0.00     0.074 A 
ATOM     45  C   UNL A   1      41.239  26.942  29.077  1.00  0.00     0.049 A 
ATOM     46  N   UNL A   1      44.247  26.878  28.862  1.00  0.00    -0.248 NA
ATOM     47  C   UNL A   1      44.037  25.125  27.331  1.00  0.00     0.031 C 
ATOM     48  C   UNL A   1      39.787  27.030  29.208  1.00  0.00     0.029 A 
ATOM     49  N   UNL A   1      41.716  27.933  29.898  1.00  0.00    -0.354 N 
ATOM     50  C   UNL A   1      45.509  26.485  28.431  1.00  0.00     0.074 A 
ATOM     51  C   UNL A   1      45.322  25.381  27.516  1.00  0.00     0.031 C 
ATOM     52  C   UNL A   1      39.489  28.021  30.067  1.00  0.00     0.029 A 
ATOM     53  C   UNL A   1      40.729  28.611  30.569  1.00  0.00     0.049 A 
ATOM     54  H   UNL A   1      42.673  28.139  29.995  1.00  0.00     0.167 HD
ATOM     55  C   UNL A   1      46.716  26.999  28.764  1.00  0.00     0.031 A 
ATOM     56  C   UNL A   1      40.822  29.582  31.498  1.00  0.00     0.031 A 
ATOM     57  C   UNL A   1      46.906  28.076  29.695  1.00  0.00     0.049 A 
ATOM     58  C   UNL A   1      42.180  30.078  31.920  1.00  0.00     0.074 A 
ATOM     59  C   UNL A   1      48.088  28.674  30.093  1.00  0.00     0.029 A 
ATOM     60  N   UNL A   1      45.883  28.711  30.382  1.00  0.00    -0.354 N 
ATOM     61  N   UNL A   1      43.364  29.720  31.486  1.00  0.00    -0.248 NA
ATOM     62  C   UNL A   1      42.211  31.117  32.960  1.00  0.00     0.031 C 
ATOM     63  C   UNL A   1      47.784  29.635  31.063  1.00  0.00     0.029 A 
ATOM     64  C   UNL A   1      46.409  29.675  31.225  1.00  0.00     0.049 A 
ATOM     65  H   UNL A   1      44.925  28.505  30.286  1.00  0.00     0.167 HD
ATOM     66  C   UNL A   1      44.278  30.510  32.175  1.00  0.00     0.074 A 
ATOM     67  C   UNL A   1      43.509  31.372  33.050  1.00  0.00     0.031 C 
ATOM     68  C   UNL A   1      45.630  30.525  32.088  1.00  0.00     0.031 A 
BRANCH  55  69
ATOM     69  C   UNL A   1      47.924  26.361  28.140  1.00  0.00    -0.014 A 
ATOM     70  C   UNL A   1      48.782  25.539  28.888  1.00  0.00     0.009 A 
ATOM     71  C   UNL A   1      48.206  26.583  26.784  1.00  0.00     0.009 A 
ATOM     72  C   UNL A   1      49.920  24.985  28.300  1.00  0.00     0.001 A 
ATOM     73  C   UNL A   1      49.329  26.005  26.191  1.00  0.00     0.001 A 
ATOM     74  C   UNL A   1      50.191  25.215  26.951  1.00  0.00     0.000 A 
ENDBRANCH  55  69
BRANCH  56  75
ATOM     75  C   UNL A   1      39.590  30.146  32.110  1.00  0.00    -0.014 A 
ATOM     76  C   UNL A   1      38.819  31.092  31.417  1.00  0.00     0.009 A 
ATOM     77  C   UNL A   1      39.191  29.756  33.397  1.00  0.00     0.009 A 
ATOM     78  C   UNL A   1      37.685  31.651  32.010  1.00  0.00     0.001 A 
ATOM     79  C   UNL A   1      38.041  30.298  33.978  1.00  0.00     0.001 A 
ATOM     80  C   UNL A   1      37.294  31.251  33.287  1.00  0.00     0.000 A 
ENDBRANCH  56  75
BRANCH  68  81
ATOM     81  C   UNL A   1      46.368  31.530  32.927  1.00  0.00    -0.014 A 
ATOM     82  C   UNL A   1      46.317  31.491  34.328  1.00  0.00     0.009 A 
ATOM     83  C   UNL A   1      47.171  32.498  32.301  1.00  0.00     0.009 A 
ATOM     84  C   UNL A   1      47.035  32.420  35.085  1.00  0.00     0.001 A 
ATOM     85  C   UNL A   1      47.908  33.406  33.060  1.00  0.00     0.001 A 
ATOM     86  C   UNL A   1      47.834  33.372  34.451  1.00  0.00     0.000 A 
ENDBRANCH  68  81
ENDBRANCH  42  43
ENDBRANCH  35  37
ENDBRANCH  34  35
ENDBRANCH  33  34
ENDBRANCH  32  33
ENDBRANCH  31  32
ENDBRANCH  30  31
ENDBRANCH  29  30
ENDBRANCH  28  29
ENDBRANCH  27  28
ENDBRANCH   1  27
TORSDOF 25
ENDMDL
