MODEL 1
REMARK VINA RESULT:      -9.8      0.000      0.000
REMARK SMILES Cc1nc2sc3c(c2c2nc(CCC(=O)OCCOCCOCCOCCOC(=O)c4ccc(-c5c6nc(c(-c7ccccc7)c7ccc([nH]7)c(-c7ccccc7)c7nc(c(-c8ccccc8)c8ccc5[nH]8)C=C7)C=C6)cc4)nn12)[C@@H](C)CCC3
REMARK SMILES IDX 22 1 21 2 20 3 19 4 18 5 17 6 16 7 14 8 15 9 13 10 12 11
REMARK SMILES IDX 11 12 1 13 2 14 3 15 80 16 4 17 9 18 79 19 5 20 8 21 10 22
REMARK SMILES IDX 6 23 7 24 85 25 81 26 84 27 82 28 83 29 23 30 24 31 25 32
REMARK SMILES IDX 26 33 27 34 28 35 29 36 30 37 31 38 32 39 78 40 33 41 77 42
REMARK SMILES IDX 34 43 35 44 36 45 71 46 37 47 76 48 70 49 72 50 38 51 75 52
REMARK SMILES IDX 69 53 68 54 39 56 61 57 46 58 60 59 47 60 50 61 59 62 73 63
REMARK SMILES IDX 48 64 49 65 58 67 74 68 51 69 40 70 41 71 45 72 42 73 44 74
REMARK SMILES IDX 43 75 62 76 63 77 67 78 64 79 66 80 65 81 52 82 53 83 57 84
REMARK SMILES IDX 54 85 56 86 55 87
REMARK H PARENT 72 55 50 66
REMARK Flexibility Score: inf
ROOT
ATOM      1  O   UNL A   1      36.714  31.826  29.282  1.00  0.00    -0.377 OA
ENDROOT
BRANCH   1   2
ATOM      2  C   UNL A   1      37.279  30.680  28.664  1.00  0.00     0.188 C 
BRANCH   2   3
ATOM      3  C   UNL A   1      36.566  29.742  27.672  1.00  0.00     0.188 C 
BRANCH   3   4
ATOM      4  O   UNL A   1      35.325  29.171  28.022  1.00  0.00    -0.376 OA
BRANCH   4   5
ATOM      5  C   UNL A   1      34.432  28.704  27.015  1.00  0.00     0.202 C 
BRANCH   5   6
ATOM      6  C   UNL A   1      32.930  28.897  27.207  1.00  0.00     0.261 C 
BRANCH   6   7
ATOM      7  O   UNL A   1      32.539  30.271  26.987  1.00  0.00    -0.463 OA
BRANCH   7   8
ATOM      8  C   UNL A   1      31.654  30.451  25.977  1.00  0.00     0.306 C 
ATOM      9  O   UNL A   1      31.048  31.499  25.775  1.00  0.00    -0.252 OA
BRANCH   8  10
ATOM     10  C   UNL A   1      31.418  29.233  25.116  1.00  0.00     0.131 C 
BRANCH  10  11
ATOM     11  C   UNL A   1      32.320  29.044  23.906  1.00  0.00     0.091 C 
BRANCH  11  12
ATOM     12  C   UNL A   1      32.505  27.624  23.501  1.00  0.00     0.152 A 
ATOM     13  C   UNL A   1      32.680  25.536  19.902  1.00  0.00     0.090 C 
ATOM     14  C   UNL A   1      32.853  24.992  21.287  1.00  0.00     0.131 A 
ATOM     15  N   UNL A   1      33.129  23.730  21.499  1.00  0.00    -0.222 NA
ATOM     16  N   UNL A   1      32.742  25.920  22.329  1.00  0.00    -0.199 N 
ATOM     17  C   UNL A   1      33.269  23.358  22.814  1.00  0.00     0.129 A 
ATOM     18  C   UNL A   1      32.900  25.572  23.644  1.00  0.00     0.168 A 
ATOM     19  N   UNL A   1      32.471  27.238  22.215  1.00  0.00    -0.150 NA
ATOM     20  S   UNL A   1      33.610  21.742  23.243  1.00  0.00    -0.120 S 
ATOM     21  C   UNL A   1      33.169  24.151  23.950  1.00  0.00     0.060 A 
ATOM     22  N   UNL A   1      32.774  26.629  24.406  1.00  0.00    -0.211 NA
ATOM     23  C   UNL A   1      33.602  22.115  24.906  1.00  0.00     0.011 A 
ATOM     24  C   UNL A   1      33.328  23.447  25.179  1.00  0.00    -0.018 A 
ATOM     25  C   UNL A   1      33.852  21.057  25.934  1.00  0.00     0.047 C 
ATOM     26  C   UNL A   1      33.274  23.973  26.600  1.00  0.00     0.018 C 
ATOM     27  C   UNL A   1      34.320  21.704  27.239  1.00  0.00     0.006 C 
ATOM     28  C   UNL A   1      31.997  24.758  26.902  1.00  0.00     0.013 C 
ATOM     29  C   UNL A   1      33.374  22.834  27.650  1.00  0.00     0.008 C 
ENDBRANCH  11  12
ENDBRANCH  10  11
ENDBRANCH   8  10
ENDBRANCH   7   8
ENDBRANCH   6   7
ENDBRANCH   5   6
ENDBRANCH   4   5
ENDBRANCH   3   4
ENDBRANCH   2   3
ENDBRANCH   1   2
BRANCH   1  30
ATOM     30  C   UNL A   1      35.712  31.689  30.270  1.00  0.00     0.188 C 
BRANCH  30  31
ATOM     31  C   UNL A   1      34.896  32.923  30.700  1.00  0.00     0.188 C 
BRANCH  31  32
ATOM     32  O   UNL A   1      35.178  33.445  31.982  1.00  0.00    -0.376 OA
BRANCH  32  33
ATOM     33  C   UNL A   1      36.492  33.767  32.405  1.00  0.00     0.202 C 
BRANCH  33  34
ATOM     34  C   UNL A   1      37.536  34.418  31.499  1.00  0.00     0.261 C 
BRANCH  34  35
ATOM     35  O   UNL A   1      38.873  33.986  31.663  1.00  0.00    -0.460 OA
BRANCH  35  36
ATOM     36  C   UNL A   1      39.456  33.445  30.580  1.00  0.00     0.338 C 
ATOM     37  O   UNL A   1      39.335  33.791  29.421  1.00  0.00    -0.246 OA
BRANCH  36  38
ATOM     38  C   UNL A   1      40.185  32.251  31.030  1.00  0.00     0.060 A 
ATOM     39  C   UNL A   1      41.450  32.049  30.482  1.00  0.00     0.016 A 
ATOM     40  C   UNL A   1      39.510  31.237  31.733  1.00  0.00     0.016 A 
ATOM     41  C   UNL A   1      41.944  30.763  30.444  1.00  0.00     0.010 A 
ATOM     42  C   UNL A   1      39.997  29.951  31.683  1.00  0.00     0.010 A 
ATOM     43  C   UNL A   1      41.162  29.721  30.957  1.00  0.00    -0.014 A 
BRANCH  43  44
ATOM     44  C   UNL A   1      41.579  28.373  30.647  1.00  0.00     0.031 A 
ATOM     45  C   UNL A   1      42.475  27.738  31.627  1.00  0.00     0.074 A 
ATOM     46  C   UNL A   1      41.153  27.724  29.549  1.00  0.00     0.049 A 
ATOM     47  N   UNL A   1      43.691  27.351  31.437  1.00  0.00    -0.248 NA
ATOM     48  C   UNL A   1      41.984  27.587  33.002  1.00  0.00     0.031 C 
ATOM     49  C   UNL A   1      40.075  28.105  28.635  1.00  0.00     0.029 A 
ATOM     50  N   UNL A   1      41.557  26.512  29.080  1.00  0.00    -0.354 N 
ATOM     51  C   UNL A   1      44.085  26.761  32.629  1.00  0.00     0.074 A 
ATOM     52  C   UNL A   1      43.044  27.032  33.589  1.00  0.00     0.031 C 
ATOM     53  C   UNL A   1      39.773  27.047  27.849  1.00  0.00     0.029 A 
ATOM     54  C   UNL A   1      40.712  25.970  28.127  1.00  0.00     0.049 A 
ATOM     55  H   UNL A   1      42.376  26.062  29.390  1.00  0.00     0.167 HD
ATOM     56  C   UNL A   1      45.150  25.919  32.692  1.00  0.00     0.031 A 
ATOM     57  C   UNL A   1      40.746  24.705  27.647  1.00  0.00     0.031 A 
ATOM     58  C   UNL A   1      46.020  26.048  31.554  1.00  0.00     0.049 A 
ATOM     59  C   UNL A   1      42.088  24.144  27.925  1.00  0.00     0.074 A 
ATOM     60  C   UNL A   1      46.769  27.074  31.014  1.00  0.00     0.029 A 
ATOM     61  N   UNL A   1      45.954  25.075  30.586  1.00  0.00    -0.354 N 
ATOM     62  N   UNL A   1      43.169  24.506  27.297  1.00  0.00    -0.248 NA
ATOM     63  C   UNL A   1      42.306  23.418  29.168  1.00  0.00     0.031 C 
ATOM     64  C   UNL A   1      46.752  26.855  29.607  1.00  0.00     0.029 A 
ATOM     65  C   UNL A   1      46.001  25.703  29.367  1.00  0.00     0.049 A 
ATOM     66  H   UNL A   1      45.886  24.105  30.739  1.00  0.00     0.167 HD
ATOM     67  C   UNL A   1      44.174  24.439  28.251  1.00  0.00     0.074 A 
ATOM     68  C   UNL A   1      43.616  23.631  29.330  1.00  0.00     0.031 C 
ATOM     69  C   UNL A   1      45.249  25.281  28.205  1.00  0.00     0.031 A 
BRANCH  56  70
ATOM     70  C   UNL A   1      45.202  24.737  33.618  1.00  0.00    -0.014 A 
ATOM     71  C   UNL A   1      44.307  23.674  33.416  1.00  0.00     0.009 A 
ATOM     72  C   UNL A   1      45.912  24.749  34.835  1.00  0.00     0.009 A 
ATOM     73  C   UNL A   1      44.096  22.705  34.404  1.00  0.00     0.001 A 
ATOM     74  C   UNL A   1      45.737  23.758  35.804  1.00  0.00     0.001 A 
ATOM     75  C   UNL A   1      44.809  22.749  35.597  1.00  0.00     0.000 A 
ENDBRANCH  56  70
BRANCH  57  76
ATOM     76  C   UNL A   1      39.640  23.897  27.097  1.00  0.00    -0.014 A 
ATOM     77  C   UNL A   1      38.426  24.497  26.728  1.00  0.00     0.009 A 
ATOM     78  C   UNL A   1      39.847  22.557  26.719  1.00  0.00     0.009 A 
ATOM     79  C   UNL A   1      37.470  23.791  25.988  1.00  0.00     0.001 A 
ATOM     80  C   UNL A   1      38.888  21.847  25.994  1.00  0.00     0.001 A 
ATOM     81  C   UNL A   1      37.704  22.469  25.616  1.00  0.00     0.000 A 
ENDBRANCH  57  76
BRANCH  69  82
ATOM     82  C   UNL A   1      45.463  26.084  26.944  1.00  0.00    -0.014 A 
ATOM     83  C   UNL A   1      44.952  27.384  26.783  1.00  0.00     0.009 A 
ATOM     84  C   UNL A   1      46.335  25.586  25.963  1.00  0.00     0.009 A 
ATOM     85  C   UNL A   1      45.277  28.150  25.661  1.00  0.00     0.001 A 
ATOM     86  C   UNL A   1      46.680  26.362  24.852  1.00  0.00     0.001 A 
ATOM     87  C   UNL A   1      46.145  27.640  24.699  1.00  0.00     0.000 A 
ENDBRANCH  69  82
ENDBRANCH  43  44
ENDBRANCH  36  38
ENDBRANCH  35  36
ENDBRANCH  34  35
ENDBRANCH  33  34
ENDBRANCH  32  33
ENDBRANCH  31  32
ENDBRANCH  30  31
ENDBRANCH   1  30
TORSDOF 22
ENDMDL
MODEL 2
REMARK VINA RESULT:      -9.4      3.708      8.576
REMARK SMILES Cc1nc2sc3c(c2c2nc(CCC(=O)OCCOCCOCCOCCOC(=O)c4ccc(-c5c6nc(c(-c7ccccc7)c7ccc([nH]7)c(-c7ccccc7)c7nc(c(-c8ccccc8)c8ccc5[nH]8)C=C7)C=C6)cc4)nn12)[C@@H](C)CCC3
REMARK SMILES IDX 22 1 21 2 20 3 19 4 18 5 17 6 16 7 14 8 15 9 13 10 12 11
REMARK SMILES IDX 11 12 1 13 2 14 3 15 80 16 4 17 9 18 79 19 5 20 8 21 10 22
REMARK SMILES IDX 6 23 7 24 85 25 81 26 84 27 82 28 83 29 23 30 24 31 25 32
REMARK SMILES IDX 26 33 27 34 28 35 29 36 30 37 31 38 32 39 78 40 33 41 77 42
REMARK SMILES IDX 34 43 35 44 36 45 71 46 37 47 76 48 70 49 72 50 38 51 75 52
REMARK SMILES IDX 69 53 68 54 39 56 61 57 46 58 60 59 47 60 50 61 59 62 73 63
REMARK SMILES IDX 48 64 49 65 58 67 74 68 51 69 40 70 41 71 45 72 42 73 44 74
REMARK SMILES IDX 43 75 62 76 63 77 67 78 64 79 66 80 65 81 52 82 53 83 57 84
REMARK SMILES IDX 54 85 56 86 55 87
REMARK H PARENT 72 55 50 66
REMARK Flexibility Score: inf
ROOT
ATOM      1  O   UNL A   1      33.062  22.613  25.013  1.00  0.00    -0.377 OA
ENDROOT
BRANCH   1   2
ATOM      2  C   UNL A   1      32.367  22.728  26.244  1.00  0.00     0.188 C 
BRANCH   2   3
ATOM      3  C   UNL A   1      30.894  23.147  26.417  1.00  0.00     0.188 C 
BRANCH   3   4
ATOM      4  O   UNL A   1      30.508  24.474  26.132  1.00  0.00    -0.376 OA
BRANCH   4   5
ATOM      5  C   UNL A   1      31.489  25.493  25.964  1.00  0.00     0.202 C 
BRANCH   5   6
ATOM      6  C   UNL A   1      31.425  26.388  24.728  1.00  0.00     0.261 C 
BRANCH   6   7
ATOM      7  O   UNL A   1      32.256  27.561  24.880  1.00  0.00    -0.463 OA
BRANCH   7   8
ATOM      8  C   UNL A   1      31.573  28.720  25.035  1.00  0.00     0.306 C 
ATOM      9  O   UNL A   1      30.659  29.082  24.299  1.00  0.00    -0.252 OA
BRANCH   8  10
ATOM     10  C   UNL A   1      32.049  29.589  26.174  1.00  0.00     0.131 C 
BRANCH  10  11
ATOM     11  C   UNL A   1      33.346  29.193  26.863  1.00  0.00     0.091 C 
BRANCH  11  12
ATOM     12  C   UNL A   1      34.107  30.338  27.433  1.00  0.00     0.152 A 
ATOM     13  C   UNL A   1      33.311  34.336  28.285  1.00  0.00     0.090 C 
ATOM     14  C   UNL A   1      34.575  33.577  28.547  1.00  0.00     0.131 A 
ATOM     15  N   UNL A   1      35.600  34.135  29.141  1.00  0.00    -0.222 NA
ATOM     16  N   UNL A   1      34.576  32.232  28.156  1.00  0.00    -0.199 N 
ATOM     17  C   UNL A   1      36.698  33.331  29.327  1.00  0.00     0.129 A 
ATOM     18  C   UNL A   1      35.653  31.410  28.354  1.00  0.00     0.168 A 
ATOM     19  N   UNL A   1      33.572  31.565  27.549  1.00  0.00    -0.150 NA
ATOM     20  S   UNL A   1      38.114  33.927  30.071  1.00  0.00    -0.120 S 
ATOM     21  C   UNL A   1      36.857  31.995  28.980  1.00  0.00     0.060 A 
ATOM     22  N   UNL A   1      35.381  30.204  27.924  1.00  0.00    -0.211 NA
ATOM     23  C   UNL A   1      38.909  32.428  29.904  1.00  0.00     0.011 A 
ATOM     24  C   UNL A   1      38.143  31.457  29.276  1.00  0.00    -0.018 A 
ATOM     25  C   UNL A   1      40.312  32.243  30.390  1.00  0.00     0.047 C 
ATOM     26  C   UNL A   1      38.678  30.058  29.033  1.00  0.00     0.018 C 
ATOM     27  C   UNL A   1      40.586  30.755  30.622  1.00  0.00     0.006 C 
ATOM     28  C   UNL A   1      38.519  29.598  27.584  1.00  0.00     0.013 C 
ATOM     29  C   UNL A   1      40.182  29.935  29.395  1.00  0.00     0.008 C 
ENDBRANCH  11  12
ENDBRANCH  10  11
ENDBRANCH   8  10
ENDBRANCH   7   8
ENDBRANCH   6   7
ENDBRANCH   5   6
ENDBRANCH   4   5
ENDBRANCH   3   4
ENDBRANCH   2   3
ENDBRANCH   1   2
BRANCH   1  30
ATOM     30  C   UNL A   1      33.296  21.344  24.435  1.00  0.00     0.188 C 
BRANCH  30  31
ATOM     31  C   UNL A   1      34.361  20.415  25.048  1.00  0.00     0.188 C 
BRANCH  31  32
ATOM     32  O   UNL A   1      35.410  21.044  25.752  1.00  0.00    -0.376 OA
BRANCH  32  33
ATOM     33  C   UNL A   1      36.512  21.655  25.102  1.00  0.00     0.202 C 
BRANCH  33  34
ATOM     34  C   UNL A   1      37.937  21.108  25.160  1.00  0.00     0.261 C 
BRANCH  34  35
ATOM     35  O   UNL A   1      38.796  21.685  26.124  1.00  0.00    -0.460 OA
BRANCH  35  36
ATOM     36  C   UNL A   1      40.007  21.115  26.253  1.00  0.00     0.338 C 
ATOM     37  O   UNL A   1      40.257  19.948  26.479  1.00  0.00    -0.246 OA
BRANCH  36  38
ATOM     38  C   UNL A   1      41.003  22.195  26.199  1.00  0.00     0.060 A 
ATOM     39  C   UNL A   1      42.305  21.826  25.867  1.00  0.00     0.016 A 
ATOM     40  C   UNL A   1      40.704  23.456  26.746  1.00  0.00     0.016 A 
ATOM     41  C   UNL A   1      43.337  22.635  26.290  1.00  0.00     0.010 A 
ATOM     42  C   UNL A   1      41.736  24.256  27.181  1.00  0.00     0.010 A 
ATOM     43  C   UNL A   1      43.037  23.787  27.027  1.00  0.00    -0.014 A 
BRANCH  43  44
ATOM     44  C   UNL A   1      44.138  24.448  27.689  1.00  0.00     0.031 A 
ATOM     45  C   UNL A   1      44.134  24.383  29.160  1.00  0.00     0.074 A 
ATOM     46  C   UNL A   1      45.123  25.059  27.008  1.00  0.00     0.049 A 
ATOM     47  N   UNL A   1      44.034  25.370  29.985  1.00  0.00    -0.248 NA
ATOM     48  C   UNL A   1      44.169  23.055  29.783  1.00  0.00     0.031 C 
ATOM     49  C   UNL A   1      45.412  24.984  25.575  1.00  0.00     0.029 A 
ATOM     50  N   UNL A   1      46.143  25.814  27.500  1.00  0.00    -0.354 N 
ATOM     51  C   UNL A   1      44.145  24.811  31.249  1.00  0.00     0.074 A 
ATOM     52  C   UNL A   1      44.112  23.380  31.074  1.00  0.00     0.031 C 
ATOM     53  C   UNL A   1      46.644  25.493  25.349  1.00  0.00     0.029 A 
ATOM     54  C   UNL A   1      47.169  26.028  26.597  1.00  0.00     0.049 A 
ATOM     55  H   UNL A   1      46.149  26.175  28.417  1.00  0.00     0.167 HD
ATOM     56  C   UNL A   1      44.456  25.563  32.338  1.00  0.00     0.031 A 
ATOM     57  C   UNL A   1      48.385  26.554  26.870  1.00  0.00     0.031 A 
ATOM     58  C   UNL A   1      44.239  26.967  32.116  1.00  0.00     0.049 A 
ATOM     59  C   UNL A   1      48.289  27.296  28.148  1.00  0.00     0.074 A 
ATOM     60  C   UNL A   1      43.142  27.743  31.801  1.00  0.00     0.029 A 
ATOM     61  N   UNL A   1      45.341  27.756  31.888  1.00  0.00    -0.354 N 
ATOM     62  N   UNL A   1      47.670  28.433  28.282  1.00  0.00    -0.248 NA
ATOM     63  C   UNL A   1      48.580  26.599  29.393  1.00  0.00     0.031 C 
ATOM     64  C   UNL A   1      43.647  28.804  30.996  1.00  0.00     0.029 A 
ATOM     65  C   UNL A   1      45.025  28.620  30.871  1.00  0.00     0.049 A 
ATOM     66  H   UNL A   1      46.199  27.709  32.368  1.00  0.00     0.167 HD
ATOM     67  C   UNL A   1      47.122  28.393  29.555  1.00  0.00     0.074 A 
ATOM     68  C   UNL A   1      47.833  27.317  30.237  1.00  0.00     0.031 C 
ATOM     69  C   UNL A   1      45.953  29.038  29.841  1.00  0.00     0.031 A 
BRANCH  56  70
ATOM     70  C   UNL A   1      45.288  25.045  33.477  1.00  0.00    -0.014 A 
ATOM     71  C   UNL A   1      46.681  24.956  33.316  1.00  0.00     0.009 A 
ATOM     72  C   UNL A   1      44.734  24.395  34.597  1.00  0.00     0.009 A 
ATOM     73  C   UNL A   1      47.467  24.209  34.202  1.00  0.00     0.001 A 
ATOM     74  C   UNL A   1      45.521  23.688  35.508  1.00  0.00     0.001 A 
ATOM     75  C   UNL A   1      46.887  23.574  35.295  1.00  0.00     0.000 A 
ENDBRANCH  56  70
BRANCH  57  76
ATOM     76  C   UNL A   1      49.667  26.328  26.172  1.00  0.00    -0.014 A 
ATOM     77  C   UNL A   1      50.108  27.214  25.177  1.00  0.00     0.009 A 
ATOM     78  C   UNL A   1      50.577  25.360  26.636  1.00  0.00     0.009 A 
ATOM     79  C   UNL A   1      51.418  27.148  24.686  1.00  0.00     0.001 A 
ATOM     80  C   UNL A   1      51.879  25.284  26.136  1.00  0.00     0.001 A 
ATOM     81  C   UNL A   1      52.304  26.188  25.170  1.00  0.00     0.000 A 
ENDBRANCH  57  76
BRANCH  69  82
ATOM     82  C   UNL A   1      45.424  30.024  28.827  1.00  0.00    -0.014 A 
ATOM     83  C   UNL A   1      44.644  29.627  27.727  1.00  0.00     0.009 A 
ATOM     84  C   UNL A   1      45.574  31.397  29.074  1.00  0.00     0.009 A 
ATOM     85  C   UNL A   1      44.060  30.573  26.881  1.00  0.00     0.001 A 
ATOM     86  C   UNL A   1      44.970  32.344  28.242  1.00  0.00     0.001 A 
ATOM     87  C   UNL A   1      44.220  31.931  27.143  1.00  0.00     0.000 A 
ENDBRANCH  69  82
ENDBRANCH  43  44
ENDBRANCH  36  38
ENDBRANCH  35  36
ENDBRANCH  34  35
ENDBRANCH  33  34
ENDBRANCH  32  33
ENDBRANCH  31  32
ENDBRANCH  30  31
ENDBRANCH   1  30
TORSDOF 22
ENDMDL
MODEL 3
REMARK VINA RESULT:      -9.4      4.383      8.315
REMARK SMILES Cc1nc2sc3c(c2c2nc(CCC(=O)OCCOCCOCCOCCOC(=O)c4ccc(-c5c6nc(c(-c7ccccc7)c7ccc([nH]7)c(-c7ccccc7)c7nc(c(-c8ccccc8)c8ccc5[nH]8)C=C7)C=C6)cc4)nn12)[C@@H](C)CCC3
REMARK SMILES IDX 22 1 21 2 20 3 19 4 18 5 17 6 16 7 14 8 15 9 13 10 12 11
REMARK SMILES IDX 11 12 1 13 2 14 3 15 80 16 4 17 9 18 79 19 5 20 8 21 10 22
REMARK SMILES IDX 6 23 7 24 85 25 81 26 84 27 82 28 83 29 23 30 24 31 25 32
REMARK SMILES IDX 26 33 27 34 28 35 29 36 30 37 31 38 32 39 78 40 33 41 77 42
REMARK SMILES IDX 34 43 35 44 36 45 71 46 37 47 76 48 70 49 72 50 38 51 75 52
REMARK SMILES IDX 69 53 68 54 39 56 61 57 46 58 60 59 47 60 50 61 59 62 73 63
REMARK SMILES IDX 48 64 49 65 58 67 74 68 51 69 40 70 41 71 45 72 42 73 44 74
REMARK SMILES IDX 43 75 62 76 63 77 67 78 64 79 66 80 65 81 52 82 53 83 57 84
REMARK SMILES IDX 54 85 56 86 55 87
REMARK H PARENT 72 55 50 66
REMARK Flexibility Score: inf
ROOT
ATOM      1  O   UNL A   1      34.043  34.663  28.242  1.00  0.00    -0.377 OA
ENDROOT
BRANCH   1   2
ATOM      2  C   UNL A   1      34.021  33.246  28.170  1.00  0.00     0.188 C 
BRANCH   2   3
ATOM      3  C   UNL A   1      35.244  32.332  27.968  1.00  0.00     0.188 C 
BRANCH   3   4
ATOM      4  O   UNL A   1      35.203  31.000  28.432  1.00  0.00    -0.376 OA
BRANCH   4   5
ATOM      5  C   UNL A   1      35.788  29.949  27.669  1.00  0.00     0.202 C 
BRANCH   5   6
ATOM      6  C   UNL A   1      36.941  29.148  28.270  1.00  0.00     0.261 C 
BRANCH   6   7
ATOM      7  O   UNL A   1      38.223  29.710  27.907  1.00  0.00    -0.463 OA
BRANCH   7   8
ATOM      8  C   UNL A   1      39.266  28.852  28.014  1.00  0.00     0.306 C 
ATOM      9  O   UNL A   1      39.275  27.872  28.753  1.00  0.00    -0.252 OA
BRANCH   8  10
ATOM     10  C   UNL A   1      40.470  29.211  27.176  1.00  0.00     0.131 C 
BRANCH  10  11
ATOM     11  C   UNL A   1      41.842  28.880  27.744  1.00  0.00     0.091 C 
BRANCH  11  12
ATOM     12  C   UNL A   1      42.521  27.741  27.070  1.00  0.00     0.152 A 
ATOM     13  C   UNL A   1      45.959  27.239  24.772  1.00  0.00     0.090 C 
ATOM     14  C   UNL A   1      44.996  26.184  25.224  1.00  0.00     0.131 A 
ATOM     15  N   UNL A   1      45.185  24.918  24.947  1.00  0.00    -0.222 NA
ATOM     16  N   UNL A   1      43.913  26.630  25.991  1.00  0.00    -0.199 N 
ATOM     17  C   UNL A   1      44.233  24.050  25.423  1.00  0.00     0.129 A 
ATOM     18  C   UNL A   1      42.967  25.777  26.493  1.00  0.00     0.168 A 
ATOM     19  N   UNL A   1      43.636  27.905  26.339  1.00  0.00    -0.150 NA
ATOM     20  S   UNL A   1      44.337  22.374  25.123  1.00  0.00    -0.120 S 
ATOM     21  C   UNL A   1      43.101  24.340  26.175  1.00  0.00     0.060 A 
ATOM     22  N   UNL A   1      42.085  26.446  27.193  1.00  0.00    -0.211 NA
ATOM     23  C   UNL A   1      42.889  22.068  25.969  1.00  0.00     0.011 A 
ATOM     24  C   UNL A   1      42.288  23.209  26.478  1.00  0.00    -0.018 A 
ATOM     25  C   UNL A   1      42.353  20.677  26.098  1.00  0.00     0.047 C 
ATOM     26  C   UNL A   1      40.990  23.142  27.259  1.00  0.00     0.018 C 
ATOM     27  C   UNL A   1      41.408  20.597  27.300  1.00  0.00     0.006 C 
ATOM     28  C   UNL A   1      39.926  24.109  26.740  1.00  0.00     0.013 C 
ATOM     29  C   UNL A   1      40.369  21.719  27.243  1.00  0.00     0.008 C 
ENDBRANCH  11  12
ENDBRANCH  10  11
ENDBRANCH   8  10
ENDBRANCH   7   8
ENDBRANCH   6   7
ENDBRANCH   5   6
ENDBRANCH   4   5
ENDBRANCH   3   4
ENDBRANCH   2   3
ENDBRANCH   1   2
BRANCH   1  30
ATOM     30  C   UNL A   1      33.127  35.355  29.067  1.00  0.00     0.188 C 
BRANCH  30  31
ATOM     31  C   UNL A   1      33.345  36.853  29.355  1.00  0.00     0.188 C 
BRANCH  31  32
ATOM     32  O   UNL A   1      32.968  37.305  30.639  1.00  0.00    -0.376 OA
BRANCH  32  33
ATOM     33  C   UNL A   1      32.788  36.428  31.738  1.00  0.00     0.202 C 
BRANCH  33  34
ATOM     34  C   UNL A   1      33.930  35.951  32.634  1.00  0.00     0.261 C 
BRANCH  34  35
ATOM     35  O   UNL A   1      34.613  34.784  32.219  1.00  0.00    -0.460 OA
BRANCH  35  36
ATOM     36  C   UNL A   1      34.181  33.627  32.748  1.00  0.00     0.338 C 
ATOM     37  O   UNL A   1      33.086  33.390  33.219  1.00  0.00    -0.246 OA
BRANCH  36  38
ATOM     38  C   UNL A   1      35.327  32.708  32.779  1.00  0.00     0.060 A 
ATOM     39  C   UNL A   1      36.229  32.870  33.829  1.00  0.00     0.016 A 
ATOM     40  C   UNL A   1      35.634  31.927  31.650  1.00  0.00     0.016 A 
ATOM     41  C   UNL A   1      37.523  32.435  33.647  1.00  0.00     0.010 A 
ATOM     42  C   UNL A   1      36.931  31.505  31.463  1.00  0.00     0.010 A 
ATOM     43  C   UNL A   1      37.875  31.848  32.425  1.00  0.00    -0.014 A 
BRANCH  43  44
ATOM     44  C   UNL A   1      39.285  31.667  32.166  1.00  0.00     0.031 A 
ATOM     45  C   UNL A   1      39.869  30.407  32.653  1.00  0.00     0.074 A 
ATOM     46  C   UNL A   1      40.015  32.576  31.495  1.00  0.00     0.049 A 
ATOM     47  N   UNL A   1      40.788  30.266  33.548  1.00  0.00    -0.248 NA
ATOM     48  C   UNL A   1      39.310  29.152  32.136  1.00  0.00     0.031 C 
ATOM     49  C   UNL A   1      39.540  33.729  30.729  1.00  0.00     0.029 A 
ATOM     50  N   UNL A   1      41.360  32.587  31.290  1.00  0.00    -0.354 N 
ATOM     51  C   UNL A   1      41.042  28.904  33.609  1.00  0.00     0.074 A 
ATOM     52  C   UNL A   1      40.033  28.257  32.808  1.00  0.00     0.031 C 
ATOM     53  C   UNL A   1      40.557  34.202  29.974  1.00  0.00     0.029 A 
ATOM     54  C   UNL A   1      41.767  33.462  30.298  1.00  0.00     0.049 A 
ATOM     55  H   UNL A   1      41.986  32.025  31.801  1.00  0.00     0.167 HD
ATOM     56  C   UNL A   1      42.186  28.415  34.156  1.00  0.00     0.031 A 
ATOM     57  C   UNL A   1      42.999  33.530  29.741  1.00  0.00     0.031 A 
ATOM     58  C   UNL A   1      42.849  29.377  34.996  1.00  0.00     0.049 A 
ATOM     59  C   UNL A   1      43.957  32.876  30.661  1.00  0.00     0.074 A 
ATOM     60  C   UNL A   1      42.507  30.065  36.142  1.00  0.00     0.029 A 
ATOM     61  N   UNL A   1      43.960  30.007  34.491  1.00  0.00    -0.354 N 
ATOM     62  N   UNL A   1      44.344  33.393  31.792  1.00  0.00    -0.248 NA
ATOM     63  C   UNL A   1      44.231  31.455  30.505  1.00  0.00     0.031 C 
ATOM     64  C   UNL A   1      43.164  31.325  36.037  1.00  0.00     0.029 A 
ATOM     65  C   UNL A   1      43.876  31.332  34.837  1.00  0.00     0.049 A 
ATOM     66  H   UNL A   1      44.685  29.585  33.976  1.00  0.00     0.167 HD
ATOM     67  C   UNL A   1      44.512  32.308  32.641  1.00  0.00     0.074 A 
ATOM     68  C   UNL A   1      44.570  31.147  31.760  1.00  0.00     0.031 C 
ATOM     69  C   UNL A   1      44.297  32.424  33.985  1.00  0.00     0.031 A 
BRANCH  56  70
ATOM     70  C   UNL A   1      42.875  27.183  33.642  1.00  0.00    -0.014 A 
ATOM     71  C   UNL A   1      43.069  26.099  34.515  1.00  0.00     0.009 A 
ATOM     72  C   UNL A   1      43.574  27.149  32.420  1.00  0.00     0.009 A 
ATOM     73  C   UNL A   1      43.958  25.064  34.200  1.00  0.00     0.001 A 
ATOM     74  C   UNL A   1      44.426  26.095  32.083  1.00  0.00     0.001 A 
ATOM     75  C   UNL A   1      44.637  25.065  32.985  1.00  0.00     0.000 A 
ENDBRANCH  56  70
BRANCH  57  76
ATOM     76  C   UNL A   1      43.377  33.990  28.390  1.00  0.00    -0.014 A 
ATOM     77  C   UNL A   1      43.915  33.095  27.451  1.00  0.00     0.009 A 
ATOM     78  C   UNL A   1      43.002  35.267  27.934  1.00  0.00     0.009 A 
ATOM     79  C   UNL A   1      44.048  33.458  26.106  1.00  0.00     0.001 A 
ATOM     80  C   UNL A   1      43.148  35.636  26.594  1.00  0.00     0.001 A 
ATOM     81  C   UNL A   1      43.659  34.725  25.677  1.00  0.00     0.000 A 
ENDBRANCH  57  76
BRANCH  69  82
ATOM     82  C   UNL A   1      44.154  33.813  34.560  1.00  0.00    -0.014 A 
ATOM     83  C   UNL A   1      45.246  34.524  35.088  1.00  0.00     0.009 A 
ATOM     84  C   UNL A   1      42.929  34.483  34.419  1.00  0.00     0.009 A 
ATOM     85  C   UNL A   1      45.108  35.854  35.492  1.00  0.00     0.001 A 
ATOM     86  C   UNL A   1      42.798  35.821  34.801  1.00  0.00     0.001 A 
ATOM     87  C   UNL A   1      43.885  36.503  35.343  1.00  0.00     0.000 A 
ENDBRANCH  69  82
ENDBRANCH  43  44
ENDBRANCH  36  38
ENDBRANCH  35  36
ENDBRANCH  34  35
ENDBRANCH  33  34
ENDBRANCH  32  33
ENDBRANCH  31  32
ENDBRANCH  30  31
ENDBRANCH   1  30
TORSDOF 22
ENDMDL
