MODEL 1
REMARK VINA RESULT:      -6.7      0.000      0.000
REMARK SMILES C[C@@H](C(=O)OCCOCCOCCOCCOC(=O)c1ccc(-c2c3nc(c(-c4ccccc4)c4ccc([nH]4)c(-c4ccccc4)c4nc(c(-c5ccccc5)c5ccc2[nH]5)C=C4)C=C3)cc1)[C@@H](C)C(=O)c1cccc(Cl)c1
REMARK SMILES IDX 10 1 9 2 8 3 7 4 6 5 5 6 3 7 4 8 2 9 1 10 68 11 69 12 70 13
REMARK SMILES IDX 71 14 72 15 73 16 78 17 74 18 76 19 75 20 77 21 11 22 12 23
REMARK SMILES IDX 13 24 14 25 15 26 16 27 17 28 18 29 19 30 20 31 21 32 67 33
REMARK SMILES IDX 22 34 66 35 23 36 24 37 25 38 60 39 26 40 65 41 59 42 61 43
REMARK SMILES IDX 27 44 64 45 58 46 57 47 28 49 50 50 35 51 49 52 36 53 39 54
REMARK SMILES IDX 48 55 62 56 37 57 38 58 47 60 63 61 40 62 29 63 30 64 34 65
REMARK SMILES IDX 31 66 33 67 32 68 51 69 52 70 56 71 53 72 55 73 54 74 41 75
REMARK SMILES IDX 42 76 46 77 43 78 45 79 44 80
REMARK H PARENT 61 48 39 59
REMARK Flexibility Score: inf
ROOT
ATOM      1  C   UNL A   1      47.952  27.372  24.746  1.00  0.00     0.188 C 
ENDROOT
BRANCH   1   2
ATOM      2  C   UNL A   1      46.590  27.913  24.290  1.00  0.00     0.188 C 
BRANCH   2   3
ATOM      3  O   UNL A   1      46.407  29.277  24.612  1.00  0.00    -0.376 OA
BRANCH   3   4
ATOM      4  C   UNL A   1      45.810  29.642  25.840  1.00  0.00     0.202 C 
BRANCH   4   5
ATOM      5  C   UNL A   1      44.646  28.853  26.480  1.00  0.00     0.261 C 
BRANCH   5   6
ATOM      6  O   UNL A   1      43.301  29.286  26.232  1.00  0.00    -0.463 OA
BRANCH   6   7
ATOM      7  C   UNL A   1      42.479  28.339  25.750  1.00  0.00     0.309 C 
ATOM      8  O   UNL A   1      42.627  27.860  24.631  1.00  0.00    -0.252 OA
BRANCH   7   9
ATOM      9  C   UNL A   1      41.333  27.922  26.694  1.00  0.00     0.106 C 
ATOM     10  C   UNL A   1      40.165  28.911  26.855  1.00  0.00     0.021 C 
BRANCH   9  11
ATOM     11  C   UNL A   1      41.947  27.466  28.040  1.00  0.00     0.072 C 
ATOM     12  C   UNL A   1      40.932  27.237  29.162  1.00  0.00     0.017 C 
BRANCH  11  13
ATOM     13  C   UNL A   1      42.904  26.256  28.014  1.00  0.00     0.166 C 
ATOM     14  O   UNL A   1      43.878  26.250  28.775  1.00  0.00    -0.294 OA
BRANCH  13  15
ATOM     15  C   UNL A   1      42.618  25.005  27.234  1.00  0.00     0.019 A 
ATOM     16  C   UNL A   1      43.517  24.668  26.216  1.00  0.00     0.012 A 
ATOM     17  C   UNL A   1      41.495  24.193  27.414  1.00  0.00     0.032 A 
ATOM     18  C   UNL A   1      43.321  23.521  25.442  1.00  0.00     0.002 A 
ATOM     19  C   UNL A   1      41.306  23.042  26.655  1.00  0.00     0.041 A 
ATOM     20  C   UNL A   1      42.221  22.695  25.674  1.00  0.00     0.020 A 
ATOM     21  Cl  UNL A   1      39.917  22.066  26.938  1.00  0.00    -0.084 Cl
ENDBRANCH  13  15
ENDBRANCH  11  13
ENDBRANCH   9  11
ENDBRANCH   7   9
ENDBRANCH   6   7
ENDBRANCH   5   6
ENDBRANCH   4   5
ENDBRANCH   3   4
ENDBRANCH   2   3
ENDBRANCH   1   2
BRANCH   1  22
ATOM     22  O   UNL A   1      49.084  27.651  23.937  1.00  0.00    -0.377 OA
BRANCH  22  23
ATOM     23  C   UNL A   1      50.329  27.019  24.232  1.00  0.00     0.188 C 
BRANCH  23  24
ATOM     24  C   UNL A   1      51.392  27.712  25.115  1.00  0.00     0.188 C 
BRANCH  24  25
ATOM     25  O   UNL A   1      52.285  26.839  25.780  1.00  0.00    -0.376 OA
BRANCH  25  26
ATOM     26  C   UNL A   1      51.761  25.652  26.350  1.00  0.00     0.202 C 
BRANCH  26  27
ATOM     27  C   UNL A   1      51.741  25.538  27.883  1.00  0.00     0.261 C 
BRANCH  27  28
ATOM     28  O   UNL A   1      50.449  25.415  28.502  1.00  0.00    -0.460 OA
BRANCH  28  29
ATOM     29  C   UNL A   1      50.242  26.045  29.675  1.00  0.00     0.338 C 
ATOM     30  O   UNL A   1      50.603  25.684  30.785  1.00  0.00    -0.246 OA
BRANCH  29  31
ATOM     31  C   UNL A   1      49.667  27.373  29.379  1.00  0.00     0.060 A 
ATOM     32  C   UNL A   1      49.625  28.342  30.391  1.00  0.00     0.016 A 
ATOM     33  C   UNL A   1      49.180  27.662  28.102  1.00  0.00     0.016 A 
ATOM     34  C   UNL A   1      49.056  29.591  30.142  1.00  0.00     0.010 A 
ATOM     35  C   UNL A   1      48.586  28.903  27.862  1.00  0.00     0.010 A 
ATOM     36  C   UNL A   1      48.487  29.857  28.891  1.00  0.00    -0.014 A 
BRANCH  36  37
ATOM     37  C   UNL A   1      47.598  31.032  28.727  1.00  0.00     0.031 A 
ATOM     38  C   UNL A   1      48.154  32.251  28.042  1.00  0.00     0.074 A 
ATOM     39  C   UNL A   1      46.322  31.017  29.149  1.00  0.00     0.049 A 
ATOM     40  N   UNL A   1      47.593  33.412  27.823  1.00  0.00    -0.248 NA
ATOM     41  C   UNL A   1      49.535  32.144  27.538  1.00  0.00     0.031 C 
ATOM     42  C   UNL A   1      45.646  29.881  29.771  1.00  0.00     0.029 A 
ATOM     43  N   UNL A   1      45.368  32.003  29.116  1.00  0.00    -0.354 N 
ATOM     44  C   UNL A   1      48.554  34.176  27.172  1.00  0.00     0.074 A 
ATOM     45  C   UNL A   1      49.742  33.360  27.057  1.00  0.00     0.031 C 
ATOM     46  C   UNL A   1      44.383  30.237  30.067  1.00  0.00     0.029 A 
ATOM     47  C   UNL A   1      44.177  31.635  29.693  1.00  0.00     0.049 A 
ATOM     48  H   UNL A   1      45.522  32.890  28.718  1.00  0.00     0.167 HD
ATOM     49  C   UNL A   1      48.457  35.445  26.710  1.00  0.00     0.031 A 
ATOM     50  C   UNL A   1      43.059  32.354  29.914  1.00  0.00     0.031 A 
ATOM     51  C   UNL A   1      47.281  36.262  26.839  1.00  0.00     0.049 A 
ATOM     52  C   UNL A   1      43.008  33.796  29.474  1.00  0.00     0.074 A 
ATOM     53  C   UNL A   1      47.078  37.554  26.390  1.00  0.00     0.029 A 
ATOM     54  N   UNL A   1      46.114  35.869  27.475  1.00  0.00    -0.354 N 
ATOM     55  N   UNL A   1      43.913  34.502  28.839  1.00  0.00    -0.248 NA
ATOM     56  C   UNL A   1      41.776  34.538  29.780  1.00  0.00     0.031 C 
ATOM     57  C   UNL A   1      45.813  37.969  26.816  1.00  0.00     0.029 A 
ATOM     58  C   UNL A   1      45.199  36.907  27.463  1.00  0.00     0.049 A 
ATOM     59  H   UNL A   1      45.959  34.984  27.876  1.00  0.00     0.167 HD
ATOM     60  C   UNL A   1      43.346  35.755  28.638  1.00  0.00     0.074 A 
ATOM     61  C   UNL A   1      42.015  35.709  29.207  1.00  0.00     0.031 C 
ATOM     62  C   UNL A   1      43.877  36.847  28.032  1.00  0.00     0.031 A 
BRANCH  49  63
ATOM     63  C   UNL A   1      49.678  36.042  26.068  1.00  0.00    -0.014 A 
ATOM     64  C   UNL A   1      49.937  35.893  24.695  1.00  0.00     0.009 A 
ATOM     65  C   UNL A   1      50.574  36.790  26.848  1.00  0.00     0.009 A 
ATOM     66  C   UNL A   1      51.085  36.450  24.128  1.00  0.00     0.001 A 
ATOM     67  C   UNL A   1      51.703  37.374  26.272  1.00  0.00     0.001 A 
ATOM     68  C   UNL A   1      51.964  37.196  24.915  1.00  0.00     0.000 A 
ENDBRANCH  49  63
BRANCH  50  69
ATOM     69  C   UNL A   1      41.894  31.738  30.604  1.00  0.00    -0.014 A 
ATOM     70  C   UNL A   1      40.929  31.019  29.880  1.00  0.00     0.009 A 
ATOM     71  C   UNL A   1      41.723  31.892  31.989  1.00  0.00     0.009 A 
ATOM     72  C   UNL A   1      39.805  30.494  30.524  1.00  0.00     0.001 A 
ATOM     73  C   UNL A   1      40.616  31.337  32.635  1.00  0.00     0.001 A 
ATOM     74  C   UNL A   1      39.652  30.649  31.901  1.00  0.00     0.000 A 
ENDBRANCH  50  69
BRANCH  62  75
ATOM     75  C   UNL A   1      43.004  38.067  27.909  1.00  0.00    -0.014 A 
ATOM     76  C   UNL A   1      42.934  39.029  28.928  1.00  0.00     0.009 A 
ATOM     77  C   UNL A   1      42.276  38.278  26.726  1.00  0.00     0.009 A 
ATOM     78  C   UNL A   1      42.122  40.157  28.780  1.00  0.00     0.001 A 
ATOM     79  C   UNL A   1      41.495  39.423  26.567  1.00  0.00     0.001 A 
ATOM     80  C   UNL A   1      41.410  40.355  27.598  1.00  0.00     0.000 A 
ENDBRANCH  62  75
ENDBRANCH  36  37
ENDBRANCH  29  31
ENDBRANCH  28  29
ENDBRANCH  27  28
ENDBRANCH  26  27
ENDBRANCH  25  26
ENDBRANCH  24  25
ENDBRANCH  23  24
ENDBRANCH  22  23
ENDBRANCH   1  22
TORSDOF 23
ENDMDL
MODEL 2
REMARK VINA RESULT:      -6.7      5.489      9.800
REMARK SMILES C[C@@H](C(=O)OCCOCCOCCOCCOC(=O)c1ccc(-c2c3nc(c(-c4ccccc4)c4ccc([nH]4)c(-c4ccccc4)c4nc(c(-c5ccccc5)c5ccc2[nH]5)C=C4)C=C3)cc1)[C@@H](C)C(=O)c1cccc(Cl)c1
REMARK SMILES IDX 10 1 9 2 8 3 7 4 6 5 5 6 3 7 4 8 2 9 1 10 68 11 69 12 70 13
REMARK SMILES IDX 71 14 72 15 73 16 78 17 74 18 76 19 75 20 77 21 11 22 12 23
REMARK SMILES IDX 13 24 14 25 15 26 16 27 17 28 18 29 19 30 20 31 21 32 67 33
REMARK SMILES IDX 22 34 66 35 23 36 24 37 25 38 60 39 26 40 65 41 59 42 61 43
REMARK SMILES IDX 27 44 64 45 58 46 57 47 28 49 50 50 35 51 49 52 36 53 39 54
REMARK SMILES IDX 48 55 62 56 37 57 38 58 47 60 63 61 40 62 29 63 30 64 34 65
REMARK SMILES IDX 31 66 33 67 32 68 51 69 52 70 56 71 53 72 55 73 54 74 41 75
REMARK SMILES IDX 42 76 46 77 43 78 45 79 44 80
REMARK H PARENT 61 48 39 59
REMARK Flexibility Score: inf
ROOT
ATOM      1  C   UNL A   1      37.521  31.015  31.068  1.00  0.00     0.188 C 
ENDROOT
BRANCH   1   2
ATOM      2  C   UNL A   1      36.421  31.741  30.284  1.00  0.00     0.188 C 
BRANCH   2   3
ATOM      3  O   UNL A   1      36.294  31.273  28.956  1.00  0.00    -0.376 OA
BRANCH   3   4
ATOM      4  C   UNL A   1      35.177  30.492  28.583  1.00  0.00     0.202 C 
BRANCH   4   5
ATOM      5  C   UNL A   1      34.307  30.803  27.345  1.00  0.00     0.261 C 
BRANCH   5   6
ATOM      6  O   UNL A   1      33.058  30.115  27.190  1.00  0.00    -0.463 OA
BRANCH   6   7
ATOM      7  C   UNL A   1      33.143  28.905  26.611  1.00  0.00     0.309 C 
ATOM      8  O   UNL A   1      34.095  28.158  26.809  1.00  0.00    -0.252 OA
BRANCH   7   9
ATOM      9  C   UNL A   1      31.976  28.543  25.671  1.00  0.00     0.106 C 
ATOM     10  C   UNL A   1      31.341  27.153  25.847  1.00  0.00     0.021 C 
BRANCH   9  11
ATOM     11  C   UNL A   1      32.406  28.847  24.215  1.00  0.00     0.072 C 
ATOM     12  C   UNL A   1      33.838  28.434  23.871  1.00  0.00     0.017 C 
BRANCH  11  13
ATOM     13  C   UNL A   1      31.486  28.349  23.081  1.00  0.00     0.166 C 
ATOM     14  O   UNL A   1      31.814  27.340  22.446  1.00  0.00    -0.294 OA
BRANCH  13  15
ATOM     15  C   UNL A   1      30.125  28.927  22.820  1.00  0.00     0.019 A 
ATOM     16  C   UNL A   1      29.021  28.165  23.219  1.00  0.00     0.012 A 
ATOM     17  C   UNL A   1      29.886  30.136  22.162  1.00  0.00     0.032 A 
ATOM     18  C   UNL A   1      27.719  28.632  23.011  1.00  0.00     0.002 A 
ATOM     19  C   UNL A   1      28.591  30.609  21.967  1.00  0.00     0.041 A 
ATOM     20  C   UNL A   1      27.504  29.867  22.398  1.00  0.00     0.020 A 
ATOM     21  Cl  UNL A   1      28.358  32.118  21.172  1.00  0.00    -0.084 Cl
ENDBRANCH  13  15
ENDBRANCH  11  13
ENDBRANCH   9  11
ENDBRANCH   7   9
ENDBRANCH   6   7
ENDBRANCH   5   6
ENDBRANCH   4   5
ENDBRANCH   3   4
ENDBRANCH   2   3
ENDBRANCH   1   2
BRANCH   1  22
ATOM     22  O   UNL A   1      38.633  30.512  30.345  1.00  0.00    -0.377 OA
BRANCH  22  23
ATOM     23  C   UNL A   1      39.345  29.383  30.849  1.00  0.00     0.188 C 
BRANCH  23  24
ATOM     24  C   UNL A   1      39.853  28.268  29.907  1.00  0.00     0.188 C 
BRANCH  24  25
ATOM     25  O   UNL A   1      38.841  27.501  29.281  1.00  0.00    -0.376 OA
BRANCH  25  26
ATOM     26  C   UNL A   1      39.102  26.132  29.022  1.00  0.00     0.202 C 
BRANCH  26  27
ATOM     27  C   UNL A   1      40.200  25.790  28.002  1.00  0.00     0.261 C 
BRANCH  27  28
ATOM     28  O   UNL A   1      41.125  24.754  28.374  1.00  0.00    -0.460 OA
BRANCH  28  29
ATOM     29  C   UNL A   1      41.879  24.196  27.407  1.00  0.00     0.338 C 
ATOM     30  O   UNL A   1      41.606  23.223  26.722  1.00  0.00    -0.246 OA
BRANCH  29  31
ATOM     31  C   UNL A   1      43.032  25.087  27.164  1.00  0.00     0.060 A 
ATOM     32  C   UNL A   1      43.803  25.520  28.252  1.00  0.00     0.016 A 
ATOM     33  C   UNL A   1      43.354  25.486  25.865  1.00  0.00     0.016 A 
ATOM     34  C   UNL A   1      44.875  26.389  28.048  1.00  0.00     0.010 A 
ATOM     35  C   UNL A   1      44.410  26.378  25.666  1.00  0.00     0.010 A 
ATOM     36  C   UNL A   1      45.150  26.863  26.760  1.00  0.00    -0.014 A 
BRANCH  36  37
ATOM     37  C   UNL A   1      46.054  28.025  26.584  1.00  0.00     0.031 A 
ATOM     38  C   UNL A   1      47.511  27.756  26.322  1.00  0.00     0.074 A 
ATOM     39  C   UNL A   1      45.597  29.288  26.631  1.00  0.00     0.049 A 
ATOM     40  N   UNL A   1      48.500  28.599  26.182  1.00  0.00    -0.248 NA
ATOM     41  C   UNL A   1      47.902  26.341  26.204  1.00  0.00     0.031 C 
ATOM     42  C   UNL A   1      44.202  29.681  26.817  1.00  0.00     0.029 A 
ATOM     43  N   UNL A   1      46.274  30.478  26.526  1.00  0.00    -0.354 N 
ATOM     44  C   UNL A   1      49.632  27.818  25.975  1.00  0.00     0.074 A 
ATOM     45  C   UNL A   1      49.212  26.436  26.036  1.00  0.00     0.031 C 
ATOM     46  C   UNL A   1      44.127  31.025  26.819  1.00  0.00     0.029 A 
ATOM     47  C   UNL A   1      45.470  31.582  26.675  1.00  0.00     0.049 A 
ATOM     48  H   UNL A   1      47.242  30.534  26.361  1.00  0.00     0.167 HD
ATOM     49  C   UNL A   1      50.907  28.215  25.753  1.00  0.00     0.031 A 
ATOM     50  C   UNL A   1      45.790  32.891  26.714  1.00  0.00     0.031 A 
ATOM     51  C   UNL A   1      51.326  29.590  25.709  1.00  0.00     0.049 A 
ATOM     52  C   UNL A   1      47.232  33.305  26.559  1.00  0.00     0.074 A 
ATOM     53  C   UNL A   1      52.591  30.096  25.474  1.00  0.00     0.029 A 
ATOM     54  N   UNL A   1      50.490  30.677  25.915  1.00  0.00    -0.354 N 
ATOM     55  N   UNL A   1      48.290  32.561  26.341  1.00  0.00    -0.248 NA
ATOM     56  C   UNL A   1      47.521  34.744  26.651  1.00  0.00     0.031 C 
ATOM     57  C   UNL A   1      52.536  31.486  25.609  1.00  0.00     0.029 A 
ATOM     58  C   UNL A   1      51.221  31.850  25.850  1.00  0.00     0.049 A 
ATOM     59  H   UNL A   1      49.522  30.621  26.083  1.00  0.00     0.167 HD
ATOM     60  C   UNL A   1      49.360  33.442  26.234  1.00  0.00     0.074 A 
ATOM     61  C   UNL A   1      48.821  34.776  26.398  1.00  0.00     0.031 C 
ATOM     62  C   UNL A   1      50.671  33.172  26.014  1.00  0.00     0.031 A 
BRANCH  49  63
ATOM     63  C   UNL A   1      51.948  27.142  25.595  1.00  0.00    -0.014 A 
ATOM     64  C   UNL A   1      52.555  26.534  26.706  1.00  0.00     0.009 A 
ATOM     65  C   UNL A   1      52.308  26.715  24.307  1.00  0.00     0.009 A 
ATOM     66  C   UNL A   1      53.527  25.547  26.528  1.00  0.00     0.001 A 
ATOM     67  C   UNL A   1      53.255  25.704  24.134  1.00  0.00     0.001 A 
ATOM     68  C   UNL A   1      53.872  25.129  25.243  1.00  0.00     0.000 A 
ENDBRANCH  49  63
BRANCH  50  69
ATOM     69  C   UNL A   1      44.733  33.915  26.930  1.00  0.00    -0.014 A 
ATOM     70  C   UNL A   1      44.447  34.389  28.220  1.00  0.00     0.009 A 
ATOM     71  C   UNL A   1      43.981  34.402  25.849  1.00  0.00     0.009 A 
ATOM     72  C   UNL A   1      43.412  35.306  28.425  1.00  0.00     0.001 A 
ATOM     73  C   UNL A   1      42.970  35.344  26.053  1.00  0.00     0.001 A 
ATOM     74  C   UNL A   1      42.679  35.787  27.342  1.00  0.00     0.000 A 
ENDBRANCH  50  69
BRANCH  62  75
ATOM     75  C   UNL A   1      51.611  34.342  25.890  1.00  0.00    -0.014 A 
ATOM     76  C   UNL A   1      52.329  34.830  26.992  1.00  0.00     0.009 A 
ATOM     77  C   UNL A   1      51.812  34.935  24.633  1.00  0.00     0.009 A 
ATOM     78  C   UNL A   1      53.202  35.911  26.844  1.00  0.00     0.001 A 
ATOM     79  C   UNL A   1      52.711  35.991  24.481  1.00  0.00     0.001 A 
ATOM     80  C   UNL A   1      53.396  36.485  25.589  1.00  0.00     0.000 A 
ENDBRANCH  62  75
ENDBRANCH  36  37
ENDBRANCH  29  31
ENDBRANCH  28  29
ENDBRANCH  27  28
ENDBRANCH  26  27
ENDBRANCH  25  26
ENDBRANCH  24  25
ENDBRANCH  23  24
ENDBRANCH  22  23
ENDBRANCH   1  22
TORSDOF 23
ENDMDL
MODEL 3
REMARK VINA RESULT:      -6.6      3.328      6.380
REMARK SMILES C[C@@H](C(=O)OCCOCCOCCOCCOC(=O)c1ccc(-c2c3nc(c(-c4ccccc4)c4ccc([nH]4)c(-c4ccccc4)c4nc(c(-c5ccccc5)c5ccc2[nH]5)C=C4)C=C3)cc1)[C@@H](C)C(=O)c1cccc(Cl)c1
REMARK SMILES IDX 10 1 9 2 8 3 7 4 6 5 5 6 3 7 4 8 2 9 1 10 68 11 69 12 70 13
REMARK SMILES IDX 71 14 72 15 73 16 78 17 74 18 76 19 75 20 77 21 11 22 12 23
REMARK SMILES IDX 13 24 14 25 15 26 16 27 17 28 18 29 19 30 20 31 21 32 67 33
REMARK SMILES IDX 22 34 66 35 23 36 24 37 25 38 60 39 26 40 65 41 59 42 61 43
REMARK SMILES IDX 27 44 64 45 58 46 57 47 28 49 50 50 35 51 49 52 36 53 39 54
REMARK SMILES IDX 48 55 62 56 37 57 38 58 47 60 63 61 40 62 29 63 30 64 34 65
REMARK SMILES IDX 31 66 33 67 32 68 51 69 52 70 56 71 53 72 55 73 54 74 41 75
REMARK SMILES IDX 42 76 46 77 43 78 45 79 44 80
REMARK H PARENT 61 48 39 59
REMARK Flexibility Score: inf
ROOT
ATOM      1  C   UNL A   1      48.404  27.533  24.566  1.00  0.00     0.188 C 
ENDROOT
BRANCH   1   2
ATOM      2  C   UNL A   1      47.101  27.924  23.857  1.00  0.00     0.188 C 
BRANCH   2   3
ATOM      3  O   UNL A   1      46.224  28.657  24.688  1.00  0.00    -0.376 OA
BRANCH   3   4
ATOM      4  C   UNL A   1      45.278  27.982  25.493  1.00  0.00     0.202 C 
BRANCH   4   5
ATOM      5  C   UNL A   1      44.887  26.504  25.274  1.00  0.00     0.261 C 
BRANCH   5   6
ATOM      6  O   UNL A   1      43.511  26.125  25.422  1.00  0.00    -0.463 OA
BRANCH   6   7
ATOM      7  C   UNL A   1      43.274  25.204  26.372  1.00  0.00     0.309 C 
ATOM      8  O   UNL A   1      44.074  24.309  26.620  1.00  0.00    -0.252 OA
BRANCH   7   9
ATOM      9  C   UNL A   1      41.922  25.346  27.101  1.00  0.00     0.106 C 
ATOM     10  C   UNL A   1      40.764  25.975  26.308  1.00  0.00     0.021 C 
BRANCH   9  11
ATOM     11  C   UNL A   1      42.173  26.021  28.471  1.00  0.00     0.072 C 
ATOM     12  C   UNL A   1      43.571  25.796  29.050  1.00  0.00     0.017 C 
BRANCH  11  13
ATOM     13  C   UNL A   1      41.846  27.524  28.597  1.00  0.00     0.166 C 
ATOM     14  O   UNL A   1      42.680  28.350  28.208  1.00  0.00    -0.294 OA
BRANCH  13  15
ATOM     15  C   UNL A   1      40.494  28.034  29.007  1.00  0.00     0.019 A 
ATOM     16  C   UNL A   1      39.687  27.171  29.757  1.00  0.00     0.012 A 
ATOM     17  C   UNL A   1      39.969  29.278  28.648  1.00  0.00     0.032 A 
ATOM     18  C   UNL A   1      38.414  27.569  30.177  1.00  0.00     0.002 A 
ATOM     19  C   UNL A   1      38.709  29.682  29.078  1.00  0.00     0.041 A 
ATOM     20  C   UNL A   1      37.930  28.836  29.851  1.00  0.00     0.020 A 
ATOM     21  Cl  UNL A   1      38.124  31.237  28.624  1.00  0.00    -0.084 Cl
ENDBRANCH  13  15
ENDBRANCH  11  13
ENDBRANCH   9  11
ENDBRANCH   7   9
ENDBRANCH   6   7
ENDBRANCH   5   6
ENDBRANCH   4   5
ENDBRANCH   3   4
ENDBRANCH   2   3
ENDBRANCH   1   2
BRANCH   1  22
ATOM     22  O   UNL A   1      49.617  28.089  24.084  1.00  0.00    -0.377 OA
BRANCH  22  23
ATOM     23  C   UNL A   1      50.712  27.227  23.781  1.00  0.00     0.188 C 
BRANCH  23  24
ATOM     24  C   UNL A   1      52.111  27.793  23.444  1.00  0.00     0.188 C 
BRANCH  24  25
ATOM     25  O   UNL A   1      53.126  26.823  23.263  1.00  0.00    -0.376 OA
BRANCH  25  26
ATOM     26  C   UNL A   1      53.080  25.649  24.055  1.00  0.00     0.202 C 
BRANCH  26  27
ATOM     27  C   UNL A   1      53.570  25.743  25.509  1.00  0.00     0.261 C 
BRANCH  27  28
ATOM     28  O   UNL A   1      52.627  25.376  26.531  1.00  0.00    -0.460 OA
BRANCH  28  29
ATOM     29  C   UNL A   1      52.741  25.960  27.741  1.00  0.00     0.338 C 
ATOM     30  O   UNL A   1      53.765  26.161  28.374  1.00  0.00    -0.246 OA
BRANCH  29  31
ATOM     31  C   UNL A   1      51.418  26.510  28.101  1.00  0.00     0.060 A 
ATOM     32  C   UNL A   1      51.345  27.590  28.992  1.00  0.00     0.016 A 
ATOM     33  C   UNL A   1      50.254  25.965  27.554  1.00  0.00     0.016 A 
ATOM     34  C   UNL A   1      50.105  28.102  29.372  1.00  0.00     0.010 A 
ATOM     35  C   UNL A   1      49.012  26.461  27.956  1.00  0.00     0.010 A 
ATOM     36  C   UNL A   1      48.932  27.505  28.895  1.00  0.00    -0.014 A 
BRANCH  36  37
ATOM     37  C   UNL A   1      47.636  27.819  29.544  1.00  0.00     0.031 A 
ATOM     38  C   UNL A   1      46.866  29.013  29.048  1.00  0.00     0.074 A 
ATOM     39  C   UNL A   1      47.137  27.055  30.530  1.00  0.00     0.049 A 
ATOM     40  N   UNL A   1      45.739  29.515  29.481  1.00  0.00    -0.248 NA
ATOM     41  C   UNL A   1      47.451  29.739  27.907  1.00  0.00     0.031 C 
ATOM     42  C   UNL A   1      47.753  25.840  31.059  1.00  0.00     0.029 A 
ATOM     43  N   UNL A   1      45.987  27.199  31.266  1.00  0.00    -0.354 N 
ATOM     44  C   UNL A   1      45.489  30.622  28.679  1.00  0.00     0.074 A 
ATOM     45  C   UNL A   1      46.593  30.735  27.753  1.00  0.00     0.031 C 
ATOM     46  C   UNL A   1      46.975  25.351  32.042  1.00  0.00     0.029 A 
ATOM     47  C   UNL A   1      45.830  26.239  32.236  1.00  0.00     0.049 A 
ATOM     48  H   UNL A   1      45.337  27.923  31.113  1.00  0.00     0.167 HD
ATOM     49  C   UNL A   1      44.434  31.470  28.709  1.00  0.00     0.031 A 
ATOM     50  C   UNL A   1      44.883  26.110  33.186  1.00  0.00     0.031 A 
ATOM     51  C   UNL A   1      43.344  31.366  29.642  1.00  0.00     0.049 A 
ATOM     52  C   UNL A   1      43.767  27.122  33.260  1.00  0.00     0.074 A 
ATOM     53  C   UNL A   1      42.220  32.165  29.743  1.00  0.00     0.029 A 
ATOM     54  N   UNL A   1      43.249  30.410  30.641  1.00  0.00    -0.354 N 
ATOM     55  N   UNL A   1      43.527  28.150  32.483  1.00  0.00    -0.248 NA
ATOM     56  C   UNL A   1      42.788  26.948  34.343  1.00  0.00     0.031 C 
ATOM     57  C   UNL A   1      41.480  31.737  30.849  1.00  0.00     0.029 A 
ATOM     58  C   UNL A   1      42.104  30.622  31.388  1.00  0.00     0.049 A 
ATOM     59  H   UNL A   1      43.900  29.688  30.796  1.00  0.00     0.167 HD
ATOM     60  C   UNL A   1      42.353  28.723  32.960  1.00  0.00     0.074 A 
ATOM     61  C   UNL A   1      41.923  27.919  34.085  1.00  0.00     0.031 C 
ATOM     62  C   UNL A   1      41.687  29.813  32.505  1.00  0.00     0.031 A 
BRANCH  49  63
ATOM     63  C   UNL A   1      44.438  32.615  27.736  1.00  0.00    -0.014 A 
ATOM     64  C   UNL A   1      44.843  33.905  28.116  1.00  0.00     0.009 A 
ATOM     65  C   UNL A   1      44.053  32.391  26.404  1.00  0.00     0.009 A 
ATOM     66  C   UNL A   1      44.827  34.952  27.193  1.00  0.00     0.001 A 
ATOM     67  C   UNL A   1      44.071  33.432  25.475  1.00  0.00     0.001 A 
ATOM     68  C   UNL A   1      44.446  34.714  25.872  1.00  0.00     0.000 A 
ENDBRANCH  49  63
BRANCH  50  69
ATOM     69  C   UNL A   1      44.950  24.992  34.165  1.00  0.00    -0.014 A 
ATOM     70  C   UNL A   1      44.352  23.754  33.882  1.00  0.00     0.009 A 
ATOM     71  C   UNL A   1      45.587  25.167  35.404  1.00  0.00     0.009 A 
ATOM     72  C   UNL A   1      44.365  22.727  34.829  1.00  0.00     0.001 A 
ATOM     73  C   UNL A   1      45.627  24.128  36.335  1.00  0.00     0.001 A 
ATOM     74  C   UNL A   1      45.007  22.912  36.052  1.00  0.00     0.000 A 
ENDBRANCH  50  69
BRANCH  62  75
ATOM     75  C   UNL A   1      40.397  30.177  33.191  1.00  0.00    -0.014 A 
ATOM     76  C   UNL A   1      40.342  31.173  34.177  1.00  0.00     0.009 A 
ATOM     77  C   UNL A   1      39.207  29.538  32.806  1.00  0.00     0.009 A 
ATOM     78  C   UNL A   1      39.128  31.496  34.789  1.00  0.00     0.001 A 
ATOM     79  C   UNL A   1      37.991  29.888  33.393  1.00  0.00     0.001 A 
ATOM     80  C   UNL A   1      37.954  30.858  34.392  1.00  0.00     0.000 A 
ENDBRANCH  62  75
ENDBRANCH  36  37
ENDBRANCH  29  31
ENDBRANCH  28  29
ENDBRANCH  27  28
ENDBRANCH  26  27
ENDBRANCH  25  26
ENDBRANCH  24  25
ENDBRANCH  23  24
ENDBRANCH  22  23
ENDBRANCH   1  22
TORSDOF 23
ENDMDL
