MODEL 1
REMARK VINA RESULT:      -9.1      0.000      0.000
REMARK SMILES C[C@@H](CC1CC1)NC(=O)c1cccn1CC(=O)OCCOCCOCCOCCOC(=O)c1ccc(-c2c3nc(c(-c4ccccc4)c4ccc([nH]4)c(-c4ccccc4)c4nc(c(-c5ccccc5)c5ccc2[nH]5)C=C4)C=C3)cc1
REMARK SMILES IDX 22 1 21 2 20 3 19 4 18 5 16 6 17 7 15 8 14 9 10 10 11 11
REMARK SMILES IDX 12 12 13 13 8 14 7 15 9 17 2 18 1 19 3 20 4 21 5 22 6 23
REMARK SMILES IDX 23 24 24 25 25 26 26 27 27 28 28 29 29 30 30 31 31 32 32 33
REMARK SMILES IDX 33 34 34 35 80 36 35 37 79 38 36 39 37 40 38 41 73 42 39 43
REMARK SMILES IDX 78 44 72 45 74 46 40 47 77 48 71 49 70 50 41 52 63 53 48 54
REMARK SMILES IDX 62 55 49 56 52 57 61 58 75 59 50 60 51 61 60 63 76 64 53 65
REMARK SMILES IDX 42 66 43 67 47 68 44 69 46 70 45 71 64 72 65 73 69 74 66 75
REMARK SMILES IDX 68 76 67 77 54 78 55 79 59 80 56 81 58 82 57 83
REMARK H PARENT 7 16 74 51 52 62
REMARK Flexibility Score: inf
ROOT
ATOM      1  C   UNL A   1      36.182  21.242  25.367  1.00  0.00     0.188 C 
ENDROOT
BRANCH   1   2
ATOM      2  O   UNL A   1      35.313  20.598  24.438  1.00  0.00    -0.376 OA
BRANCH   2   3
ATOM      3  C   UNL A   1      34.341  19.691  24.924  1.00  0.00     0.202 C 
BRANCH   3   4
ATOM      4  C   UNL A   1      32.971  19.735  24.236  1.00  0.00     0.261 C 
BRANCH   4   5
ATOM      5  O   UNL A   1      31.928  20.315  25.041  1.00  0.00    -0.462 OA
BRANCH   5   6
ATOM      6  C   UNL A   1      32.172  21.560  25.525  1.00  0.00     0.326 C 
ATOM      7  O   UNL A   1      32.555  21.788  26.671  1.00  0.00    -0.250 OA
BRANCH   6   8
ATOM      8  C   UNL A   1      32.014  22.672  24.515  1.00  0.00     0.244 C 
BRANCH   8   9
ATOM      9  N   UNL A   1      32.849  23.870  24.661  1.00  0.00    -0.332 N 
ATOM     10  C   UNL A   1      32.562  24.996  25.424  1.00  0.00     0.107 A 
ATOM     11  C   UNL A   1      33.726  25.756  25.437  1.00  0.00     0.033 A 
ATOM     12  C   UNL A   1      34.703  25.118  24.643  1.00  0.00     0.020 A 
ATOM     13  C   UNL A   1      34.146  23.946  24.197  1.00  0.00     0.087 A 
BRANCH  10  14
ATOM     14  C   UNL A   1      31.315  25.189  26.135  1.00  0.00     0.268 C 
ATOM     15  N   UNL A   1      30.365  26.062  25.685  1.00  0.00    -0.348 N 
ATOM     16  H   UNL A   1      29.703  26.313  26.370  1.00  0.00     0.164 HD
ATOM     17  O   UNL A   1      31.053  24.590  27.177  1.00  0.00    -0.268 OA
BRANCH  15  18
ATOM     18  C   UNL A   1      30.140  26.695  24.391  1.00  0.00     0.079 C 
ATOM     19  C   UNL A   1      28.718  26.434  23.894  1.00  0.00     0.031 C 
BRANCH  18  20
ATOM     20  C   UNL A   1      30.501  28.191  24.415  1.00  0.00     0.028 C 
BRANCH  20  21
ATOM     21  C   UNL A   1      31.647  28.649  25.284  1.00  0.00    -0.009 C 
ATOM     22  C   UNL A   1      32.818  29.352  24.636  1.00  0.00     0.004 C 
ATOM     23  C   UNL A   1      31.997  30.073  25.660  1.00  0.00     0.004 C 
ENDBRANCH  20  21
ENDBRANCH  18  20
ENDBRANCH  15  18
ENDBRANCH  10  14
ENDBRANCH   8   9
ENDBRANCH   6   8
ENDBRANCH   5   6
ENDBRANCH   4   5
ENDBRANCH   3   4
ENDBRANCH   2   3
ENDBRANCH   1   2
BRANCH   1  24
ATOM     24  C   UNL A   1      37.698  21.385  25.090  1.00  0.00     0.188 C 
BRANCH  24  25
ATOM     25  O   UNL A   1      38.459  21.912  26.174  1.00  0.00    -0.377 OA
BRANCH  25  26
ATOM     26  C   UNL A   1      39.828  21.530  26.187  1.00  0.00     0.188 C 
BRANCH  26  27
ATOM     27  C   UNL A   1      40.622  22.178  27.326  1.00  0.00     0.188 C 
BRANCH  27  28
ATOM     28  O   UNL A   1      42.029  22.081  27.129  1.00  0.00    -0.376 OA
BRANCH  28  29
ATOM     29  C   UNL A   1      42.781  23.281  27.068  1.00  0.00     0.202 C 
BRANCH  29  30
ATOM     30  C   UNL A   1      42.135  24.430  27.853  1.00  0.00     0.261 C 
BRANCH  30  31
ATOM     31  O   UNL A   1      42.185  25.710  27.215  1.00  0.00    -0.460 OA
BRANCH  31  32
ATOM     32  C   UNL A   1      41.079  26.047  26.541  1.00  0.00     0.338 C 
ATOM     33  O   UNL A   1      40.682  25.609  25.461  1.00  0.00    -0.246 OA
BRANCH  32  34
ATOM     34  C   UNL A   1      40.350  27.093  27.231  1.00  0.00     0.060 A 
ATOM     35  C   UNL A   1      40.860  28.393  27.147  1.00  0.00     0.016 A 
ATOM     36  C   UNL A   1      39.423  26.705  28.203  1.00  0.00     0.016 A 
ATOM     37  C   UNL A   1      40.553  29.288  28.149  1.00  0.00     0.010 A 
ATOM     38  C   UNL A   1      39.149  27.590  29.226  1.00  0.00     0.010 A 
ATOM     39  C   UNL A   1      39.766  28.851  29.221  1.00  0.00    -0.014 A 
BRANCH  39  40
ATOM     40  C   UNL A   1      39.612  29.736  30.381  1.00  0.00     0.031 A 
ATOM     41  C   UNL A   1      40.524  29.377  31.529  1.00  0.00     0.074 A 
ATOM     42  C   UNL A   1      38.683  30.728  30.260  1.00  0.00     0.049 A 
ATOM     43  N   UNL A   1      40.447  29.743  32.768  1.00  0.00    -0.248 NA
ATOM     44  C   UNL A   1      41.660  28.449  31.290  1.00  0.00     0.031 C 
ATOM     45  C   UNL A   1      37.839  30.924  29.062  1.00  0.00     0.029 A 
ATOM     46  N   UNL A   1      38.251  31.750  31.081  1.00  0.00    -0.354 N 
ATOM     47  C   UNL A   1      41.592  29.250  33.410  1.00  0.00     0.074 A 
ATOM     48  C   UNL A   1      42.250  28.380  32.483  1.00  0.00     0.031 C 
ATOM     49  C   UNL A   1      36.974  31.939  29.250  1.00  0.00     0.029 A 
ATOM     50  C   UNL A   1      37.186  32.521  30.561  1.00  0.00     0.049 A 
ATOM     51  H   UNL A   1      38.655  31.929  31.960  1.00  0.00     0.167 HD
ATOM     52  C   UNL A   1      42.012  29.704  34.621  1.00  0.00     0.031 A 
ATOM     53  C   UNL A   1      36.496  33.551  31.133  1.00  0.00     0.031 A 
ATOM     54  C   UNL A   1      41.068  30.602  35.198  1.00  0.00     0.049 A 
ATOM     55  C   UNL A   1      37.190  33.912  32.382  1.00  0.00     0.074 A 
ATOM     56  C   UNL A   1      39.804  30.440  35.705  1.00  0.00     0.029 A 
ATOM     57  N   UNL A   1      41.289  31.942  34.994  1.00  0.00    -0.354 N 
ATOM     58  N   UNL A   1      38.350  34.493  32.444  1.00  0.00    -0.248 NA
ATOM     59  C   UNL A   1      36.574  33.581  33.673  1.00  0.00     0.031 C 
ATOM     60  C   UNL A   1      39.145  31.655  35.404  1.00  0.00     0.029 A 
ATOM     61  C   UNL A   1      40.059  32.529  34.810  1.00  0.00     0.049 A 
ATOM     62  H   UNL A   1      42.162  32.397  34.981  1.00  0.00     0.167 HD
ATOM     63  C   UNL A   1      38.757  34.216  33.728  1.00  0.00     0.074 A 
ATOM     64  C   UNL A   1      37.556  33.956  34.490  1.00  0.00     0.031 C 
ATOM     65  C   UNL A   1      39.985  33.674  33.928  1.00  0.00     0.031 A 
BRANCH  52  66
ATOM     66  C   UNL A   1      43.372  29.594  35.238  1.00  0.00    -0.014 A 
ATOM     67  C   UNL A   1      43.491  28.854  36.432  1.00  0.00     0.009 A 
ATOM     68  C   UNL A   1      44.447  30.416  34.875  1.00  0.00     0.009 A 
ATOM     69  C   UNL A   1      44.598  28.993  37.270  1.00  0.00     0.001 A 
ATOM     70  C   UNL A   1      45.576  30.526  35.695  1.00  0.00     0.001 A 
ATOM     71  C   UNL A   1      45.637  29.840  36.904  1.00  0.00     0.000 A 
ENDBRANCH  52  66
BRANCH  53  72
ATOM     72  C   UNL A   1      35.250  34.330  30.806  1.00  0.00    -0.014 A 
ATOM     73  C   UNL A   1      34.536  34.255  29.606  1.00  0.00     0.009 A 
ATOM     74  C   UNL A   1      34.667  35.146  31.813  1.00  0.00     0.009 A 
ATOM     75  C   UNL A   1      33.295  34.899  29.446  1.00  0.00     0.001 A 
ATOM     76  C   UNL A   1      33.414  35.752  31.677  1.00  0.00     0.001 A 
ATOM     77  C   UNL A   1      32.721  35.621  30.488  1.00  0.00     0.000 A 
ENDBRANCH  53  72
BRANCH  65  78
ATOM     78  C   UNL A   1      40.999  33.985  32.839  1.00  0.00    -0.014 A 
ATOM     79  C   UNL A   1      41.186  33.101  31.765  1.00  0.00     0.009 A 
ATOM     80  C   UNL A   1      41.863  35.090  32.919  1.00  0.00     0.009 A 
ATOM     81  C   UNL A   1      42.206  33.306  30.826  1.00  0.00     0.001 A 
ATOM     82  C   UNL A   1      42.879  35.305  31.980  1.00  0.00     0.001 A 
ATOM     83  C   UNL A   1      43.054  34.405  30.934  1.00  0.00     0.000 A 
ENDBRANCH  65  78
ENDBRANCH  39  40
ENDBRANCH  32  34
ENDBRANCH  31  32
ENDBRANCH  30  31
ENDBRANCH  29  30
ENDBRANCH  28  29
ENDBRANCH  27  28
ENDBRANCH  26  27
ENDBRANCH  25  26
ENDBRANCH  24  25
ENDBRANCH   1  24
TORSDOF 25
ENDMDL
MODEL 2
REMARK VINA RESULT:      -9.1      3.218      8.330
REMARK SMILES C[C@@H](CC1CC1)NC(=O)c1cccn1CC(=O)OCCOCCOCCOCCOC(=O)c1ccc(-c2c3nc(c(-c4ccccc4)c4ccc([nH]4)c(-c4ccccc4)c4nc(c(-c5ccccc5)c5ccc2[nH]5)C=C4)C=C3)cc1
REMARK SMILES IDX 22 1 21 2 20 3 19 4 18 5 16 6 17 7 15 8 14 9 10 10 11 11
REMARK SMILES IDX 12 12 13 13 8 14 7 15 9 17 2 18 1 19 3 20 4 21 5 22 6 23
REMARK SMILES IDX 23 24 24 25 25 26 26 27 27 28 28 29 29 30 30 31 31 32 32 33
REMARK SMILES IDX 33 34 34 35 80 36 35 37 79 38 36 39 37 40 38 41 73 42 39 43
REMARK SMILES IDX 78 44 72 45 74 46 40 47 77 48 71 49 70 50 41 52 63 53 48 54
REMARK SMILES IDX 62 55 49 56 52 57 61 58 75 59 50 60 51 61 60 63 76 64 53 65
REMARK SMILES IDX 42 66 43 67 47 68 44 69 46 70 45 71 64 72 65 73 69 74 66 75
REMARK SMILES IDX 68 76 67 77 54 78 55 79 59 80 56 81 58 82 57 83
REMARK H PARENT 7 16 74 51 52 62
REMARK Flexibility Score: inf
ROOT
ATOM      1  C   UNL A   1      31.805  30.006  25.417  1.00  0.00     0.188 C 
ENDROOT
BRANCH   1   2
ATOM      2  O   UNL A   1      31.273  28.980  24.582  1.00  0.00    -0.376 OA
BRANCH   2   3
ATOM      3  C   UNL A   1      31.389  27.631  24.995  1.00  0.00     0.202 C 
BRANCH   3   4
ATOM      4  C   UNL A   1      30.517  26.617  24.245  1.00  0.00     0.261 C 
BRANCH   4   5
ATOM      5  O   UNL A   1      31.227  25.850  23.254  1.00  0.00    -0.462 OA
BRANCH   5   6
ATOM      6  C   UNL A   1      31.330  24.517  23.493  1.00  0.00     0.326 C 
ATOM      7  O   UNL A   1      30.465  23.697  23.190  1.00  0.00    -0.250 OA
BRANCH   6   8
ATOM      8  C   UNL A   1      32.643  24.084  24.102  1.00  0.00     0.244 C 
BRANCH   8   9
ATOM      9  N   UNL A   1      32.615  23.381  25.389  1.00  0.00    -0.332 N 
ATOM     10  C   UNL A   1      33.363  22.264  25.743  1.00  0.00     0.107 A 
ATOM     11  C   UNL A   1      33.174  22.095  27.110  1.00  0.00     0.033 A 
ATOM     12  C   UNL A   1      32.273  23.076  27.577  1.00  0.00     0.020 A 
ATOM     13  C   UNL A   1      31.963  23.871  26.502  1.00  0.00     0.087 A 
BRANCH  10  14
ATOM     14  C   UNL A   1      34.240  21.561  24.830  1.00  0.00     0.268 C 
ATOM     15  N   UNL A   1      33.789  20.523  24.064  1.00  0.00    -0.348 N 
ATOM     16  H   UNL A   1      34.508  19.958  23.701  1.00  0.00     0.164 HD
ATOM     17  O   UNL A   1      35.429  21.852  24.705  1.00  0.00    -0.268 OA
BRANCH  15  18
ATOM     18  C   UNL A   1      32.451  20.089  23.680  1.00  0.00     0.079 C 
ATOM     19  C   UNL A   1      32.019  20.742  22.367  1.00  0.00     0.031 C 
BRANCH  18  20
ATOM     20  C   UNL A   1      32.332  18.555  23.654  1.00  0.00     0.028 C 
BRANCH  20  21
ATOM     21  C   UNL A   1      33.542  17.726  24.010  1.00  0.00    -0.009 C 
ATOM     22  C   UNL A   1      33.376  16.234  24.189  1.00  0.00     0.004 C 
ATOM     23  C   UNL A   1      34.280  16.754  23.114  1.00  0.00     0.004 C 
ENDBRANCH  20  21
ENDBRANCH  18  20
ENDBRANCH  15  18
ENDBRANCH  10  14
ENDBRANCH   8   9
ENDBRANCH   6   8
ENDBRANCH   5   6
ENDBRANCH   4   5
ENDBRANCH   3   4
ENDBRANCH   2   3
ENDBRANCH   1   2
BRANCH   1  24
ATOM     24  C   UNL A   1      32.946  29.717  26.423  1.00  0.00     0.188 C 
BRANCH  24  25
ATOM     25  O   UNL A   1      33.020  30.622  27.522  1.00  0.00    -0.377 OA
BRANCH  25  26
ATOM     26  C   UNL A   1      33.691  31.845  27.248  1.00  0.00     0.188 C 
BRANCH  26  27
ATOM     27  C   UNL A   1      34.360  32.453  28.485  1.00  0.00     0.188 C 
BRANCH  27  28
ATOM     28  O   UNL A   1      35.039  33.670  28.190  1.00  0.00    -0.376 OA
BRANCH  28  29
ATOM     29  C   UNL A   1      34.373  34.891  28.462  1.00  0.00     0.202 C 
BRANCH  29  30
ATOM     30  C   UNL A   1      33.333  34.768  29.582  1.00  0.00     0.261 C 
BRANCH  30  31
ATOM     31  O   UNL A   1      33.438  35.744  30.624  1.00  0.00    -0.460 OA
BRANCH  31  32
ATOM     32  C   UNL A   1      33.021  35.331  31.827  1.00  0.00     0.338 C 
ATOM     33  O   UNL A   1      31.877  35.343  32.282  1.00  0.00    -0.246 OA
BRANCH  32  34
ATOM     34  C   UNL A   1      34.135  34.870  32.632  1.00  0.00     0.060 A 
ATOM     35  C   UNL A   1      35.372  35.491  32.430  1.00  0.00     0.016 A 
ATOM     36  C   UNL A   1      34.003  33.637  33.276  1.00  0.00     0.016 A 
ATOM     37  C   UNL A   1      36.519  34.793  32.744  1.00  0.00     0.010 A 
ATOM     38  C   UNL A   1      35.153  32.924  33.552  1.00  0.00     0.010 A 
ATOM     39  C   UNL A   1      36.397  33.485  33.225  1.00  0.00    -0.014 A 
BRANCH  39  40
ATOM     40  C   UNL A   1      37.614  32.675  33.363  1.00  0.00     0.031 A 
ATOM     41  C   UNL A   1      37.720  31.580  32.330  1.00  0.00     0.074 A 
ATOM     42  C   UNL A   1      38.449  33.017  34.387  1.00  0.00     0.049 A 
ATOM     43  N   UNL A   1      38.479  30.533  32.337  1.00  0.00    -0.248 NA
ATOM     44  C   UNL A   1      36.834  31.620  31.137  1.00  0.00     0.031 C 
ATOM     45  C   UNL A   1      38.177  34.112  35.342  1.00  0.00     0.029 A 
ATOM     46  N   UNL A   1      39.663  32.541  34.840  1.00  0.00    -0.354 N 
ATOM     47  C   UNL A   1      38.302  29.892  31.102  1.00  0.00     0.074 A 
ATOM     48  C   UNL A   1      37.208  30.544  30.446  1.00  0.00     0.031 C 
ATOM     49  C   UNL A   1      39.143  34.179  36.277  1.00  0.00     0.029 A 
ATOM     50  C   UNL A   1      40.148  33.168  36.011  1.00  0.00     0.049 A 
ATOM     51  H   UNL A   1      40.153  31.820  34.383  1.00  0.00     0.167 HD
ATOM     52  C   UNL A   1      39.164  28.955  30.626  1.00  0.00     0.031 A 
ATOM     53  C   UNL A   1      41.269  32.899  36.742  1.00  0.00     0.031 A 
ATOM     54  C   UNL A   1      40.148  28.609  31.597  1.00  0.00     0.049 A 
ATOM     55  C   UNL A   1      42.072  31.924  35.984  1.00  0.00     0.074 A 
ATOM     56  C   UNL A   1      40.094  27.943  32.795  1.00  0.00     0.029 A 
ATOM     57  N   UNL A   1      41.349  29.271  31.518  1.00  0.00    -0.354 N 
ATOM     58  N   UNL A   1      42.707  32.185  34.880  1.00  0.00    -0.248 NA
ATOM     59  C   UNL A   1      42.165  30.538  36.457  1.00  0.00     0.031 C 
ATOM     60  C   UNL A   1      41.094  28.556  33.585  1.00  0.00     0.029 A 
ATOM     61  C   UNL A   1      41.766  29.503  32.807  1.00  0.00     0.049 A 
ATOM     62  H   UNL A   1      41.822  29.529  30.694  1.00  0.00     0.167 HD
ATOM     63  C   UNL A   1      42.906  30.935  34.344  1.00  0.00     0.074 A 
ATOM     64  C   UNL A   1      42.851  30.003  35.449  1.00  0.00     0.031 C 
ATOM     65  C   UNL A   1      42.537  30.701  33.059  1.00  0.00     0.031 A 
BRANCH  52  66
ATOM     66  C   UNL A   1      39.349  28.489  29.216  1.00  0.00    -0.014 A 
ATOM     67  C   UNL A   1      39.373  27.099  28.983  1.00  0.00     0.009 A 
ATOM     68  C   UNL A   1      39.796  29.327  28.184  1.00  0.00     0.009 A 
ATOM     69  C   UNL A   1      39.898  26.564  27.806  1.00  0.00     0.001 A 
ATOM     70  C   UNL A   1      40.286  28.792  26.987  1.00  0.00     0.001 A 
ATOM     71  C   UNL A   1      40.365  27.414  26.811  1.00  0.00     0.000 A 
ENDBRANCH  52  66
BRANCH  53  72
ATOM     72  C   UNL A   1      41.816  33.327  38.078  1.00  0.00    -0.014 A 
ATOM     73  C   UNL A   1      43.052  33.947  38.289  1.00  0.00     0.009 A 
ATOM     74  C   UNL A   1      40.996  33.194  39.230  1.00  0.00     0.009 A 
ATOM     75  C   UNL A   1      43.416  34.456  39.550  1.00  0.00     0.001 A 
ATOM     76  C   UNL A   1      41.332  33.735  40.475  1.00  0.00     0.001 A 
ATOM     77  C   UNL A   1      42.546  34.377  40.633  1.00  0.00     0.000 A 
ENDBRANCH  53  72
BRANCH  65  78
ATOM     78  C   UNL A   1      42.518  31.936  32.173  1.00  0.00    -0.014 A 
ATOM     79  C   UNL A   1      43.698  32.406  31.577  1.00  0.00     0.009 A 
ATOM     80  C   UNL A   1      41.361  32.719  32.011  1.00  0.00     0.009 A 
ATOM     81  C   UNL A   1      43.723  33.615  30.868  1.00  0.00     0.001 A 
ATOM     82  C   UNL A   1      41.377  33.923  31.296  1.00  0.00     0.001 A 
ATOM     83  C   UNL A   1      42.563  34.374  30.729  1.00  0.00     0.000 A 
ENDBRANCH  65  78
ENDBRANCH  39  40
ENDBRANCH  32  34
ENDBRANCH  31  32
ENDBRANCH  30  31
ENDBRANCH  29  30
ENDBRANCH  28  29
ENDBRANCH  27  28
ENDBRANCH  26  27
ENDBRANCH  25  26
ENDBRANCH  24  25
ENDBRANCH   1  24
TORSDOF 25
ENDMDL
MODEL 3
REMARK VINA RESULT:      -8.5      4.538      8.907
REMARK SMILES C[C@@H](CC1CC1)NC(=O)c1cccn1CC(=O)OCCOCCOCCOCCOC(=O)c1ccc(-c2c3nc(c(-c4ccccc4)c4ccc([nH]4)c(-c4ccccc4)c4nc(c(-c5ccccc5)c5ccc2[nH]5)C=C4)C=C3)cc1
REMARK SMILES IDX 22 1 21 2 20 3 19 4 18 5 16 6 17 7 15 8 14 9 10 10 11 11
REMARK SMILES IDX 12 12 13 13 8 14 7 15 9 17 2 18 1 19 3 20 4 21 5 22 6 23
REMARK SMILES IDX 23 24 24 25 25 26 26 27 27 28 28 29 29 30 30 31 31 32 32 33
REMARK SMILES IDX 33 34 34 35 80 36 35 37 79 38 36 39 37 40 38 41 73 42 39 43
REMARK SMILES IDX 78 44 72 45 74 46 40 47 77 48 71 49 70 50 41 52 63 53 48 54
REMARK SMILES IDX 62 55 49 56 52 57 61 58 75 59 50 60 51 61 60 63 76 64 53 65
REMARK SMILES IDX 42 66 43 67 47 68 44 69 46 70 45 71 64 72 65 73 69 74 66 75
REMARK SMILES IDX 68 76 67 77 54 78 55 79 59 80 56 81 58 82 57 83
REMARK H PARENT 7 16 74 51 52 62
REMARK Flexibility Score: inf
ROOT
ATOM      1  C   UNL A   1      38.116  22.172  25.787  1.00  0.00     0.188 C 
ENDROOT
BRANCH   1   2
ATOM      2  O   UNL A   1      37.603  22.458  24.487  1.00  0.00    -0.376 OA
BRANCH   2   3
ATOM      3  C   UNL A   1      36.449  23.269  24.370  1.00  0.00     0.202 C 
BRANCH   3   4
ATOM      4  C   UNL A   1      35.558  23.360  25.615  1.00  0.00     0.261 C 
BRANCH   4   5
ATOM      5  O   UNL A   1      34.674  24.496  25.623  1.00  0.00    -0.462 OA
BRANCH   5   6
ATOM      6  C   UNL A   1      33.345  24.216  25.625  1.00  0.00     0.326 C 
ATOM      7  O   UNL A   1      32.871  23.138  25.977  1.00  0.00    -0.250 OA
BRANCH   6   8
ATOM      8  C   UNL A   1      32.456  25.372  25.232  1.00  0.00     0.244 C 
BRANCH   8   9
ATOM      9  N   UNL A   1      33.063  26.700  25.085  1.00  0.00    -0.332 N 
ATOM     10  C   UNL A   1      33.165  27.444  23.915  1.00  0.00     0.107 A 
ATOM     11  C   UNL A   1      33.601  28.706  24.301  1.00  0.00     0.033 A 
ATOM     12  C   UNL A   1      33.813  28.715  25.697  1.00  0.00     0.020 A 
ATOM     13  C   UNL A   1      33.451  27.474  26.159  1.00  0.00     0.087 A 
BRANCH  10  14
ATOM     14  C   UNL A   1      32.749  26.959  22.615  1.00  0.00     0.268 C 
ATOM     15  N   UNL A   1      31.430  26.879  22.271  1.00  0.00    -0.348 N 
ATOM     16  H   UNL A   1      31.258  26.295  21.497  1.00  0.00     0.164 HD
ATOM     17  O   UNL A   1      33.557  26.586  21.764  1.00  0.00    -0.268 OA
BRANCH  15  18
ATOM     18  C   UNL A   1      30.227  27.490  22.824  1.00  0.00     0.079 C 
ATOM     19  C   UNL A   1      29.771  26.757  24.086  1.00  0.00     0.031 C 
BRANCH  18  20
ATOM     20  C   UNL A   1      30.401  29.004  23.041  1.00  0.00     0.028 C 
BRANCH  20  21
ATOM     21  C   UNL A   1      29.183  29.892  22.976  1.00  0.00    -0.009 C 
ATOM     22  C   UNL A   1      29.113  30.956  21.904  1.00  0.00     0.004 C 
ATOM     23  C   UNL A   1      28.087  29.866  21.931  1.00  0.00     0.004 C 
ENDBRANCH  20  21
ENDBRANCH  18  20
ENDBRANCH  15  18
ENDBRANCH  10  14
ENDBRANCH   8   9
ENDBRANCH   6   8
ENDBRANCH   5   6
ENDBRANCH   4   5
ENDBRANCH   3   4
ENDBRANCH   2   3
ENDBRANCH   1   2
BRANCH   1  24
ATOM     24  C   UNL A   1      39.053  23.161  26.521  1.00  0.00     0.188 C 
BRANCH  24  25
ATOM     25  O   UNL A   1      40.128  22.554  27.233  1.00  0.00    -0.377 OA
BRANCH  25  26
ATOM     26  C   UNL A   1      40.890  21.617  26.484  1.00  0.00     0.188 C 
BRANCH  26  27
ATOM     27  C   UNL A   1      41.330  20.403  27.309  1.00  0.00     0.188 C 
BRANCH  27  28
ATOM     28  O   UNL A   1      41.463  19.228  26.515  1.00  0.00    -0.376 OA
BRANCH  28  29
ATOM     29  C   UNL A   1      42.725  18.584  26.479  1.00  0.00     0.202 C 
BRANCH  29  30
ATOM     30  C   UNL A   1      43.468  18.802  25.155  1.00  0.00     0.261 C 
BRANCH  30  31
ATOM     31  O   UNL A   1      44.707  19.512  25.260  1.00  0.00    -0.460 OA
BRANCH  31  32
ATOM     32  C   UNL A   1      44.867  20.500  24.371  1.00  0.00     0.338 C 
ATOM     33  O   UNL A   1      44.570  20.505  23.176  1.00  0.00    -0.246 OA
BRANCH  32  34
ATOM     34  C   UNL A   1      45.514  21.646  24.980  1.00  0.00     0.060 A 
ATOM     35  C   UNL A   1      45.432  21.765  26.371  1.00  0.00     0.016 A 
ATOM     36  C   UNL A   1      45.855  22.716  24.148  1.00  0.00     0.016 A 
ATOM     37  C   UNL A   1      45.545  23.018  26.934  1.00  0.00     0.010 A 
ATOM     38  C   UNL A   1      45.928  23.975  24.710  1.00  0.00     0.010 A 
ATOM     39  C   UNL A   1      45.711  24.120  26.089  1.00  0.00    -0.014 A 
BRANCH  39  40
ATOM     40  C   UNL A   1      45.625  25.465  26.670  1.00  0.00     0.031 A 
ATOM     41  C   UNL A   1      44.221  26.020  26.683  1.00  0.00     0.074 A 
ATOM     42  C   UNL A   1      46.801  26.011  27.096  1.00  0.00     0.049 A 
ATOM     43  N   UNL A   1      43.837  27.245  26.840  1.00  0.00    -0.248 NA
ATOM     44  C   UNL A   1      43.076  25.101  26.447  1.00  0.00     0.031 C 
ATOM     45  C   UNL A   1      48.112  25.338  26.979  1.00  0.00     0.029 A 
ATOM     46  N   UNL A   1      47.148  27.204  27.696  1.00  0.00    -0.354 N 
ATOM     47  C   UNL A   1      42.436  27.228  26.900  1.00  0.00     0.074 A 
ATOM     48  C   UNL A   1      42.018  25.904  26.552  1.00  0.00     0.031 C 
ATOM     49  C   UNL A   1      49.099  26.136  27.427  1.00  0.00     0.029 A 
ATOM     50  C   UNL A   1      48.535  27.383  27.905  1.00  0.00     0.049 A 
ATOM     51  H   UNL A   1      46.481  27.878  27.959  1.00  0.00     0.167 HD
ATOM     52  C   UNL A   1      41.705  28.271  27.377  1.00  0.00     0.031 A 
ATOM     53  C   UNL A   1      49.208  28.458  28.413  1.00  0.00     0.031 A 
ATOM     54  C   UNL A   1      42.526  29.405  27.646  1.00  0.00     0.049 A 
ATOM     55  C   UNL A   1      48.206  29.403  28.937  1.00  0.00     0.074 A 
ATOM     56  C   UNL A   1      43.226  30.270  26.845  1.00  0.00     0.029 A 
ATOM     57  N   UNL A   1      42.964  29.554  28.939  1.00  0.00    -0.354 N 
ATOM     58  N   UNL A   1      47.481  29.203  29.996  1.00  0.00    -0.248 NA
ATOM     59  C   UNL A   1      47.956  30.662  28.223  1.00  0.00     0.031 C 
ATOM     60  C   UNL A   1      44.358  30.626  27.614  1.00  0.00     0.029 A 
ATOM     61  C   UNL A   1      44.251  30.033  28.875  1.00  0.00     0.049 A 
ATOM     62  H   UNL A   1      42.453  29.357  29.757  1.00  0.00     0.167 HD
ATOM     63  C   UNL A   1      46.444  30.090  29.823  1.00  0.00     0.074 A 
ATOM     64  C   UNL A   1      46.935  31.126  28.942  1.00  0.00     0.031 C 
ATOM     65  C   UNL A   1      45.168  29.640  29.924  1.00  0.00     0.031 A 
BRANCH  52  66
ATOM     66  C   UNL A   1      40.294  28.269  27.876  1.00  0.00    -0.014 A 
ATOM     67  C   UNL A   1      39.431  29.279  27.402  1.00  0.00     0.009 A 
ATOM     68  C   UNL A   1      39.875  27.529  28.989  1.00  0.00     0.009 A 
ATOM     69  C   UNL A   1      38.242  29.593  28.061  1.00  0.00     0.001 A 
ATOM     70  C   UNL A   1      38.663  27.816  29.628  1.00  0.00     0.001 A 
ATOM     71  C   UNL A   1      37.864  28.866  29.184  1.00  0.00     0.000 A 
ENDBRANCH  52  66
BRANCH  53  72
ATOM     72  C   UNL A   1      50.649  28.877  28.521  1.00  0.00    -0.014 A 
ATOM     73  C   UNL A   1      51.358  29.608  27.563  1.00  0.00     0.009 A 
ATOM     74  C   UNL A   1      51.353  28.608  29.726  1.00  0.00     0.009 A 
ATOM     75  C   UNL A   1      52.655  30.091  27.815  1.00  0.00     0.001 A 
ATOM     76  C   UNL A   1      52.624  29.122  30.001  1.00  0.00     0.001 A 
ATOM     77  C   UNL A   1      53.275  29.875  29.042  1.00  0.00     0.000 A 
ENDBRANCH  53  72
BRANCH  65  78
ATOM     78  C   UNL A   1      45.000  28.403  30.792  1.00  0.00    -0.014 A 
ATOM     79  C   UNL A   1      44.854  27.136  30.207  1.00  0.00     0.009 A 
ATOM     80  C   UNL A   1      44.864  28.486  32.188  1.00  0.00     0.009 A 
ATOM     81  C   UNL A   1      44.565  26.007  30.986  1.00  0.00     0.001 A 
ATOM     82  C   UNL A   1      44.584  27.361  32.972  1.00  0.00     0.001 A 
ATOM     83  C   UNL A   1      44.428  26.119  32.367  1.00  0.00     0.000 A 
ENDBRANCH  65  78
ENDBRANCH  39  40
ENDBRANCH  32  34
ENDBRANCH  31  32
ENDBRANCH  30  31
ENDBRANCH  29  30
ENDBRANCH  28  29
ENDBRANCH  27  28
ENDBRANCH  26  27
ENDBRANCH  25  26
ENDBRANCH  24  25
ENDBRANCH   1  24
TORSDOF 25
ENDMDL
