MODEL 1
REMARK VINA RESULT:      -9.5      0.000      0.000
REMARK SMILES CN(CC(=O)N[C@H]1C=C[C@H](C(=O)OCCOCCOCCOCCOC(=O)c2ccc(-c3c4nc(c(-c5ccccc5)c5ccc([nH]5)c(-c5ccccc5)c5nc(c(-c6ccccc6)c6ccc3[nH]6)C=C5)C=C4)cc2)C1)C(=O)c1cccs1
REMARK SMILES IDX 17 1 16 2 15 3 14 4 13 5 11 6 12 7 10 8 7 9 8 10 76 11 9 12
REMARK SMILES IDX 6 13 4 14 5 15 3 17 2 18 1 19 77 20 78 21 79 22 80 23 83 24
REMARK SMILES IDX 81 25 82 26 18 27 19 28 20 29 21 30 22 31 23 32 24 33 25 34
REMARK SMILES IDX 26 35 27 36 28 37 29 38 75 39 30 40 74 41 31 42 32 43 33 44
REMARK SMILES IDX 68 45 34 46 73 47 67 48 69 49 35 50 72 51 66 52 65 53 36 55
REMARK SMILES IDX 58 56 43 57 57 58 44 59 47 60 56 61 70 62 45 63 46 64 55 66
REMARK SMILES IDX 71 67 48 68 37 69 38 70 42 71 39 72 41 73 40 74 59 75 60 76
REMARK SMILES IDX 64 77 61 78 63 79 62 80 49 81 50 82 54 83 51 84 53 85 52 86
REMARK H PARENT 6 16 69 54 47 65
REMARK Flexibility Score: inf
ROOT
ATOM      1  C   UNL A   1      34.132  28.785  25.832  1.00  0.00     0.188 C 
ENDROOT
BRANCH   1   2
ATOM      2  O   UNL A   1      33.160  29.394  25.006  1.00  0.00    -0.376 OA
BRANCH   2   3
ATOM      3  C   UNL A   1      32.274  28.646  24.186  1.00  0.00     0.202 C 
BRANCH   3   4
ATOM      4  C   UNL A   1      32.568  28.093  22.773  1.00  0.00     0.261 C 
BRANCH   4   5
ATOM      5  O   UNL A   1      33.700  27.232  22.619  1.00  0.00    -0.463 OA
BRANCH   5   6
ATOM      6  C   UNL A   1      33.478  26.046  22.016  1.00  0.00     0.312 C 
ATOM      7  O   UNL A   1      33.151  25.919  20.842  1.00  0.00    -0.252 OA
BRANCH   6   8
ATOM      8  C   UNL A   1      33.749  24.845  22.931  1.00  0.00     0.124 C 
ATOM      9  C   UNL A   1      31.728  24.454  24.209  1.00  0.00     0.106 C 
ATOM     10  C   UNL A   1      32.876  24.715  25.108  1.00  0.00    -0.006 C 
ATOM     11  C   UNL A   1      32.493  23.966  22.967  1.00  0.00     0.048 C 
ATOM     12  C   UNL A   1      33.971  25.013  24.408  1.00  0.00    -0.014 C 
BRANCH   9  13
ATOM     13  N   UNL A   1      30.848  23.469  24.760  1.00  0.00    -0.348 N 
ATOM     14  C   UNL A   1      31.141  22.402  25.555  1.00  0.00     0.240 C 
ATOM     15  O   UNL A   1      30.195  21.911  26.182  1.00  0.00    -0.273 OA
ATOM     16  H   UNL A   1      29.897  23.577  24.532  1.00  0.00     0.164 HD
BRANCH  14  17
ATOM     17  C   UNL A   1      32.578  21.896  25.809  1.00  0.00     0.219 C 
BRANCH  17  18
ATOM     18  N   UNL A   1      33.298  21.085  24.818  1.00  0.00    -0.332 N 
ATOM     19  C   UNL A   1      34.757  21.105  24.862  1.00  0.00     0.147 C 
BRANCH  18  20
ATOM     20  C   UNL A   1      32.727  20.038  24.062  1.00  0.00     0.264 C 
ATOM     21  O   UNL A   1      32.057  20.317  23.063  1.00  0.00    -0.268 OA
BRANCH  20  22
ATOM     22  C   UNL A   1      32.902  18.653  24.480  1.00  0.00     0.092 A 
ATOM     23  C   UNL A   1      32.534  17.998  25.641  1.00  0.00     0.025 A 
ATOM     24  S   UNL A   1      33.532  17.537  23.331  1.00  0.00    -0.139 S 
ATOM     25  C   UNL A   1      32.853  16.608  25.621  1.00  0.00     0.012 A 
ATOM     26  C   UNL A   1      33.381  16.223  24.412  1.00  0.00     0.065 A 
ENDBRANCH  20  22
ENDBRANCH  18  20
ENDBRANCH  17  18
ENDBRANCH  14  17
ENDBRANCH   9  13
ENDBRANCH   6   8
ENDBRANCH   5   6
ENDBRANCH   4   5
ENDBRANCH   3   4
ENDBRANCH   2   3
ENDBRANCH   1   2
BRANCH   1  27
ATOM     27  C   UNL A   1      34.231  29.265  27.285  1.00  0.00     0.188 C 
BRANCH  27  28
ATOM     28  O   UNL A   1      33.637  30.526  27.519  1.00  0.00    -0.377 OA
BRANCH  28  29
ATOM     29  C   UNL A   1      34.520  31.613  27.760  1.00  0.00     0.188 C 
BRANCH  29  30
ATOM     30  C   UNL A   1      33.975  32.890  28.436  1.00  0.00     0.188 C 
BRANCH  30  31
ATOM     31  O   UNL A   1      34.778  34.050  28.262  1.00  0.00    -0.376 OA
BRANCH  31  32
ATOM     32  C   UNL A   1      34.298  35.308  28.713  1.00  0.00     0.202 C 
BRANCH  32  33
ATOM     33  C   UNL A   1      33.081  35.324  29.654  1.00  0.00     0.261 C 
BRANCH  33  34
ATOM     34  O   UNL A   1      33.222  36.099  30.853  1.00  0.00    -0.460 OA
BRANCH  34  35
ATOM     35  C   UNL A   1      32.876  35.508  32.011  1.00  0.00     0.338 C 
ATOM     36  O   UNL A   1      31.746  35.361  32.456  1.00  0.00    -0.246 OA
BRANCH  35  37
ATOM     37  C   UNL A   1      34.075  34.868  32.582  1.00  0.00     0.060 A 
ATOM     38  C   UNL A   1      35.298  35.541  32.485  1.00  0.00     0.016 A 
ATOM     39  C   UNL A   1      34.003  33.609  33.184  1.00  0.00     0.016 A 
ATOM     40  C   UNL A   1      36.465  34.929  32.931  1.00  0.00     0.010 A 
ATOM     41  C   UNL A   1      35.178  32.988  33.615  1.00  0.00     0.010 A 
ATOM     42  C   UNL A   1      36.419  33.626  33.443  1.00  0.00    -0.014 A 
BRANCH  42  43
ATOM     43  C   UNL A   1      37.690  32.881  33.595  1.00  0.00     0.031 A 
ATOM     44  C   UNL A   1      38.495  33.077  34.852  1.00  0.00     0.074 A 
ATOM     45  C   UNL A   1      38.080  31.979  32.677  1.00  0.00     0.049 A 
ATOM     46  N   UNL A   1      39.592  32.478  35.239  1.00  0.00    -0.248 NA
ATOM     47  C   UNL A   1      37.990  34.082  35.804  1.00  0.00     0.031 C 
ATOM     48  C   UNL A   1      37.366  31.666  31.440  1.00  0.00     0.029 A 
ATOM     49  N   UNL A   1      39.173  31.150  32.657  1.00  0.00    -0.354 N 
ATOM     50  C   UNL A   1      39.909  33.032  36.473  1.00  0.00     0.074 A 
ATOM     51  C   UNL A   1      38.913  34.043  36.754  1.00  0.00     0.031 C 
ATOM     52  C   UNL A   1      38.036  30.702  30.785  1.00  0.00     0.029 A 
ATOM     53  C   UNL A   1      39.237  30.352  31.541  1.00  0.00     0.049 A 
ATOM     54  H   UNL A   1      39.847  31.128  33.374  1.00  0.00     0.167 HD
ATOM     55  C   UNL A   1      40.930  32.723  37.307  1.00  0.00     0.031 A 
ATOM     56  C   UNL A   1      40.164  29.449  31.171  1.00  0.00     0.031 A 
ATOM     57  C   UNL A   1      41.934  31.732  37.020  1.00  0.00     0.049 A 
ATOM     58  C   UNL A   1      41.332  29.175  32.082  1.00  0.00     0.074 A 
ATOM     59  C   UNL A   1      43.005  31.338  37.803  1.00  0.00     0.029 A 
ATOM     60  N   UNL A   1      41.996  30.987  35.852  1.00  0.00    -0.354 N 
ATOM     61  N   UNL A   1      41.602  29.682  33.261  1.00  0.00    -0.248 NA
ATOM     62  C   UNL A   1      42.314  28.186  31.614  1.00  0.00     0.031 C 
ATOM     63  C   UNL A   1      43.753  30.403  37.080  1.00  0.00     0.029 A 
ATOM     64  C   UNL A   1      43.104  30.156  35.881  1.00  0.00     0.049 A 
ATOM     65  H   UNL A   1      41.348  31.041  35.113  1.00  0.00     0.167 HD
ATOM     66  C   UNL A   1      42.765  29.051  33.690  1.00  0.00     0.074 A 
ATOM     67  C   UNL A   1      43.132  28.108  32.652  1.00  0.00     0.031 C 
ATOM     68  C   UNL A   1      43.464  29.229  34.838  1.00  0.00     0.031 A 
BRANCH  55  69
ATOM     69  C   UNL A   1      41.032  33.498  38.593  1.00  0.00    -0.014 A 
ATOM     70  C   UNL A   1      41.762  34.694  38.675  1.00  0.00     0.009 A 
ATOM     71  C   UNL A   1      40.364  33.033  39.737  1.00  0.00     0.009 A 
ATOM     72  C   UNL A   1      41.852  35.389  39.883  1.00  0.00     0.001 A 
ATOM     73  C   UNL A   1      40.427  33.746  40.935  1.00  0.00     0.001 A 
ATOM     74  C   UNL A   1      41.179  34.917  41.011  1.00  0.00     0.000 A 
ENDBRANCH  55  69
BRANCH  56  75
ATOM     75  C   UNL A   1      40.035  28.735  29.872  1.00  0.00    -0.014 A 
ATOM     76  C   UNL A   1      39.517  27.432  29.813  1.00  0.00     0.009 A 
ATOM     77  C   UNL A   1      40.462  29.347  28.683  1.00  0.00     0.009 A 
ATOM     78  C   UNL A   1      39.459  26.746  28.598  1.00  0.00     0.001 A 
ATOM     79  C   UNL A   1      40.371  28.672  27.464  1.00  0.00     0.001 A 
ATOM     80  C   UNL A   1      39.881  27.369  27.424  1.00  0.00     0.000 A 
ENDBRANCH  56  75
BRANCH  68  81
ATOM     81  C   UNL A   1      44.670  28.353  35.051  1.00  0.00    -0.014 A 
ATOM     82  C   UNL A   1      44.557  26.959  35.174  1.00  0.00     0.009 A 
ATOM     83  C   UNL A   1      45.945  28.937  35.123  1.00  0.00     0.009 A 
ATOM     84  C   UNL A   1      45.688  26.177  35.423  1.00  0.00     0.001 A 
ATOM     85  C   UNL A   1      47.079  28.149  35.332  1.00  0.00     0.001 A 
ATOM     86  C   UNL A   1      46.947  26.772  35.499  1.00  0.00     0.000 A 
ENDBRANCH  68  81
ENDBRANCH  42  43
ENDBRANCH  35  37
ENDBRANCH  34  35
ENDBRANCH  33  34
ENDBRANCH  32  33
ENDBRANCH  31  32
ENDBRANCH  30  31
ENDBRANCH  29  30
ENDBRANCH  28  29
ENDBRANCH  27  28
ENDBRANCH   1  27
TORSDOF 25
ENDMDL
MODEL 2
REMARK VINA RESULT:      -9.4      4.796      9.444
REMARK SMILES CN(CC(=O)N[C@H]1C=C[C@H](C(=O)OCCOCCOCCOCCOC(=O)c2ccc(-c3c4nc(c(-c5ccccc5)c5ccc([nH]5)c(-c5ccccc5)c5nc(c(-c6ccccc6)c6ccc3[nH]6)C=C5)C=C4)cc2)C1)C(=O)c1cccs1
REMARK SMILES IDX 17 1 16 2 15 3 14 4 13 5 11 6 12 7 10 8 7 9 8 10 76 11 9 12
REMARK SMILES IDX 6 13 4 14 5 15 3 17 2 18 1 19 77 20 78 21 79 22 80 23 83 24
REMARK SMILES IDX 81 25 82 26 18 27 19 28 20 29 21 30 22 31 23 32 24 33 25 34
REMARK SMILES IDX 26 35 27 36 28 37 29 38 75 39 30 40 74 41 31 42 32 43 33 44
REMARK SMILES IDX 68 45 34 46 73 47 67 48 69 49 35 50 72 51 66 52 65 53 36 55
REMARK SMILES IDX 58 56 43 57 57 58 44 59 47 60 56 61 70 62 45 63 46 64 55 66
REMARK SMILES IDX 71 67 48 68 37 69 38 70 42 71 39 72 41 73 40 74 59 75 60 76
REMARK SMILES IDX 64 77 61 78 63 79 62 80 49 81 50 82 54 83 51 84 53 85 52 86
REMARK H PARENT 6 16 69 54 47 65
REMARK Flexibility Score: inf
ROOT
ATOM      1  C   UNL A   1      33.253  24.977  22.492  1.00  0.00     0.188 C 
ENDROOT
BRANCH   1   2
ATOM      2  O   UNL A   1      32.976  26.356  22.359  1.00  0.00    -0.376 OA
BRANCH   2   3
ATOM      3  C   UNL A   1      33.849  27.363  22.850  1.00  0.00     0.202 C 
BRANCH   3   4
ATOM      4  C   UNL A   1      33.500  28.848  23.096  1.00  0.00     0.261 C 
BRANCH   4   5
ATOM      5  O   UNL A   1      33.181  29.242  24.434  1.00  0.00    -0.463 OA
BRANCH   5   6
ATOM      6  C   UNL A   1      32.845  28.255  25.290  1.00  0.00     0.312 C 
ATOM      7  O   UNL A   1      33.652  27.591  25.928  1.00  0.00    -0.252 OA
BRANCH   6   8
ATOM      8  C   UNL A   1      31.328  28.085  25.447  1.00  0.00     0.124 C 
ATOM      9  C   UNL A   1      30.893  25.707  25.621  1.00  0.00     0.106 C 
ATOM     10  C   UNL A   1      30.167  26.292  24.470  1.00  0.00    -0.006 C 
ATOM     11  C   UNL A   1      31.066  26.976  26.474  1.00  0.00     0.048 C 
ATOM     12  C   UNL A   1      30.470  27.582  24.322  1.00  0.00    -0.014 C 
BRANCH   9  13
ATOM     13  N   UNL A   1      30.118  24.689  26.264  1.00  0.00    -0.348 N 
ATOM     14  C   UNL A   1      30.529  23.509  26.804  1.00  0.00     0.240 C 
ATOM     15  O   UNL A   1      29.750  22.972  27.600  1.00  0.00    -0.273 OA
ATOM     16  H   UNL A   1      29.152  24.868  26.323  1.00  0.00     0.164 HD
BRANCH  14  17
ATOM     17  C   UNL A   1      31.938  22.913  26.584  1.00  0.00     0.219 C 
BRANCH  17  18
ATOM     18  N   UNL A   1      32.173  21.814  25.637  1.00  0.00    -0.332 N 
ATOM     19  C   UNL A   1      31.703  21.993  24.268  1.00  0.00     0.147 C 
BRANCH  18  20
ATOM     20  C   UNL A   1      33.097  20.764  25.831  1.00  0.00     0.264 C 
ATOM     21  O   UNL A   1      33.996  20.905  26.665  1.00  0.00    -0.268 OA
BRANCH  20  22
ATOM     22  C   UNL A   1      33.005  19.551  25.030  1.00  0.00     0.092 A 
ATOM     23  C   UNL A   1      33.290  19.315  23.697  1.00  0.00     0.025 A 
ATOM     24  S   UNL A   1      32.629  18.078  25.836  1.00  0.00    -0.139 S 
ATOM     25  C   UNL A   1      33.109  17.951  23.323  1.00  0.00     0.012 A 
ATOM     26  C   UNL A   1      32.772  17.166  24.399  1.00  0.00     0.065 A 
ENDBRANCH  20  22
ENDBRANCH  18  20
ENDBRANCH  17  18
ENDBRANCH  14  17
ENDBRANCH   9  13
ENDBRANCH   6   8
ENDBRANCH   5   6
ENDBRANCH   4   5
ENDBRANCH   3   4
ENDBRANCH   2   3
ENDBRANCH   1   2
BRANCH   1  27
ATOM     27  C   UNL A   1      34.365  24.565  23.464  1.00  0.00     0.188 C 
BRANCH  27  28
ATOM     28  O   UNL A   1      35.223  23.558  22.967  1.00  0.00    -0.377 OA
BRANCH  28  29
ATOM     29  C   UNL A   1      36.239  23.094  23.845  1.00  0.00     0.188 C 
BRANCH  29  30
ATOM     30  C   UNL A   1      36.304  21.591  24.195  1.00  0.00     0.188 C 
BRANCH  30  31
ATOM     31  O   UNL A   1      37.562  21.143  24.682  1.00  0.00    -0.376 OA
BRANCH  31  32
ATOM     32  C   UNL A   1      38.277  21.941  25.613  1.00  0.00     0.202 C 
BRANCH  32  33
ATOM     33  C   UNL A   1      39.441  21.290  26.380  1.00  0.00     0.261 C 
BRANCH  33  34
ATOM     34  O   UNL A   1      40.060  20.162  25.746  1.00  0.00    -0.460 OA
BRANCH  34  35
ATOM     35  C   UNL A   1      41.329  19.880  26.097  1.00  0.00     0.338 C 
ATOM     36  O   UNL A   1      41.938  18.840  25.894  1.00  0.00    -0.246 OA
BRANCH  35  37
ATOM     37  C   UNL A   1      41.956  21.117  26.598  1.00  0.00     0.060 A 
ATOM     38  C   UNL A   1      42.062  21.296  27.983  1.00  0.00     0.016 A 
ATOM     39  C   UNL A   1      42.413  22.102  25.718  1.00  0.00     0.016 A 
ATOM     40  C   UNL A   1      42.564  22.489  28.492  1.00  0.00     0.010 A 
ATOM     41  C   UNL A   1      42.901  23.306  26.232  1.00  0.00     0.010 A 
ATOM     42  C   UNL A   1      42.930  23.522  27.621  1.00  0.00    -0.014 A 
BRANCH  42  43
ATOM     43  C   UNL A   1      43.140  24.878  28.180  1.00  0.00     0.031 A 
ATOM     44  C   UNL A   1      44.546  25.327  28.473  1.00  0.00     0.074 A 
ATOM     45  C   UNL A   1      42.111  25.729  28.341  1.00  0.00     0.049 A 
ATOM     46  N   UNL A   1      44.978  26.491  28.888  1.00  0.00    -0.248 NA
ATOM     47  C   UNL A   1      45.611  24.331  28.263  1.00  0.00     0.031 C 
ATOM     48  C   UNL A   1      40.710  25.429  28.052  1.00  0.00     0.029 A 
ATOM     49  N   UNL A   1      42.096  27.029  28.777  1.00  0.00    -0.354 N 
ATOM     50  C   UNL A   1      46.358  26.366  28.992  1.00  0.00     0.074 A 
ATOM     51  C   UNL A   1      46.690  25.003  28.634  1.00  0.00     0.031 C 
ATOM     52  C   UNL A   1      39.971  26.521  28.309  1.00  0.00     0.029 A 
ATOM     53  C   UNL A   1      40.841  27.585  28.805  1.00  0.00     0.049 A 
ATOM     54  H   UNL A   1      42.908  27.519  29.044  1.00  0.00     0.167 HD
ATOM     55  C   UNL A   1      47.272  27.301  29.342  1.00  0.00     0.031 A 
ATOM     56  C   UNL A   1      40.442  28.811  29.195  1.00  0.00     0.031 A 
ATOM     57  C   UNL A   1      46.942  28.650  29.718  1.00  0.00     0.049 A 
ATOM     58  C   UNL A   1      41.472  29.811  29.651  1.00  0.00     0.074 A 
ATOM     59  C   UNL A   1      47.797  29.677  30.081  1.00  0.00     0.029 A 
ATOM     60  N   UNL A   1      45.654  29.157  29.790  1.00  0.00    -0.354 N 
ATOM     61  N   UNL A   1      42.776  29.690  29.713  1.00  0.00    -0.248 NA
ATOM     62  C   UNL A   1      40.969  31.126  30.075  1.00  0.00     0.031 C 
ATOM     63  C   UNL A   1      47.020  30.785  30.437  1.00  0.00     0.029 A 
ATOM     64  C   UNL A   1      45.687  30.473  30.219  1.00  0.00     0.049 A 
ATOM     65  H   UNL A   1      44.837  28.655  29.568  1.00  0.00     0.167 HD
ATOM     66  C   UNL A   1      43.252  30.923  30.149  1.00  0.00     0.074 A 
ATOM     67  C   UNL A   1      42.095  31.780  30.313  1.00  0.00     0.031 C 
ATOM     68  C   UNL A   1      44.528  31.313  30.388  1.00  0.00     0.031 A 
BRANCH  55  69
ATOM     69  C   UNL A   1      48.717  26.879  29.372  1.00  0.00    -0.014 A 
ATOM     70  C   UNL A   1      49.586  27.154  28.305  1.00  0.00     0.009 A 
ATOM     71  C   UNL A   1      49.222  26.216  30.502  1.00  0.00     0.009 A 
ATOM     72  C   UNL A   1      50.920  26.743  28.352  1.00  0.00     0.001 A 
ATOM     73  C   UNL A   1      50.563  25.834  30.561  1.00  0.00     0.001 A 
ATOM     74  C   UNL A   1      51.409  26.088  29.483  1.00  0.00     0.000 A 
ENDBRANCH  55  69
BRANCH  56  75
ATOM     75  C   UNL A   1      38.998  29.166  29.179  1.00  0.00    -0.014 A 
ATOM     76  C   UNL A   1      38.225  29.099  30.349  1.00  0.00     0.009 A 
ATOM     77  C   UNL A   1      38.375  29.543  27.979  1.00  0.00     0.009 A 
ATOM     78  C   UNL A   1      36.856  29.372  30.311  1.00  0.00     0.001 A 
ATOM     79  C   UNL A   1      37.013  29.849  27.951  1.00  0.00     0.001 A 
ATOM     80  C   UNL A   1      36.252  29.752  29.114  1.00  0.00     0.000 A 
ENDBRANCH  56  75
BRANCH  68  81
ATOM     81  C   UNL A   1      44.742  32.744  30.808  1.00  0.00    -0.014 A 
ATOM     82  C   UNL A   1      44.767  33.121  32.160  1.00  0.00     0.009 A 
ATOM     83  C   UNL A   1      44.929  33.731  29.827  1.00  0.00     0.009 A 
ATOM     84  C   UNL A   1      44.915  34.463  32.518  1.00  0.00     0.001 A 
ATOM     85  C   UNL A   1      45.117  35.066  30.189  1.00  0.00     0.001 A 
ATOM     86  C   UNL A   1      45.092  35.433  31.532  1.00  0.00     0.000 A 
ENDBRANCH  68  81
ENDBRANCH  42  43
ENDBRANCH  35  37
ENDBRANCH  34  35
ENDBRANCH  33  34
ENDBRANCH  32  33
ENDBRANCH  31  32
ENDBRANCH  30  31
ENDBRANCH  29  30
ENDBRANCH  28  29
ENDBRANCH  27  28
ENDBRANCH   1  27
TORSDOF 25
ENDMDL
MODEL 3
REMARK VINA RESULT:      -9.2      4.338      9.382
REMARK SMILES CN(CC(=O)N[C@H]1C=C[C@H](C(=O)OCCOCCOCCOCCOC(=O)c2ccc(-c3c4nc(c(-c5ccccc5)c5ccc([nH]5)c(-c5ccccc5)c5nc(c(-c6ccccc6)c6ccc3[nH]6)C=C5)C=C4)cc2)C1)C(=O)c1cccs1
REMARK SMILES IDX 17 1 16 2 15 3 14 4 13 5 11 6 12 7 10 8 7 9 8 10 76 11 9 12
REMARK SMILES IDX 6 13 4 14 5 15 3 17 2 18 1 19 77 20 78 21 79 22 80 23 83 24
REMARK SMILES IDX 81 25 82 26 18 27 19 28 20 29 21 30 22 31 23 32 24 33 25 34
REMARK SMILES IDX 26 35 27 36 28 37 29 38 75 39 30 40 74 41 31 42 32 43 33 44
REMARK SMILES IDX 68 45 34 46 73 47 67 48 69 49 35 50 72 51 66 52 65 53 36 55
REMARK SMILES IDX 58 56 43 57 57 58 44 59 47 60 56 61 70 62 45 63 46 64 55 66
REMARK SMILES IDX 71 67 48 68 37 69 38 70 42 71 39 72 41 73 40 74 59 75 60 76
REMARK SMILES IDX 64 77 61 78 63 79 62 80 49 81 50 82 54 83 51 84 53 85 52 86
REMARK H PARENT 6 16 69 54 47 65
REMARK Flexibility Score: inf
ROOT
ATOM      1  C   UNL A   1      34.366  24.598  23.139  1.00  0.00     0.188 C 
ENDROOT
BRANCH   1   2
ATOM      2  O   UNL A   1      33.557  25.723  23.417  1.00  0.00    -0.376 OA
BRANCH   2   3
ATOM      3  C   UNL A   1      34.097  26.987  23.773  1.00  0.00     0.202 C 
BRANCH   3   4
ATOM      4  C   UNL A   1      33.644  28.367  23.246  1.00  0.00     0.261 C 
BRANCH   4   5
ATOM      5  O   UNL A   1      33.285  29.360  24.210  1.00  0.00    -0.463 OA
BRANCH   5   6
ATOM      6  C   UNL A   1      33.024  28.923  25.459  1.00  0.00     0.312 C 
ATOM      7  O   UNL A   1      33.873  28.774  26.330  1.00  0.00    -0.252 OA
BRANCH   6   8
ATOM      8  C   UNL A   1      31.529  28.694  25.716  1.00  0.00     0.124 C 
ATOM      9  C   UNL A   1      31.180  26.297  25.794  1.00  0.00     0.106 C 
ATOM     10  C   UNL A   1      30.354  26.915  24.732  1.00  0.00    -0.006 C 
ATOM     11  C   UNL A   1      31.377  27.526  26.699  1.00  0.00     0.048 C 
ATOM     12  C   UNL A   1      30.606  28.220  24.630  1.00  0.00    -0.014 C 
BRANCH   9  13
ATOM     13  N   UNL A   1      30.486  25.222  26.437  1.00  0.00    -0.348 N 
ATOM     14  C   UNL A   1      30.774  23.891  26.435  1.00  0.00     0.240 C 
ATOM     15  O   UNL A   1      30.250  23.218  27.331  1.00  0.00    -0.273 OA
ATOM     16  H   UNL A   1      29.688  25.482  26.951  1.00  0.00     0.164 HD
BRANCH  14  17
ATOM     17  C   UNL A   1      31.806  23.241  25.487  1.00  0.00     0.219 C 
BRANCH  17  18
ATOM     18  N   UNL A   1      31.440  22.797  24.135  1.00  0.00    -0.332 N 
ATOM     19  C   UNL A   1      30.523  23.639  23.375  1.00  0.00     0.147 C 
BRANCH  18  20
ATOM     20  C   UNL A   1      32.146  21.833  23.383  1.00  0.00     0.264 C 
ATOM     21  O   UNL A   1      32.577  22.142  22.268  1.00  0.00    -0.268 OA
BRANCH  20  22
ATOM     22  C   UNL A   1      32.329  20.485  23.906  1.00  0.00     0.092 A 
ATOM     23  C   UNL A   1      32.185  19.247  23.306  1.00  0.00     0.025 A 
ATOM     24  S   UNL A   1      32.979  20.317  25.491  1.00  0.00    -0.139 S 
ATOM     25  C   UNL A   1      32.517  18.167  24.175  1.00  0.00     0.012 A 
ATOM     26  C   UNL A   1      32.986  18.611  25.388  1.00  0.00     0.065 A 
ENDBRANCH  20  22
ENDBRANCH  18  20
ENDBRANCH  17  18
ENDBRANCH  14  17
ENDBRANCH   9  13
ENDBRANCH   6   8
ENDBRANCH   5   6
ENDBRANCH   4   5
ENDBRANCH   3   4
ENDBRANCH   2   3
ENDBRANCH   1   2
BRANCH   1  27
ATOM     27  C   UNL A   1      35.043  23.899  24.325  1.00  0.00     0.188 C 
BRANCH  27  28
ATOM     28  O   UNL A   1      35.462  22.577  24.052  1.00  0.00    -0.377 OA
BRANCH  28  29
ATOM     29  C   UNL A   1      36.863  22.341  24.035  1.00  0.00     0.188 C 
BRANCH  29  30
ATOM     30  C   UNL A   1      37.650  22.383  25.363  1.00  0.00     0.188 C 
BRANCH  30  31
ATOM     31  O   UNL A   1      38.705  21.436  25.465  1.00  0.00    -0.376 OA
BRANCH  31  32
ATOM     32  C   UNL A   1      38.397  20.058  25.613  1.00  0.00     0.202 C 
BRANCH  32  33
ATOM     33  C   UNL A   1      39.563  19.054  25.641  1.00  0.00     0.261 C 
BRANCH  33  34
ATOM     34  O   UNL A   1      40.838  19.560  25.222  1.00  0.00    -0.460 OA
BRANCH  34  35
ATOM     35  C   UNL A   1      41.806  19.633  26.155  1.00  0.00     0.338 C 
ATOM     36  O   UNL A   1      42.643  18.782  26.419  1.00  0.00    -0.246 OA
BRANCH  35  37
ATOM     37  C   UNL A   1      41.833  21.008  26.688  1.00  0.00     0.060 A 
ATOM     38  C   UNL A   1      42.132  22.056  25.810  1.00  0.00     0.016 A 
ATOM     39  C   UNL A   1      41.593  21.261  28.042  1.00  0.00     0.016 A 
ATOM     40  C   UNL A   1      42.256  23.354  26.295  1.00  0.00     0.010 A 
ATOM     41  C   UNL A   1      41.737  22.562  28.530  1.00  0.00     0.010 A 
ATOM     42  C   UNL A   1      42.118  23.604  27.667  1.00  0.00    -0.014 A 
BRANCH  42  43
ATOM     43  C   UNL A   1      42.579  24.908  28.198  1.00  0.00     0.031 A 
ATOM     44  C   UNL A   1      41.559  25.991  28.432  1.00  0.00     0.074 A 
ATOM     45  C   UNL A   1      43.862  25.100  28.551  1.00  0.00     0.049 A 
ATOM     46  N   UNL A   1      41.714  27.179  28.960  1.00  0.00    -0.248 NA
ATOM     47  C   UNL A   1      40.177  25.692  28.020  1.00  0.00     0.031 C 
ATOM     48  C   UNL A   1      44.934  24.116  28.416  1.00  0.00     0.029 A 
ATOM     49  N   UNL A   1      44.473  26.193  29.111  1.00  0.00    -0.354 N 
ATOM     50  C   UNL A   1      40.455  27.766  28.941  1.00  0.00     0.074 A 
ATOM     51  C   UNL A   1      39.555  26.823  28.315  1.00  0.00     0.031 C 
ATOM     52  C   UNL A   1      46.073  24.647  28.892  1.00  0.00     0.029 A 
ATOM     53  C   UNL A   1      45.816  26.014  29.338  1.00  0.00     0.049 A 
ATOM     54  H   UNL A   1      43.995  27.025  29.331  1.00  0.00     0.167 HD
ATOM     55  C   UNL A   1      40.076  28.978  29.412  1.00  0.00     0.031 A 
ATOM     56  C   UNL A   1      46.731  26.863  29.842  1.00  0.00     0.031 A 
ATOM     57  C   UNL A   1      40.974  29.925  30.018  1.00  0.00     0.049 A 
ATOM     58  C   UNL A   1      46.298  28.234  30.292  1.00  0.00     0.074 A 
ATOM     59  C   UNL A   1      40.686  31.177  30.535  1.00  0.00     0.029 A 
ATOM     60  N   UNL A   1      42.338  29.730  30.176  1.00  0.00    -0.354 N 
ATOM     61  N   UNL A   1      45.099  28.765  30.298  1.00  0.00    -0.248 NA
ATOM     62  C   UNL A   1      47.349  29.115  30.821  1.00  0.00     0.031 C 
ATOM     63  C   UNL A   1      41.888  31.765  30.945  1.00  0.00     0.029 A 
ATOM     64  C   UNL A   1      42.910  30.849  30.757  1.00  0.00     0.049 A 
ATOM     65  H   UNL A   1      42.825  28.916  29.915  1.00  0.00     0.167 HD
ATOM     66  C   UNL A   1      45.246  30.028  30.863  1.00  0.00     0.074 A 
ATOM     67  C   UNL A   1      46.646  30.170  31.206  1.00  0.00     0.031 C 
ATOM     68  C   UNL A   1      44.308  30.983  31.083  1.00  0.00     0.031 A 
BRANCH  55  69
ATOM     69  C   UNL A   1      38.629  29.360  29.253  1.00  0.00    -0.014 A 
ATOM     70  C   UNL A   1      37.707  29.207  30.301  1.00  0.00     0.009 A 
ATOM     71  C   UNL A   1      38.186  29.907  28.037  1.00  0.00     0.009 A 
ATOM     72  C   UNL A   1      36.368  29.559  30.124  1.00  0.00     0.001 A 
ATOM     73  C   UNL A   1      36.854  30.288  27.874  1.00  0.00     0.001 A 
ATOM     74  C   UNL A   1      35.943  30.105  28.913  1.00  0.00     0.000 A 
ENDBRANCH  55  69
BRANCH  56  75
ATOM     75  C   UNL A   1      48.156  26.448  29.946  1.00  0.00    -0.014 A 
ATOM     76  C   UNL A   1      48.632  25.782  31.086  1.00  0.00     0.009 A 
ATOM     77  C   UNL A   1      49.058  26.748  28.913  1.00  0.00     0.009 A 
ATOM     78  C   UNL A   1      49.985  25.454  31.202  1.00  0.00     0.001 A 
ATOM     79  C   UNL A   1      50.403  26.388  29.017  1.00  0.00     0.001 A 
ATOM     80  C   UNL A   1      50.868  25.752  30.165  1.00  0.00     0.000 A 
ENDBRANCH  56  75
BRANCH  68  81
ATOM     81  C   UNL A   1      44.761  32.246  31.767  1.00  0.00    -0.014 A 
ATOM     82  C   UNL A   1      44.760  32.369  33.166  1.00  0.00     0.009 A 
ATOM     83  C   UNL A   1      45.203  33.331  30.993  1.00  0.00     0.009 A 
ATOM     84  C   UNL A   1      45.136  33.570  33.771  1.00  0.00     0.001 A 
ATOM     85  C   UNL A   1      45.617  34.517  31.602  1.00  0.00     0.001 A 
ATOM     86  C   UNL A   1      45.566  34.642  32.989  1.00  0.00     0.000 A 
ENDBRANCH  68  81
ENDBRANCH  42  43
ENDBRANCH  35  37
ENDBRANCH  34  35
ENDBRANCH  33  34
ENDBRANCH  32  33
ENDBRANCH  31  32
ENDBRANCH  30  31
ENDBRANCH  29  30
ENDBRANCH  28  29
ENDBRANCH  27  28
ENDBRANCH   1  27
TORSDOF 25
ENDMDL
