MODEL 1
REMARK VINA RESULT:      -9.1      0.000      0.000
REMARK SMILES O=C(OCCOCCOCCOCCOC(=O)c1cnccc1C(=O)N1CCC(Cc2ccccc2)CC1)c1ccc(-c2c3nc(c(-c4ccccc4)c4ccc([nH]4)c(-c4ccccc4)c4nc(c(-c5ccccc5)c5ccc2[nH]5)C=C4)C=C3)cc1
REMARK SMILES IDX 10 1 9 2 8 3 7 4 6 5 5 6 4 7 3 8 2 9 1 10 39 11 40 12 86 13
REMARK SMILES IDX 41 14 85 15 42 16 43 17 44 18 79 19 45 20 84 21 78 22 80 23
REMARK SMILES IDX 46 24 83 25 77 26 76 27 47 29 69 30 54 31 68 32 55 33 58 34
REMARK SMILES IDX 67 35 81 36 56 37 57 38 66 40 82 41 59 42 48 43 49 44 53 45
REMARK SMILES IDX 50 46 52 47 51 48 70 49 71 50 75 51 72 52 74 53 73 54 60 55
REMARK SMILES IDX 61 56 65 57 62 58 64 59 63 60 11 61 12 62 13 63 14 64 15 65
REMARK SMILES IDX 16 66 17 67 18 68 19 69 23 70 20 71 22 72 21 73 24 74 25 75
REMARK SMILES IDX 26 76 27 77 38 78 28 79 37 80 29 81 30 82 31 83 32 84 36 85
REMARK SMILES IDX 33 86 35 87 34 88
REMARK H PARENT 80 28 58 39
REMARK Flexibility Score: inf
ROOT
ATOM      1  C   UNL A   1      40.966  25.578  28.223  1.00  0.00     0.188 C 
ENDROOT
BRANCH   1   2
ATOM      2  O   UNL A   1      40.924  26.860  28.839  1.00  0.00    -0.377 OA
BRANCH   2   3
ATOM      3  C   UNL A   1      40.272  27.908  28.122  1.00  0.00     0.188 C 
BRANCH   3   4
ATOM      4  C   UNL A   1      38.848  28.251  28.563  1.00  0.00     0.188 C 
BRANCH   4   5
ATOM      5  O   UNL A   1      38.790  29.602  29.024  1.00  0.00    -0.376 OA
BRANCH   5   6
ATOM      6  C   UNL A   1      37.741  30.398  28.476  1.00  0.00     0.202 C 
BRANCH   6   7
ATOM      7  C   UNL A   1      37.304  31.539  29.389  1.00  0.00     0.261 C 
BRANCH   7   8
ATOM      8  O   UNL A   1      36.304  31.128  30.330  1.00  0.00    -0.460 OA
BRANCH   8   9
ATOM      9  C   UNL A   1      36.483  30.543  31.541  1.00  0.00     0.338 C 
ATOM     10  O   UNL A   1      36.345  29.322  31.615  1.00  0.00    -0.246 OA
BRANCH   9  11
ATOM     11  C   UNL A   1      36.874  31.268  32.796  1.00  0.00     0.060 A 
ATOM     12  C   UNL A   1      36.362  32.488  33.242  1.00  0.00     0.016 A 
ATOM     13  C   UNL A   1      37.831  30.631  33.610  1.00  0.00     0.016 A 
ATOM     14  C   UNL A   1      36.836  33.106  34.391  1.00  0.00     0.010 A 
ATOM     15  C   UNL A   1      38.319  31.240  34.770  1.00  0.00     0.010 A 
ATOM     16  C   UNL A   1      37.857  32.512  35.122  1.00  0.00    -0.014 A 
BRANCH  16  17
ATOM     17  C   UNL A   1      38.613  33.390  36.030  1.00  0.00     0.031 A 
ATOM     18  C   UNL A   1      38.337  33.242  37.499  1.00  0.00     0.074 A 
ATOM     19  C   UNL A   1      39.641  34.123  35.570  1.00  0.00     0.049 A 
ATOM     20  N   UNL A   1      38.875  33.860  38.515  1.00  0.00    -0.248 NA
ATOM     21  C   UNL A   1      37.326  32.236  37.876  1.00  0.00     0.031 C 
ATOM     22  C   UNL A   1      40.087  34.174  34.177  1.00  0.00     0.029 A 
ATOM     23  N   UNL A   1      40.527  34.922  36.239  1.00  0.00    -0.354 N 
ATOM     24  C   UNL A   1      38.243  33.344  39.640  1.00  0.00     0.074 A 
ATOM     25  C   UNL A   1      37.285  32.363  39.191  1.00  0.00     0.031 C 
ATOM     26  C   UNL A   1      41.185  34.946  34.100  1.00  0.00     0.029 A 
ATOM     27  C   UNL A   1      41.477  35.485  35.423  1.00  0.00     0.049 A 
ATOM     28  H   UNL A   1      40.488  35.077  37.210  1.00  0.00     0.167 HD
ATOM     29  C   UNL A   1      38.439  33.674  40.936  1.00  0.00     0.031 A 
ATOM     30  C   UNL A   1      42.455  36.359  35.728  1.00  0.00     0.031 A 
ATOM     31  C   UNL A   1      39.394  34.662  41.350  1.00  0.00     0.049 A 
ATOM     32  C   UNL A   1      42.577  36.801  37.162  1.00  0.00     0.074 A 
ATOM     33  C   UNL A   1      39.641  35.157  42.614  1.00  0.00     0.029 A 
ATOM     34  N   UNL A   1      40.267  35.304  40.482  1.00  0.00    -0.354 N 
ATOM     35  N   UNL A   1      41.912  36.382  38.216  1.00  0.00    -0.248 NA
ATOM     36  C   UNL A   1      43.573  37.839  37.450  1.00  0.00     0.031 C 
ATOM     37  C   UNL A   1      40.631  36.140  42.503  1.00  0.00     0.029 A 
ATOM     38  C   UNL A   1      41.044  36.208  41.179  1.00  0.00     0.049 A 
ATOM     39  H   UNL A   1      40.324  35.140  39.513  1.00  0.00     0.167 HD
ATOM     40  C   UNL A   1      42.427  37.087  39.296  1.00  0.00     0.074 A 
ATOM     41  C   UNL A   1      43.470  37.946  38.768  1.00  0.00     0.031 C 
ATOM     42  C   UNL A   1      42.075  37.034  40.605  1.00  0.00     0.031 A 
BRANCH  29  43
ATOM     43  C   UNL A   1      37.525  33.035  41.944  1.00  0.00    -0.014 A 
ATOM     44  C   UNL A   1      37.776  31.760  42.475  1.00  0.00     0.009 A 
ATOM     45  C   UNL A   1      36.346  33.702  42.310  1.00  0.00     0.009 A 
ATOM     46  C   UNL A   1      36.839  31.147  43.312  1.00  0.00     0.001 A 
ATOM     47  C   UNL A   1      35.425  33.099  43.169  1.00  0.00     0.001 A 
ATOM     48  C   UNL A   1      35.666  31.816  43.659  1.00  0.00     0.000 A 
ENDBRANCH  29  43
BRANCH  30  49
ATOM     49  C   UNL A   1      43.344  36.904  34.667  1.00  0.00    -0.014 A 
ATOM     50  C   UNL A   1      44.483  36.203  34.243  1.00  0.00     0.009 A 
ATOM     51  C   UNL A   1      43.065  38.151  34.079  1.00  0.00     0.009 A 
ATOM     52  C   UNL A   1      45.333  36.747  33.274  1.00  0.00     0.001 A 
ATOM     53  C   UNL A   1      43.899  38.678  33.089  1.00  0.00     0.001 A 
ATOM     54  C   UNL A   1      45.037  37.980  32.694  1.00  0.00     0.000 A 
ENDBRANCH  30  49
BRANCH  42  55
ATOM     55  C   UNL A   1      42.866  37.891  41.549  1.00  0.00    -0.014 A 
ATOM     56  C   UNL A   1      42.464  39.198  41.862  1.00  0.00     0.009 A 
ATOM     57  C   UNL A   1      44.006  37.355  42.169  1.00  0.00     0.009 A 
ATOM     58  C   UNL A   1      43.215  39.966  42.752  1.00  0.00     0.001 A 
ATOM     59  C   UNL A   1      44.733  38.114  43.083  1.00  0.00     0.001 A 
ATOM     60  C   UNL A   1      44.344  39.422  43.366  1.00  0.00     0.000 A 
ENDBRANCH  42  55
ENDBRANCH  16  17
ENDBRANCH   9  11
ENDBRANCH   8   9
ENDBRANCH   7   8
ENDBRANCH   6   7
ENDBRANCH   5   6
ENDBRANCH   4   5
ENDBRANCH   3   4
ENDBRANCH   2   3
ENDBRANCH   1   2
BRANCH   1  61
ATOM     61  C   UNL A   1      40.191  25.352  26.902  1.00  0.00     0.188 C 
BRANCH  61  62
ATOM     62  O   UNL A   1      38.830  25.001  27.023  1.00  0.00    -0.376 OA
BRANCH  62  63
ATOM     63  C   UNL A   1      38.287  23.950  26.244  1.00  0.00     0.202 C 
BRANCH  63  64
ATOM     64  C   UNL A   1      36.800  23.783  25.899  1.00  0.00     0.261 C 
BRANCH  64  65
ATOM     65  O   UNL A   1      36.192  22.508  26.131  1.00  0.00    -0.460 OA
BRANCH  65  66
ATOM     66  C   UNL A   1      36.244  21.601  25.131  1.00  0.00     0.340 C 
ATOM     67  O   UNL A   1      37.241  21.047  24.694  1.00  0.00    -0.246 OA
BRANCH  66  68
ATOM     68  C   UNL A   1      34.888  21.247  24.715  1.00  0.00     0.091 A 
ATOM     69  C   UNL A   1      34.417  20.072  25.307  1.00  0.00     0.127 A 
ATOM     70  C   UNL A   1      34.005  22.009  23.948  1.00  0.00     0.057 A 
ATOM     71  N   UNL A   1      33.136  19.644  25.256  1.00  0.00    -0.264 NA
ATOM     72  C   UNL A   1      32.669  21.551  23.877  1.00  0.00     0.035 A 
ATOM     73  C   UNL A   1      32.283  20.404  24.549  1.00  0.00     0.112 A 
BRANCH  70  74
ATOM     74  C   UNL A   1      34.229  23.355  23.329  1.00  0.00     0.254 C 
ATOM     75  O   UNL A   1      35.148  23.429  22.506  1.00  0.00    -0.269 OA
ATOM     76  N   UNL A   1      33.422  24.471  23.547  1.00  0.00    -0.339 N 
ATOM     77  C   UNL A   1      33.034  25.183  22.329  1.00  0.00     0.120 C 
ATOM     78  C   UNL A   1      32.825  24.880  24.820  1.00  0.00     0.120 C 
ATOM     79  C   UNL A   1      32.812  26.674  22.508  1.00  0.00     0.025 C 
ATOM     80  C   UNL A   1      32.593  26.380  24.953  1.00  0.00     0.025 C 
ATOM     81  C   UNL A   1      31.892  26.941  23.703  1.00  0.00    -0.003 C 
BRANCH  81  82
ATOM     82  C   UNL A   1      31.556  28.425  23.918  1.00  0.00     0.039 C 
BRANCH  82  83
ATOM     83  C   UNL A   1      30.237  28.874  23.341  1.00  0.00    -0.048 A 
ATOM     84  C   UNL A   1      29.115  28.040  23.460  1.00  0.00     0.004 A 
ATOM     85  C   UNL A   1      30.099  30.109  22.696  1.00  0.00     0.004 A 
ATOM     86  C   UNL A   1      27.883  28.424  22.933  1.00  0.00     0.000 A 
ATOM     87  C   UNL A   1      28.862  30.493  22.168  1.00  0.00     0.000 A 
ATOM     88  C   UNL A   1      27.758  29.650  22.283  1.00  0.00     0.000 A 
ENDBRANCH  82  83
ENDBRANCH  81  82
ENDBRANCH  70  74
ENDBRANCH  66  68
ENDBRANCH  65  66
ENDBRANCH  64  65
ENDBRANCH  63  64
ENDBRANCH  62  63
ENDBRANCH  61  62
ENDBRANCH   1  61
TORSDOF 23
ENDMDL
MODEL 2
REMARK VINA RESULT:      -9.1      6.206     13.096
REMARK SMILES O=C(OCCOCCOCCOCCOC(=O)c1cnccc1C(=O)N1CCC(Cc2ccccc2)CC1)c1ccc(-c2c3nc(c(-c4ccccc4)c4ccc([nH]4)c(-c4ccccc4)c4nc(c(-c5ccccc5)c5ccc2[nH]5)C=C4)C=C3)cc1
REMARK SMILES IDX 10 1 9 2 8 3 7 4 6 5 5 6 4 7 3 8 2 9 1 10 39 11 40 12 86 13
REMARK SMILES IDX 41 14 85 15 42 16 43 17 44 18 79 19 45 20 84 21 78 22 80 23
REMARK SMILES IDX 46 24 83 25 77 26 76 27 47 29 69 30 54 31 68 32 55 33 58 34
REMARK SMILES IDX 67 35 81 36 56 37 57 38 66 40 82 41 59 42 48 43 49 44 53 45
REMARK SMILES IDX 50 46 52 47 51 48 70 49 71 50 75 51 72 52 74 53 73 54 60 55
REMARK SMILES IDX 61 56 65 57 62 58 64 59 63 60 11 61 12 62 13 63 14 64 15 65
REMARK SMILES IDX 16 66 17 67 18 68 19 69 23 70 20 71 22 72 21 73 24 74 25 75
REMARK SMILES IDX 26 76 27 77 38 78 28 79 37 80 29 81 30 82 31 83 32 84 36 85
REMARK SMILES IDX 33 86 35 87 34 88
REMARK H PARENT 80 28 58 39
REMARK Flexibility Score: inf
ROOT
ATOM      1  C   UNL A   1      36.645  33.086  35.385  1.00  0.00     0.188 C 
ENDROOT
BRANCH   1   2
ATOM      2  O   UNL A   1      36.744  33.483  36.747  1.00  0.00    -0.377 OA
BRANCH   2   3
ATOM      3  C   UNL A   1      38.036  33.426  37.352  1.00  0.00     0.188 C 
BRANCH   3   4
ATOM      4  C   UNL A   1      38.074  33.449  38.881  1.00  0.00     0.188 C 
BRANCH   4   5
ATOM      5  O   UNL A   1      39.128  34.299  39.333  1.00  0.00    -0.376 OA
BRANCH   5   6
ATOM      6  C   UNL A   1      39.179  35.593  38.736  1.00  0.00     0.202 C 
BRANCH   6   7
ATOM      7  C   UNL A   1      40.578  36.202  38.725  1.00  0.00     0.261 C 
BRANCH   7   8
ATOM      8  O   UNL A   1      41.068  36.409  37.394  1.00  0.00    -0.460 OA
BRANCH   8   9
ATOM      9  C   UNL A   1      40.616  35.858  36.240  1.00  0.00     0.338 C 
ATOM     10  O   UNL A   1      39.707  36.437  35.644  1.00  0.00    -0.246 OA
BRANCH   9  11
ATOM     11  C   UNL A   1      41.166  34.611  35.609  1.00  0.00     0.060 A 
ATOM     12  C   UNL A   1      42.471  34.128  35.730  1.00  0.00     0.016 A 
ATOM     13  C   UNL A   1      40.261  33.848  34.847  1.00  0.00     0.016 A 
ATOM     14  C   UNL A   1      42.898  32.993  35.055  1.00  0.00     0.010 A 
ATOM     15  C   UNL A   1      40.675  32.702  34.161  1.00  0.00     0.010 A 
ATOM     16  C   UNL A   1      42.017  32.314  34.222  1.00  0.00    -0.014 A 
BRANCH  16  17
ATOM     17  C   UNL A   1      42.616  31.429  33.211  1.00  0.00     0.031 A 
ATOM     18  C   UNL A   1      43.103  32.077  31.946  1.00  0.00     0.074 A 
ATOM     19  C   UNL A   1      42.898  30.149  33.507  1.00  0.00     0.049 A 
ATOM     20  N   UNL A   1      43.693  31.546  30.911  1.00  0.00    -0.248 NA
ATOM     21  C   UNL A   1      42.919  33.538  31.848  1.00  0.00     0.031 C 
ATOM     22  C   UNL A   1      42.620  29.496  34.788  1.00  0.00     0.029 A 
ATOM     23  N   UNL A   1      43.530  29.188  32.768  1.00  0.00    -0.354 N 
ATOM     24  C   UNL A   1      43.914  32.599  30.030  1.00  0.00     0.074 A 
ATOM     25  C   UNL A   1      43.402  33.798  30.646  1.00  0.00     0.031 C 
ATOM     26  C   UNL A   1      43.106  28.244  34.751  1.00  0.00     0.029 A 
ATOM     27  C   UNL A   1      43.672  27.994  33.430  1.00  0.00     0.049 A 
ATOM     28  H   UNL A   1      43.853  29.338  31.850  1.00  0.00     0.167 HD
ATOM     29  C   UNL A   1      44.486  32.559  28.806  1.00  0.00     0.031 A 
ATOM     30  C   UNL A   1      44.184  26.828  32.992  1.00  0.00     0.031 A 
ATOM     31  C   UNL A   1      44.978  31.347  28.216  1.00  0.00     0.049 A 
ATOM     32  C   UNL A   1      44.708  26.782  31.581  1.00  0.00     0.074 A 
ATOM     33  C   UNL A   1      45.501  31.143  26.956  1.00  0.00     0.029 A 
ATOM     34  N   UNL A   1      45.001  30.123  28.872  1.00  0.00    -0.354 N 
ATOM     35  N   UNL A   1      44.829  27.759  30.711  1.00  0.00    -0.248 NA
ATOM     36  C   UNL A   1      45.155  25.475  31.087  1.00  0.00     0.031 C 
ATOM     37  C   UNL A   1      45.794  29.780  26.830  1.00  0.00     0.029 A 
ATOM     38  C   UNL A   1      45.513  29.151  28.035  1.00  0.00     0.049 A 
ATOM     39  H   UNL A   1      44.697  29.971  29.796  1.00  0.00     0.167 HD
ATOM     40  C   UNL A   1      45.391  27.190  29.576  1.00  0.00     0.074 A 
ATOM     41  C   UNL A   1      45.599  25.787  29.877  1.00  0.00     0.031 C 
ATOM     42  C   UNL A   1      45.707  27.768  28.390  1.00  0.00     0.031 A 
BRANCH  29  43
ATOM     43  C   UNL A   1      44.489  33.840  28.018  1.00  0.00    -0.014 A 
ATOM     44  C   UNL A   1      43.400  34.228  27.221  1.00  0.00     0.009 A 
ATOM     45  C   UNL A   1      45.645  34.636  28.019  1.00  0.00     0.009 A 
ATOM     46  C   UNL A   1      43.489  35.359  26.406  1.00  0.00     0.001 A 
ATOM     47  C   UNL A   1      45.722  35.781  27.225  1.00  0.00     0.001 A 
ATOM     48  C   UNL A   1      44.648  36.134  26.409  1.00  0.00     0.000 A 
ENDBRANCH  29  43
BRANCH  30  49
ATOM     49  C   UNL A   1      44.180  25.622  33.862  1.00  0.00    -0.014 A 
ATOM     50  C   UNL A   1      43.027  24.835  34.007  1.00  0.00     0.009 A 
ATOM     51  C   UNL A   1      45.336  25.258  34.576  1.00  0.00     0.009 A 
ATOM     52  C   UNL A   1      43.026  23.728  34.861  1.00  0.00     0.001 A 
ATOM     53  C   UNL A   1      45.341  24.134  35.405  1.00  0.00     0.001 A 
ATOM     54  C   UNL A   1      44.183  23.375  35.555  1.00  0.00     0.000 A 
ENDBRANCH  30  49
BRANCH  42  55
ATOM     55  C   UNL A   1      46.358  26.888  27.364  1.00  0.00    -0.014 A 
ATOM     56  C   UNL A   1      47.740  26.647  27.377  1.00  0.00     0.009 A 
ATOM     57  C   UNL A   1      45.560  26.254  26.399  1.00  0.00     0.009 A 
ATOM     58  C   UNL A   1      48.315  25.816  26.416  1.00  0.00     0.001 A 
ATOM     59  C   UNL A   1      46.133  25.398  25.462  1.00  0.00     0.001 A 
ATOM     60  C   UNL A   1      47.511  25.188  25.464  1.00  0.00     0.000 A 
ENDBRANCH  42  55
ENDBRANCH  16  17
ENDBRANCH   9  11
ENDBRANCH   8   9
ENDBRANCH   7   8
ENDBRANCH   6   7
ENDBRANCH   5   6
ENDBRANCH   4   5
ENDBRANCH   3   4
ENDBRANCH   2   3
ENDBRANCH   1   2
BRANCH   1  61
ATOM     61  C   UNL A   1      35.980  34.048  34.368  1.00  0.00     0.188 C 
BRANCH  61  62
ATOM     62  O   UNL A   1      36.836  34.955  33.708  1.00  0.00    -0.376 OA
BRANCH  62  63
ATOM     63  C   UNL A   1      37.513  34.571  32.524  1.00  0.00     0.202 C 
BRANCH  63  64
ATOM     64  C   UNL A   1      36.861  33.880  31.318  1.00  0.00     0.261 C 
BRANCH  64  65
ATOM     65  O   UNL A   1      37.603  32.861  30.639  1.00  0.00    -0.460 OA
BRANCH  65  66
ATOM     66  C   UNL A   1      37.161  31.590  30.752  1.00  0.00     0.340 C 
ATOM     67  O   UNL A   1      36.253  31.070  30.123  1.00  0.00    -0.246 OA
BRANCH  66  68
ATOM     68  C   UNL A   1      38.035  30.842  31.655  1.00  0.00     0.091 A 
ATOM     69  C   UNL A   1      37.458  30.592  32.903  1.00  0.00     0.127 A 
ATOM     70  C   UNL A   1      39.263  30.248  31.356  1.00  0.00     0.057 A 
ATOM     71  N   UNL A   1      37.965  29.751  33.831  1.00  0.00    -0.264 NA
ATOM     72  C   UNL A   1      39.804  29.384  32.335  1.00  0.00     0.035 A 
ATOM     73  C   UNL A   1      39.126  29.152  33.520  1.00  0.00     0.112 A 
BRANCH  70  74
ATOM     74  C   UNL A   1      40.011  30.254  30.057  1.00  0.00     0.254 C 
ATOM     75  O   UNL A   1      40.455  31.348  29.690  1.00  0.00    -0.269 OA
ATOM     76  N   UNL A   1      40.312  29.116  29.311  1.00  0.00    -0.339 N 
ATOM     77  C   UNL A   1      41.701  29.039  28.860  1.00  0.00     0.120 C 
ATOM     78  C   UNL A   1      39.436  27.964  29.087  1.00  0.00     0.120 C 
ATOM     79  C   UNL A   1      41.904  28.297  27.551  1.00  0.00     0.025 C 
ATOM     80  C   UNL A   1      39.685  27.230  27.776  1.00  0.00     0.025 C 
ATOM     81  C   UNL A   1      41.185  26.945  27.582  1.00  0.00    -0.003 C 
BRANCH  81  82
ATOM     82  C   UNL A   1      41.394  26.094  26.320  1.00  0.00     0.039 C 
BRANCH  82  83
ATOM     83  C   UNL A   1      42.259  24.872  26.506  1.00  0.00    -0.048 A 
ATOM     84  C   UNL A   1      42.640  24.122  25.383  1.00  0.00     0.004 A 
ATOM     85  C   UNL A   1      42.702  24.471  27.772  1.00  0.00     0.004 A 
ATOM     86  C   UNL A   1      43.435  22.986  25.523  1.00  0.00     0.000 A 
ATOM     87  C   UNL A   1      43.499  23.331  27.910  1.00  0.00     0.000 A 
ATOM     88  C   UNL A   1      43.862  22.588  26.788  1.00  0.00     0.000 A 
ENDBRANCH  82  83
ENDBRANCH  81  82
ENDBRANCH  70  74
ENDBRANCH  66  68
ENDBRANCH  65  66
ENDBRANCH  64  65
ENDBRANCH  63  64
ENDBRANCH  62  63
ENDBRANCH  61  62
ENDBRANCH   1  61
TORSDOF 23
ENDMDL
MODEL 3
REMARK VINA RESULT:      -8.8      6.843     11.130
REMARK SMILES O=C(OCCOCCOCCOCCOC(=O)c1cnccc1C(=O)N1CCC(Cc2ccccc2)CC1)c1ccc(-c2c3nc(c(-c4ccccc4)c4ccc([nH]4)c(-c4ccccc4)c4nc(c(-c5ccccc5)c5ccc2[nH]5)C=C4)C=C3)cc1
REMARK SMILES IDX 10 1 9 2 8 3 7 4 6 5 5 6 4 7 3 8 2 9 1 10 39 11 40 12 86 13
REMARK SMILES IDX 41 14 85 15 42 16 43 17 44 18 79 19 45 20 84 21 78 22 80 23
REMARK SMILES IDX 46 24 83 25 77 26 76 27 47 29 69 30 54 31 68 32 55 33 58 34
REMARK SMILES IDX 67 35 81 36 56 37 57 38 66 40 82 41 59 42 48 43 49 44 53 45
REMARK SMILES IDX 50 46 52 47 51 48 70 49 71 50 75 51 72 52 74 53 73 54 60 55
REMARK SMILES IDX 61 56 65 57 62 58 64 59 63 60 11 61 12 62 13 63 14 64 15 65
REMARK SMILES IDX 16 66 17 67 18 68 19 69 23 70 20 71 22 72 21 73 24 74 25 75
REMARK SMILES IDX 26 76 27 77 38 78 28 79 37 80 29 81 30 82 31 83 32 84 36 85
REMARK SMILES IDX 33 86 35 87 34 88
REMARK H PARENT 80 28 58 39
REMARK Flexibility Score: inf
ROOT
ATOM      1  C   UNL A   1      36.058  33.861  29.287  1.00  0.00     0.188 C 
ENDROOT
BRANCH   1   2
ATOM      2  O   UNL A   1      35.932  33.019  30.427  1.00  0.00    -0.377 OA
BRANCH   2   3
ATOM      3  C   UNL A   1      35.038  33.441  31.456  1.00  0.00     0.188 C 
BRANCH   3   4
ATOM      4  C   UNL A   1      35.616  34.375  32.520  1.00  0.00     0.188 C 
BRANCH   4   5
ATOM      5  O   UNL A   1      36.999  34.086  32.728  1.00  0.00    -0.376 OA
BRANCH   5   6
ATOM      6  C   UNL A   1      37.367  33.753  34.065  1.00  0.00     0.202 C 
BRANCH   6   7
ATOM      7  C   UNL A   1      37.434  32.250  34.320  1.00  0.00     0.261 C 
BRANCH   7   8
ATOM      8  O   UNL A   1      38.381  31.597  33.466  1.00  0.00    -0.460 OA
BRANCH   8   9
ATOM      9  C   UNL A   1      38.612  30.267  33.334  1.00  0.00     0.338 C 
ATOM     10  O   UNL A   1      37.686  29.495  33.589  1.00  0.00    -0.246 OA
BRANCH   9  11
ATOM     11  C   UNL A   1      39.901  29.660  32.862  1.00  0.00     0.060 A 
ATOM     12  C   UNL A   1      40.128  28.310  32.582  1.00  0.00     0.016 A 
ATOM     13  C   UNL A   1      40.972  30.552  32.659  1.00  0.00     0.016 A 
ATOM     14  C   UNL A   1      41.378  27.839  32.208  1.00  0.00     0.010 A 
ATOM     15  C   UNL A   1      42.238  30.093  32.282  1.00  0.00     0.010 A 
ATOM     16  C   UNL A   1      42.449  28.721  32.117  1.00  0.00    -0.014 A 
BRANCH  16  17
ATOM     17  C   UNL A   1      43.795  28.130  32.169  1.00  0.00     0.031 A 
ATOM     18  C   UNL A   1      44.272  27.649  33.510  1.00  0.00     0.074 A 
ATOM     19  C   UNL A   1      44.461  27.850  31.036  1.00  0.00     0.049 A 
ATOM     20  N   UNL A   1      45.393  27.066  33.836  1.00  0.00    -0.248 NA
ATOM     21  C   UNL A   1      43.339  27.829  34.639  1.00  0.00     0.031 C 
ATOM     22  C   UNL A   1      43.976  28.123  29.682  1.00  0.00     0.029 A 
ATOM     23  N   UNL A   1      45.662  27.225  30.847  1.00  0.00    -0.354 N 
ATOM     24  C   UNL A   1      45.312  26.848  35.206  1.00  0.00     0.074 A 
ATOM     25  C   UNL A   1      44.038  27.353  35.654  1.00  0.00     0.031 C 
ATOM     26  C   UNL A   1      44.866  27.640  28.797  1.00  0.00     0.029 A 
ATOM     27  C   UNL A   1      46.002  27.083  29.524  1.00  0.00     0.049 A 
ATOM     28  H   UNL A   1      46.228  26.908  31.586  1.00  0.00     0.167 HD
ATOM     29  C   UNL A   1      46.233  26.284  36.020  1.00  0.00     0.031 A 
ATOM     30  C   UNL A   1      47.124  26.577  28.979  1.00  0.00     0.031 A 
ATOM     31  C   UNL A   1      47.497  25.799  35.545  1.00  0.00     0.049 A 
ATOM     32  C   UNL A   1      48.185  26.062  29.915  1.00  0.00     0.074 A 
ATOM     33  C   UNL A   1      48.556  25.283  36.264  1.00  0.00     0.029 A 
ATOM     34  N   UNL A   1      47.861  25.775  34.205  1.00  0.00    -0.354 N 
ATOM     35  N   UNL A   1      48.147  25.942  31.223  1.00  0.00    -0.248 NA
ATOM     36  C   UNL A   1      49.444  25.622  29.305  1.00  0.00     0.031 C 
ATOM     37  C   UNL A   1      49.585  24.995  35.360  1.00  0.00     0.029 A 
ATOM     38  C   UNL A   1      49.140  25.271  34.074  1.00  0.00     0.049 A 
ATOM     39  H   UNL A   1      47.292  26.074  33.459  1.00  0.00     0.167 HD
ATOM     40  C   UNL A   1      49.366  25.389  31.591  1.00  0.00     0.074 A 
ATOM     41  C   UNL A   1      50.112  25.183  30.364  1.00  0.00     0.031 C 
ATOM     42  C   UNL A   1      49.833  25.079  32.826  1.00  0.00     0.031 A 
BRANCH  29  43
ATOM     43  C   UNL A   1      45.925  26.281  37.492  1.00  0.00    -0.014 A 
ATOM     44  C   UNL A   1      45.328  25.180  38.127  1.00  0.00     0.009 A 
ATOM     45  C   UNL A   1      46.174  27.442  38.240  1.00  0.00     0.009 A 
ATOM     46  C   UNL A   1      44.943  25.262  39.468  1.00  0.00     0.001 A 
ATOM     47  C   UNL A   1      45.814  27.512  39.587  1.00  0.00     0.001 A 
ATOM     48  C   UNL A   1      45.186  26.426  40.196  1.00  0.00     0.000 A 
ENDBRANCH  29  43
BRANCH  30  49
ATOM     49  C   UNL A   1      47.320  26.580  27.504  1.00  0.00    -0.014 A 
ATOM     50  C   UNL A   1      47.870  27.690  26.847  1.00  0.00     0.009 A 
ATOM     51  C   UNL A   1      46.935  25.467  26.736  1.00  0.00     0.009 A 
ATOM     52  C   UNL A   1      48.010  27.695  25.455  1.00  0.00     0.001 A 
ATOM     53  C   UNL A   1      47.104  25.461  25.349  1.00  0.00     0.001 A 
ATOM     54  C   UNL A   1      47.632  26.579  24.708  1.00  0.00     0.000 A 
ENDBRANCH  30  49
BRANCH  42  55
ATOM     55  C   UNL A   1      51.188  24.436  32.892  1.00  0.00    -0.014 A 
ATOM     56  C   UNL A   1      51.341  23.044  32.824  1.00  0.00     0.009 A 
ATOM     57  C   UNL A   1      52.328  25.250  32.975  1.00  0.00     0.009 A 
ATOM     58  C   UNL A   1      52.614  22.477  32.878  1.00  0.00     0.001 A 
ATOM     59  C   UNL A   1      53.600  24.681  32.995  1.00  0.00     0.001 A 
ATOM     60  C   UNL A   1      53.741  23.295  32.957  1.00  0.00     0.000 A 
ENDBRANCH  42  55
ENDBRANCH  16  17
ENDBRANCH   9  11
ENDBRANCH   8   9
ENDBRANCH   7   8
ENDBRANCH   6   7
ENDBRANCH   5   6
ENDBRANCH   4   5
ENDBRANCH   3   4
ENDBRANCH   2   3
ENDBRANCH   1   2
BRANCH   1  61
ATOM     61  C   UNL A   1      35.065  33.686  28.111  1.00  0.00     0.188 C 
BRANCH  61  62
ATOM     62  O   UNL A   1      34.940  32.385  27.581  1.00  0.00    -0.376 OA
BRANCH  62  63
ATOM     63  C   UNL A   1      33.677  31.745  27.541  1.00  0.00     0.202 C 
BRANCH  63  64
ATOM     64  C   UNL A   1      33.456  30.236  27.357  1.00  0.00     0.261 C 
BRANCH  64  65
ATOM     65  O   UNL A   1      32.498  29.806  26.385  1.00  0.00    -0.460 OA
BRANCH  65  66
ATOM     66  C   UNL A   1      32.769  28.674  25.700  1.00  0.00     0.340 C 
ATOM     67  O   UNL A   1      33.752  27.959  25.824  1.00  0.00    -0.246 OA
BRANCH  66  68
ATOM     68  C   UNL A   1      31.627  28.320  24.859  1.00  0.00     0.091 A 
ATOM     69  C   UNL A   1      31.384  29.242  23.838  1.00  0.00     0.127 A 
ATOM     70  C   UNL A   1      30.891  27.134  24.876  1.00  0.00     0.057 A 
ATOM     71  N   UNL A   1      30.531  29.045  22.808  1.00  0.00    -0.264 NA
ATOM     72  C   UNL A   1      29.983  26.935  23.811  1.00  0.00     0.035 A 
ATOM     73  C   UNL A   1      29.856  27.884  22.810  1.00  0.00     0.112 A 
BRANCH  70  74
ATOM     74  C   UNL A   1      31.056  25.946  25.775  1.00  0.00     0.254 C 
ATOM     75  O   UNL A   1      30.441  25.986  26.847  1.00  0.00    -0.269 OA
ATOM     76  N   UNL A   1      31.761  24.791  25.441  1.00  0.00    -0.339 N 
ATOM     77  C   UNL A   1      31.052  23.545  25.732  1.00  0.00     0.120 C 
ATOM     78  C   UNL A   1      33.027  24.724  24.708  1.00  0.00     0.120 C 
ATOM     79  C   UNL A   1      31.950  22.366  26.066  1.00  0.00     0.025 C 
ATOM     80  C   UNL A   1      33.889  23.516  25.049  1.00  0.00     0.025 C 
ATOM     81  C   UNL A   1      33.057  22.221  25.018  1.00  0.00    -0.003 C 
BRANCH  81  82
ATOM     82  C   UNL A   1      33.975  21.008  25.238  1.00  0.00     0.039 C 
BRANCH  82  83
ATOM     83  C   UNL A   1      33.628  19.785  24.428  1.00  0.00    -0.048 A 
ATOM     84  C   UNL A   1      34.383  18.614  24.593  1.00  0.00     0.004 A 
ATOM     85  C   UNL A   1      32.563  19.783  23.518  1.00  0.00     0.004 A 
ATOM     86  C   UNL A   1      34.090  17.469  23.855  1.00  0.00     0.000 A 
ATOM     87  C   UNL A   1      32.271  18.633  22.779  1.00  0.00     0.000 A 
ATOM     88  C   UNL A   1      33.035  17.480  22.944  1.00  0.00     0.000 A 
ENDBRANCH  82  83
ENDBRANCH  81  82
ENDBRANCH  70  74
ENDBRANCH  66  68
ENDBRANCH  65  66
ENDBRANCH  64  65
ENDBRANCH  63  64
ENDBRANCH  62  63
ENDBRANCH  61  62
ENDBRANCH   1  61
TORSDOF 23
ENDMDL
