MODEL 1
REMARK VINA RESULT:      -9.0      0.000      0.000
REMARK SMILES CCC[C@]1(C(=O)OCCOCCOCCOCCOC(=O)c2ccc(-c3c4nc(c(-c5ccccc5)c5ccc([nH]5)c(-c5ccccc5)c5nc(c(-c6ccccc6)c6ccc3[nH]6)C=C5)C=C4)cc2)CCC[N@@H+](C[C@@H]2C[N@@H+](C)CCO2)C1
REMARK SMILES IDX 13 1 12 2 11 3 10 4 9 5 8 6 7 7 5 8 6 9 4 10 70 11 82 12
REMARK SMILES IDX 71 13 73 14 72 15 3 17 2 18 1 19 74 20 75 21 76 22 81 23
REMARK SMILES IDX 77 24 80 25 78 26 79 27 14 29 15 30 16 31 17 32 18 33 19 34
REMARK SMILES IDX 20 35 21 36 22 37 23 38 69 39 24 40 68 41 25 42 26 43 27 44
REMARK SMILES IDX 62 45 28 46 67 47 61 48 63 49 29 50 66 51 60 52 59 53 30 55
REMARK SMILES IDX 52 56 37 57 51 58 38 59 41 60 50 61 64 62 39 63 40 64 49 66
REMARK SMILES IDX 65 67 42 68 31 69 32 70 36 71 33 72 35 73 34 74 53 75 54 76
REMARK SMILES IDX 58 77 55 78 57 79 56 80 43 81 44 82 48 83 45 84 47 85 46 86
REMARK H PARENT 73 16 77 28 63 54 41 65
REMARK Flexibility Score: inf
ROOT
ATOM      1  O   UNL A   1      41.188  22.107  26.125  1.00  0.00    -0.377 OA
ENDROOT
BRANCH   1   2
ATOM      2  C   UNL A   1      40.276  22.897  26.862  1.00  0.00     0.188 C 
BRANCH   2   3
ATOM      3  C   UNL A   1      38.817  22.885  26.374  1.00  0.00     0.188 C 
BRANCH   3   4
ATOM      4  O   UNL A   1      38.280  21.740  25.727  1.00  0.00    -0.376 OA
BRANCH   4   5
ATOM      5  C   UNL A   1      36.888  21.660  25.471  1.00  0.00     0.202 C 
BRANCH   5   6
ATOM      6  C   UNL A   1      36.276  22.354  24.242  1.00  0.00     0.261 C 
BRANCH   6   7
ATOM      7  O   UNL A   1      35.652  23.638  24.452  1.00  0.00    -0.463 OA
BRANCH   7   8
ATOM      8  C   UNL A   1      34.403  23.608  24.981  1.00  0.00     0.317 C 
ATOM      9  O   UNL A   1      34.198  23.506  26.189  1.00  0.00    -0.251 OA
BRANCH   8  10
ATOM     10  C   UNL A   1      33.232  23.623  23.947  1.00  0.00     0.117 C 
ATOM     11  C   UNL A   1      31.815  23.903  24.488  1.00  0.00     0.030 C 
ATOM     12  C   UNL A   1      33.679  24.802  23.045  1.00  0.00     0.281 C 
ATOM     13  C   UNL A   1      30.818  24.373  23.437  1.00  0.00     0.063 C 
ATOM     14  N   UNL A   1      32.708  25.460  22.164  1.00  0.00    -0.332 N 
ATOM     15  C   UNL A   1      31.356  25.558  22.681  1.00  0.00     0.262 C 
ATOM     16  H   UNL A   1      32.647  24.838  21.358  1.00  0.00     0.348 HD
BRANCH  10  17
ATOM     17  C   UNL A   1      33.318  22.181  23.336  1.00  0.00     0.024 C 
BRANCH  17  18
ATOM     18  C   UNL A   1      32.438  21.031  23.819  1.00  0.00    -0.002 C 
ATOM     19  C   UNL A   1      33.196  19.956  24.570  1.00  0.00     0.004 C 
ENDBRANCH  17  18
ENDBRANCH  10  17
BRANCH  14  20
ATOM     20  C   UNL A   1      33.187  26.813  21.749  1.00  0.00     0.300 C 
BRANCH  20  21
ATOM     21  C   UNL A   1      33.238  28.097  22.681  1.00  0.00     0.228 C 
ATOM     22  C   UNL A   1      33.778  27.961  24.115  1.00  0.00     0.300 C 
ATOM     23  O   UNL A   1      32.074  28.944  22.613  1.00  0.00    -0.361 OA
ATOM     24  N   UNL A   1      32.766  27.450  25.042  1.00  0.00    -0.333 N 
ATOM     25  C   UNL A   1      31.131  28.874  23.687  1.00  0.00     0.222 C 
ATOM     26  C   UNL A   1      33.310  27.262  26.384  1.00  0.00     0.332 C 
ATOM     27  C   UNL A   1      31.623  28.374  25.067  1.00  0.00     0.290 C 
ATOM     28  H   UNL A   1      32.457  26.534  24.715  1.00  0.00     0.348 HD
ENDBRANCH  20  21
ENDBRANCH  14  20
ENDBRANCH   8  10
ENDBRANCH   7   8
ENDBRANCH   6   7
ENDBRANCH   5   6
ENDBRANCH   4   5
ENDBRANCH   3   4
ENDBRANCH   2   3
ENDBRANCH   1   2
BRANCH   1  29
ATOM     29  C   UNL A   1      41.809  21.059  26.850  1.00  0.00     0.188 C 
BRANCH  29  30
ATOM     30  C   UNL A   1      41.219  19.652  26.644  1.00  0.00     0.188 C 
BRANCH  30  31
ATOM     31  O   UNL A   1      41.881  18.900  25.634  1.00  0.00    -0.376 OA
BRANCH  31  32
ATOM     32  C   UNL A   1      43.246  18.548  25.793  1.00  0.00     0.202 C 
BRANCH  32  33
ATOM     33  C   UNL A   1      44.263  19.030  24.746  1.00  0.00     0.261 C 
BRANCH  33  34
ATOM     34  O   UNL A   1      44.323  20.441  24.500  1.00  0.00    -0.460 OA
BRANCH  34  35
ATOM     35  C   UNL A   1      45.421  21.113  24.914  1.00  0.00     0.338 C 
ATOM     36  O   UNL A   1      46.579  20.819  24.741  1.00  0.00    -0.246 OA
BRANCH  35  37
ATOM     37  C   UNL A   1      44.945  22.401  25.465  1.00  0.00     0.060 A 
ATOM     38  C   UNL A   1      44.429  23.372  24.596  1.00  0.00     0.016 A 
ATOM     39  C   UNL A   1      45.004  22.633  26.840  1.00  0.00     0.016 A 
ATOM     40  C   UNL A   1      44.005  24.603  25.097  1.00  0.00     0.010 A 
ATOM     41  C   UNL A   1      44.610  23.873  27.337  1.00  0.00     0.010 A 
ATOM     42  C   UNL A   1      44.149  24.874  26.464  1.00  0.00    -0.014 A 
BRANCH  42  43
ATOM     43  C   UNL A   1      44.086  26.266  26.961  1.00  0.00     0.031 A 
ATOM     44  C   UNL A   1      45.392  26.976  27.184  1.00  0.00     0.074 A 
ATOM     45  C   UNL A   1      42.920  26.864  27.257  1.00  0.00     0.049 A 
ATOM     46  N   UNL A   1      45.630  28.111  27.785  1.00  0.00    -0.248 NA
ATOM     47  C   UNL A   1      46.596  26.301  26.667  1.00  0.00     0.031 C 
ATOM     48  C   UNL A   1      41.592  26.304  27.021  1.00  0.00     0.029 A 
ATOM     49  N   UNL A   1      42.679  28.077  27.850  1.00  0.00    -0.354 N 
ATOM     50  C   UNL A   1      47.010  28.271  27.745  1.00  0.00     0.074 A 
ATOM     51  C   UNL A   1      47.557  27.112  27.078  1.00  0.00     0.031 C 
ATOM     52  C   UNL A   1      40.671  27.164  27.492  1.00  0.00     0.029 A 
ATOM     53  C   UNL A   1      41.350  28.305  28.104  1.00  0.00     0.049 A 
ATOM     54  H   UNL A   1      43.391  28.721  28.070  1.00  0.00     0.167 HD
ATOM     55  C   UNL A   1      47.754  29.291  28.228  1.00  0.00     0.031 A 
ATOM     56  C   UNL A   1      40.760  29.302  28.793  1.00  0.00     0.031 A 
ATOM     57  C   UNL A   1      47.202  30.429  28.909  1.00  0.00     0.049 A 
ATOM     58  C   UNL A   1      41.616  30.382  29.406  1.00  0.00     0.074 A 
ATOM     59  C   UNL A   1      47.866  31.521  29.437  1.00  0.00     0.029 A 
ATOM     60  N   UNL A   1      45.852  30.614  29.160  1.00  0.00    -0.354 N 
ATOM     61  N   UNL A   1      42.919  30.530  29.364  1.00  0.00    -0.248 NA
ATOM     62  C   UNL A   1      40.918  31.435  30.160  1.00  0.00     0.031 C 
ATOM     63  C   UNL A   1      46.921  32.338  30.064  1.00  0.00     0.029 A 
ATOM     64  C   UNL A   1      45.664  31.793  29.858  1.00  0.00     0.049 A 
ATOM     65  H   UNL A   1      45.136  29.998  28.885  1.00  0.00     0.167 HD
ATOM     66  C   UNL A   1      43.191  31.713  30.044  1.00  0.00     0.074 A 
ATOM     67  C   UNL A   1      41.918  32.240  30.489  1.00  0.00     0.031 C 
ATOM     68  C   UNL A   1      44.384  32.312  30.271  1.00  0.00     0.031 A 
BRANCH  55  69
ATOM     69  C   UNL A   1      49.246  29.188  28.083  1.00  0.00    -0.014 A 
ATOM     70  C   UNL A   1      50.030  28.498  29.021  1.00  0.00     0.009 A 
ATOM     71  C   UNL A   1      49.876  29.780  26.977  1.00  0.00     0.009 A 
ATOM     72  C   UNL A   1      51.417  28.434  28.872  1.00  0.00     0.001 A 
ATOM     73  C   UNL A   1      51.258  29.687  26.813  1.00  0.00     0.001 A 
ATOM     74  C   UNL A   1      52.029  29.023  27.766  1.00  0.00     0.000 A 
ENDBRANCH  55  69
BRANCH  56  75
ATOM     75  C   UNL A   1      39.283  29.316  28.971  1.00  0.00    -0.014 A 
ATOM     76  C   UNL A   1      38.441  29.753  27.937  1.00  0.00     0.009 A 
ATOM     77  C   UNL A   1      38.706  28.917  30.189  1.00  0.00     0.009 A 
ATOM     78  C   UNL A   1      37.059  29.817  28.126  1.00  0.00     0.001 A 
ATOM     79  C   UNL A   1      37.321  28.951  30.364  1.00  0.00     0.001 A 
ATOM     80  C   UNL A   1      36.499  29.411  29.337  1.00  0.00     0.000 A 
ENDBRANCH  56  75
BRANCH  68  81
ATOM     81  C   UNL A   1      44.380  33.647  30.965  1.00  0.00    -0.014 A 
ATOM     82  C   UNL A   1      44.248  34.849  30.255  1.00  0.00     0.009 A 
ATOM     83  C   UNL A   1      44.425  33.687  32.369  1.00  0.00     0.009 A 
ATOM     84  C   UNL A   1      44.183  36.065  30.938  1.00  0.00     0.001 A 
ATOM     85  C   UNL A   1      44.327  34.900  33.049  1.00  0.00     0.001 A 
ATOM     86  C   UNL A   1      44.214  36.090  32.333  1.00  0.00     0.000 A 
ENDBRANCH  68  81
ENDBRANCH  42  43
ENDBRANCH  35  37
ENDBRANCH  34  35
ENDBRANCH  33  34
ENDBRANCH  32  33
ENDBRANCH  31  32
ENDBRANCH  30  31
ENDBRANCH  29  30
ENDBRANCH   1  29
TORSDOF 24
ENDMDL
MODEL 2
REMARK VINA RESULT:      -8.7      3.892      7.317
REMARK SMILES CCC[C@]1(C(=O)OCCOCCOCCOCCOC(=O)c2ccc(-c3c4nc(c(-c5ccccc5)c5ccc([nH]5)c(-c5ccccc5)c5nc(c(-c6ccccc6)c6ccc3[nH]6)C=C5)C=C4)cc2)CCC[N@@H+](C[C@@H]2C[N@@H+](C)CCO2)C1
REMARK SMILES IDX 13 1 12 2 11 3 10 4 9 5 8 6 7 7 5 8 6 9 4 10 70 11 82 12
REMARK SMILES IDX 71 13 73 14 72 15 3 17 2 18 1 19 74 20 75 21 76 22 81 23
REMARK SMILES IDX 77 24 80 25 78 26 79 27 14 29 15 30 16 31 17 32 18 33 19 34
REMARK SMILES IDX 20 35 21 36 22 37 23 38 69 39 24 40 68 41 25 42 26 43 27 44
REMARK SMILES IDX 62 45 28 46 67 47 61 48 63 49 29 50 66 51 60 52 59 53 30 55
REMARK SMILES IDX 52 56 37 57 51 58 38 59 41 60 50 61 64 62 39 63 40 64 49 66
REMARK SMILES IDX 65 67 42 68 31 69 32 70 36 71 33 72 35 73 34 74 53 75 54 76
REMARK SMILES IDX 58 77 55 78 57 79 56 80 43 81 44 82 48 83 45 84 47 85 46 86
REMARK H PARENT 73 16 77 28 63 54 41 65
REMARK Flexibility Score: inf
ROOT
ATOM      1  O   UNL A   1      42.605  19.953  26.411  1.00  0.00    -0.377 OA
ENDROOT
BRANCH   1   2
ATOM      2  C   UNL A   1      41.196  19.949  26.289  1.00  0.00     0.188 C 
BRANCH   2   3
ATOM      3  C   UNL A   1      40.469  21.220  26.758  1.00  0.00     0.188 C 
BRANCH   3   4
ATOM      4  O   UNL A   1      39.371  21.739  26.021  1.00  0.00    -0.376 OA
BRANCH   4   5
ATOM      5  C   UNL A   1      38.268  20.904  25.711  1.00  0.00     0.202 C 
BRANCH   5   6
ATOM      6  C   UNL A   1      37.450  21.130  24.429  1.00  0.00     0.261 C 
BRANCH   6   7
ATOM      7  O   UNL A   1      36.049  21.445  24.587  1.00  0.00    -0.463 OA
BRANCH   7   8
ATOM      8  C   UNL A   1      35.588  22.472  23.831  1.00  0.00     0.317 C 
ATOM      9  O   UNL A   1      36.237  22.958  22.907  1.00  0.00    -0.251 OA
BRANCH   8  10
ATOM     10  C   UNL A   1      34.208  23.061  24.265  1.00  0.00     0.117 C 
ATOM     11  C   UNL A   1      34.065  23.524  25.729  1.00  0.00     0.030 C 
ATOM     12  C   UNL A   1      34.131  24.295  23.328  1.00  0.00     0.281 C 
ATOM     13  C   UNL A   1      32.920  24.498  25.977  1.00  0.00     0.063 C 
ATOM     14  N   UNL A   1      33.203  25.389  23.631  1.00  0.00    -0.332 N 
ATOM     15  C   UNL A   1      33.006  25.674  25.040  1.00  0.00     0.262 C 
ATOM     16  H   UNL A   1      32.303  25.049  23.294  1.00  0.00     0.348 HD
BRANCH  10  17
ATOM     17  C   UNL A   1      33.234  21.870  23.962  1.00  0.00     0.024 C 
BRANCH  17  18
ATOM     18  C   UNL A   1      32.713  20.938  25.053  1.00  0.00    -0.002 C 
ATOM     19  C   UNL A   1      32.529  19.505  24.596  1.00  0.00     0.004 C 
ENDBRANCH  17  18
ENDBRANCH  10  17
BRANCH  14  20
ATOM     20  C   UNL A   1      33.595  26.641  22.916  1.00  0.00     0.300 C 
BRANCH  20  21
ATOM     21  C   UNL A   1      32.602  27.800  22.478  1.00  0.00     0.228 C 
ATOM     22  C   UNL A   1      32.476  29.052  23.363  1.00  0.00     0.300 C 
ATOM     23  O   UNL A   1      31.326  27.352  21.979  1.00  0.00    -0.361 OA
ATOM     24  N   UNL A   1      31.573  28.841  24.496  1.00  0.00    -0.333 N 
ATOM     25  C   UNL A   1      30.194  27.456  22.849  1.00  0.00     0.222 C 
ATOM     26  C   UNL A   1      31.515  30.013  25.365  1.00  0.00     0.332 C 
ATOM     27  C   UNL A   1      30.236  28.499  23.992  1.00  0.00     0.290 C 
ATOM     28  H   UNL A   1      31.932  28.070  25.060  1.00  0.00     0.348 HD
ENDBRANCH  20  21
ENDBRANCH  14  20
ENDBRANCH   8  10
ENDBRANCH   7   8
ENDBRANCH   6   7
ENDBRANCH   5   6
ENDBRANCH   4   5
ENDBRANCH   3   4
ENDBRANCH   2   3
ENDBRANCH   1   2
BRANCH   1  29
ATOM     29  C   UNL A   1      43.273  20.988  25.710  1.00  0.00     0.188 C 
BRANCH  29  30
ATOM     30  C   UNL A   1      44.667  20.639  25.156  1.00  0.00     0.188 C 
BRANCH  30  31
ATOM     31  O   UNL A   1      45.638  21.656  25.375  1.00  0.00    -0.376 OA
BRANCH  31  32
ATOM     32  C   UNL A   1      45.477  22.569  26.449  1.00  0.00     0.202 C 
BRANCH  32  33
ATOM     33  C   UNL A   1      45.010  24.001  26.141  1.00  0.00     0.261 C 
BRANCH  33  34
ATOM     34  O   UNL A   1      43.776  24.424  26.734  1.00  0.00    -0.460 OA
BRANCH  34  35
ATOM     35  C   UNL A   1      43.013  25.308  26.052  1.00  0.00     0.338 C 
ATOM     36  O   UNL A   1      42.758  25.311  24.871  1.00  0.00    -0.246 OA
BRANCH  35  37
ATOM     37  C   UNL A   1      42.375  26.181  27.061  1.00  0.00     0.060 A 
ATOM     38  C   UNL A   1      42.766  27.524  27.154  1.00  0.00     0.016 A 
ATOM     39  C   UNL A   1      41.387  25.667  27.902  1.00  0.00     0.016 A 
ATOM     40  C   UNL A   1      42.196  28.352  28.122  1.00  0.00     0.010 A 
ATOM     41  C   UNL A   1      40.839  26.484  28.887  1.00  0.00     0.010 A 
ATOM     42  C   UNL A   1      41.271  27.815  29.026  1.00  0.00    -0.014 A 
BRANCH  42  43
ATOM     43  C   UNL A   1      40.949  28.531  30.280  1.00  0.00     0.031 A 
ATOM     44  C   UNL A   1      39.825  29.529  30.233  1.00  0.00     0.074 A 
ATOM     45  C   UNL A   1      41.657  28.347  31.406  1.00  0.00     0.049 A 
ATOM     46  N   UNL A   1      39.466  30.419  31.119  1.00  0.00    -0.248 NA
ATOM     47  C   UNL A   1      39.006  29.529  29.007  1.00  0.00     0.031 C 
ATOM     48  C   UNL A   1      42.720  27.363  31.593  1.00  0.00     0.029 A 
ATOM     49  N   UNL A   1      41.594  29.013  32.604  1.00  0.00    -0.354 N 
ATOM     50  C   UNL A   1      38.399  31.102  30.547  1.00  0.00     0.074 A 
ATOM     51  C   UNL A   1      38.181  30.538  29.235  1.00  0.00     0.031 C 
ATOM     52  C   UNL A   1      43.231  27.508  32.829  1.00  0.00     0.029 A 
ATOM     53  C   UNL A   1      42.564  28.626  33.495  1.00  0.00     0.049 A 
ATOM     54  H   UNL A   1      40.918  29.701  32.805  1.00  0.00     0.167 HD
ATOM     55  C   UNL A   1      37.671  32.116  31.068  1.00  0.00     0.031 A 
ATOM     56  C   UNL A   1      42.897  29.148  34.691  1.00  0.00     0.031 A 
ATOM     57  C   UNL A   1      37.909  32.684  32.365  1.00  0.00     0.049 A 
ATOM     58  C   UNL A   1      42.133  30.339  35.214  1.00  0.00     0.074 A 
ATOM     59  C   UNL A   1      37.229  33.712  32.993  1.00  0.00     0.029 A 
ATOM     60  N   UNL A   1      38.912  32.274  33.230  1.00  0.00    -0.354 N 
ATOM     61  N   UNL A   1      41.125  30.981  34.672  1.00  0.00    -0.248 NA
ATOM     62  C   UNL A   1      42.553  30.877  36.518  1.00  0.00     0.031 C 
ATOM     63  C   UNL A   1      37.862  33.966  34.213  1.00  0.00     0.029 A 
ATOM     64  C   UNL A   1      38.884  33.045  34.377  1.00  0.00     0.049 A 
ATOM     65  H   UNL A   1      39.548  31.545  33.053  1.00  0.00     0.167 HD
ATOM     66  C   UNL A   1      40.763  31.964  35.586  1.00  0.00     0.074 A 
ATOM     67  C   UNL A   1      41.659  31.836  36.715  1.00  0.00     0.031 C 
ATOM     68  C   UNL A   1      39.772  32.885  35.501  1.00  0.00     0.031 A 
BRANCH  55  69
ATOM     69  C   UNL A   1      36.589  32.704  30.208  1.00  0.00    -0.014 A 
ATOM     70  C   UNL A   1      36.821  33.831  29.403  1.00  0.00     0.009 A 
ATOM     71  C   UNL A   1      35.318  32.108  30.191  1.00  0.00     0.009 A 
ATOM     72  C   UNL A   1      35.792  34.369  28.628  1.00  0.00     0.001 A 
ATOM     73  C   UNL A   1      34.301  32.628  29.390  1.00  0.00     0.001 A 
ATOM     74  C   UNL A   1      34.535  33.765  28.618  1.00  0.00     0.000 A 
ENDBRANCH  55  69
BRANCH  56  75
ATOM     75  C   UNL A   1      44.027  28.574  35.469  1.00  0.00    -0.014 A 
ATOM     76  C   UNL A   1      43.814  27.516  36.366  1.00  0.00     0.009 A 
ATOM     77  C   UNL A   1      45.324  29.100  35.340  1.00  0.00     0.009 A 
ATOM     78  C   UNL A   1      44.866  27.016  37.136  1.00  0.00     0.001 A 
ATOM     79  C   UNL A   1      46.381  28.575  36.088  1.00  0.00     0.001 A 
ATOM     80  C   UNL A   1      46.150  27.541  36.993  1.00  0.00     0.000 A 
ENDBRANCH  56  75
BRANCH  68  81
ATOM     81  C   UNL A   1      39.541  33.780  36.688  1.00  0.00    -0.014 A 
ATOM     82  C   UNL A   1      39.919  35.130  36.680  1.00  0.00     0.009 A 
ATOM     83  C   UNL A   1      38.853  33.272  37.803  1.00  0.00     0.009 A 
ATOM     84  C   UNL A   1      39.630  35.947  37.775  1.00  0.00     0.001 A 
ATOM     85  C   UNL A   1      38.538  34.098  38.881  1.00  0.00     0.001 A 
ATOM     86  C   UNL A   1      38.933  35.434  38.870  1.00  0.00     0.000 A 
ENDBRANCH  68  81
ENDBRANCH  42  43
ENDBRANCH  35  37
ENDBRANCH  34  35
ENDBRANCH  33  34
ENDBRANCH  32  33
ENDBRANCH  31  32
ENDBRANCH  30  31
ENDBRANCH  29  30
ENDBRANCH   1  29
TORSDOF 24
ENDMDL
MODEL 3
REMARK VINA RESULT:      -8.5      3.773      5.069
REMARK SMILES CCC[C@]1(C(=O)OCCOCCOCCOCCOC(=O)c2ccc(-c3c4nc(c(-c5ccccc5)c5ccc([nH]5)c(-c5ccccc5)c5nc(c(-c6ccccc6)c6ccc3[nH]6)C=C5)C=C4)cc2)CCC[N@@H+](C[C@@H]2C[N@@H+](C)CCO2)C1
REMARK SMILES IDX 13 1 12 2 11 3 10 4 9 5 8 6 7 7 5 8 6 9 4 10 70 11 82 12
REMARK SMILES IDX 71 13 73 14 72 15 3 17 2 18 1 19 74 20 75 21 76 22 81 23
REMARK SMILES IDX 77 24 80 25 78 26 79 27 14 29 15 30 16 31 17 32 18 33 19 34
REMARK SMILES IDX 20 35 21 36 22 37 23 38 69 39 24 40 68 41 25 42 26 43 27 44
REMARK SMILES IDX 62 45 28 46 67 47 61 48 63 49 29 50 66 51 60 52 59 53 30 55
REMARK SMILES IDX 52 56 37 57 51 58 38 59 41 60 50 61 64 62 39 63 40 64 49 66
REMARK SMILES IDX 65 67 42 68 31 69 32 70 36 71 33 72 35 73 34 74 53 75 54 76
REMARK SMILES IDX 58 77 55 78 57 79 56 80 43 81 44 82 48 83 45 84 47 85 46 86
REMARK H PARENT 73 16 77 28 63 54 41 65
REMARK Flexibility Score: inf
ROOT
ATOM      1  O   UNL A   1      39.066  21.337  26.274  1.00  0.00    -0.377 OA
ENDROOT
BRANCH   1   2
ATOM      2  C   UNL A   1      38.560  22.639  26.057  1.00  0.00     0.188 C 
BRANCH   2   3
ATOM      3  C   UNL A   1      37.029  22.786  26.078  1.00  0.00     0.188 C 
BRANCH   3   4
ATOM      4  O   UNL A   1      36.198  21.799  25.484  1.00  0.00    -0.376 OA
BRANCH   4   5
ATOM      5  C   UNL A   1      35.637  22.023  24.202  1.00  0.00     0.202 C 
BRANCH   5   6
ATOM      6  C   UNL A   1      35.732  23.405  23.535  1.00  0.00     0.261 C 
BRANCH   6   7
ATOM      7  O   UNL A   1      34.496  24.114  23.307  1.00  0.00    -0.463 OA
BRANCH   7   8
ATOM      8  C   UNL A   1      33.411  23.342  23.054  1.00  0.00     0.317 C 
ATOM      9  O   UNL A   1      33.249  22.756  21.985  1.00  0.00    -0.251 OA
BRANCH   8  10
ATOM     10  C   UNL A   1      32.328  23.311  24.180  1.00  0.00     0.117 C 
ATOM     11  C   UNL A   1      32.766  23.745  25.594  1.00  0.00     0.030 C 
ATOM     12  C   UNL A   1      31.318  24.344  23.616  1.00  0.00     0.281 C 
ATOM     13  C   UNL A   1      31.621  24.152  26.514  1.00  0.00     0.063 C 
ATOM     14  N   UNL A   1      30.323  24.955  24.503  1.00  0.00    -0.332 N 
ATOM     15  C   UNL A   1      30.760  25.202  25.864  1.00  0.00     0.262 C 
ATOM     16  H   UNL A   1      29.592  24.248  24.576  1.00  0.00     0.348 HD
BRANCH  10  17
ATOM     17  C   UNL A   1      31.891  21.805  24.172  1.00  0.00     0.024 C 
BRANCH  17  18
ATOM     18  C   UNL A   1      32.342  20.814  25.243  1.00  0.00    -0.002 C 
ATOM     19  C   UNL A   1      32.822  19.489  24.685  1.00  0.00     0.004 C 
ENDBRANCH  17  18
ENDBRANCH  10  17
BRANCH  14  20
ATOM     20  C   UNL A   1      29.778  26.215  23.914  1.00  0.00     0.300 C 
BRANCH  20  21
ATOM     21  C   UNL A   1      30.279  27.683  24.254  1.00  0.00     0.228 C 
ATOM     22  C   UNL A   1      29.547  28.887  23.635  1.00  0.00     0.300 C 
ATOM     23  O   UNL A   1      31.710  27.853  24.250  1.00  0.00    -0.361 OA
ATOM     24  N   UNL A   1      29.988  29.160  22.266  1.00  0.00    -0.333 N 
ATOM     25  C   UNL A   1      32.305  28.499  23.120  1.00  0.00     0.222 C 
ATOM     26  C   UNL A   1      29.238  30.260  21.667  1.00  0.00     0.332 C 
ATOM     27  C   UNL A   1      31.428  29.451  22.271  1.00  0.00     0.290 C 
ATOM     28  H   UNL A   1      29.809  28.333  21.695  1.00  0.00     0.348 HD
ENDBRANCH  20  21
ENDBRANCH  14  20
ENDBRANCH   8  10
ENDBRANCH   7   8
ENDBRANCH   6   7
ENDBRANCH   5   6
ENDBRANCH   4   5
ENDBRANCH   3   4
ENDBRANCH   2   3
ENDBRANCH   1   2
BRANCH   1  29
ATOM     29  C   UNL A   1      40.478  21.218  26.233  1.00  0.00     0.188 C 
BRANCH  29  30
ATOM     30  C   UNL A   1      41.173  20.934  27.577  1.00  0.00     0.188 C 
BRANCH  30  31
ATOM     31  O   UNL A   1      42.587  21.085  27.530  1.00  0.00    -0.376 OA
BRANCH  31  32
ATOM     32  C   UNL A   1      43.227  22.025  28.377  1.00  0.00     0.202 C 
BRANCH  32  33
ATOM     33  C   UNL A   1      44.059  23.150  27.741  1.00  0.00     0.261 C 
BRANCH  33  34
ATOM     34  O   UNL A   1      44.234  23.104  26.319  1.00  0.00    -0.460 OA
BRANCH  34  35
ATOM     35  C   UNL A   1      43.268  23.643  25.541  1.00  0.00     0.338 C 
ATOM     36  O   UNL A   1      42.827  23.213  24.502  1.00  0.00    -0.246 OA
BRANCH  35  37
ATOM     37  C   UNL A   1      42.701  24.780  26.299  1.00  0.00     0.060 A 
ATOM     38  C   UNL A   1      43.370  26.011  26.296  1.00  0.00     0.016 A 
ATOM     39  C   UNL A   1      41.504  24.621  26.999  1.00  0.00     0.016 A 
ATOM     40  C   UNL A   1      42.865  27.083  27.031  1.00  0.00     0.010 A 
ATOM     41  C   UNL A   1      41.014  25.681  27.758  1.00  0.00     0.010 A 
ATOM     42  C   UNL A   1      41.714  26.900  27.808  1.00  0.00    -0.014 A 
BRANCH  42  43
ATOM     43  C   UNL A   1      41.376  27.860  28.882  1.00  0.00     0.031 A 
ATOM     44  C   UNL A   1      42.161  27.764  30.162  1.00  0.00     0.074 A 
ATOM     45  C   UNL A   1      40.378  28.748  28.755  1.00  0.00     0.049 A 
ATOM     46  N   UNL A   1      41.947  28.342  31.313  1.00  0.00    -0.248 NA
ATOM     47  C   UNL A   1      43.341  26.881  30.136  1.00  0.00     0.031 C 
ATOM     48  C   UNL A   1      39.593  28.980  27.544  1.00  0.00     0.029 A 
ATOM     49  N   UNL A   1      39.839  29.606  29.680  1.00  0.00    -0.354 N 
ATOM     50  C   UNL A   1      42.947  27.871  32.156  1.00  0.00     0.074 A 
ATOM     51  C   UNL A   1      43.755  26.949  31.391  1.00  0.00     0.031 C 
ATOM     52  C   UNL A   1      38.652  29.903  27.810  1.00  0.00     0.029 A 
ATOM     53  C   UNL A   1      38.739  30.285  29.219  1.00  0.00     0.049 A 
ATOM     54  H   UNL A   1      40.207  29.723  30.586  1.00  0.00     0.167 HD
ATOM     55  C   UNL A   1      43.167  28.175  33.455  1.00  0.00     0.031 A 
ATOM     56  C   UNL A   1      37.879  31.087  29.877  1.00  0.00     0.031 A 
ATOM     57  C   UNL A   1      42.345  29.077  34.213  1.00  0.00     0.049 A 
ATOM     58  C   UNL A   1      38.087  31.340  31.349  1.00  0.00     0.074 A 
ATOM     59  C   UNL A   1      42.480  29.459  35.536  1.00  0.00     0.029 A 
ATOM     60  N   UNL A   1      41.231  29.732  33.713  1.00  0.00    -0.354 N 
ATOM     61  N   UNL A   1      39.034  30.894  32.141  1.00  0.00    -0.248 NA
ATOM     62  C   UNL A   1      37.107  32.210  32.018  1.00  0.00     0.031 C 
ATOM     63  C   UNL A   1      41.408  30.297  35.853  1.00  0.00     0.029 A 
ATOM     64  C   UNL A   1      40.653  30.498  34.708  1.00  0.00     0.049 A 
ATOM     65  H   UNL A   1      40.900  29.661  32.789  1.00  0.00     0.167 HD
ATOM     66  C   UNL A   1      38.790  31.465  33.386  1.00  0.00     0.074 A 
ATOM     67  C   UNL A   1      37.606  32.287  33.244  1.00  0.00     0.031 C 
ATOM     68  C   UNL A   1      39.487  31.328  34.539  1.00  0.00     0.031 A 
BRANCH  55  69
ATOM     69  C   UNL A   1      44.308  27.483  34.144  1.00  0.00    -0.014 A 
ATOM     70  C   UNL A   1      45.620  27.978  34.072  1.00  0.00     0.009 A 
ATOM     71  C   UNL A   1      44.062  26.323  34.895  1.00  0.00     0.009 A 
ATOM     72  C   UNL A   1      46.665  27.305  34.707  1.00  0.00     0.001 A 
ATOM     73  C   UNL A   1      45.103  25.670  35.556  1.00  0.00     0.001 A 
ATOM     74  C   UNL A   1      46.405  26.156  35.453  1.00  0.00     0.000 A 
ENDBRANCH  55  69
BRANCH  56  75
ATOM     75  C   UNL A   1      36.721  31.688  29.163  1.00  0.00    -0.014 A 
ATOM     76  C   UNL A   1      36.783  33.005  28.680  1.00  0.00     0.009 A 
ATOM     77  C   UNL A   1      35.534  30.957  28.983  1.00  0.00     0.009 A 
ATOM     78  C   UNL A   1      35.674  33.585  28.059  1.00  0.00     0.001 A 
ATOM     79  C   UNL A   1      34.439  31.530  28.332  1.00  0.00     0.001 A 
ATOM     80  C   UNL A   1      34.506  32.847  27.880  1.00  0.00     0.000 A 
ENDBRANCH  56  75
BRANCH  68  81
ATOM     81  C   UNL A   1      39.048  32.140  35.727  1.00  0.00    -0.014 A 
ATOM     82  C   UNL A   1      39.454  33.470  35.906  1.00  0.00     0.009 A 
ATOM     83  C   UNL A   1      38.138  31.578  36.639  1.00  0.00     0.009 A 
ATOM     84  C   UNL A   1      38.974  34.213  36.986  1.00  0.00     0.001 A 
ATOM     85  C   UNL A   1      37.636  32.332  37.699  1.00  0.00     0.001 A 
ATOM     86  C   UNL A   1      38.060  33.648  37.876  1.00  0.00     0.000 A 
ENDBRANCH  68  81
ENDBRANCH  42  43
ENDBRANCH  35  37
ENDBRANCH  34  35
ENDBRANCH  33  34
ENDBRANCH  32  33
ENDBRANCH  31  32
ENDBRANCH  30  31
ENDBRANCH  29  30
ENDBRANCH   1  29
TORSDOF 24
ENDMDL
