MODEL 1
REMARK VINA RESULT:      -7.9      0.000      0.000
REMARK SMILES O=C(CCCC[C@H](O)c1ccc(Cl)s1)OCCOCCOCCOCCOC(=O)c1ccc(-c2c3nc(c(-c4ccccc4)c4ccc([nH]4)c(-c4ccccc4)c4nc(c(-c5ccccc5)c5ccc2[nH]5)C=C4)C=C3)cc1
REMARK SMILES IDX 19 1 18 2 17 3 16 4 15 5 2 6 1 7 3 8 4 9 5 10 6 11 7 12 9 13
REMARK SMILES IDX 10 14 14 15 11 16 12 17 13 18 8 19 20 21 21 22 22 23 23 24
REMARK SMILES IDX 24 25 25 26 26 27 27 28 28 29 29 30 30 31 31 32 77 33 32 34
REMARK SMILES IDX 76 35 33 36 34 37 35 38 70 39 36 40 75 41 69 42 71 43 37 44
REMARK SMILES IDX 74 45 68 46 67 47 38 49 60 50 45 51 59 52 46 53 49 54 58 55
REMARK SMILES IDX 72 56 47 57 48 58 57 60 73 61 50 62 39 63 40 64 44 65 41 66
REMARK SMILES IDX 43 67 42 68 61 69 62 70 66 71 63 72 65 73 64 74 51 75 52 76
REMARK SMILES IDX 56 77 53 78 55 79 54 80
REMARK H PARENT 8 20 71 48 49 59
REMARK Flexibility Score: inf
ROOT
ATOM      1  C   UNL A   1      35.851  30.555  28.242  1.00  0.00     0.188 C 
ENDROOT
BRANCH   1   2
ATOM      2  O   UNL A   1      35.004  30.398  27.105  1.00  0.00    -0.376 OA
BRANCH   2   3
ATOM      3  C   UNL A   1      33.606  30.538  27.293  1.00  0.00     0.202 C 
BRANCH   3   4
ATOM      4  C   UNL A   1      32.851  30.359  25.994  1.00  0.00     0.261 C 
BRANCH   4   5
ATOM      5  O   UNL A   1      32.765  28.991  25.577  1.00  0.00    -0.463 OA
BRANCH   5   6
ATOM      6  C   UNL A   1      31.664  28.234  25.407  1.00  0.00     0.305 C 
ATOM      7  O   UNL A   1      30.799  28.646  24.631  1.00  0.00    -0.252 OA
BRANCH   6   8
ATOM      8  C   UNL A   1      31.412  26.950  26.181  1.00  0.00     0.123 C 
BRANCH   8   9
ATOM      9  C   UNL A   1      31.455  25.606  25.460  1.00  0.00     0.012 C 
BRANCH   9  10
ATOM     10  C   UNL A   1      30.301  25.213  24.521  1.00  0.00     0.004 C 
BRANCH  10  11
ATOM     11  C   UNL A   1      30.530  24.113  23.468  1.00  0.00     0.037 C 
BRANCH  11  12
ATOM     12  C   UNL A   1      31.997  23.705  23.252  1.00  0.00     0.154 C 
BRANCH  12  13
ATOM     13  C   UNL A   1      32.193  22.232  23.513  1.00  0.00     0.035 A 
ATOM     14  C   UNL A   1      32.503  21.609  24.710  1.00  0.00     0.020 A 
ATOM     15  S   UNL A   1      32.022  21.080  22.249  1.00  0.00    -0.126 S 
ATOM     16  C   UNL A   1      32.607  20.191  24.585  1.00  0.00     0.033 A 
ATOM     17  C   UNL A   1      32.348  19.794  23.301  1.00  0.00     0.093 A 
ATOM     18  Cl  UNL A   1      32.329  18.179  22.717  1.00  0.00    -0.072 Cl
ENDBRANCH  12  13
BRANCH  12  19
ATOM     19  O   UNL A   1      32.412  23.904  21.906  1.00  0.00    -0.388 OA
ATOM     20  H   UNL A   1      32.900  24.739  21.839  1.00  0.00     0.211 HD
ENDBRANCH  12  19
ENDBRANCH  11  12
ENDBRANCH  10  11
ENDBRANCH   9  10
ENDBRANCH   8   9
ENDBRANCH   6   8
ENDBRANCH   5   6
ENDBRANCH   4   5
ENDBRANCH   3   4
ENDBRANCH   2   3
ENDBRANCH   1   2
BRANCH   1  21
ATOM     21  C   UNL A   1      35.655  31.829  29.059  1.00  0.00     0.188 C 
BRANCH  21  22
ATOM     22  O   UNL A   1      34.674  31.856  30.089  1.00  0.00    -0.377 OA
BRANCH  22  23
ATOM     23  C   UNL A   1      34.913  32.550  31.298  1.00  0.00     0.188 C 
BRANCH  23  24
ATOM     24  C   UNL A   1      34.873  34.078  31.210  1.00  0.00     0.188 C 
BRANCH  24  25
ATOM     25  O   UNL A   1      35.443  34.821  32.268  1.00  0.00    -0.376 OA
BRANCH  25  26
ATOM     26  C   UNL A   1      35.124  34.428  33.603  1.00  0.00     0.202 C 
BRANCH  26  27
ATOM     27  C   UNL A   1      36.191  33.803  34.532  1.00  0.00     0.261 C 
BRANCH  27  28
ATOM     28  O   UNL A   1      36.416  32.388  34.351  1.00  0.00    -0.460 OA
BRANCH  28  29
ATOM     29  C   UNL A   1      37.647  31.928  34.692  1.00  0.00     0.338 C 
ATOM     30  O   UNL A   1      38.130  31.894  35.807  1.00  0.00    -0.246 OA
BRANCH  29  31
ATOM     31  C   UNL A   1      38.278  31.223  33.549  1.00  0.00     0.060 A 
ATOM     32  C   UNL A   1      39.152  30.159  33.836  1.00  0.00     0.016 A 
ATOM     33  C   UNL A   1      38.104  31.648  32.233  1.00  0.00     0.016 A 
ATOM     34  C   UNL A   1      39.883  29.546  32.819  1.00  0.00     0.010 A 
ATOM     35  C   UNL A   1      38.876  31.065  31.217  1.00  0.00     0.010 A 
ATOM     36  C   UNL A   1      39.805  30.048  31.515  1.00  0.00    -0.014 A 
BRANCH  36  37
ATOM     37  C   UNL A   1      40.914  29.739  30.574  1.00  0.00     0.031 A 
ATOM     38  C   UNL A   1      40.771  28.504  29.719  1.00  0.00     0.074 A 
ATOM     39  C   UNL A   1      41.983  30.540  30.423  1.00  0.00     0.049 A 
ATOM     40  N   UNL A   1      41.581  28.015  28.815  1.00  0.00    -0.248 NA
ATOM     41  C   UNL A   1      39.542  27.716  29.914  1.00  0.00     0.031 C 
ATOM     42  C   UNL A   1      42.214  31.796  31.131  1.00  0.00     0.029 A 
ATOM     43  N   UNL A   1      43.078  30.405  29.605  1.00  0.00    -0.354 N 
ATOM     44  C   UNL A   1      40.966  26.859  28.348  1.00  0.00     0.074 A 
ATOM     45  C   UNL A   1      39.732  26.704  29.085  1.00  0.00     0.031 C 
ATOM     46  C   UNL A   1      43.384  32.317  30.717  1.00  0.00     0.029 A 
ATOM     47  C   UNL A   1      43.996  31.419  29.739  1.00  0.00     0.049 A 
ATOM     48  H   UNL A   1      43.197  29.652  28.982  1.00  0.00     0.167 HD
ATOM     49  C   UNL A   1      41.384  26.000  27.389  1.00  0.00     0.031 A 
ATOM     50  C   UNL A   1      45.195  31.591  29.146  1.00  0.00     0.031 A 
ATOM     51  C   UNL A   1      42.617  26.139  26.665  1.00  0.00     0.049 A 
ATOM     52  C   UNL A   1      45.682  30.572  28.145  1.00  0.00     0.074 A 
ATOM     53  C   UNL A   1      43.124  25.329  25.664  1.00  0.00     0.029 A 
ATOM     54  N   UNL A   1      43.543  27.148  26.874  1.00  0.00    -0.354 N 
ATOM     55  N   UNL A   1      45.081  29.498  27.692  1.00  0.00    -0.248 NA
ATOM     56  C   UNL A   1      47.013  30.801  27.563  1.00  0.00     0.031 C 
ATOM     57  C   UNL A   1      44.391  25.809  25.317  1.00  0.00     0.029 A 
ATOM     58  C   UNL A   1      44.636  26.963  26.044  1.00  0.00     0.049 A 
ATOM     59  H   UNL A   1      43.439  27.887  27.517  1.00  0.00     0.167 HD
ATOM     60  C   UNL A   1      45.940  28.951  26.744  1.00  0.00     0.074 A 
ATOM     61  C   UNL A   1      47.098  29.817  26.680  1.00  0.00     0.031 C 
ATOM     62  C   UNL A   1      45.782  27.834  25.989  1.00  0.00     0.031 A 
BRANCH  49  63
ATOM     63  C   UNL A   1      40.518  24.800  27.114  1.00  0.00    -0.014 A 
ATOM     64  C   UNL A   1      39.318  24.905  26.392  1.00  0.00     0.009 A 
ATOM     65  C   UNL A   1      40.917  23.539  27.584  1.00  0.00     0.009 A 
ATOM     66  C   UNL A   1      38.517  23.779  26.184  1.00  0.00     0.001 A 
ATOM     67  C   UNL A   1      40.133  22.411  27.344  1.00  0.00     0.001 A 
ATOM     68  C   UNL A   1      38.928  22.533  26.655  1.00  0.00     0.000 A 
ENDBRANCH  49  63
BRANCH  50  69
ATOM     69  C   UNL A   1      46.038  32.773  29.479  1.00  0.00    -0.014 A 
ATOM     70  C   UNL A   1      46.959  32.722  30.538  1.00  0.00     0.009 A 
ATOM     71  C   UNL A   1      45.893  33.975  28.769  1.00  0.00     0.009 A 
ATOM     72  C   UNL A   1      47.694  33.855  30.896  1.00  0.00     0.001 A 
ATOM     73  C   UNL A   1      46.652  35.097  29.109  1.00  0.00     0.001 A 
ATOM     74  C   UNL A   1      47.543  35.040  30.179  1.00  0.00     0.000 A 
ENDBRANCH  50  69
BRANCH  62  75
ATOM     75  C   UNL A   1      46.857  27.518  24.983  1.00  0.00    -0.014 A 
ATOM     76  C   UNL A   1      46.865  28.092  23.702  1.00  0.00     0.009 A 
ATOM     77  C   UNL A   1      47.902  26.651  25.342  1.00  0.00     0.009 A 
ATOM     78  C   UNL A   1      47.871  27.767  22.788  1.00  0.00     0.001 A 
ATOM     79  C   UNL A   1      48.926  26.357  24.440  1.00  0.00     0.001 A 
ATOM     80  C   UNL A   1      48.902  26.904  23.159  1.00  0.00     0.000 A 
ENDBRANCH  62  75
ENDBRANCH  36  37
ENDBRANCH  29  31
ENDBRANCH  28  29
ENDBRANCH  27  28
ENDBRANCH  26  27
ENDBRANCH  25  26
ENDBRANCH  24  25
ENDBRANCH  23  24
ENDBRANCH  22  23
ENDBRANCH  21  22
ENDBRANCH   1  21
TORSDOF 26
ENDMDL
MODEL 2
REMARK VINA RESULT:      -7.8      4.901     10.752
REMARK SMILES O=C(CCCC[C@H](O)c1ccc(Cl)s1)OCCOCCOCCOCCOC(=O)c1ccc(-c2c3nc(c(-c4ccccc4)c4ccc([nH]4)c(-c4ccccc4)c4nc(c(-c5ccccc5)c5ccc2[nH]5)C=C4)C=C3)cc1
REMARK SMILES IDX 19 1 18 2 17 3 16 4 15 5 2 6 1 7 3 8 4 9 5 10 6 11 7 12 9 13
REMARK SMILES IDX 10 14 14 15 11 16 12 17 13 18 8 19 20 21 21 22 22 23 23 24
REMARK SMILES IDX 24 25 25 26 26 27 27 28 28 29 29 30 30 31 31 32 77 33 32 34
REMARK SMILES IDX 76 35 33 36 34 37 35 38 70 39 36 40 75 41 69 42 71 43 37 44
REMARK SMILES IDX 74 45 68 46 67 47 38 49 60 50 45 51 59 52 46 53 49 54 58 55
REMARK SMILES IDX 72 56 47 57 48 58 57 60 73 61 50 62 39 63 40 64 44 65 41 66
REMARK SMILES IDX 43 67 42 68 61 69 62 70 66 71 63 72 65 73 64 74 51 75 52 76
REMARK SMILES IDX 56 77 53 78 55 79 54 80
REMARK H PARENT 8 20 71 48 49 59
REMARK Flexibility Score: inf
ROOT
ATOM      1  C   UNL A   1      40.021  20.326  25.680  1.00  0.00     0.188 C 
ENDROOT
BRANCH   1   2
ATOM      2  O   UNL A   1      38.749  19.679  25.658  1.00  0.00    -0.376 OA
BRANCH   2   3
ATOM      3  C   UNL A   1      37.784  20.140  24.727  1.00  0.00     0.202 C 
BRANCH   3   4
ATOM      4  C   UNL A   1      37.154  21.440  25.178  1.00  0.00     0.261 C 
BRANCH   4   5
ATOM      5  O   UNL A   1      35.946  21.753  24.474  1.00  0.00    -0.463 OA
BRANCH   5   6
ATOM      6  C   UNL A   1      35.611  22.903  23.856  1.00  0.00     0.305 C 
ATOM      7  O   UNL A   1      35.984  23.059  22.693  1.00  0.00    -0.252 OA
BRANCH   6   8
ATOM      8  C   UNL A   1      34.868  24.032  24.553  1.00  0.00     0.123 C 
BRANCH   8   9
ATOM      9  C   UNL A   1      33.821  24.838  23.790  1.00  0.00     0.012 C 
BRANCH   9  10
ATOM     10  C   UNL A   1      32.610  24.116  23.176  1.00  0.00     0.004 C 
BRANCH  10  11
ATOM     11  C   UNL A   1      31.242  24.823  23.161  1.00  0.00     0.037 C 
BRANCH  11  12
ATOM     12  C   UNL A   1      30.933  25.685  24.397  1.00  0.00     0.154 C 
BRANCH  12  13
ATOM     13  C   UNL A   1      30.358  27.020  23.996  1.00  0.00     0.035 A 
ATOM     14  C   UNL A   1      30.997  28.248  23.947  1.00  0.00     0.020 A 
ATOM     15  S   UNL A   1      28.718  27.164  23.501  1.00  0.00    -0.126 S 
ATOM     16  C   UNL A   1      30.138  29.302  23.514  1.00  0.00     0.033 A 
ATOM     17  C   UNL A   1      28.887  28.826  23.227  1.00  0.00     0.093 A 
ATOM     18  Cl  UNL A   1      27.558  29.741  22.641  1.00  0.00    -0.072 Cl
ENDBRANCH  12  13
BRANCH  12  19
ATOM     19  O   UNL A   1      29.946  25.088  25.228  1.00  0.00    -0.388 OA
ATOM     20  H   UNL A   1      29.680  25.717  25.917  1.00  0.00     0.211 HD
ENDBRANCH  12  19
ENDBRANCH  11  12
ENDBRANCH  10  11
ENDBRANCH   9  10
ENDBRANCH   8   9
ENDBRANCH   6   8
ENDBRANCH   5   6
ENDBRANCH   4   5
ENDBRANCH   3   4
ENDBRANCH   2   3
ENDBRANCH   1   2
BRANCH   1  21
ATOM     21  C   UNL A   1      41.141  19.585  26.406  1.00  0.00     0.188 C 
BRANCH  21  22
ATOM     22  O   UNL A   1      42.064  18.806  25.657  1.00  0.00    -0.377 OA
BRANCH  22  23
ATOM     23  C   UNL A   1      43.386  18.605  26.119  1.00  0.00     0.188 C 
BRANCH  23  24
ATOM     24  C   UNL A   1      44.498  18.880  25.103  1.00  0.00     0.188 C 
BRANCH  24  25
ATOM     25  O   UNL A   1      44.833  20.226  24.831  1.00  0.00    -0.376 OA
BRANCH  25  26
ATOM     26  C   UNL A   1      43.777  21.187  24.833  1.00  0.00     0.202 C 
BRANCH  26  27
ATOM     27  C   UNL A   1      43.651  22.238  25.961  1.00  0.00     0.261 C 
BRANCH  27  28
ATOM     28  O   UNL A   1      44.847  22.997  26.235  1.00  0.00    -0.460 OA
BRANCH  28  29
ATOM     29  C   UNL A   1      44.888  24.256  25.730  1.00  0.00     0.338 C 
ATOM     30  O   UNL A   1      45.510  24.631  24.754  1.00  0.00    -0.246 OA
BRANCH  29  31
ATOM     31  C   UNL A   1      43.866  25.115  26.378  1.00  0.00     0.060 A 
ATOM     32  C   UNL A   1      44.109  26.500  26.429  1.00  0.00     0.016 A 
ATOM     33  C   UNL A   1      42.744  24.580  27.008  1.00  0.00     0.016 A 
ATOM     34  C   UNL A   1      43.260  27.345  27.142  1.00  0.00     0.010 A 
ATOM     35  C   UNL A   1      41.918  25.423  27.767  1.00  0.00     0.010 A 
ATOM     36  C   UNL A   1      42.204  26.798  27.879  1.00  0.00    -0.014 A 
BRANCH  36  37
ATOM     37  C   UNL A   1      41.633  27.600  28.993  1.00  0.00     0.031 A 
ATOM     38  C   UNL A   1      42.339  27.530  30.326  1.00  0.00     0.074 A 
ATOM     39  C   UNL A   1      40.573  28.411  28.837  1.00  0.00     0.049 A 
ATOM     40  N   UNL A   1      42.058  28.136  31.452  1.00  0.00    -0.248 NA
ATOM     41  C   UNL A   1      43.524  26.658  30.391  1.00  0.00     0.031 C 
ATOM     42  C   UNL A   1      39.842  28.627  27.591  1.00  0.00     0.029 A 
ATOM     43  N   UNL A   1      39.932  29.213  29.749  1.00  0.00    -0.354 N 
ATOM     44  C   UNL A   1      43.021  27.704  32.357  1.00  0.00     0.074 A 
ATOM     45  C   UNL A   1      43.874  26.769  31.661  1.00  0.00     0.031 C 
ATOM     46  C   UNL A   1      38.848  29.506  27.819  1.00  0.00     0.029 A 
ATOM     47  C   UNL A   1      38.856  29.890  29.230  1.00  0.00     0.049 A 
ATOM     48  H   UNL A   1      40.217  29.296  30.688  1.00  0.00     0.167 HD
ATOM     49  C   UNL A   1      43.187  28.054  33.655  1.00  0.00     0.031 A 
ATOM     50  C   UNL A   1      37.973  30.714  29.832  1.00  0.00     0.031 A 
ATOM     51  C   UNL A   1      42.333  28.970  34.358  1.00  0.00     0.049 A 
ATOM     52  C   UNL A   1      38.126  31.020  31.302  1.00  0.00     0.074 A 
ATOM     53  C   UNL A   1      42.425  29.401  35.670  1.00  0.00     0.029 A 
ATOM     54  N   UNL A   1      41.219  29.587  33.809  1.00  0.00    -0.354 N 
ATOM     55  N   UNL A   1      39.055  30.629  32.141  1.00  0.00    -0.248 NA
ATOM     56  C   UNL A   1      37.109  31.897  31.903  1.00  0.00     0.031 C 
ATOM     57  C   UNL A   1      41.326  30.224  35.935  1.00  0.00     0.029 A 
ATOM     58  C   UNL A   1      40.596  30.370  34.767  1.00  0.00     0.049 A 
ATOM     59  H   UNL A   1      40.917  29.484  32.878  1.00  0.00     0.167 HD
ATOM     60  C   UNL A   1      38.759  31.244  33.353  1.00  0.00     0.074 A 
ATOM     61  C   UNL A   1      37.571  32.044  33.136  1.00  0.00     0.031 C 
ATOM     62  C   UNL A   1      39.415  31.162  34.538  1.00  0.00     0.031 A 
BRANCH  49  63
ATOM     63  C   UNL A   1      44.310  27.393  34.408  1.00  0.00    -0.014 A 
ATOM     64  C   UNL A   1      45.563  28.010  34.559  1.00  0.00     0.009 A 
ATOM     65  C   UNL A   1      44.103  26.129  34.982  1.00  0.00     0.009 A 
ATOM     66  C   UNL A   1      46.596  27.354  35.233  1.00  0.00     0.001 A 
ATOM     67  C   UNL A   1      45.127  25.492  35.684  1.00  0.00     0.001 A 
ATOM     68  C   UNL A   1      46.376  26.099  35.800  1.00  0.00     0.000 A 
ENDBRANCH  49  63
BRANCH  50  69
ATOM     69  C   UNL A   1      36.853  31.315  29.056  1.00  0.00    -0.014 A 
ATOM     70  C   UNL A   1      36.911  32.651  28.629  1.00  0.00     0.009 A 
ATOM     71  C   UNL A   1      35.697  30.568  28.778  1.00  0.00     0.009 A 
ATOM     72  C   UNL A   1      35.827  33.234  27.968  1.00  0.00     0.001 A 
ATOM     73  C   UNL A   1      34.628  31.144  28.088  1.00  0.00     0.001 A 
ATOM     74  C   UNL A   1      34.688  32.479  27.693  1.00  0.00     0.000 A 
ENDBRANCH  50  69
BRANCH  62  75
ATOM     75  C   UNL A   1      38.901  32.003  35.676  1.00  0.00    -0.014 A 
ATOM     76  C   UNL A   1      38.230  31.437  36.771  1.00  0.00     0.009 A 
ATOM     77  C   UNL A   1      39.125  33.390  35.663  1.00  0.00     0.009 A 
ATOM     78  C   UNL A   1      37.754  32.248  37.805  1.00  0.00     0.001 A 
ATOM     79  C   UNL A   1      38.682  34.193  36.716  1.00  0.00     0.001 A 
ATOM     80  C   UNL A   1      37.984  33.624  37.778  1.00  0.00     0.000 A 
ENDBRANCH  62  75
ENDBRANCH  36  37
ENDBRANCH  29  31
ENDBRANCH  28  29
ENDBRANCH  27  28
ENDBRANCH  26  27
ENDBRANCH  25  26
ENDBRANCH  24  25
ENDBRANCH  23  24
ENDBRANCH  22  23
ENDBRANCH  21  22
ENDBRANCH   1  21
TORSDOF 26
ENDMDL
MODEL 3
REMARK VINA RESULT:      -7.4      7.195     12.114
REMARK SMILES O=C(CCCC[C@H](O)c1ccc(Cl)s1)OCCOCCOCCOCCOC(=O)c1ccc(-c2c3nc(c(-c4ccccc4)c4ccc([nH]4)c(-c4ccccc4)c4nc(c(-c5ccccc5)c5ccc2[nH]5)C=C4)C=C3)cc1
REMARK SMILES IDX 19 1 18 2 17 3 16 4 15 5 2 6 1 7 3 8 4 9 5 10 6 11 7 12 9 13
REMARK SMILES IDX 10 14 14 15 11 16 12 17 13 18 8 19 20 21 21 22 22 23 23 24
REMARK SMILES IDX 24 25 25 26 26 27 27 28 28 29 29 30 30 31 31 32 77 33 32 34
REMARK SMILES IDX 76 35 33 36 34 37 35 38 70 39 36 40 75 41 69 42 71 43 37 44
REMARK SMILES IDX 74 45 68 46 67 47 38 49 60 50 45 51 59 52 46 53 49 54 58 55
REMARK SMILES IDX 72 56 47 57 48 58 57 60 73 61 50 62 39 63 40 64 44 65 41 66
REMARK SMILES IDX 43 67 42 68 61 69 62 70 66 71 63 72 65 73 64 74 51 75 52 76
REMARK SMILES IDX 56 77 53 78 55 79 54 80
REMARK H PARENT 8 20 71 48 49 59
REMARK Flexibility Score: inf
ROOT
ATOM      1  C   UNL A   1      34.746  34.004  28.331  1.00  0.00     0.188 C 
ENDROOT
BRANCH   1   2
ATOM      2  O   UNL A   1      35.463  33.771  29.543  1.00  0.00    -0.376 OA
BRANCH   2   3
ATOM      3  C   UNL A   1      36.017  32.482  29.750  1.00  0.00     0.202 C 
BRANCH   3   4
ATOM      4  C   UNL A   1      37.176  32.219  28.814  1.00  0.00     0.261 C 
BRANCH   4   5
ATOM      5  O   UNL A   1      36.973  31.074  27.977  1.00  0.00    -0.463 OA
BRANCH   5   6
ATOM      6  C   UNL A   1      36.390  29.900  28.290  1.00  0.00     0.305 C 
ATOM      7  O   UNL A   1      36.970  29.168  29.093  1.00  0.00    -0.252 OA
BRANCH   6   8
ATOM      8  C   UNL A   1      35.104  29.414  27.641  1.00  0.00     0.123 C 
BRANCH   8   9
ATOM      9  C   UNL A   1      34.030  30.418  27.234  1.00  0.00     0.012 C 
BRANCH   9  10
ATOM     10  C   UNL A   1      32.584  29.937  27.025  1.00  0.00     0.004 C 
BRANCH  10  11
ATOM     11  C   UNL A   1      32.203  28.502  27.432  1.00  0.00     0.037 C 
BRANCH  11  12
ATOM     12  C   UNL A   1      31.329  27.741  26.420  1.00  0.00     0.154 C 
BRANCH  12  13
ATOM     13  C   UNL A   1      32.164  27.192  25.290  1.00  0.00     0.035 A 
ATOM     14  C   UNL A   1      33.443  26.663  25.350  1.00  0.00     0.020 A 
ATOM     15  S   UNL A   1      31.558  27.146  23.683  1.00  0.00    -0.126 S 
ATOM     16  C   UNL A   1      33.923  26.232  24.077  1.00  0.00     0.033 A 
ATOM     17  C   UNL A   1      32.978  26.428  23.107  1.00  0.00     0.093 A 
ATOM     18  Cl  UNL A   1      33.123  26.020  21.445  1.00  0.00    -0.072 Cl
ENDBRANCH  12  13
BRANCH  12  19
ATOM     19  O   UNL A   1      30.702  26.607  27.006  1.00  0.00    -0.388 OA
ATOM     20  H   UNL A   1      29.947  26.896  27.541  1.00  0.00     0.211 HD
ENDBRANCH  12  19
ENDBRANCH  11  12
ENDBRANCH  10  11
ENDBRANCH   9  10
ENDBRANCH   8   9
ENDBRANCH   6   8
ENDBRANCH   5   6
ENDBRANCH   4   5
ENDBRANCH   3   4
ENDBRANCH   2   3
ENDBRANCH   1   2
BRANCH   1  21
ATOM     21  C   UNL A   1      33.223  33.956  28.429  1.00  0.00     0.188 C 
BRANCH  21  22
ATOM     22  O   UNL A   1      32.510  35.123  28.816  1.00  0.00    -0.377 OA
BRANCH  22  23
ATOM     23  C   UNL A   1      33.189  36.244  29.349  1.00  0.00     0.188 C 
BRANCH  23  24
ATOM     24  C   UNL A   1      32.940  36.532  30.832  1.00  0.00     0.188 C 
BRANCH  24  25
ATOM     25  O   UNL A   1      33.950  36.180  31.757  1.00  0.00    -0.376 OA
BRANCH  25  26
ATOM     26  C   UNL A   1      33.914  34.865  32.311  1.00  0.00     0.202 C 
BRANCH  26  27
ATOM     27  C   UNL A   1      35.198  34.182  32.839  1.00  0.00     0.261 C 
BRANCH  27  28
ATOM     28  O   UNL A   1      36.169  35.067  33.436  1.00  0.00    -0.460 OA
BRANCH  28  29
ATOM     29  C   UNL A   1      37.445  34.609  33.492  1.00  0.00     0.338 C 
ATOM     30  O   UNL A   1      38.274  34.651  32.603  1.00  0.00    -0.246 OA
BRANCH  29  31
ATOM     31  C   UNL A   1      37.814  34.248  34.883  1.00  0.00     0.060 A 
ATOM     32  C   UNL A   1      38.794  35.027  35.525  1.00  0.00     0.016 A 
ATOM     33  C   UNL A   1      37.292  33.121  35.516  1.00  0.00     0.016 A 
ATOM     34  C   UNL A   1      39.284  34.660  36.777  1.00  0.00     0.010 A 
ATOM     35  C   UNL A   1      37.821  32.725  36.753  1.00  0.00     0.010 A 
ATOM     36  C   UNL A   1      38.854  33.464  37.362  1.00  0.00    -0.014 A 
BRANCH  36  37
ATOM     37  C   UNL A   1      39.711  32.844  38.408  1.00  0.00     0.031 A 
ATOM     38  C   UNL A   1      41.157  32.592  38.057  1.00  0.00     0.074 A 
ATOM     39  C   UNL A   1      39.262  32.566  39.644  1.00  0.00     0.049 A 
ATOM     40  N   UNL A   1      42.115  32.077  38.784  1.00  0.00    -0.248 NA
ATOM     41  C   UNL A   1      41.574  32.977  36.698  1.00  0.00     0.031 C 
ATOM     42  C   UNL A   1      37.912  32.823  40.139  1.00  0.00     0.029 A 
ATOM     43  N   UNL A   1      39.915  32.006  40.715  1.00  0.00    -0.354 N 
ATOM     44  C   UNL A   1      43.239  32.063  37.966  1.00  0.00     0.074 A 
ATOM     45  C   UNL A   1      42.839  32.594  36.682  1.00  0.00     0.031 C 
ATOM     46  C   UNL A   1      37.836  32.417  41.420  1.00  0.00     0.029 A 
ATOM     47  C   UNL A   1      39.120  31.847  41.825  1.00  0.00     0.049 A 
ATOM     48  H   UNL A   1      40.863  31.741  40.691  1.00  0.00     0.167 HD
ATOM     49  C   UNL A   1      44.496  31.649  38.251  1.00  0.00     0.031 A 
ATOM     50  C   UNL A   1      39.399  31.294  43.023  1.00  0.00     0.031 A 
ATOM     51  C   UNL A   1      44.896  31.105  39.519  1.00  0.00     0.049 A 
ATOM     52  C   UNL A   1      40.785  30.758  43.289  1.00  0.00     0.074 A 
ATOM     53  C   UNL A   1      46.149  30.669  39.912  1.00  0.00     0.029 A 
ATOM     54  N   UNL A   1      44.045  30.908  40.595  1.00  0.00    -0.354 N 
ATOM     55  N   UNL A   1      41.845  30.775  42.518  1.00  0.00    -0.248 NA
ATOM     56  C   UNL A   1      41.011  30.136  44.603  1.00  0.00     0.031 C 
ATOM     57  C   UNL A   1      46.040  30.144  41.204  1.00  0.00     0.029 A 
ATOM     58  C   UNL A   1      44.739  30.327  41.643  1.00  0.00     0.049 A 
ATOM     59  H   UNL A   1      43.090  31.147  40.612  1.00  0.00     0.167 HD
ATOM     60  C   UNL A   1      42.871  30.208  43.267  1.00  0.00     0.074 A 
ATOM     61  C   UNL A   1      42.308  29.867  44.557  1.00  0.00     0.031 C 
ATOM     62  C   UNL A   1      44.166  29.994  42.922  1.00  0.00     0.031 A 
BRANCH  49  63
ATOM     63  C   UNL A   1      45.513  31.722  37.144  1.00  0.00    -0.014 A 
ATOM     64  C   UNL A   1      46.311  32.861  36.946  1.00  0.00     0.009 A 
ATOM     65  C   UNL A   1      45.678  30.622  36.287  1.00  0.00     0.009 A 
ATOM     66  C   UNL A   1      47.221  32.911  35.887  1.00  0.00     0.001 A 
ATOM     67  C   UNL A   1      46.613  30.663  35.252  1.00  0.00     0.001 A 
ATOM     68  C   UNL A   1      47.375  31.811  35.045  1.00  0.00     0.000 A 
ENDBRANCH  49  63
BRANCH  50  69
ATOM     69  C   UNL A   1      38.350  31.207  44.076  1.00  0.00    -0.014 A 
ATOM     70  C   UNL A   1      37.523  30.077  44.172  1.00  0.00     0.009 A 
ATOM     71  C   UNL A   1      38.138  32.275  44.962  1.00  0.00     0.009 A 
ATOM     72  C   UNL A   1      36.490  30.030  45.112  1.00  0.00     0.001 A 
ATOM     73  C   UNL A   1      37.125  32.212  45.922  1.00  0.00     0.001 A 
ATOM     74  C   UNL A   1      36.294  31.094  45.989  1.00  0.00     0.000 A 
ENDBRANCH  50  69
BRANCH  62  75
ATOM     75  C   UNL A   1      45.079  29.420  43.973  1.00  0.00    -0.014 A 
ATOM     76  C   UNL A   1      45.260  28.036  44.121  1.00  0.00     0.009 A 
ATOM     77  C   UNL A   1      45.799  30.290  44.810  1.00  0.00     0.009 A 
ATOM     78  C   UNL A   1      46.105  27.535  45.115  1.00  0.00     0.001 A 
ATOM     79  C   UNL A   1      46.671  29.788  45.777  1.00  0.00     0.001 A 
ATOM     80  C   UNL A   1      46.812  28.411  45.939  1.00  0.00     0.000 A 
ENDBRANCH  62  75
ENDBRANCH  36  37
ENDBRANCH  29  31
ENDBRANCH  28  29
ENDBRANCH  27  28
ENDBRANCH  26  27
ENDBRANCH  25  26
ENDBRANCH  24  25
ENDBRANCH  23  24
ENDBRANCH  22  23
ENDBRANCH  21  22
ENDBRANCH   1  21
TORSDOF 26
ENDMDL
