MODEL 1
REMARK VINA RESULT:      -9.7      0.000      0.000
REMARK SMILES Cn1c(=O)c2c(nc(Nc3cccc(Cl)c3Cl)n2CC(=O)OCCOCCOCCOCCOC(=O)c2ccc(-c3c4nc(c(-c5ccccc5)c5ccc([nH]5)c(-c5ccccc5)c5nc(c(-c6ccccc6)c6ccc3[nH]6)C=C5)C=C4)cc2)n(C)c1=O
REMARK SMILES IDX 27 1 26 2 25 3 24 4 23 5 22 6 20 7 21 8 19 9 18 10 1 11 2 12
REMARK SMILES IDX 3 13 87 14 4 15 5 16 85 17 88 18 6 19 86 20 7 21 8 22 9 23
REMARK SMILES IDX 10 25 11 26 16 27 12 28 14 29 17 30 13 31 15 32 28 33 29 34
REMARK SMILES IDX 30 35 31 36 32 37 33 38 34 39 35 40 36 41 37 42 38 43 84 44
REMARK SMILES IDX 39 45 83 46 40 47 41 48 42 49 77 50 43 51 82 52 76 53 78 54
REMARK SMILES IDX 44 55 81 56 75 57 74 58 45 60 67 61 52 62 66 63 53 64 56 65
REMARK SMILES IDX 65 66 79 67 54 68 55 69 64 71 80 72 57 73 46 74 47 75 51 76
REMARK SMILES IDX 48 77 50 78 49 79 68 80 69 81 73 82 70 83 72 84 71 85 58 86
REMARK SMILES IDX 59 87 63 88 60 89 62 90 61 91
REMARK H PARENT 9 24 78 59 56 70
REMARK Flexibility Score: inf
ROOT
ATOM      1  C   UNL A   1      40.458  24.706  27.131  1.00  0.00     0.188 C 
ENDROOT
BRANCH   1   2
ATOM      2  C   UNL A   1      39.243  23.752  27.189  1.00  0.00     0.188 C 
BRANCH   2   3
ATOM      3  O   UNL A   1      38.313  23.711  26.110  1.00  0.00    -0.376 OA
BRANCH   3   4
ATOM      4  C   UNL A   1      38.007  22.461  25.508  1.00  0.00     0.202 C 
BRANCH   4   5
ATOM      5  C   UNL A   1      36.537  22.181  25.141  1.00  0.00     0.261 C 
BRANCH   5   6
ATOM      6  O   UNL A   1      36.207  22.456  23.759  1.00  0.00    -0.462 OA
BRANCH   6   7
ATOM      7  C   UNL A   1      35.073  23.161  23.522  1.00  0.00     0.326 C 
ATOM      8  O   UNL A   1      34.588  23.300  22.402  1.00  0.00    -0.250 OA
BRANCH   7   9
ATOM      9  C   UNL A   1      34.317  23.567  24.773  1.00  0.00     0.248 C 
BRANCH   9  10
ATOM     10  N   UNL A   1      32.915  23.973  24.697  1.00  0.00    -0.293 N 
ATOM     11  C   UNL A   1      32.922  28.877  23.668  1.00  0.00     0.159 C 
ATOM     12  N   UNL A   1      32.318  27.577  23.909  1.00  0.00    -0.261 N 
ATOM     13  C   UNL A   1      33.170  26.506  24.210  1.00  0.00     0.282 A 
ATOM     14  C   UNL A   1      30.917  27.508  23.825  1.00  0.00     0.332 A 
ATOM     15  O   UNL A   1      34.393  26.610  24.237  1.00  0.00    -0.267 OA
ATOM     16  C   UNL A   1      32.483  25.275  24.451  1.00  0.00     0.154 A 
ATOM     17  N   UNL A   1      30.327  26.278  24.102  1.00  0.00    -0.279 N 
ATOM     18  O   UNL A   1      30.243  28.494  23.513  1.00  0.00    -0.247 OA
ATOM     19  C   UNL A   1      31.125  25.201  24.415  1.00  0.00     0.170 A 
ATOM     20  C   UNL A   1      28.881  26.140  24.082  1.00  0.00     0.157 C 
ATOM     21  N   UNL A   1      30.684  23.962  24.720  1.00  0.00    -0.194 NA
ATOM     22  C   UNL A   1      31.764  23.244  24.970  1.00  0.00     0.210 A 
BRANCH  22  23
ATOM     23  N   UNL A   1      31.656  21.964  25.377  1.00  0.00    -0.324 N 
ATOM     24  H   UNL A   1      31.100  21.849  26.180  1.00  0.00     0.170 HD
BRANCH  23  25
ATOM     25  C   UNL A   1      32.181  20.763  24.878  1.00  0.00     0.061 A 
ATOM     26  C   UNL A   1      32.845  19.945  25.808  1.00  0.00     0.028 A 
ATOM     27  C   UNL A   1      32.118  20.346  23.533  1.00  0.00     0.083 A 
ATOM     28  C   UNL A   1      33.328  18.691  25.448  1.00  0.00     0.004 A 
ATOM     29  C   UNL A   1      32.554  19.057  23.187  1.00  0.00     0.061 A 
ATOM     30  Cl  UNL A   1      31.572  21.453  22.305  1.00  0.00    -0.080 Cl
ATOM     31  C   UNL A   1      33.148  18.233  24.147  1.00  0.00     0.022 A 
ATOM     32  Cl  UNL A   1      32.359  18.410  21.595  1.00  0.00    -0.083 Cl
ENDBRANCH  23  25
ENDBRANCH  22  23
ENDBRANCH   9  10
ENDBRANCH   7   9
ENDBRANCH   6   7
ENDBRANCH   5   6
ENDBRANCH   4   5
ENDBRANCH   3   4
ENDBRANCH   2   3
ENDBRANCH   1   2
BRANCH   1  33
ATOM     33  O   UNL A   1      41.731  24.089  27.116  1.00  0.00    -0.377 OA
BRANCH  33  34
ATOM     34  C   UNL A   1      41.862  22.962  26.268  1.00  0.00     0.188 C 
BRANCH  34  35
ATOM     35  C   UNL A   1      43.295  22.538  25.890  1.00  0.00     0.188 C 
BRANCH  35  36
ATOM     36  O   UNL A   1      44.150  22.253  26.997  1.00  0.00    -0.376 OA
BRANCH  36  37
ATOM     37  C   UNL A   1      45.193  23.165  27.315  1.00  0.00     0.202 C 
BRANCH  37  38
ATOM     38  C   UNL A   1      44.794  24.278  28.279  1.00  0.00     0.261 C 
BRANCH  38  39
ATOM     39  O   UNL A   1      45.854  24.774  29.079  1.00  0.00    -0.460 OA
BRANCH  39  40
ATOM     40  C   UNL A   1      45.822  26.088  29.330  1.00  0.00     0.338 C 
ATOM     41  O   UNL A   1      46.778  26.845  29.499  1.00  0.00    -0.246 OA
BRANCH  40  42
ATOM     42  C   UNL A   1      44.435  26.498  29.509  1.00  0.00     0.060 A 
ATOM     43  C   UNL A   1      43.710  26.728  28.341  1.00  0.00     0.016 A 
ATOM     44  C   UNL A   1      44.020  26.965  30.769  1.00  0.00     0.016 A 
ATOM     45  C   UNL A   1      42.712  27.664  28.393  1.00  0.00     0.010 A 
ATOM     46  C   UNL A   1      43.029  27.909  30.815  1.00  0.00     0.010 A 
ATOM     47  C   UNL A   1      42.471  28.315  29.609  1.00  0.00    -0.014 A 
BRANCH  47  48
ATOM     48  C   UNL A   1      41.594  29.455  29.565  1.00  0.00     0.031 A 
ATOM     49  C   UNL A   1      42.304  30.728  29.389  1.00  0.00     0.074 A 
ATOM     50  C   UNL A   1      40.262  29.343  29.667  1.00  0.00     0.049 A 
ATOM     51  N   UNL A   1      42.482  31.652  30.269  1.00  0.00    -0.248 NA
ATOM     52  C   UNL A   1      43.046  30.910  28.135  1.00  0.00     0.031 C 
ATOM     53  C   UNL A   1      39.426  28.146  29.552  1.00  0.00     0.029 A 
ATOM     54  N   UNL A   1      39.360  30.346  29.797  1.00  0.00    -0.354 N 
ATOM     55  C   UNL A   1      43.225  32.628  29.624  1.00  0.00     0.074 A 
ATOM     56  C   UNL A   1      43.688  32.048  28.388  1.00  0.00     0.031 C 
ATOM     57  C   UNL A   1      38.139  28.529  29.381  1.00  0.00     0.029 A 
ATOM     58  C   UNL A   1      38.058  29.975  29.517  1.00  0.00     0.049 A 
ATOM     59  H   UNL A   1      39.610  31.259  30.067  1.00  0.00     0.167 HD
ATOM     60  C   UNL A   1      43.207  33.922  30.035  1.00  0.00     0.031 A 
ATOM     61  C   UNL A   1      37.026  30.828  29.320  1.00  0.00     0.031 A 
ATOM     62  C   UNL A   1      42.683  34.062  31.367  1.00  0.00     0.049 A 
ATOM     63  C   UNL A   1      37.402  32.137  29.915  1.00  0.00     0.074 A 
ATOM     64  C   UNL A   1      43.068  33.610  32.613  1.00  0.00     0.029 A 
ATOM     65  N   UNL A   1      41.366  34.442  31.488  1.00  0.00    -0.354 N 
ATOM     66  N   UNL A   1      37.539  32.335  31.195  1.00  0.00    -0.248 NA
ATOM     67  C   UNL A   1      38.049  33.125  29.064  1.00  0.00     0.031 C 
ATOM     68  C   UNL A   1      41.852  33.323  33.297  1.00  0.00     0.029 A 
ATOM     69  C   UNL A   1      40.791  33.650  32.449  1.00  0.00     0.049 A 
ATOM     70  H   UNL A   1      40.917  35.154  30.977  1.00  0.00     0.167 HD
ATOM     71  C   UNL A   1      38.616  33.204  31.312  1.00  0.00     0.074 A 
ATOM     72  C   UNL A   1      38.814  33.742  29.970  1.00  0.00     0.031 C 
ATOM     73  C   UNL A   1      39.419  33.190  32.417  1.00  0.00     0.031 A 
BRANCH  60  74
ATOM     74  C   UNL A   1      43.291  35.070  29.071  1.00  0.00    -0.014 A 
ATOM     75  C   UNL A   1      44.397  35.930  29.132  1.00  0.00     0.009 A 
ATOM     76  C   UNL A   1      42.199  35.488  28.283  1.00  0.00     0.009 A 
ATOM     77  C   UNL A   1      44.387  37.166  28.475  1.00  0.00     0.001 A 
ATOM     78  C   UNL A   1      42.204  36.697  27.589  1.00  0.00     0.001 A 
ATOM     79  C   UNL A   1      43.291  37.548  27.706  1.00  0.00     0.000 A 
ENDBRANCH  60  74
BRANCH  61  80
ATOM     80  C   UNL A   1      35.906  30.674  28.368  1.00  0.00    -0.014 A 
ATOM     81  C   UNL A   1      35.665  29.444  27.741  1.00  0.00     0.009 A 
ATOM     82  C   UNL A   1      34.911  31.666  28.271  1.00  0.00     0.009 A 
ATOM     83  C   UNL A   1      34.456  29.204  27.075  1.00  0.00     0.001 A 
ATOM     84  C   UNL A   1      33.709  31.430  27.601  1.00  0.00     0.001 A 
ATOM     85  C   UNL A   1      33.475  30.191  27.016  1.00  0.00     0.000 A 
ENDBRANCH  61  80
BRANCH  73  86
ATOM     86  C   UNL A   1      38.964  32.384  33.610  1.00  0.00    -0.014 A 
ATOM     87  C   UNL A   1      39.326  31.038  33.800  1.00  0.00     0.009 A 
ATOM     88  C   UNL A   1      38.307  33.050  34.656  1.00  0.00     0.009 A 
ATOM     89  C   UNL A   1      39.023  30.377  34.995  1.00  0.00     0.001 A 
ATOM     90  C   UNL A   1      38.023  32.395  35.856  1.00  0.00     0.001 A 
ATOM     91  C   UNL A   1      38.379  31.059  36.025  1.00  0.00     0.000 A 
ENDBRANCH  73  86
ENDBRANCH  47  48
ENDBRANCH  40  42
ENDBRANCH  39  40
ENDBRANCH  38  39
ENDBRANCH  37  38
ENDBRANCH  36  37
ENDBRANCH  35  36
ENDBRANCH  34  35
ENDBRANCH  33  34
ENDBRANCH   1  33
TORSDOF 23
ENDMDL
MODEL 2
REMARK VINA RESULT:      -9.6      3.318      5.661
REMARK SMILES Cn1c(=O)c2c(nc(Nc3cccc(Cl)c3Cl)n2CC(=O)OCCOCCOCCOCCOC(=O)c2ccc(-c3c4nc(c(-c5ccccc5)c5ccc([nH]5)c(-c5ccccc5)c5nc(c(-c6ccccc6)c6ccc3[nH]6)C=C5)C=C4)cc2)n(C)c1=O
REMARK SMILES IDX 27 1 26 2 25 3 24 4 23 5 22 6 20 7 21 8 19 9 18 10 1 11 2 12
REMARK SMILES IDX 3 13 87 14 4 15 5 16 85 17 88 18 6 19 86 20 7 21 8 22 9 23
REMARK SMILES IDX 10 25 11 26 16 27 12 28 14 29 17 30 13 31 15 32 28 33 29 34
REMARK SMILES IDX 30 35 31 36 32 37 33 38 34 39 35 40 36 41 37 42 38 43 84 44
REMARK SMILES IDX 39 45 83 46 40 47 41 48 42 49 77 50 43 51 82 52 76 53 78 54
REMARK SMILES IDX 44 55 81 56 75 57 74 58 45 60 67 61 52 62 66 63 53 64 56 65
REMARK SMILES IDX 65 66 79 67 54 68 55 69 64 71 80 72 57 73 46 74 47 75 51 76
REMARK SMILES IDX 48 77 50 78 49 79 68 80 69 81 73 82 70 83 72 84 71 85 58 86
REMARK SMILES IDX 59 87 63 88 60 89 62 90 61 91
REMARK H PARENT 9 24 78 59 56 70
REMARK Flexibility Score: inf
ROOT
ATOM      1  C   UNL A   1      38.343  21.953  25.739  1.00  0.00     0.188 C 
ENDROOT
BRANCH   1   2
ATOM      2  C   UNL A   1      37.359  21.210  24.807  1.00  0.00     0.188 C 
BRANCH   2   3
ATOM      3  O   UNL A   1      36.048  20.888  25.262  1.00  0.00    -0.376 OA
BRANCH   3   4
ATOM      4  C   UNL A   1      35.348  21.823  26.072  1.00  0.00     0.202 C 
BRANCH   4   5
ATOM      5  C   UNL A   1      34.771  23.077  25.387  1.00  0.00     0.261 C 
BRANCH   5   6
ATOM      6  O   UNL A   1      33.601  23.625  26.038  1.00  0.00    -0.462 OA
BRANCH   6   7
ATOM      7  C   UNL A   1      32.848  22.773  26.777  1.00  0.00     0.326 C 
ATOM      8  O   UNL A   1      33.015  22.597  27.981  1.00  0.00    -0.250 OA
BRANCH   7   9
ATOM      9  C   UNL A   1      31.631  22.229  26.054  1.00  0.00     0.248 C 
BRANCH   9  10
ATOM     10  N   UNL A   1      31.760  21.619  24.732  1.00  0.00    -0.293 N 
ATOM     11  C   UNL A   1      33.608  17.021  25.474  1.00  0.00     0.159 C 
ATOM     12  N   UNL A   1      33.077  18.122  24.687  1.00  0.00    -0.261 N 
ATOM     13  C   UNL A   1      32.757  19.310  25.357  1.00  0.00     0.282 A 
ATOM     14  C   UNL A   1      32.936  17.900  23.306  1.00  0.00     0.332 A 
ATOM     15  O   UNL A   1      32.864  19.443  26.574  1.00  0.00    -0.267 OA
ATOM     16  C   UNL A   1      32.263  20.340  24.498  1.00  0.00     0.154 A 
ATOM     17  N   UNL A   1      32.476  18.966  22.539  1.00  0.00    -0.279 N 
ATOM     18  O   UNL A   1      33.204  16.806  22.801  1.00  0.00    -0.247 OA
ATOM     19  C   UNL A   1      32.161  20.155  23.154  1.00  0.00     0.170 A 
ATOM     20  C   UNL A   1      32.349  18.827  21.098  1.00  0.00     0.157 C 
ATOM     21  N   UNL A   1      31.721  21.269  22.528  1.00  0.00    -0.194 NA
ATOM     22  C   UNL A   1      31.558  22.176  23.474  1.00  0.00     0.210 A 
BRANCH  22  23
ATOM     23  N   UNL A   1      31.189  23.433  23.161  1.00  0.00    -0.324 N 
ATOM     24  H   UNL A   1      30.295  23.493  22.754  1.00  0.00     0.170 HD
BRANCH  23  25
ATOM     25  C   UNL A   1      31.829  24.672  23.301  1.00  0.00     0.061 A 
ATOM     26  C   UNL A   1      32.989  24.860  22.529  1.00  0.00     0.028 A 
ATOM     27  C   UNL A   1      31.417  25.706  24.165  1.00  0.00     0.083 A 
ATOM     28  C   UNL A   1      33.657  26.080  22.519  1.00  0.00     0.004 A 
ATOM     29  C   UNL A   1      32.058  26.954  24.108  1.00  0.00     0.061 A 
ATOM     30  Cl  UNL A   1      30.170  25.407  25.344  1.00  0.00    -0.080 Cl
ATOM     31  C   UNL A   1      33.168  27.138  23.279  1.00  0.00     0.022 A 
ATOM     32  Cl  UNL A   1      31.507  28.321  25.014  1.00  0.00    -0.083 Cl
ENDBRANCH  23  25
ENDBRANCH  22  23
ENDBRANCH   9  10
ENDBRANCH   7   9
ENDBRANCH   6   7
ENDBRANCH   5   6
ENDBRANCH   4   5
ENDBRANCH   3   4
ENDBRANCH   2   3
ENDBRANCH   1   2
BRANCH   1  33
ATOM     33  O   UNL A   1      39.641  21.401  25.837  1.00  0.00    -0.377 OA
BRANCH  33  34
ATOM     34  C   UNL A   1      40.283  21.549  27.091  1.00  0.00     0.188 C 
BRANCH  34  35
ATOM     35  C   UNL A   1      41.233  20.416  27.526  1.00  0.00     0.188 C 
BRANCH  35  36
ATOM     36  O   UNL A   1      42.619  20.675  27.306  1.00  0.00    -0.376 OA
BRANCH  36  37
ATOM     37  C   UNL A   1      43.000  21.865  26.629  1.00  0.00     0.202 C 
BRANCH  37  38
ATOM     38  C   UNL A   1      43.568  21.647  25.230  1.00  0.00     0.261 C 
BRANCH  38  39
ATOM     39  O   UNL A   1      44.443  22.668  24.782  1.00  0.00    -0.460 OA
BRANCH  39  40
ATOM     40  C   UNL A   1      45.630  22.722  25.399  1.00  0.00     0.338 C 
ATOM     41  O   UNL A   1      46.458  21.819  25.516  1.00  0.00    -0.246 OA
BRANCH  40  42
ATOM     42  C   UNL A   1      45.763  24.019  26.050  1.00  0.00     0.060 A 
ATOM     43  C   UNL A   1      46.060  23.992  27.412  1.00  0.00     0.016 A 
ATOM     44  C   UNL A   1      45.264  25.161  25.401  1.00  0.00     0.016 A 
ATOM     45  C   UNL A   1      45.591  25.025  28.179  1.00  0.00     0.010 A 
ATOM     46  C   UNL A   1      44.787  26.188  26.172  1.00  0.00     0.010 A 
ATOM     47  C   UNL A   1      44.866  26.045  27.552  1.00  0.00    -0.014 A 
BRANCH  47  48
ATOM     48  C   UNL A   1      44.186  26.973  28.415  1.00  0.00     0.031 A 
ATOM     49  C   UNL A   1      45.019  28.114  28.816  1.00  0.00     0.074 A 
ATOM     50  C   UNL A   1      42.912  26.800  28.798  1.00  0.00     0.049 A 
ATOM     51  N   UNL A   1      45.533  28.338  29.976  1.00  0.00    -0.248 NA
ATOM     52  C   UNL A   1      45.468  29.018  27.749  1.00  0.00     0.031 C 
ATOM     53  C   UNL A   1      41.902  25.892  28.252  1.00  0.00     0.029 A 
ATOM     54  N   UNL A   1      42.227  27.515  29.723  1.00  0.00    -0.354 N 
ATOM     55  C   UNL A   1      46.245  29.519  29.834  1.00  0.00     0.074 A 
ATOM     56  C   UNL A   1      46.316  29.795  28.421  1.00  0.00     0.031 C 
ATOM     57  C   UNL A   1      40.683  26.279  28.696  1.00  0.00     0.029 A 
ATOM     58  C   UNL A   1      40.855  27.360  29.654  1.00  0.00     0.049 A 
ATOM     59  H   UNL A   1      42.667  28.092  30.387  1.00  0.00     0.167 HD
ATOM     60  C   UNL A   1      46.518  30.316  30.900  1.00  0.00     0.031 A 
ATOM     61  C   UNL A   1      39.946  28.146  30.277  1.00  0.00     0.031 A 
ATOM     62  C   UNL A   1      46.344  29.628  32.151  1.00  0.00     0.049 A 
ATOM     63  C   UNL A   1      40.642  28.851  31.383  1.00  0.00     0.074 A 
ATOM     64  C   UNL A   1      46.936  28.531  32.745  1.00  0.00     0.029 A 
ATOM     65  N   UNL A   1      45.164  29.839  32.826  1.00  0.00    -0.354 N 
ATOM     66  N   UNL A   1      41.101  28.253  32.446  1.00  0.00    -0.248 NA
ATOM     67  C   UNL A   1      41.216  30.163  31.117  1.00  0.00     0.031 C 
ATOM     68  C   UNL A   1      45.883  27.873  33.442  1.00  0.00     0.029 A 
ATOM     69  C   UNL A   1      44.716  28.622  33.270  1.00  0.00     0.049 A 
ATOM     70  H   UNL A   1      44.722  30.708  32.966  1.00  0.00     0.167 HD
ATOM     71  C   UNL A   1      42.294  28.900  32.739  1.00  0.00     0.074 A 
ATOM     72  C   UNL A   1      42.254  30.134  31.959  1.00  0.00     0.031 C 
ATOM     73  C   UNL A   1      43.320  28.247  33.360  1.00  0.00     0.031 A 
BRANCH  60  74
ATOM     74  C   UNL A   1      46.548  31.813  30.793  1.00  0.00    -0.014 A 
ATOM     75  C   UNL A   1      47.414  32.411  29.866  1.00  0.00     0.009 A 
ATOM     76  C   UNL A   1      45.951  32.660  31.749  1.00  0.00     0.009 A 
ATOM     77  C   UNL A   1      47.702  33.779  29.927  1.00  0.00     0.001 A 
ATOM     78  C   UNL A   1      46.199  34.031  31.784  1.00  0.00     0.001 A 
ATOM     79  C   UNL A   1      47.095  34.587  30.886  1.00  0.00     0.000 A 
ENDBRANCH  60  74
BRANCH  61  80
ATOM     80  C   UNL A   1      38.626  28.568  29.764  1.00  0.00    -0.014 A 
ATOM     81  C   UNL A   1      37.606  28.952  30.645  1.00  0.00     0.009 A 
ATOM     82  C   UNL A   1      38.449  28.845  28.395  1.00  0.00     0.009 A 
ATOM     83  C   UNL A   1      36.469  29.622  30.176  1.00  0.00     0.001 A 
ATOM     84  C   UNL A   1      37.312  29.507  27.926  1.00  0.00     0.001 A 
ATOM     85  C   UNL A   1      36.328  29.910  28.821  1.00  0.00     0.000 A 
ENDBRANCH  61  80
BRANCH  73  86
ATOM     86  C   UNL A   1      43.038  26.882  33.941  1.00  0.00    -0.014 A 
ATOM     87  C   UNL A   1      43.755  25.733  33.563  1.00  0.00     0.009 A 
ATOM     88  C   UNL A   1      42.154  26.787  35.026  1.00  0.00     0.009 A 
ATOM     89  C   UNL A   1      43.576  24.522  34.241  1.00  0.00     0.001 A 
ATOM     90  C   UNL A   1      41.991  25.584  35.716  1.00  0.00     0.001 A 
ATOM     91  C   UNL A   1      42.701  24.452  35.323  1.00  0.00     0.000 A 
ENDBRANCH  73  86
ENDBRANCH  47  48
ENDBRANCH  40  42
ENDBRANCH  39  40
ENDBRANCH  38  39
ENDBRANCH  37  38
ENDBRANCH  36  37
ENDBRANCH  35  36
ENDBRANCH  34  35
ENDBRANCH  33  34
ENDBRANCH   1  33
TORSDOF 23
ENDMDL
MODEL 3
REMARK VINA RESULT:      -9.4      3.633      9.191
REMARK SMILES Cn1c(=O)c2c(nc(Nc3cccc(Cl)c3Cl)n2CC(=O)OCCOCCOCCOCCOC(=O)c2ccc(-c3c4nc(c(-c5ccccc5)c5ccc([nH]5)c(-c5ccccc5)c5nc(c(-c6ccccc6)c6ccc3[nH]6)C=C5)C=C4)cc2)n(C)c1=O
REMARK SMILES IDX 27 1 26 2 25 3 24 4 23 5 22 6 20 7 21 8 19 9 18 10 1 11 2 12
REMARK SMILES IDX 3 13 87 14 4 15 5 16 85 17 88 18 6 19 86 20 7 21 8 22 9 23
REMARK SMILES IDX 10 25 11 26 16 27 12 28 14 29 17 30 13 31 15 32 28 33 29 34
REMARK SMILES IDX 30 35 31 36 32 37 33 38 34 39 35 40 36 41 37 42 38 43 84 44
REMARK SMILES IDX 39 45 83 46 40 47 41 48 42 49 77 50 43 51 82 52 76 53 78 54
REMARK SMILES IDX 44 55 81 56 75 57 74 58 45 60 67 61 52 62 66 63 53 64 56 65
REMARK SMILES IDX 65 66 79 67 54 68 55 69 64 71 80 72 57 73 46 74 47 75 51 76
REMARK SMILES IDX 48 77 50 78 49 79 68 80 69 81 73 82 70 83 72 84 71 85 58 86
REMARK SMILES IDX 59 87 63 88 60 89 62 90 61 91
REMARK H PARENT 9 24 78 59 56 70
REMARK Flexibility Score: inf
ROOT
ATOM      1  C   UNL A   1      34.395  32.714  30.738  1.00  0.00     0.188 C 
ENDROOT
BRANCH   1   2
ATOM      2  C   UNL A   1      34.917  32.465  29.305  1.00  0.00     0.188 C 
BRANCH   2   3
ATOM      3  O   UNL A   1      34.754  31.187  28.696  1.00  0.00    -0.376 OA
BRANCH   3   4
ATOM      4  C   UNL A   1      34.112  31.102  27.430  1.00  0.00     0.202 C 
BRANCH   4   5
ATOM      5  C   UNL A   1      32.908  30.149  27.300  1.00  0.00     0.261 C 
BRANCH   5   6
ATOM      6  O   UNL A   1      32.807  29.491  26.014  1.00  0.00    -0.462 OA
BRANCH   6   7
ATOM      7  C   UNL A   1      32.853  28.136  26.008  1.00  0.00     0.326 C 
ATOM      8  O   UNL A   1      32.287  27.439  26.846  1.00  0.00    -0.250 OA
BRANCH   7   9
ATOM      9  C   UNL A   1      33.458  27.538  24.752  1.00  0.00     0.248 C 
BRANCH   9  10
ATOM     10  N   UNL A   1      32.834  26.389  24.099  1.00  0.00    -0.293 N 
ATOM     11  C   UNL A   1      34.762  22.309  26.278  1.00  0.00     0.159 C 
ATOM     12  N   UNL A   1      33.891  23.037  25.371  1.00  0.00    -0.261 N 
ATOM     13  C   UNL A   1      33.999  24.433  25.339  1.00  0.00     0.282 A 
ATOM     14  C   UNL A   1      33.011  22.268  24.589  1.00  0.00     0.332 A 
ATOM     15  O   UNL A   1      34.760  25.063  26.070  1.00  0.00    -0.267 OA
ATOM     16  C   UNL A   1      33.118  25.058  24.402  1.00  0.00     0.154 A 
ATOM     17  N   UNL A   1      32.209  22.954  23.681  1.00  0.00    -0.279 N 
ATOM     18  O   UNL A   1      32.952  21.041  24.709  1.00  0.00    -0.247 OA
ATOM     19  C   UNL A   1      32.291  24.325  23.608  1.00  0.00     0.170 A 
ATOM     20  C   UNL A   1      31.308  22.223  22.806  1.00  0.00     0.157 C 
ATOM     21  N   UNL A   1      31.585  25.109  22.765  1.00  0.00    -0.194 NA
ATOM     22  C   UNL A   1      31.975  26.347  23.007  1.00  0.00     0.210 A 
BRANCH  22  23
ATOM     23  N   UNL A   1      31.500  27.370  22.272  1.00  0.00    -0.324 N 
ATOM     24  H   UNL A   1      32.032  27.561  21.466  1.00  0.00     0.170 HD
BRANCH  23  25
ATOM     25  C   UNL A   1      30.394  28.218  22.429  1.00  0.00     0.061 A 
ATOM     26  C   UNL A   1      30.552  29.534  21.961  1.00  0.00     0.028 A 
ATOM     27  C   UNL A   1      29.176  27.859  23.040  1.00  0.00     0.083 A 
ATOM     28  C   UNL A   1      29.494  30.438  21.983  1.00  0.00     0.004 A 
ATOM     29  C   UNL A   1      28.094  28.753  23.007  1.00  0.00     0.061 A 
ATOM     30  Cl  UNL A   1      29.045  26.345  23.890  1.00  0.00    -0.080 Cl
ATOM     31  C   UNL A   1      28.256  30.034  22.471  1.00  0.00     0.022 A 
ATOM     32  Cl  UNL A   1      26.521  28.326  23.585  1.00  0.00    -0.083 Cl
ENDBRANCH  23  25
ENDBRANCH  22  23
ENDBRANCH   9  10
ENDBRANCH   7   9
ENDBRANCH   6   7
ENDBRANCH   5   6
ENDBRANCH   4   5
ENDBRANCH   3   4
ENDBRANCH   2   3
ENDBRANCH   1   2
BRANCH   1  33
ATOM     33  O   UNL A   1      35.237  33.475  31.582  1.00  0.00    -0.377 OA
BRANCH  33  34
ATOM     34  C   UNL A   1      36.074  32.734  32.451  1.00  0.00     0.188 C 
BRANCH  34  35
ATOM     35  C   UNL A   1      37.220  31.934  31.801  1.00  0.00     0.188 C 
BRANCH  35  36
ATOM     36  O   UNL A   1      37.961  31.107  32.699  1.00  0.00    -0.376 OA
BRANCH  36  37
ATOM     37  C   UNL A   1      38.996  31.691  33.478  1.00  0.00     0.202 C 
BRANCH  37  38
ATOM     38  C   UNL A   1      39.443  33.072  33.009  1.00  0.00     0.261 C 
BRANCH  38  39
ATOM     39  O   UNL A   1      39.649  33.182  31.611  1.00  0.00    -0.460 OA
BRANCH  39  40
ATOM     40  C   UNL A   1      40.923  33.334  31.225  1.00  0.00     0.338 C 
ATOM     41  O   UNL A   1      41.681  34.267  31.489  1.00  0.00    -0.246 OA
BRANCH  40  42
ATOM     42  C   UNL A   1      41.266  32.258  30.305  1.00  0.00     0.060 A 
ATOM     43  C   UNL A   1      40.233  31.380  29.978  1.00  0.00     0.016 A 
ATOM     44  C   UNL A   1      42.621  31.957  30.084  1.00  0.00     0.016 A 
ATOM     45  C   UNL A   1      40.575  30.086  29.689  1.00  0.00     0.010 A 
ATOM     46  C   UNL A   1      42.959  30.659  29.804  1.00  0.00     0.010 A 
ATOM     47  C   UNL A   1      41.929  29.731  29.719  1.00  0.00    -0.014 A 
BRANCH  47  48
ATOM     48  C   UNL A   1      42.226  28.325  29.654  1.00  0.00     0.031 A 
ATOM     49  C   UNL A   1      42.941  27.826  30.836  1.00  0.00     0.074 A 
ATOM     50  C   UNL A   1      41.868  27.560  28.612  1.00  0.00     0.049 A 
ATOM     51  N   UNL A   1      44.178  27.473  30.910  1.00  0.00    -0.248 NA
ATOM     52  C   UNL A   1      42.233  27.893  32.121  1.00  0.00     0.031 C 
ATOM     53  C   UNL A   1      40.921  27.855  27.536  1.00  0.00     0.029 A 
ATOM     54  N   UNL A   1      42.228  26.276  28.373  1.00  0.00    -0.354 N 
ATOM     55  C   UNL A   1      44.370  27.105  32.233  1.00  0.00     0.074 A 
ATOM     56  C   UNL A   1      43.206  27.546  32.960  1.00  0.00     0.031 C 
ATOM     57  C   UNL A   1      40.608  26.700  26.902  1.00  0.00     0.029 A 
ATOM     58  C   UNL A   1      41.437  25.632  27.439  1.00  0.00     0.049 A 
ATOM     59  H   UNL A   1      42.987  25.840  28.823  1.00  0.00     0.167 HD
ATOM     60  C   UNL A   1      45.361  26.250  32.594  1.00  0.00     0.031 A 
ATOM     61  C   UNL A   1      41.418  24.297  27.216  1.00  0.00     0.031 A 
ATOM     62  C   UNL A   1      46.360  26.109  31.569  1.00  0.00     0.049 A 
ATOM     63  C   UNL A   1      42.678  23.731  27.762  1.00  0.00     0.074 A 
ATOM     64  C   UNL A   1      47.247  26.971  30.954  1.00  0.00     0.029 A 
ATOM     65  N   UNL A   1      46.273  25.004  30.755  1.00  0.00    -0.354 N 
ATOM     66  N   UNL A   1      43.855  23.967  27.255  1.00  0.00    -0.248 NA
ATOM     67  C   UNL A   1      42.683  23.244  29.134  1.00  0.00     0.031 C 
ATOM     68  C   UNL A   1      47.303  26.542  29.598  1.00  0.00     0.029 A 
ATOM     69  C   UNL A   1      46.480  25.420  29.464  1.00  0.00     0.049 A 
ATOM     70  H   UNL A   1      46.097  24.080  31.046  1.00  0.00     0.167 HD
ATOM     71  C   UNL A   1      44.706  24.067  28.348  1.00  0.00     0.074 A 
ATOM     72  C   UNL A   1      43.953  23.502  29.465  1.00  0.00     0.031 C 
ATOM     73  C   UNL A   1      45.823  24.852  28.306  1.00  0.00     0.031 A 
BRANCH  60  74
ATOM     74  C   UNL A   1      45.194  25.255  33.707  1.00  0.00    -0.014 A 
ATOM     75  C   UNL A   1      44.351  24.152  33.511  1.00  0.00     0.009 A 
ATOM     76  C   UNL A   1      45.626  25.503  35.025  1.00  0.00     0.009 A 
ATOM     77  C   UNL A   1      43.927  23.367  34.589  1.00  0.00     0.001 A 
ATOM     78  C   UNL A   1      45.243  24.697  36.096  1.00  0.00     0.001 A 
ATOM     79  C   UNL A   1      44.372  23.642  35.880  1.00  0.00     0.000 A 
ENDBRANCH  60  74
BRANCH  61  80
ATOM     80  C   UNL A   1      40.247  23.463  26.876  1.00  0.00    -0.014 A 
ATOM     81  C   UNL A   1      38.983  24.042  26.701  1.00  0.00     0.009 A 
ATOM     82  C   UNL A   1      40.419  22.126  26.465  1.00  0.00     0.009 A 
ATOM     83  C   UNL A   1      37.942  23.322  26.101  1.00  0.00     0.001 A 
ATOM     84  C   UNL A   1      39.379  21.406  25.874  1.00  0.00     0.001 A 
ATOM     85  C   UNL A   1      38.143  22.011  25.677  1.00  0.00     0.000 A 
ENDBRANCH  61  80
BRANCH  73  86
ATOM     86  C   UNL A   1      46.243  25.409  26.967  1.00  0.00    -0.014 A 
ATOM     87  C   UNL A   1      45.703  26.593  26.434  1.00  0.00     0.009 A 
ATOM     88  C   UNL A   1      47.340  24.826  26.315  1.00  0.00     0.009 A 
ATOM     89  C   UNL A   1      46.234  27.163  25.272  1.00  0.00     0.001 A 
ATOM     90  C   UNL A   1      47.884  25.407  25.167  1.00  0.00     0.001 A 
ATOM     91  C   UNL A   1      47.330  26.574  24.646  1.00  0.00     0.000 A 
ENDBRANCH  73  86
ENDBRANCH  47  48
ENDBRANCH  40  42
ENDBRANCH  39  40
ENDBRANCH  38  39
ENDBRANCH  37  38
ENDBRANCH  36  37
ENDBRANCH  35  36
ENDBRANCH  34  35
ENDBRANCH  33  34
ENDBRANCH   1  33
TORSDOF 23
ENDMDL
