MODEL 1
REMARK VINA RESULT:     -10.1      0.000      0.000
REMARK SMILES Cc1c(Cl)cc2c(c1C)O[C@@H](C(F)(F)F)C(C(=O)OCCOCCOCCOCCOC(=O)c1ccc(-c3c4nc(c(-c5ccccc5)c5ccc([nH]5)c(-c5ccccc5)c5nc(c(-c6ccccc6)c6ccc3[nH]6)C=C5)C=C4)cc1)=C2
REMARK SMILES IDX 26 1 25 2 24 3 23 4 22 5 21 6 20 7 19 8 17 9 18 10 16 11
REMARK SMILES IDX 1 12 2 13 3 14 8 15 4 16 5 17 7 18 9 19 6 20 10 21 82 22
REMARK SMILES IDX 11 23 12 24 13 25 14 26 15 27 27 28 28 29 29 30 30 31 31 32
REMARK SMILES IDX 32 33 33 34 34 35 35 36 81 37 36 38 80 39 37 40 38 41 39 42
REMARK SMILES IDX 74 43 40 44 79 45 73 46 75 47 41 48 78 49 72 50 71 51 42 53
REMARK SMILES IDX 64 54 49 55 63 56 50 57 53 58 62 59 76 60 51 61 52 62 61 64
REMARK SMILES IDX 77 65 54 66 43 67 44 68 48 69 45 70 47 71 46 72 65 73 66 74
REMARK SMILES IDX 70 75 67 76 69 77 68 78 55 79 56 80 60 81 57 82 59 83 58 84
REMARK H PARENT 75 52 53 63
REMARK Flexibility Score: inf
ROOT
ATOM      1  C   UNL A   1      39.343  20.594  25.809  1.00  0.00     0.188 C 
ENDROOT
BRANCH   1   2
ATOM      2  O   UNL A   1      38.328  21.595  25.730  1.00  0.00    -0.377 OA
BRANCH   2   3
ATOM      3  C   UNL A   1      37.042  21.258  25.234  1.00  0.00     0.188 C 
BRANCH   3   4
ATOM      4  C   UNL A   1      36.240  22.362  24.526  1.00  0.00     0.188 C 
BRANCH   4   5
ATOM      5  O   UNL A   1      35.000  21.894  24.027  1.00  0.00    -0.376 OA
BRANCH   5   6
ATOM      6  C   UNL A   1      33.818  22.589  24.372  1.00  0.00     0.202 C 
BRANCH   6   7
ATOM      7  C   UNL A   1      32.581  22.533  23.456  1.00  0.00     0.261 C 
BRANCH   7   8
ATOM      8  O   UNL A   1      32.275  23.721  22.719  1.00  0.00    -0.460 OA
BRANCH   8   9
ATOM      9  C   UNL A   1      33.137  24.746  22.834  1.00  0.00     0.338 C 
ATOM     10  O   UNL A   1      34.279  24.781  22.407  1.00  0.00    -0.246 OA
BRANCH   9  11
ATOM     11  C   UNL A   1      32.454  25.906  23.433  1.00  0.00     0.087 C 
ATOM     12  C   UNL A   1      29.420  31.623  24.191  1.00  0.00     0.046 C 
ATOM     13  C   UNL A   1      29.879  30.222  23.873  1.00  0.00    -0.026 A 
ATOM     14  C   UNL A   1      29.263  29.460  22.862  1.00  0.00     0.045 A 
ATOM     15  C   UNL A   1      30.996  29.669  24.558  1.00  0.00    -0.004 A 
ATOM     16  Cl  UNL A   1      27.908  30.038  21.952  1.00  0.00    -0.084 Cl
ATOM     17  C   UNL A   1      29.745  28.195  22.520  1.00  0.00     0.032 A 
ATOM     18  C   UNL A   1      31.475  28.393  24.192  1.00  0.00     0.131 A 
ATOM     19  C   UNL A   1      31.686  30.391  25.691  1.00  0.00     0.049 C 
ATOM     20  C   UNL A   1      30.862  27.670  23.167  1.00  0.00     0.019 A 
ATOM     21  O   UNL A   1      32.613  27.948  24.819  1.00  0.00    -0.475 OA
ATOM     22  C   UNL A   1      31.458  26.428  22.706  1.00  0.00     0.027 C 
ATOM     23  C   UNL A   1      32.969  26.537  24.698  1.00  0.00     0.316 C 
BRANCH  23  24
ATOM     24  C   UNL A   1      32.609  25.830  26.018  1.00  0.00     0.430 C 
ATOM     25  F   UNL A   1      32.427  26.697  27.037  1.00  0.00    -0.167 F 
ATOM     26  F   UNL A   1      31.513  25.050  25.905  1.00  0.00    -0.167 F 
ATOM     27  F   UNL A   1      33.618  24.993  26.389  1.00  0.00    -0.167 F 
ENDBRANCH  23  24
ENDBRANCH   9  11
ENDBRANCH   8   9
ENDBRANCH   7   8
ENDBRANCH   6   7
ENDBRANCH   5   6
ENDBRANCH   4   5
ENDBRANCH   3   4
ENDBRANCH   2   3
ENDBRANCH   1   2
BRANCH   1  28
ATOM     28  C   UNL A   1      40.696  20.871  26.506  1.00  0.00     0.188 C 
BRANCH  28  29
ATOM     29  O   UNL A   1      41.759  21.238  25.639  1.00  0.00    -0.376 OA
BRANCH  29  30
ATOM     30  C   UNL A   1      42.974  20.515  25.786  1.00  0.00     0.202 C 
BRANCH  30  31
ATOM     31  C   UNL A   1      44.249  21.334  25.554  1.00  0.00     0.261 C 
BRANCH  31  32
ATOM     32  O   UNL A   1      44.318  22.582  26.267  1.00  0.00    -0.460 OA
BRANCH  32  33
ATOM     33  C   UNL A   1      44.210  23.724  25.559  1.00  0.00     0.338 C 
ATOM     34  O   UNL A   1      44.512  23.919  24.395  1.00  0.00    -0.246 OA
BRANCH  33  35
ATOM     35  C   UNL A   1      43.491  24.695  26.402  1.00  0.00     0.060 A 
ATOM     36  C   UNL A   1      43.851  26.047  26.349  1.00  0.00     0.016 A 
ATOM     37  C   UNL A   1      42.475  24.256  27.251  1.00  0.00     0.016 A 
ATOM     38  C   UNL A   1      43.210  26.966  27.178  1.00  0.00     0.010 A 
ATOM     39  C   UNL A   1      41.851  25.172  28.097  1.00  0.00     0.010 A 
ATOM     40  C   UNL A   1      42.239  26.522  28.086  1.00  0.00    -0.014 A 
BRANCH  40  41
ATOM     41  C   UNL A   1      41.783  27.421  29.169  1.00  0.00     0.031 A 
ATOM     42  C   UNL A   1      42.543  27.404  30.467  1.00  0.00     0.074 A 
ATOM     43  C   UNL A   1      40.735  28.245  29.002  1.00  0.00     0.049 A 
ATOM     44  N   UNL A   1      42.306  28.059  31.573  1.00  0.00    -0.248 NA
ATOM     45  C   UNL A   1      43.731  26.534  30.522  1.00  0.00     0.031 C 
ATOM     46  C   UNL A   1      39.960  28.395  27.771  1.00  0.00     0.029 A 
ATOM     47  N   UNL A   1      40.145  29.118  29.882  1.00  0.00    -0.354 N 
ATOM     48  C   UNL A   1      43.315  27.683  32.452  1.00  0.00     0.074 A 
ATOM     49  C   UNL A   1      44.147  26.721  31.766  1.00  0.00     0.031 C 
ATOM     50  C   UNL A   1      38.993  29.308  27.975  1.00  0.00     0.029 A 
ATOM     51  C   UNL A   1      39.060  29.777  29.359  1.00  0.00     0.049 A 
ATOM     52  H   UNL A   1      40.469  29.257  30.801  1.00  0.00     0.167 HD
ATOM     53  C   UNL A   1      43.534  28.112  33.715  1.00  0.00     0.031 A 
ATOM     54  C   UNL A   1      38.210  30.646  29.940  1.00  0.00     0.031 A 
ATOM     55  C   UNL A   1      42.698  29.055  34.403  1.00  0.00     0.049 A 
ATOM     56  C   UNL A   1      38.413  31.020  31.387  1.00  0.00     0.074 A 
ATOM     57  C   UNL A   1      42.830  29.541  35.691  1.00  0.00     0.029 A 
ATOM     58  N   UNL A   1      41.571  29.650  33.860  1.00  0.00    -0.354 N 
ATOM     59  N   UNL A   1      39.372  30.663  32.207  1.00  0.00    -0.248 NA
ATOM     60  C   UNL A   1      37.414  31.918  31.987  1.00  0.00     0.031 C 
ATOM     61  C   UNL A   1      41.753  30.394  35.946  1.00  0.00     0.029 A 
ATOM     62  C   UNL A   1      40.985  30.484  34.796  1.00  0.00     0.049 A 
ATOM     63  H   UNL A   1      41.238  29.503  32.946  1.00  0.00     0.167 HD
ATOM     64  C   UNL A   1      39.108  31.314  33.406  1.00  0.00     0.074 A 
ATOM     65  C   UNL A   1      37.909  32.098  33.204  1.00  0.00     0.031 C 
ATOM     66  C   UNL A   1      39.797  31.264  34.573  1.00  0.00     0.031 A 
BRANCH  53  67
ATOM     67  C   UNL A   1      44.722  27.556  34.446  1.00  0.00    -0.014 A 
ATOM     68  C   UNL A   1      45.989  28.146  34.316  1.00  0.00     0.009 A 
ATOM     69  C   UNL A   1      44.558  26.477  35.327  1.00  0.00     0.009 A 
ATOM     70  C   UNL A   1      47.072  27.659  35.051  1.00  0.00     0.001 A 
ATOM     71  C   UNL A   1      45.638  26.008  36.078  1.00  0.00     0.001 A 
ATOM     72  C   UNL A   1      46.893  26.597  35.936  1.00  0.00     0.000 A 
ENDBRANCH  53  67
BRANCH  54  73
ATOM     73  C   UNL A   1      37.075  31.219  29.168  1.00  0.00    -0.014 A 
ATOM     74  C   UNL A   1      37.100  32.560  28.754  1.00  0.00     0.009 A 
ATOM     75  C   UNL A   1      35.947  30.440  28.867  1.00  0.00     0.009 A 
ATOM     76  C   UNL A   1      36.010  33.113  28.077  1.00  0.00     0.001 A 
ATOM     77  C   UNL A   1      34.872  30.988  28.164  1.00  0.00     0.001 A 
ATOM     78  C   UNL A   1      34.899  32.326  27.779  1.00  0.00     0.000 A 
ENDBRANCH  54  73
BRANCH  66  79
ATOM     79  C   UNL A   1      39.298  32.102  35.717  1.00  0.00    -0.014 A 
ATOM     80  C   UNL A   1      39.818  33.383  35.960  1.00  0.00     0.009 A 
ATOM     81  C   UNL A   1      38.232  31.638  36.504  1.00  0.00     0.009 A 
ATOM     82  C   UNL A   1      39.293  34.173  36.984  1.00  0.00     0.001 A 
ATOM     83  C   UNL A   1      37.690  32.443  37.507  1.00  0.00     0.001 A 
ATOM     84  C   UNL A   1      38.225  33.707  37.750  1.00  0.00     0.000 A 
ENDBRANCH  66  79
ENDBRANCH  40  41
ENDBRANCH  33  35
ENDBRANCH  32  33
ENDBRANCH  31  32
ENDBRANCH  30  31
ENDBRANCH  29  30
ENDBRANCH  28  29
ENDBRANCH   1  28
TORSDOF 21
ENDMDL
MODEL 2
REMARK VINA RESULT:     -10.0      4.304      9.500
REMARK SMILES Cc1c(Cl)cc2c(c1C)O[C@@H](C(F)(F)F)C(C(=O)OCCOCCOCCOCCOC(=O)c1ccc(-c3c4nc(c(-c5ccccc5)c5ccc([nH]5)c(-c5ccccc5)c5nc(c(-c6ccccc6)c6ccc3[nH]6)C=C5)C=C4)cc1)=C2
REMARK SMILES IDX 26 1 25 2 24 3 23 4 22 5 21 6 20 7 19 8 17 9 18 10 16 11
REMARK SMILES IDX 1 12 2 13 3 14 8 15 4 16 5 17 7 18 9 19 6 20 10 21 82 22
REMARK SMILES IDX 11 23 12 24 13 25 14 26 15 27 27 28 28 29 29 30 30 31 31 32
REMARK SMILES IDX 32 33 33 34 34 35 35 36 81 37 36 38 80 39 37 40 38 41 39 42
REMARK SMILES IDX 74 43 40 44 79 45 73 46 75 47 41 48 78 49 72 50 71 51 42 53
REMARK SMILES IDX 64 54 49 55 63 56 50 57 53 58 62 59 76 60 51 61 52 62 61 64
REMARK SMILES IDX 77 65 54 66 43 67 44 68 48 69 45 70 47 71 46 72 65 73 66 74
REMARK SMILES IDX 70 75 67 76 69 77 68 78 55 79 56 80 60 81 57 82 59 83 58 84
REMARK H PARENT 75 52 53 63
REMARK Flexibility Score: inf
ROOT
ATOM      1  C   UNL A   1      32.757  31.051  27.086  1.00  0.00     0.188 C 
ENDROOT
BRANCH   1   2
ATOM      2  O   UNL A   1      32.031  29.836  27.271  1.00  0.00    -0.377 OA
BRANCH   2   3
ATOM      3  C   UNL A   1      32.196  28.769  26.349  1.00  0.00     0.188 C 
BRANCH   3   4
ATOM      4  C   UNL A   1      31.325  28.783  25.082  1.00  0.00     0.188 C 
BRANCH   4   5
ATOM      5  O   UNL A   1      31.933  29.488  24.015  1.00  0.00    -0.376 OA
BRANCH   5   6
ATOM      6  C   UNL A   1      32.198  28.804  22.806  1.00  0.00     0.202 C 
BRANCH   6   7
ATOM      7  C   UNL A   1      33.554  28.110  22.579  1.00  0.00     0.261 C 
BRANCH   7   8
ATOM      8  O   UNL A   1      33.681  26.774  23.079  1.00  0.00    -0.460 OA
BRANCH   8   9
ATOM      9  C   UNL A   1      33.410  25.775  22.221  1.00  0.00     0.338 C 
ATOM     10  O   UNL A   1      33.319  25.870  21.008  1.00  0.00    -0.246 OA
BRANCH   9  11
ATOM     11  C   UNL A   1      33.380  24.492  22.944  1.00  0.00     0.087 C 
ATOM     12  C   UNL A   1      34.810  18.470  24.980  1.00  0.00     0.046 C 
ATOM     13  C   UNL A   1      34.734  19.936  24.634  1.00  0.00    -0.026 A 
ATOM     14  C   UNL A   1      35.878  20.757  24.660  1.00  0.00     0.045 A 
ATOM     15  C   UNL A   1      33.500  20.501  24.211  1.00  0.00    -0.004 A 
ATOM     16  Cl  UNL A   1      37.435  20.173  25.143  1.00  0.00    -0.084 Cl
ATOM     17  C   UNL A   1      35.813  22.094  24.262  1.00  0.00     0.032 A 
ATOM     18  C   UNL A   1      33.455  21.851  23.802  1.00  0.00     0.131 A 
ATOM     19  C   UNL A   1      32.212  19.711  24.201  1.00  0.00     0.049 C 
ATOM     20  C   UNL A   1      34.610  22.636  23.813  1.00  0.00     0.019 A 
ATOM     21  O   UNL A   1      32.261  22.319  23.313  1.00  0.00    -0.475 OA
ATOM     22  C   UNL A   1      34.576  23.975  23.251  1.00  0.00     0.027 C 
ATOM     23  C   UNL A   1      32.085  23.761  23.165  1.00  0.00     0.316 C 
BRANCH  23  24
ATOM     24  C   UNL A   1      31.195  24.262  24.317  1.00  0.00     0.430 C 
ATOM     25  F   UNL A   1      30.623  23.253  25.008  1.00  0.00    -0.167 F 
ATOM     26  F   UNL A   1      31.865  25.058  25.178  1.00  0.00    -0.167 F 
ATOM     27  F   UNL A   1      30.181  25.027  23.825  1.00  0.00    -0.167 F 
ENDBRANCH  23  24
ENDBRANCH   9  11
ENDBRANCH   8   9
ENDBRANCH   7   8
ENDBRANCH   6   7
ENDBRANCH   5   6
ENDBRANCH   4   5
ENDBRANCH   3   4
ENDBRANCH   2   3
ENDBRANCH   1   2
BRANCH   1  28
ATOM     28  C   UNL A   1      34.056  31.341  27.874  1.00  0.00     0.188 C 
BRANCH  28  29
ATOM     29  O   UNL A   1      34.630  32.619  27.648  1.00  0.00    -0.376 OA
BRANCH  29  30
ATOM     30  C   UNL A   1      34.058  33.706  28.364  1.00  0.00     0.202 C 
BRANCH  30  31
ATOM     31  C   UNL A   1      34.394  33.745  29.859  1.00  0.00     0.261 C 
BRANCH  31  32
ATOM     32  O   UNL A   1      35.729  33.331  30.202  1.00  0.00    -0.460 OA
BRANCH  32  33
ATOM     33  C   UNL A   1      35.875  32.379  31.146  1.00  0.00     0.338 C 
ATOM     34  O   UNL A   1      35.176  32.175  32.122  1.00  0.00    -0.246 OA
BRANCH  33  35
ATOM     35  C   UNL A   1      36.963  31.490  30.705  1.00  0.00     0.060 A 
ATOM     36  C   UNL A   1      37.553  30.618  31.629  1.00  0.00     0.016 A 
ATOM     37  C   UNL A   1      37.403  31.537  29.382  1.00  0.00     0.016 A 
ATOM     38  C   UNL A   1      38.615  29.807  31.234  1.00  0.00     0.010 A 
ATOM     39  C   UNL A   1      38.481  30.743  28.994  1.00  0.00     0.010 A 
ATOM     40  C   UNL A   1      39.111  29.901  29.926  1.00  0.00    -0.014 A 
BRANCH  40  41
ATOM     41  C   UNL A   1      40.413  29.285  29.590  1.00  0.00     0.031 A 
ATOM     42  C   UNL A   1      41.648  30.135  29.714  1.00  0.00     0.074 A 
ATOM     43  C   UNL A   1      40.503  28.002  29.203  1.00  0.00     0.049 A 
ATOM     44  N   UNL A   1      42.889  29.838  29.430  1.00  0.00    -0.248 NA
ATOM     45  C   UNL A   1      41.458  31.501  30.234  1.00  0.00     0.031 C 
ATOM     46  C   UNL A   1      39.386  27.064  29.104  1.00  0.00     0.029 A 
ATOM     47  N   UNL A   1      41.598  27.266  28.821  1.00  0.00    -0.354 N 
ATOM     48  C   UNL A   1      43.625  30.976  29.738  1.00  0.00     0.074 A 
ATOM     49  C   UNL A   1      42.693  31.979  30.200  1.00  0.00     0.031 C 
ATOM     50  C   UNL A   1      39.855  25.874  28.688  1.00  0.00     0.029 A 
ATOM     51  C   UNL A   1      41.295  25.978  28.457  1.00  0.00     0.049 A 
ATOM     52  H   UNL A   1      42.513  27.629  28.810  1.00  0.00     0.167 HD
ATOM     53  C   UNL A   1      44.961  31.164  29.654  1.00  0.00     0.031 A 
ATOM     54  C   UNL A   1      42.090  25.003  27.975  1.00  0.00     0.031 A 
ATOM     55  C   UNL A   1      45.886  30.174  29.179  1.00  0.00     0.049 A 
ATOM     56  C   UNL A   1      43.561  25.278  27.784  1.00  0.00     0.074 A 
ATOM     57  C   UNL A   1      47.258  30.275  29.044  1.00  0.00     0.029 A 
ATOM     58  N   UNL A   1      45.530  28.903  28.758  1.00  0.00    -0.354 N 
ATOM     59  N   UNL A   1      44.246  26.355  28.082  1.00  0.00    -0.248 NA
ATOM     60  C   UNL A   1      44.366  24.200  27.190  1.00  0.00     0.031 C 
ATOM     61  C   UNL A   1      47.729  29.080  28.492  1.00  0.00     0.029 A 
ATOM     62  C   UNL A   1      46.656  28.216  28.341  1.00  0.00     0.049 A 
ATOM     63  H   UNL A   1      44.614  28.542  28.757  1.00  0.00     0.167 HD
ATOM     64  C   UNL A   1      45.564  26.074  27.740  1.00  0.00     0.074 A 
ATOM     65  C   UNL A   1      45.585  24.721  27.226  1.00  0.00     0.031 C 
ATOM     66  C   UNL A   1      46.659  26.866  27.841  1.00  0.00     0.031 A 
BRANCH  53  67
ATOM     67  C   UNL A   1      45.507  32.498  30.074  1.00  0.00    -0.014 A 
ATOM     68  C   UNL A   1      45.458  33.602  29.208  1.00  0.00     0.009 A 
ATOM     69  C   UNL A   1      46.008  32.671  31.373  1.00  0.00     0.009 A 
ATOM     70  C   UNL A   1      45.910  34.852  29.634  1.00  0.00     0.001 A 
ATOM     71  C   UNL A   1      46.436  33.928  31.803  1.00  0.00     0.001 A 
ATOM     72  C   UNL A   1      46.391  35.016  30.933  1.00  0.00     0.000 A 
ENDBRANCH  53  67
BRANCH  54  73
ATOM     73  C   UNL A   1      41.522  23.674  27.621  1.00  0.00    -0.014 A 
ATOM     74  C   UNL A   1      40.701  23.528  26.492  1.00  0.00     0.009 A 
ATOM     75  C   UNL A   1      41.770  22.552  28.426  1.00  0.00     0.009 A 
ATOM     76  C   UNL A   1      40.122  22.292  26.192  1.00  0.00     0.001 A 
ATOM     77  C   UNL A   1      41.214  21.311  28.106  1.00  0.00     0.001 A 
ATOM     78  C   UNL A   1      40.382  21.184  26.996  1.00  0.00     0.000 A 
ENDBRANCH  54  73
BRANCH  66  79
ATOM     79  C   UNL A   1      47.982  26.290  27.420  1.00  0.00    -0.014 A 
ATOM     80  C   UNL A   1      48.494  26.512  26.133  1.00  0.00     0.009 A 
ATOM     81  C   UNL A   1      48.764  25.593  28.355  1.00  0.00     0.009 A 
ATOM     82  C   UNL A   1      49.756  26.028  25.784  1.00  0.00     0.001 A 
ATOM     83  C   UNL A   1      50.038  25.137  28.011  1.00  0.00     0.001 A 
ATOM     84  C   UNL A   1      50.530  25.350  26.725  1.00  0.00     0.000 A 
ENDBRANCH  66  79
ENDBRANCH  40  41
ENDBRANCH  33  35
ENDBRANCH  32  33
ENDBRANCH  31  32
ENDBRANCH  30  31
ENDBRANCH  29  30
ENDBRANCH  28  29
ENDBRANCH   1  28
TORSDOF 21
ENDMDL
MODEL 3
REMARK VINA RESULT:      -9.9      1.670      2.857
REMARK SMILES Cc1c(Cl)cc2c(c1C)O[C@@H](C(F)(F)F)C(C(=O)OCCOCCOCCOCCOC(=O)c1ccc(-c3c4nc(c(-c5ccccc5)c5ccc([nH]5)c(-c5ccccc5)c5nc(c(-c6ccccc6)c6ccc3[nH]6)C=C5)C=C4)cc1)=C2
REMARK SMILES IDX 26 1 25 2 24 3 23 4 22 5 21 6 20 7 19 8 17 9 18 10 16 11
REMARK SMILES IDX 1 12 2 13 3 14 8 15 4 16 5 17 7 18 9 19 6 20 10 21 82 22
REMARK SMILES IDX 11 23 12 24 13 25 14 26 15 27 27 28 28 29 29 30 30 31 31 32
REMARK SMILES IDX 32 33 33 34 34 35 35 36 81 37 36 38 80 39 37 40 38 41 39 42
REMARK SMILES IDX 74 43 40 44 79 45 73 46 75 47 41 48 78 49 72 50 71 51 42 53
REMARK SMILES IDX 64 54 49 55 63 56 50 57 53 58 62 59 76 60 51 61 52 62 61 64
REMARK SMILES IDX 77 65 54 66 43 67 44 68 48 69 45 70 47 71 46 72 65 73 66 74
REMARK SMILES IDX 70 75 67 76 69 77 68 78 55 79 56 80 60 81 57 82 59 83 58 84
REMARK H PARENT 75 52 53 63
REMARK Flexibility Score: inf
ROOT
ATOM      1  C   UNL A   1      42.443  19.012  25.887  1.00  0.00     0.188 C 
ENDROOT
BRANCH   1   2
ATOM      2  O   UNL A   1      41.756  19.746  26.901  1.00  0.00    -0.377 OA
BRANCH   2   3
ATOM      3  C   UNL A   1      40.465  20.274  26.636  1.00  0.00     0.188 C 
BRANCH   3   4
ATOM      4  C   UNL A   1      40.353  21.788  26.391  1.00  0.00     0.188 C 
BRANCH   4   5
ATOM      5  O   UNL A   1      39.162  22.138  25.709  1.00  0.00    -0.376 OA
BRANCH   5   6
ATOM      6  C   UNL A   1      38.146  21.165  25.563  1.00  0.00     0.202 C 
BRANCH   6   7
ATOM      7  C   UNL A   1      36.710  21.581  25.192  1.00  0.00     0.261 C 
BRANCH   7   8
ATOM      8  O   UNL A   1      36.156  22.684  25.918  1.00  0.00    -0.460 OA
BRANCH   8   9
ATOM      9  C   UNL A   1      34.886  22.558  26.339  1.00  0.00     0.338 C 
ATOM     10  O   UNL A   1      34.500  21.883  27.278  1.00  0.00    -0.246 OA
BRANCH   9  11
ATOM     11  C   UNL A   1      34.018  23.480  25.584  1.00  0.00     0.087 C 
ATOM     12  C   UNL A   1      30.310  28.580  23.940  1.00  0.00     0.046 C 
ATOM     13  C   UNL A   1      31.386  27.594  24.321  1.00  0.00    -0.026 A 
ATOM     14  C   UNL A   1      32.624  28.023  24.839  1.00  0.00     0.045 A 
ATOM     15  C   UNL A   1      31.138  26.198  24.218  1.00  0.00    -0.004 A 
ATOM     16  Cl  UNL A   1      33.030  29.696  25.024  1.00  0.00    -0.084 Cl
ATOM     17  C   UNL A   1      33.584  27.101  25.262  1.00  0.00     0.032 A 
ATOM     18  C   UNL A   1      32.116  25.282  24.661  1.00  0.00     0.131 A 
ATOM     19  C   UNL A   1      29.862  25.646  23.626  1.00  0.00     0.049 C 
ATOM     20  C   UNL A   1      33.324  25.734  25.195  1.00  0.00     0.019 A 
ATOM     21  O   UNL A   1      31.787  23.949  24.628  1.00  0.00    -0.475 OA
ATOM     22  C   UNL A   1      34.254  24.783  25.779  1.00  0.00     0.027 C 
ATOM     23  C   UNL A   1      32.853  22.964  24.785  1.00  0.00     0.316 C 
BRANCH  23  24
ATOM     24  C   UNL A   1      33.174  22.368  23.402  1.00  0.00     0.430 C 
ATOM     25  F   UNL A   1      33.081  21.021  23.382  1.00  0.00    -0.167 F 
ATOM     26  F   UNL A   1      32.389  22.875  22.427  1.00  0.00    -0.167 F 
ATOM     27  F   UNL A   1      34.450  22.680  23.044  1.00  0.00    -0.167 F 
ENDBRANCH  23  24
ENDBRANCH   9  11
ENDBRANCH   8   9
ENDBRANCH   7   8
ENDBRANCH   6   7
ENDBRANCH   5   6
ENDBRANCH   4   5
ENDBRANCH   3   4
ENDBRANCH   2   3
ENDBRANCH   1   2
BRANCH   1  28
ATOM     28  C   UNL A   1      43.900  18.532  26.087  1.00  0.00     0.188 C 
BRANCH  28  29
ATOM     29  O   UNL A   1      44.817  18.946  25.086  1.00  0.00    -0.376 OA
BRANCH  29  30
ATOM     30  C   UNL A   1      44.621  20.246  24.546  1.00  0.00     0.202 C 
BRANCH  30  31
ATOM     31  C   UNL A   1      45.174  21.393  25.401  1.00  0.00     0.261 C 
BRANCH  31  32
ATOM     32  O   UNL A   1      44.189  22.147  26.130  1.00  0.00    -0.460 OA
BRANCH  32  33
ATOM     33  C   UNL A   1      43.740  23.297  25.587  1.00  0.00     0.338 C 
ATOM     34  O   UNL A   1      43.442  23.513  24.426  1.00  0.00    -0.246 OA
BRANCH  33  35
ATOM     35  C   UNL A   1      43.505  24.240  26.693  1.00  0.00     0.060 A 
ATOM     36  C   UNL A   1      42.982  23.763  27.901  1.00  0.00     0.016 A 
ATOM     37  C   UNL A   1      43.789  25.595  26.519  1.00  0.00     0.016 A 
ATOM     38  C   UNL A   1      42.710  24.655  28.937  1.00  0.00     0.010 A 
ATOM     39  C   UNL A   1      43.495  26.490  27.547  1.00  0.00     0.010 A 
ATOM     40  C   UNL A   1      42.924  26.027  28.745  1.00  0.00    -0.014 A 
BRANCH  40  41
ATOM     41  C   UNL A   1      42.357  26.999  29.706  1.00  0.00     0.031 A 
ATOM     42  C   UNL A   1      43.090  27.221  31.001  1.00  0.00     0.074 A 
ATOM     43  C   UNL A   1      41.234  27.683  29.431  1.00  0.00     0.049 A 
ATOM     44  N   UNL A   1      42.766  27.978  32.016  1.00  0.00    -0.248 NA
ATOM     45  C   UNL A   1      44.360  26.493  31.171  1.00  0.00     0.031 C 
ATOM     46  C   UNL A   1      40.471  27.599  28.186  1.00  0.00     0.029 A 
ATOM     47  N   UNL A   1      40.540  28.591  30.192  1.00  0.00    -0.354 N 
ATOM     48  C   UNL A   1      43.791  27.820  32.941  1.00  0.00     0.074 A 
ATOM     49  C   UNL A   1      44.730  26.874  32.385  1.00  0.00     0.031 C 
ATOM     50  C   UNL A   1      39.412  28.425  28.270  1.00  0.00     0.029 A 
ATOM     51  C   UNL A   1      39.404  29.064  29.585  1.00  0.00     0.049 A 
ATOM     52  H   UNL A   1      40.831  28.875  31.089  1.00  0.00     0.167 HD
ATOM     53  C   UNL A   1      43.941  28.421  34.143  1.00  0.00     0.031 A 
ATOM     54  C   UNL A   1      38.458  29.905  30.049  1.00  0.00     0.031 A 
ATOM     55  C   UNL A   1      42.999  29.349  34.703  1.00  0.00     0.049 A 
ATOM     56  C   UNL A   1      38.594  30.472  31.439  1.00  0.00     0.074 A 
ATOM     57  C   UNL A   1      43.056  30.000  35.922  1.00  0.00     0.029 A 
ATOM     58  N   UNL A   1      41.828  29.753  34.083  1.00  0.00    -0.354 N 
ATOM     59  N   UNL A   1      39.568  30.320  32.303  1.00  0.00    -0.248 NA
ATOM     60  C   UNL A   1      37.497  31.328  31.917  1.00  0.00     0.031 C 
ATOM     61  C   UNL A   1      41.892  30.761  36.062  1.00  0.00     0.029 A 
ATOM     62  C   UNL A   1      41.141  30.629  34.904  1.00  0.00     0.049 A 
ATOM     63  H   UNL A   1      41.529  29.460  33.192  1.00  0.00     0.167 HD
ATOM     64  C   UNL A   1      39.216  31.082  33.411  1.00  0.00     0.074 A 
ATOM     65  C   UNL A   1      37.947  31.706  33.106  1.00  0.00     0.031 C 
ATOM     66  C   UNL A   1      39.883  31.248  34.579  1.00  0.00     0.031 A 
BRANCH  53  67
ATOM     67  C   UNL A   1      45.165  28.085  34.944  1.00  0.00    -0.014 A 
ATOM     68  C   UNL A   1      46.267  28.955  34.975  1.00  0.00     0.009 A 
ATOM     69  C   UNL A   1      45.188  26.926  35.733  1.00  0.00     0.009 A 
ATOM     70  C   UNL A   1      47.373  28.662  35.775  1.00  0.00     0.001 A 
ATOM     71  C   UNL A   1      46.285  26.649  36.550  1.00  0.00     0.001 A 
ATOM     72  C   UNL A   1      47.377  27.515  36.567  1.00  0.00     0.000 A 
ENDBRANCH  53  67
BRANCH  54  73
ATOM     73  C   UNL A   1      37.286  30.258  29.204  1.00  0.00    -0.014 A 
ATOM     74  C   UNL A   1      36.367  29.272  28.811  1.00  0.00     0.009 A 
ATOM     75  C   UNL A   1      37.095  31.574  28.757  1.00  0.00     0.009 A 
ATOM     76  C   UNL A   1      35.297  29.594  27.972  1.00  0.00     0.001 A 
ATOM     77  C   UNL A   1      36.008  31.899  27.943  1.00  0.00     0.001 A 
ATOM     78  C   UNL A   1      35.116  30.907  27.542  1.00  0.00     0.000 A 
ENDBRANCH  54  73
BRANCH  66  79
ATOM     79  C   UNL A   1      39.280  32.163  35.607  1.00  0.00    -0.014 A 
ATOM     80  C   UNL A   1      38.391  31.679  36.578  1.00  0.00     0.009 A 
ATOM     81  C   UNL A   1      39.678  33.509  35.657  1.00  0.00     0.009 A 
ATOM     82  C   UNL A   1      37.896  32.531  37.568  1.00  0.00     0.001 A 
ATOM     83  C   UNL A   1      39.204  34.350  36.665  1.00  0.00     0.001 A 
ATOM     84  C   UNL A   1      38.309  33.862  37.616  1.00  0.00     0.000 A 
ENDBRANCH  66  79
ENDBRANCH  40  41
ENDBRANCH  33  35
ENDBRANCH  32  33
ENDBRANCH  31  32
ENDBRANCH  30  31
ENDBRANCH  29  30
ENDBRANCH  28  29
ENDBRANCH   1  28
TORSDOF 21
ENDMDL
