MODEL 1
REMARK VINA RESULT:      -9.5      0.000      0.000
REMARK SMILES CNC(=O)C[N@@H+](C)CCn1cc(C(=O)OCCOCCOCCOCCOC(=O)c2ccc(-c3c4nc(c(-c5ccccc5)c5ccc([nH]5)c(-c5ccccc5)c5nc(c(-c6ccccc6)c6ccc3[nH]6)C=C5)C=C4)cc2)nn1
REMARK SMILES IDX 19 1 18 2 17 3 16 4 15 5 13 6 14 7 12 8 10 9 11 10 79 11
REMARK SMILES IDX 78 12 9 13 8 14 6 15 7 16 5 18 3 19 1 20 2 21 4 23 20 24
REMARK SMILES IDX 21 25 22 26 23 27 24 28 25 29 26 30 27 31 28 32 29 33 30 34
REMARK SMILES IDX 31 35 77 36 32 37 76 38 33 39 34 40 35 41 70 42 36 43 75 44
REMARK SMILES IDX 69 45 71 46 37 47 74 48 68 49 67 50 38 52 60 53 45 54 59 55
REMARK SMILES IDX 46 56 49 57 58 58 72 59 47 60 48 61 57 63 73 64 50 65 39 66
REMARK SMILES IDX 40 67 44 68 41 69 43 70 42 71 61 72 62 73 66 74 63 75 65 76
REMARK SMILES IDX 64 77 51 78 52 79 56 80 53 81 55 82 54 83
REMARK H PARENT 6 17 2 22 71 51 49 62
REMARK Flexibility Score: inf
ROOT
ATOM      1  C   UNL A   1      31.415  29.100  25.491  1.00  0.00     0.188 C 
ENDROOT
BRANCH   1   2
ATOM      2  O   UNL A   1      30.719  29.494  24.330  1.00  0.00    -0.376 OA
BRANCH   2   3
ATOM      3  C   UNL A   1      30.953  28.929  23.065  1.00  0.00     0.202 C 
BRANCH   3   4
ATOM      4  C   UNL A   1      32.327  28.413  22.611  1.00  0.00     0.261 C 
BRANCH   4   5
ATOM      5  O   UNL A   1      32.859  27.290  23.308  1.00  0.00    -0.458 OA
BRANCH   5   6
ATOM      6  C   UNL A   1      33.262  26.240  22.536  1.00  0.00     0.360 C 
ATOM      7  O   UNL A   1      33.811  26.353  21.444  1.00  0.00    -0.244 OA
BRANCH   6   8
ATOM      8  C   UNL A   1      33.150  25.002  23.277  1.00  0.00     0.190 A 
ATOM      9  N   UNL A   1      32.584  23.115  24.130  1.00  0.00    -0.246 N 
ATOM     10  C   UNL A   1      32.238  23.975  23.132  1.00  0.00     0.147 A 
ATOM     11  N   UNL A   1      33.416  23.693  25.007  1.00  0.00    -0.066 NA
ATOM     12  N   UNL A   1      33.895  24.775  24.415  1.00  0.00    -0.123 NA
BRANCH   9  13
ATOM     13  C   UNL A   1      32.237  21.727  24.290  1.00  0.00     0.207 C 
BRANCH  13  14
ATOM     14  C   UNL A   1      32.754  21.123  25.614  1.00  0.00     0.286 C 
BRANCH  14  15
ATOM     15  N   UNL A   1      33.957  20.261  25.661  1.00  0.00    -0.328 N 
ATOM     16  C   UNL A   1      35.194  21.031  25.543  1.00  0.00     0.333 C 
ATOM     17  H   UNL A   1      33.898  19.840  26.588  1.00  0.00     0.348 HD
BRANCH  15  18
ATOM     18  C   UNL A   1      33.978  19.126  24.707  1.00  0.00     0.363 C 
BRANCH  18  19
ATOM     19  C   UNL A   1      32.737  18.234  24.823  1.00  0.00     0.274 C 
ATOM     20  C   UNL A   1      32.403  18.110  22.326  1.00  0.00     0.143 C 
ATOM     21  N   UNL A   1      32.054  17.875  23.701  1.00  0.00    -0.354 N 
ATOM     22  H   UNL A   1      31.209  17.391  23.851  1.00  0.00     0.163 HD
ATOM     23  O   UNL A   1      32.333  17.783  25.896  1.00  0.00    -0.269 OA
ENDBRANCH  18  19
ENDBRANCH  15  18
ENDBRANCH  14  15
ENDBRANCH  13  14
ENDBRANCH   9  13
ENDBRANCH   6   8
ENDBRANCH   5   6
ENDBRANCH   4   5
ENDBRANCH   3   4
ENDBRANCH   2   3
ENDBRANCH   1   2
BRANCH   1  24
ATOM     24  C   UNL A   1      31.965  30.278  26.337  1.00  0.00     0.188 C 
BRANCH  24  25
ATOM     25  O   UNL A   1      33.354  30.569  26.414  1.00  0.00    -0.377 OA
BRANCH  25  26
ATOM     26  C   UNL A   1      33.931  30.983  27.641  1.00  0.00     0.188 C 
BRANCH  26  27
ATOM     27  C   UNL A   1      34.537  32.398  27.831  1.00  0.00     0.188 C 
BRANCH  27  28
ATOM     28  O   UNL A   1      33.725  33.348  28.497  1.00  0.00    -0.376 OA
BRANCH  28  29
ATOM     29  C   UNL A   1      34.203  34.489  29.176  1.00  0.00     0.202 C 
BRANCH  29  30
ATOM     30  C   UNL A   1      33.256  35.415  29.929  1.00  0.00     0.261 C 
BRANCH  30  31
ATOM     31  O   UNL A   1      33.722  35.783  31.206  1.00  0.00    -0.460 OA
BRANCH  31  32
ATOM     32  C   UNL A   1      33.105  35.153  32.215  1.00  0.00     0.338 C 
ATOM     33  O   UNL A   1      31.905  35.141  32.466  1.00  0.00    -0.246 OA
BRANCH  32  34
ATOM     34  C   UNL A   1      34.134  34.557  33.063  1.00  0.00     0.060 A 
ATOM     35  C   UNL A   1      35.241  35.368  33.307  1.00  0.00     0.016 A 
ATOM     36  C   UNL A   1      34.194  33.157  33.069  1.00  0.00     0.016 A 
ATOM     37  C   UNL A   1      36.474  34.787  33.181  1.00  0.00     0.010 A 
ATOM     38  C   UNL A   1      35.420  32.589  32.886  1.00  0.00     0.010 A 
ATOM     39  C   UNL A   1      36.526  33.433  32.837  1.00  0.00    -0.014 A 
BRANCH  39  40
ATOM     40  C   UNL A   1      37.808  32.852  32.534  1.00  0.00     0.031 A 
ATOM     41  C   UNL A   1      38.655  32.822  33.737  1.00  0.00     0.074 A 
ATOM     42  C   UNL A   1      38.087  32.325  31.329  1.00  0.00     0.049 A 
ATOM     43  N   UNL A   1      39.641  33.609  34.008  1.00  0.00    -0.248 NA
ATOM     44  C   UNL A   1      38.188  32.015  34.881  1.00  0.00     0.031 C 
ATOM     45  C   UNL A   1      37.178  32.107  30.198  1.00  0.00     0.029 A 
ATOM     46  N   UNL A   1      39.244  31.760  30.901  1.00  0.00    -0.354 N 
ATOM     47  C   UNL A   1      40.069  33.213  35.267  1.00  0.00     0.074 A 
ATOM     48  C   UNL A   1      38.990  32.461  35.847  1.00  0.00     0.031 C 
ATOM     49  C   UNL A   1      37.756  31.251  29.321  1.00  0.00     0.029 A 
ATOM     50  C   UNL A   1      39.111  30.970  29.765  1.00  0.00     0.049 A 
ATOM     51  H   UNL A   1      40.106  31.899  31.357  1.00  0.00     0.167 HD
ATOM     52  C   UNL A   1      41.397  33.185  35.558  1.00  0.00     0.031 A 
ATOM     53  C   UNL A   1      40.041  30.109  29.284  1.00  0.00     0.031 A 
ATOM     54  C   UNL A   1      42.153  33.944  34.593  1.00  0.00     0.049 A 
ATOM     55  C   UNL A   1      41.339  30.482  29.890  1.00  0.00     0.074 A 
ATOM     56  C   UNL A   1      42.244  35.269  34.227  1.00  0.00     0.029 A 
ATOM     57  N   UNL A   1      42.659  33.202  33.553  1.00  0.00    -0.354 N 
ATOM     58  N   UNL A   1      41.969  31.583  29.602  1.00  0.00    -0.248 NA
ATOM     59  C   UNL A   1      41.747  29.838  31.131  1.00  0.00     0.031 C 
ATOM     60  C   UNL A   1      42.521  35.262  32.827  1.00  0.00     0.029 A 
ATOM     61  C   UNL A   1      42.650  33.938  32.400  1.00  0.00     0.049 A 
ATOM     62  H   UNL A   1      42.982  32.275  33.627  1.00  0.00     0.167 HD
ATOM     63  C   UNL A   1      42.496  32.007  30.811  1.00  0.00     0.074 A 
ATOM     64  C   UNL A   1      42.471  30.826  31.669  1.00  0.00     0.031 C 
ATOM     65  C   UNL A   1      42.606  33.343  31.081  1.00  0.00     0.031 A 
BRANCH  52  66
ATOM     66  C   UNL A   1      42.030  32.047  36.334  1.00  0.00    -0.014 A 
ATOM     67  C   UNL A   1      42.879  32.374  37.404  1.00  0.00     0.009 A 
ATOM     68  C   UNL A   1      42.070  30.711  35.886  1.00  0.00     0.009 A 
ATOM     69  C   UNL A   1      43.773  31.436  37.936  1.00  0.00     0.001 A 
ATOM     70  C   UNL A   1      42.932  29.762  36.439  1.00  0.00     0.001 A 
ATOM     71  C   UNL A   1      43.805  30.134  37.447  1.00  0.00     0.000 A 
ENDBRANCH  52  66
BRANCH  53  72
ATOM     72  C   UNL A   1      39.880  28.839  28.545  1.00  0.00    -0.014 A 
ATOM     73  C   UNL A   1      40.488  28.659  27.290  1.00  0.00     0.009 A 
ATOM     74  C   UNL A   1      39.386  27.699  29.201  1.00  0.00     0.009 A 
ATOM     75  C   UNL A   1      40.640  27.380  26.738  1.00  0.00     0.001 A 
ATOM     76  C   UNL A   1      39.538  26.422  28.650  1.00  0.00     0.001 A 
ATOM     77  C   UNL A   1      40.181  26.260  27.426  1.00  0.00     0.000 A 
ENDBRANCH  53  72
BRANCH  65  78
ATOM     78  C   UNL A   1      42.477  34.287  29.913  1.00  0.00    -0.014 A 
ATOM     79  C   UNL A   1      43.556  34.670  29.094  1.00  0.00     0.009 A 
ATOM     80  C   UNL A   1      41.191  34.727  29.570  1.00  0.00     0.009 A 
ATOM     81  C   UNL A   1      43.351  35.494  27.983  1.00  0.00     0.001 A 
ATOM     82  C   UNL A   1      40.985  35.531  28.449  1.00  0.00     0.001 A 
ATOM     83  C   UNL A   1      42.064  35.920  27.660  1.00  0.00     0.000 A 
ENDBRANCH  65  78
ENDBRANCH  39  40
ENDBRANCH  32  34
ENDBRANCH  31  32
ENDBRANCH  30  31
ENDBRANCH  29  30
ENDBRANCH  28  29
ENDBRANCH  27  28
ENDBRANCH  26  27
ENDBRANCH  25  26
ENDBRANCH  24  25
ENDBRANCH   1  24
TORSDOF 25
ENDMDL
MODEL 2
REMARK VINA RESULT:      -9.3      1.588      2.120
REMARK SMILES CNC(=O)C[N@@H+](C)CCn1cc(C(=O)OCCOCCOCCOCCOC(=O)c2ccc(-c3c4nc(c(-c5ccccc5)c5ccc([nH]5)c(-c5ccccc5)c5nc(c(-c6ccccc6)c6ccc3[nH]6)C=C5)C=C4)cc2)nn1
REMARK SMILES IDX 19 1 18 2 17 3 16 4 15 5 13 6 14 7 12 8 10 9 11 10 79 11
REMARK SMILES IDX 78 12 9 13 8 14 6 15 7 16 5 18 3 19 1 20 2 21 4 23 20 24
REMARK SMILES IDX 21 25 22 26 23 27 24 28 25 29 26 30 27 31 28 32 29 33 30 34
REMARK SMILES IDX 31 35 77 36 32 37 76 38 33 39 34 40 35 41 70 42 36 43 75 44
REMARK SMILES IDX 69 45 71 46 37 47 74 48 68 49 67 50 38 52 60 53 45 54 59 55
REMARK SMILES IDX 46 56 49 57 58 58 72 59 47 60 48 61 57 63 73 64 50 65 39 66
REMARK SMILES IDX 40 67 44 68 41 69 43 70 42 71 61 72 62 73 66 74 63 75 65 76
REMARK SMILES IDX 64 77 51 78 52 79 56 80 53 81 55 82 54 83
REMARK H PARENT 6 17 2 22 71 51 49 62
REMARK Flexibility Score: inf
ROOT
ATOM      1  C   UNL A   1      31.482  28.565  25.344  1.00  0.00     0.188 C 
ENDROOT
BRANCH   1   2
ATOM      2  O   UNL A   1      30.534  28.372  24.319  1.00  0.00    -0.376 OA
BRANCH   2   3
ATOM      3  C   UNL A   1      30.305  27.128  23.708  1.00  0.00     0.202 C 
BRANCH   3   4
ATOM      4  C   UNL A   1      30.770  26.786  22.284  1.00  0.00     0.261 C 
BRANCH   4   5
ATOM      5  O   UNL A   1      32.171  26.843  22.029  1.00  0.00    -0.458 OA
BRANCH   5   6
ATOM      6  C   UNL A   1      32.752  25.684  21.604  1.00  0.00     0.360 C 
ATOM      7  O   UNL A   1      33.130  25.481  20.454  1.00  0.00    -0.244 OA
BRANCH   6   8
ATOM      8  C   UNL A   1      33.050  24.830  22.733  1.00  0.00     0.190 A 
ATOM      9  N   UNL A   1      33.858  23.857  24.467  1.00  0.00    -0.246 N 
ATOM     10  C   UNL A   1      34.003  24.986  23.721  1.00  0.00     0.147 A 
ATOM     11  N   UNL A   1      33.116  22.941  23.831  1.00  0.00    -0.066 NA
ATOM     12  N   UNL A   1      32.486  23.578  22.856  1.00  0.00    -0.123 NA
BRANCH   9  13
ATOM     13  C   UNL A   1      34.320  23.591  25.805  1.00  0.00     0.207 C 
BRANCH  13  14
ATOM     14  C   UNL A   1      35.114  22.271  25.919  1.00  0.00     0.286 C 
BRANCH  14  15
ATOM     15  N   UNL A   1      36.020  21.809  24.842  1.00  0.00    -0.328 N 
ATOM     16  C   UNL A   1      36.392  20.404  24.997  1.00  0.00     0.333 C 
ATOM     17  H   UNL A   1      35.452  21.926  24.003  1.00  0.00     0.348 HD
BRANCH  15  18
ATOM     18  C   UNL A   1      37.234  22.629  24.622  1.00  0.00     0.363 C 
BRANCH  18  19
ATOM     19  C   UNL A   1      37.843  23.147  25.930  1.00  0.00     0.274 C 
ATOM     20  C   UNL A   1      39.569  21.310  26.034  1.00  0.00     0.143 C 
ATOM     21  N   UNL A   1      38.851  22.455  26.528  1.00  0.00    -0.354 N 
ATOM     22  H   UNL A   1      39.126  22.780  27.417  1.00  0.00     0.163 HD
ATOM     23  O   UNL A   1      37.487  24.197  26.466  1.00  0.00    -0.269 OA
ENDBRANCH  18  19
ENDBRANCH  15  18
ENDBRANCH  14  15
ENDBRANCH  13  14
ENDBRANCH   9  13
ENDBRANCH   6   8
ENDBRANCH   5   6
ENDBRANCH   4   5
ENDBRANCH   3   4
ENDBRANCH   2   3
ENDBRANCH   1   2
BRANCH   1  24
ATOM     24  C   UNL A   1      31.943  30.035  25.522  1.00  0.00     0.188 C 
BRANCH  24  25
ATOM     25  O   UNL A   1      33.203  30.369  26.085  1.00  0.00    -0.377 OA
BRANCH  25  26
ATOM     26  C   UNL A   1      33.322  30.617  27.476  1.00  0.00     0.188 C 
BRANCH  26  27
ATOM     27  C   UNL A   1      34.264  31.713  28.041  1.00  0.00     0.188 C 
BRANCH  27  28
ATOM     28  O   UNL A   1      33.705  33.005  28.196  1.00  0.00    -0.376 OA
BRANCH  28  29
ATOM     29  C   UNL A   1      34.177  33.990  29.090  1.00  0.00     0.202 C 
BRANCH  29  30
ATOM     30  C   UNL A   1      33.222  34.958  29.777  1.00  0.00     0.261 C 
BRANCH  30  31
ATOM     31  O   UNL A   1      33.741  35.521  30.959  1.00  0.00    -0.460 OA
BRANCH  31  32
ATOM     32  C   UNL A   1      33.150  35.081  32.078  1.00  0.00     0.338 C 
ATOM     33  O   UNL A   1      31.974  35.203  32.400  1.00  0.00    -0.246 OA
BRANCH  32  34
ATOM     34  C   UNL A   1      34.188  34.515  32.935  1.00  0.00     0.060 A 
ATOM     35  C   UNL A   1      35.297  35.333  33.140  1.00  0.00     0.016 A 
ATOM     36  C   UNL A   1      34.248  33.116  32.989  1.00  0.00     0.016 A 
ATOM     37  C   UNL A   1      36.529  34.748  33.021  1.00  0.00     0.010 A 
ATOM     38  C   UNL A   1      35.473  32.542  32.813  1.00  0.00     0.010 A 
ATOM     39  C   UNL A   1      36.578  33.383  32.724  1.00  0.00    -0.014 A 
BRANCH  39  40
ATOM     40  C   UNL A   1      37.856  32.792  32.428  1.00  0.00     0.031 A 
ATOM     41  C   UNL A   1      38.699  32.761  33.634  1.00  0.00     0.074 A 
ATOM     42  C   UNL A   1      38.136  32.258  31.226  1.00  0.00     0.049 A 
ATOM     43  N   UNL A   1      39.689  33.542  33.905  1.00  0.00    -0.248 NA
ATOM     44  C   UNL A   1      38.222  31.962  34.780  1.00  0.00     0.031 C 
ATOM     45  C   UNL A   1      37.230  32.042  30.092  1.00  0.00     0.029 A 
ATOM     46  N   UNL A   1      39.290  31.683  30.804  1.00  0.00    -0.354 N 
ATOM     47  C   UNL A   1      40.111  33.148  35.168  1.00  0.00     0.074 A 
ATOM     48  C   UNL A   1      39.024  32.407  35.746  1.00  0.00     0.031 C 
ATOM     49  C   UNL A   1      37.804  31.178  29.221  1.00  0.00     0.029 A 
ATOM     50  C   UNL A   1      39.156  30.890  29.672  1.00  0.00     0.049 A 
ATOM     51  H   UNL A   1      40.151  31.817  31.263  1.00  0.00     0.167 HD
ATOM     52  C   UNL A   1      41.437  33.112  35.464  1.00  0.00     0.031 A 
ATOM     53  C   UNL A   1      40.082  30.020  29.197  1.00  0.00     0.031 A 
ATOM     54  C   UNL A   1      42.201  33.862  34.497  1.00  0.00     0.049 A 
ATOM     55  C   UNL A   1      41.380  30.386  29.807  1.00  0.00     0.074 A 
ATOM     56  C   UNL A   1      42.303  35.185  34.126  1.00  0.00     0.029 A 
ATOM     57  N   UNL A   1      42.706  33.112  33.463  1.00  0.00    -0.354 N 
ATOM     58  N   UNL A   1      42.018  31.481  29.516  1.00  0.00    -0.248 NA
ATOM     59  C   UNL A   1      41.779  29.745  31.052  1.00  0.00     0.031 C 
ATOM     60  C   UNL A   1      42.586  35.169  32.728  1.00  0.00     0.029 A 
ATOM     61  C   UNL A   1      42.707  33.843  32.307  1.00  0.00     0.049 A 
ATOM     62  H   UNL A   1      43.022  32.183  33.542  1.00  0.00     0.167 HD
ATOM     63  C   UNL A   1      42.544  31.907  30.726  1.00  0.00     0.074 A 
ATOM     64  C   UNL A   1      42.508  30.729  31.588  1.00  0.00     0.031 C 
ATOM     65  C   UNL A   1      42.663  33.243  30.990  1.00  0.00     0.031 A 
BRANCH  52  66
ATOM     66  C   UNL A   1      42.059  31.973  36.246  1.00  0.00    -0.014 A 
ATOM     67  C   UNL A   1      42.985  32.295  37.251  1.00  0.00     0.009 A 
ATOM     68  C   UNL A   1      42.008  30.621  35.851  1.00  0.00     0.009 A 
ATOM     69  C   UNL A   1      43.862  31.333  37.768  1.00  0.00     0.001 A 
ATOM     70  C   UNL A   1      42.854  29.650  36.390  1.00  0.00     0.001 A 
ATOM     71  C   UNL A   1      43.802  30.014  37.330  1.00  0.00     0.000 A 
ENDBRANCH  52  66
BRANCH  53  72
ATOM     72  C   UNL A   1      39.914  28.748  28.462  1.00  0.00    -0.014 A 
ATOM     73  C   UNL A   1      40.557  28.544  27.229  1.00  0.00     0.009 A 
ATOM     74  C   UNL A   1      39.372  27.626  29.111  1.00  0.00     0.009 A 
ATOM     75  C   UNL A   1      40.697  27.257  26.692  1.00  0.00     0.001 A 
ATOM     76  C   UNL A   1      39.512  26.341  28.574  1.00  0.00     0.001 A 
ATOM     77  C   UNL A   1      40.189  26.154  27.373  1.00  0.00     0.000 A 
ENDBRANCH  53  72
BRANCH  65  78
ATOM     78  C   UNL A   1      42.545  34.183  29.818  1.00  0.00    -0.014 A 
ATOM     79  C   UNL A   1      43.599  34.456  28.925  1.00  0.00     0.009 A 
ATOM     80  C   UNL A   1      41.285  34.737  29.551  1.00  0.00     0.009 A 
ATOM     81  C   UNL A   1      43.397  35.285  27.817  1.00  0.00     0.001 A 
ATOM     82  C   UNL A   1      41.080  35.545  28.433  1.00  0.00     0.001 A 
ATOM     83  C   UNL A   1      42.136  35.825  27.570  1.00  0.00     0.000 A 
ENDBRANCH  65  78
ENDBRANCH  39  40
ENDBRANCH  32  34
ENDBRANCH  31  32
ENDBRANCH  30  31
ENDBRANCH  29  30
ENDBRANCH  28  29
ENDBRANCH  27  28
ENDBRANCH  26  27
ENDBRANCH  25  26
ENDBRANCH  24  25
ENDBRANCH   1  24
TORSDOF 25
ENDMDL
MODEL 3
REMARK VINA RESULT:      -8.2      3.774      5.890
REMARK SMILES CNC(=O)C[N@@H+](C)CCn1cc(C(=O)OCCOCCOCCOCCOC(=O)c2ccc(-c3c4nc(c(-c5ccccc5)c5ccc([nH]5)c(-c5ccccc5)c5nc(c(-c6ccccc6)c6ccc3[nH]6)C=C5)C=C4)cc2)nn1
REMARK SMILES IDX 19 1 18 2 17 3 16 4 15 5 13 6 14 7 12 8 10 9 11 10 79 11
REMARK SMILES IDX 78 12 9 13 8 14 6 15 7 16 5 18 3 19 1 20 2 21 4 23 20 24
REMARK SMILES IDX 21 25 22 26 23 27 24 28 25 29 26 30 27 31 28 32 29 33 30 34
REMARK SMILES IDX 31 35 77 36 32 37 76 38 33 39 34 40 35 41 70 42 36 43 75 44
REMARK SMILES IDX 69 45 71 46 37 47 74 48 68 49 67 50 38 52 60 53 45 54 59 55
REMARK SMILES IDX 46 56 49 57 58 58 72 59 47 60 48 61 57 63 73 64 50 65 39 66
REMARK SMILES IDX 40 67 44 68 41 69 43 70 42 71 61 72 62 73 66 74 63 75 65 76
REMARK SMILES IDX 64 77 51 78 52 79 56 80 53 81 55 82 54 83
REMARK H PARENT 6 17 2 22 71 51 49 62
REMARK Flexibility Score: inf
ROOT
ATOM      1  C   UNL A   1      31.909  26.614  26.455  1.00  0.00     0.188 C 
ENDROOT
BRANCH   1   2
ATOM      2  O   UNL A   1      30.530  26.327  26.508  1.00  0.00    -0.376 OA
BRANCH   2   3
ATOM      3  C   UNL A   1      29.771  25.993  25.374  1.00  0.00     0.202 C 
BRANCH   3   4
ATOM      4  C   UNL A   1      29.401  27.003  24.277  1.00  0.00     0.261 C 
BRANCH   4   5
ATOM      5  O   UNL A   1      29.847  26.715  22.955  1.00  0.00    -0.458 OA
BRANCH   5   6
ATOM      6  C   UNL A   1      31.052  27.245  22.598  1.00  0.00     0.360 C 
ATOM      7  O   UNL A   1      31.295  28.447  22.559  1.00  0.00    -0.244 OA
BRANCH   6   8
ATOM      8  C   UNL A   1      32.046  26.200  22.489  1.00  0.00     0.190 A 
ATOM      9  N   UNL A   1      33.299  24.470  22.701  1.00  0.00    -0.246 N 
ATOM     10  C   UNL A   1      32.144  25.009  23.181  1.00  0.00     0.147 A 
ATOM     11  N   UNL A   1      34.014  25.374  22.019  1.00  0.00    -0.066 NA
ATOM     12  N   UNL A   1      33.193  26.374  21.743  1.00  0.00    -0.123 NA
BRANCH   9  13
ATOM     13  C   UNL A   1      33.762  23.109  22.779  1.00  0.00     0.207 C 
BRANCH  13  14
ATOM     14  C   UNL A   1      33.369  22.410  24.099  1.00  0.00     0.286 C 
BRANCH  14  15
ATOM     15  N   UNL A   1      33.600  20.964  24.316  1.00  0.00    -0.328 N 
ATOM     16  C   UNL A   1      32.527  20.142  23.760  1.00  0.00     0.333 C 
ATOM     17  H   UNL A   1      34.467  20.794  23.805  1.00  0.00     0.348 HD
BRANCH  15  18
ATOM     18  C   UNL A   1      33.873  20.555  25.714  1.00  0.00     0.363 C 
BRANCH  18  19
ATOM     19  C   UNL A   1      34.765  21.555  26.459  1.00  0.00     0.274 C 
ATOM     20  C   UNL A   1      36.798  21.013  25.067  1.00  0.00     0.143 C 
ATOM     21  N   UNL A   1      36.086  21.651  26.143  1.00  0.00    -0.354 N 
ATOM     22  H   UNL A   1      36.625  22.234  26.726  1.00  0.00     0.163 HD
ATOM     23  O   UNL A   1      34.337  22.320  27.324  1.00  0.00    -0.269 OA
ENDBRANCH  18  19
ENDBRANCH  15  18
ENDBRANCH  14  15
ENDBRANCH  13  14
ENDBRANCH   9  13
ENDBRANCH   6   8
ENDBRANCH   5   6
ENDBRANCH   4   5
ENDBRANCH   3   4
ENDBRANCH   2   3
ENDBRANCH   1   2
BRANCH   1  24
ATOM     24  C   UNL A   1      32.252  28.124  26.547  1.00  0.00     0.188 C 
BRANCH  24  25
ATOM     25  O   UNL A   1      31.421  29.124  25.973  1.00  0.00    -0.377 OA
BRANCH  25  26
ATOM     26  C   UNL A   1      31.915  30.438  25.776  1.00  0.00     0.188 C 
BRANCH  26  27
ATOM     27  C   UNL A   1      31.534  31.611  26.717  1.00  0.00     0.188 C 
BRANCH  27  28
ATOM     28  O   UNL A   1      32.567  32.525  27.035  1.00  0.00    -0.376 OA
BRANCH  28  29
ATOM     29  C   UNL A   1      33.454  32.399  28.126  1.00  0.00     0.202 C 
BRANCH  29  30
ATOM     30  C   UNL A   1      34.505  31.297  28.168  1.00  0.00     0.261 C 
BRANCH  30  31
ATOM     31  O   UNL A   1      35.827  31.778  28.225  1.00  0.00    -0.460 OA
BRANCH  31  32
ATOM     32  C   UNL A   1      36.554  31.260  29.224  1.00  0.00     0.338 C 
ATOM     33  O   UNL A   1      36.227  31.133  30.399  1.00  0.00    -0.246 OA
BRANCH  32  34
ATOM     34  C   UNL A   1      37.886  30.967  28.700  1.00  0.00     0.060 A 
ATOM     35  C   UNL A   1      37.938  29.940  27.760  1.00  0.00     0.016 A 
ATOM     36  C   UNL A   1      38.963  31.300  29.532  1.00  0.00     0.016 A 
ATOM     37  C   UNL A   1      38.927  29.007  27.917  1.00  0.00     0.010 A 
ATOM     38  C   UNL A   1      39.914  30.341  29.726  1.00  0.00     0.010 A 
ATOM     39  C   UNL A   1      39.811  29.166  28.988  1.00  0.00    -0.014 A 
BRANCH  39  40
ATOM     40  C   UNL A   1      40.745  28.107  29.268  1.00  0.00     0.031 A 
ATOM     41  C   UNL A   1      41.083  28.085  30.700  1.00  0.00     0.074 A 
ATOM     42  C   UNL A   1      41.128  27.225  28.328  1.00  0.00     0.049 A 
ATOM     43  N   UNL A   1      42.174  28.508  31.244  1.00  0.00    -0.248 NA
ATOM     44  C   UNL A   1      39.989  27.822  31.655  1.00  0.00     0.031 C 
ATOM     45  C   UNL A   1      40.611  27.065  26.964  1.00  0.00     0.029 A 
ATOM     46  N   UNL A   1      42.002  26.193  28.443  1.00  0.00    -0.354 N 
ATOM     47  C   UNL A   1      41.982  28.322  32.606  1.00  0.00     0.074 A 
ATOM     48  C   UNL A   1      40.564  28.183  32.801  1.00  0.00     0.031 C 
ATOM     49  C   UNL A   1      41.005  25.864  26.476  1.00  0.00     0.029 A 
ATOM     50  C   UNL A   1      41.900  25.241  27.436  1.00  0.00     0.049 A 
ATOM     51  H   UNL A   1      42.654  26.125  29.178  1.00  0.00     0.167 HD
ATOM     52  C   UNL A   1      43.008  27.895  33.387  1.00  0.00     0.031 A 
ATOM     53  C   UNL A   1      42.472  24.010  27.447  1.00  0.00     0.031 A 
ATOM     54  C   UNL A   1      44.273  28.058  32.712  1.00  0.00     0.049 A 
ATOM     55  C   UNL A   1      43.548  24.035  28.463  1.00  0.00     0.074 A 
ATOM     56  C   UNL A   1      45.029  29.121  32.269  1.00  0.00     0.029 A 
ATOM     57  N   UNL A   1      44.706  26.944  32.035  1.00  0.00    -0.354 N 
ATOM     58  N   UNL A   1      44.642  24.724  28.323  1.00  0.00    -0.248 NA
ATOM     59  C   UNL A   1      43.237  23.630  29.827  1.00  0.00     0.031 C 
ATOM     60  C   UNL A   1      45.692  28.655  31.095  1.00  0.00     0.029 A 
ATOM     61  C   UNL A   1      45.367  27.311  30.896  1.00  0.00     0.049 A 
ATOM     62  H   UNL A   1      44.561  26.015  32.327  1.00  0.00     0.167 HD
ATOM     63  C   UNL A   1      44.900  25.226  29.589  1.00  0.00     0.074 A 
ATOM     64  C   UNL A   1      44.110  24.394  30.493  1.00  0.00     0.031 C 
ATOM     65  C   UNL A   1      45.482  26.454  29.734  1.00  0.00     0.031 A 
BRANCH  52  66
ATOM     66  C   UNL A   1      42.821  26.846  34.465  1.00  0.00    -0.014 A 
ATOM     67  C   UNL A   1      43.058  25.504  34.124  1.00  0.00     0.009 A 
ATOM     68  C   UNL A   1      42.149  27.074  35.683  1.00  0.00     0.009 A 
ATOM     69  C   UNL A   1      42.577  24.456  34.918  1.00  0.00     0.001 A 
ATOM     70  C   UNL A   1      41.701  26.032  36.497  1.00  0.00     0.001 A 
ATOM     71  C   UNL A   1      41.891  24.721  36.099  1.00  0.00     0.000 A 
ENDBRANCH  52  66
BRANCH  53  72
ATOM     72  C   UNL A   1      42.019  22.739  26.844  1.00  0.00    -0.014 A 
ATOM     73  C   UNL A   1      42.900  21.651  26.724  1.00  0.00     0.009 A 
ATOM     74  C   UNL A   1      40.647  22.492  26.666  1.00  0.00     0.009 A 
ATOM     75  C   UNL A   1      42.420  20.355  26.485  1.00  0.00     0.001 A 
ATOM     76  C   UNL A   1      40.168  21.199  26.428  1.00  0.00     0.001 A 
ATOM     77  C   UNL A   1      41.053  20.128  26.354  1.00  0.00     0.000 A 
ENDBRANCH  53  72
BRANCH  65  78
ATOM     78  C   UNL A   1      46.135  27.049  28.513  1.00  0.00    -0.014 A 
ATOM     79  C   UNL A   1      47.479  26.828  28.160  1.00  0.00     0.009 A 
ATOM     80  C   UNL A   1      45.325  27.780  27.632  1.00  0.00     0.009 A 
ATOM     81  C   UNL A   1      48.000  27.354  26.973  1.00  0.00     0.001 A 
ATOM     82  C   UNL A   1      45.841  28.284  26.438  1.00  0.00     0.001 A 
ATOM     83  C   UNL A   1      47.179  28.078  26.111  1.00  0.00     0.000 A 
ENDBRANCH  65  78
ENDBRANCH  39  40
ENDBRANCH  32  34
ENDBRANCH  31  32
ENDBRANCH  30  31
ENDBRANCH  29  30
ENDBRANCH  28  29
ENDBRANCH  27  28
ENDBRANCH  26  27
ENDBRANCH  25  26
ENDBRANCH  24  25
ENDBRANCH   1  24
TORSDOF 25
ENDMDL
