MODEL 1
REMARK VINA RESULT:      -8.0      0.000      0.000
REMARK SMILES O=C(N[C@@H](CS)C(=O)N[C@@H](CO)C(=O)OCCOCCOCCOCCOC(=O)c1ccc(-c2c3nc(c(-c4ccccc4)c4ccc([nH]4)c(-c4ccccc4)c4nc(c(-c5ccccc5)c5ccc2[nH]5)C=C4)C=C3)cc1)c1ccc(F)cc1
REMARK SMILES IDX 20 1 19 2 18 3 17 4 16 5 15 6 13 7 14 8 10 9 9 10 7 11 8 12
REMARK SMILES IDX 4 14 3 15 1 16 2 17 78 19 79 20 84 21 80 22 83 23 81 24
REMARK SMILES IDX 82 25 5 26 6 27 11 29 12 30 21 32 22 33 23 34 24 35 25 36
REMARK SMILES IDX 26 37 27 38 28 39 29 40 30 41 31 42 77 43 32 44 76 45 33 46
REMARK SMILES IDX 34 47 35 48 70 49 36 50 75 51 69 52 71 53 37 54 74 55 68 56
REMARK SMILES IDX 67 57 38 59 60 60 45 61 59 62 46 63 49 64 58 65 72 66 47 67
REMARK SMILES IDX 48 68 57 70 73 71 50 72 39 73 40 74 44 75 41 76 43 77 42 78
REMARK SMILES IDX 61 79 62 80 66 81 63 82 65 83 64 84 51 85 52 86 56 87 53 88
REMARK SMILES IDX 55 89 54 90
REMARK H PARENT 9 13 3 18 6 28 12 31 71 58 49 69
REMARK Flexibility Score: inf
ROOT
ATOM      1  C   UNL A   1      34.695  33.518  29.591  1.00  0.00     0.188 C 
ENDROOT
BRANCH   1   2
ATOM      2  C   UNL A   1      34.362  32.090  29.131  1.00  0.00     0.188 C 
BRANCH   2   3
ATOM      3  O   UNL A   1      34.511  31.731  27.768  1.00  0.00    -0.376 OA
BRANCH   3   4
ATOM      4  C   UNL A   1      34.970  30.427  27.438  1.00  0.00     0.202 C 
BRANCH   4   5
ATOM      5  C   UNL A   1      34.010  29.218  27.407  1.00  0.00     0.261 C 
BRANCH   5   6
ATOM      6  O   UNL A   1      33.936  28.474  26.172  1.00  0.00    -0.462 OA
BRANCH   6   7
ATOM      7  C   UNL A   1      32.883  28.748  25.358  1.00  0.00     0.331 C 
ATOM      8  O   UNL A   1      32.453  29.876  25.138  1.00  0.00    -0.250 OA
BRANCH   7   9
ATOM      9  C   UNL A   1      32.207  27.491  24.760  1.00  0.00     0.218 C 
BRANCH   9  10
ATOM     10  N   UNL A   1      31.016  26.927  25.422  1.00  0.00    -0.339 N 
ATOM     11  C   UNL A   1      30.694  25.674  25.845  1.00  0.00     0.244 C 
ATOM     12  O   UNL A   1      29.636  25.565  26.481  1.00  0.00    -0.273 OA
ATOM     13  H   UNL A   1      30.311  27.593  25.593  1.00  0.00     0.164 HD
BRANCH  11  14
ATOM     14  C   UNL A   1      31.586  24.423  25.681  1.00  0.00     0.181 C 
BRANCH  14  15
ATOM     15  N   UNL A   1      31.864  23.734  26.939  1.00  0.00    -0.339 N 
ATOM     16  O   UNL A   1      32.864  22.329  28.363  1.00  0.00    -0.269 OA
ATOM     17  C   UNL A   1      32.895  22.893  27.273  1.00  0.00     0.251 C 
ATOM     18  H   UNL A   1      31.211  23.899  27.657  1.00  0.00     0.164 HD
BRANCH  17  19
ATOM     19  C   UNL A   1      34.007  22.611  26.336  1.00  0.00     0.040 A 
ATOM     20  C   UNL A   1      34.122  21.393  25.653  1.00  0.00     0.017 A 
ATOM     21  C   UNL A   1      34.928  23.639  26.087  1.00  0.00     0.017 A 
ATOM     22  C   UNL A   1      35.204  21.175  24.795  1.00  0.00     0.040 A 
ATOM     23  C   UNL A   1      35.993  23.426  25.209  1.00  0.00     0.040 A 
ATOM     24  C   UNL A   1      36.129  22.192  24.584  1.00  0.00     0.123 A 
ATOM     25  F   UNL A   1      37.161  21.982  23.757  1.00  0.00    -0.207 F 
ENDBRANCH  17  19
ENDBRANCH  14  15
BRANCH  14  26
ATOM     26  C   UNL A   1      31.235  23.503  24.498  1.00  0.00     0.101 C 
BRANCH  26  27
ATOM     27  S   UNL A   1      32.297  23.602  23.025  1.00  0.00    -0.177 SA
ATOM     28  H   UNL A   1      31.720  22.915  22.003  1.00  0.00     0.102 HD
ENDBRANCH  26  27
ENDBRANCH  14  26
ENDBRANCH  11  14
ENDBRANCH   9  10
BRANCH   9  29
ATOM     29  C   UNL A   1      31.854  27.834  23.310  1.00  0.00     0.193 C 
BRANCH  29  30
ATOM     30  O   UNL A   1      30.616  28.543  23.233  1.00  0.00    -0.394 OA
ATOM     31  H   UNL A   1      29.939  27.968  22.845  1.00  0.00     0.210 HD
ENDBRANCH  29  30
ENDBRANCH   9  29
ENDBRANCH   7   9
ENDBRANCH   6   7
ENDBRANCH   5   6
ENDBRANCH   4   5
ENDBRANCH   3   4
ENDBRANCH   2   3
ENDBRANCH   1   2
BRANCH   1  32
ATOM     32  O   UNL A   1      35.916  34.040  29.118  1.00  0.00    -0.377 OA
BRANCH  32  33
ATOM     33  C   UNL A   1      37.055  33.760  29.918  1.00  0.00     0.188 C 
BRANCH  33  34
ATOM     34  C   UNL A   1      38.438  33.905  29.255  1.00  0.00     0.188 C 
BRANCH  34  35
ATOM     35  O   UNL A   1      39.383  34.629  30.037  1.00  0.00    -0.376 OA
BRANCH  35  36
ATOM     36  C   UNL A   1      40.718  34.753  29.567  1.00  0.00     0.202 C 
BRANCH  36  37
ATOM     37  C   UNL A   1      41.056  35.939  28.647  1.00  0.00     0.261 C 
BRANCH  37  38
ATOM     38  O   UNL A   1      41.413  35.627  27.292  1.00  0.00    -0.460 OA
BRANCH  38  39
ATOM     39  C   UNL A   1      42.628  36.016  26.845  1.00  0.00     0.338 C 
ATOM     40  O   UNL A   1      43.013  37.150  26.658  1.00  0.00    -0.246 OA
BRANCH  39  41
ATOM     41  C   UNL A   1      43.499  34.818  26.830  1.00  0.00     0.060 A 
ATOM     42  C   UNL A   1      44.084  34.398  28.033  1.00  0.00     0.016 A 
ATOM     43  C   UNL A   1      43.720  34.104  25.651  1.00  0.00     0.016 A 
ATOM     44  C   UNL A   1      44.918  33.280  28.052  1.00  0.00     0.010 A 
ATOM     45  C   UNL A   1      44.579  33.001  25.666  1.00  0.00     0.010 A 
ATOM     46  C   UNL A   1      45.208  32.605  26.860  1.00  0.00    -0.014 A 
BRANCH  46  47
ATOM     47  C   UNL A   1      46.316  31.622  26.833  1.00  0.00     0.031 A 
ATOM     48  C   UNL A   1      47.719  32.133  26.651  1.00  0.00     0.074 A 
ATOM     49  C   UNL A   1      46.093  30.307  27.005  1.00  0.00     0.049 A 
ATOM     50  N   UNL A   1      48.844  31.468  26.584  1.00  0.00    -0.248 NA
ATOM     51  C   UNL A   1      47.872  33.591  26.529  1.00  0.00     0.031 C 
ATOM     52  C   UNL A   1      44.789  29.690  27.243  1.00  0.00     0.029 A 
ATOM     53  N   UNL A   1      46.971  29.251  27.006  1.00  0.00    -0.354 N 
ATOM     54  C   UNL A   1      49.835  32.425  26.406  1.00  0.00     0.074 A 
ATOM     55  C   UNL A   1      49.177  33.712  26.342  1.00  0.00     0.031 C 
ATOM     56  C   UNL A   1      44.952  28.361  27.361  1.00  0.00     0.029 A 
ATOM     57  C   UNL A   1      46.364  28.031  27.174  1.00  0.00     0.049 A 
ATOM     58  H   UNL A   1      47.944  29.359  26.897  1.00  0.00     0.167 HD
ATOM     59  C   UNL A   1      51.175  32.252  26.309  1.00  0.00     0.031 A 
ATOM     60  C   UNL A   1      46.888  26.789  27.157  1.00  0.00     0.031 A 
ATOM     61  C   UNL A   1      51.827  30.971  26.350  1.00  0.00     0.049 A 
ATOM     62  C   UNL A   1      48.372  26.616  26.955  1.00  0.00     0.074 A 
ATOM     63  C   UNL A   1      53.180  30.690  26.269  1.00  0.00     0.029 A 
ATOM     64  N   UNL A   1      51.172  29.755  26.469  1.00  0.00    -0.354 N 
ATOM     65  N   UNL A   1      49.302  27.530  26.815  1.00  0.00    -0.248 NA
ATOM     66  C   UNL A   1      48.876  25.236  26.921  1.00  0.00     0.031 C 
ATOM     67  C   UNL A   1      53.338  29.301  26.272  1.00  0.00     0.029 A 
ATOM     68  C   UNL A   1      52.091  28.719  26.431  1.00  0.00     0.049 A 
ATOM     69  H   UNL A   1      50.199  29.644  26.567  1.00  0.00     0.167 HD
ATOM     70  C   UNL A   1      50.503  26.837  26.709  1.00  0.00     0.074 A 
ATOM     71  C   UNL A   1      50.184  25.428  26.820  1.00  0.00     0.031 C 
ATOM     72  C   UNL A   1      51.758  27.321  26.537  1.00  0.00     0.031 A 
BRANCH  59  73
ATOM     73  C   UNL A   1      52.018  33.480  26.103  1.00  0.00    -0.014 A 
ATOM     74  C   UNL A   1      52.293  33.976  24.818  1.00  0.00     0.009 A 
ATOM     75  C   UNL A   1      52.524  34.168  27.218  1.00  0.00     0.009 A 
ATOM     76  C   UNL A   1      53.086  35.115  24.654  1.00  0.00     0.001 A 
ATOM     77  C   UNL A   1      53.289  35.323  27.052  1.00  0.00     0.001 A 
ATOM     78  C   UNL A   1      53.577  35.790  25.771  1.00  0.00     0.000 A 
ENDBRANCH  59  73
BRANCH  60  79
ATOM     79  C   UNL A   1      46.005  25.602  27.312  1.00  0.00    -0.014 A 
ATOM     80  C   UNL A   1      45.165  25.187  26.268  1.00  0.00     0.009 A 
ATOM     81  C   UNL A   1      45.974  24.895  28.525  1.00  0.00     0.009 A 
ATOM     82  C   UNL A   1      44.294  24.110  26.443  1.00  0.00     0.001 A 
ATOM     83  C   UNL A   1      45.126  23.797  28.686  1.00  0.00     0.001 A 
ATOM     84  C   UNL A   1      44.279  23.412  27.650  1.00  0.00     0.000 A 
ENDBRANCH  60  79
BRANCH  72  85
ATOM     85  C   UNL A   1      52.885  26.324  26.500  1.00  0.00    -0.014 A 
ATOM     86  C   UNL A   1      53.787  26.192  27.567  1.00  0.00     0.009 A 
ATOM     87  C   UNL A   1      53.027  25.481  25.385  1.00  0.00     0.009 A 
ATOM     88  C   UNL A   1      54.834  25.268  27.499  1.00  0.00     0.001 A 
ATOM     89  C   UNL A   1      54.051  24.533  25.336  1.00  0.00     0.001 A 
ATOM     90  C   UNL A   1      54.961  24.437  26.386  1.00  0.00     0.000 A 
ENDBRANCH  72  85
ENDBRANCH  46  47
ENDBRANCH  39  41
ENDBRANCH  38  39
ENDBRANCH  37  38
ENDBRANCH  36  37
ENDBRANCH  35  36
ENDBRANCH  34  35
ENDBRANCH  33  34
ENDBRANCH  32  33
ENDBRANCH   1  32
TORSDOF 28
ENDMDL
MODEL 2
REMARK VINA RESULT:      -7.6      8.601     15.679
REMARK SMILES O=C(N[C@@H](CS)C(=O)N[C@@H](CO)C(=O)OCCOCCOCCOCCOC(=O)c1ccc(-c2c3nc(c(-c4ccccc4)c4ccc([nH]4)c(-c4ccccc4)c4nc(c(-c5ccccc5)c5ccc2[nH]5)C=C4)C=C3)cc1)c1ccc(F)cc1
REMARK SMILES IDX 20 1 19 2 18 3 17 4 16 5 15 6 13 7 14 8 10 9 9 10 7 11 8 12
REMARK SMILES IDX 4 14 3 15 1 16 2 17 78 19 79 20 84 21 80 22 83 23 81 24
REMARK SMILES IDX 82 25 5 26 6 27 11 29 12 30 21 32 22 33 23 34 24 35 25 36
REMARK SMILES IDX 26 37 27 38 28 39 29 40 30 41 31 42 77 43 32 44 76 45 33 46
REMARK SMILES IDX 34 47 35 48 70 49 36 50 75 51 69 52 71 53 37 54 74 55 68 56
REMARK SMILES IDX 67 57 38 59 60 60 45 61 59 62 46 63 49 64 58 65 72 66 47 67
REMARK SMILES IDX 48 68 57 70 73 71 50 72 39 73 40 74 44 75 41 76 43 77 42 78
REMARK SMILES IDX 61 79 62 80 66 81 63 82 65 83 64 84 51 85 52 86 56 87 53 88
REMARK SMILES IDX 55 89 54 90
REMARK H PARENT 9 13 3 18 6 28 12 31 71 58 49 69
REMARK Flexibility Score: inf
ROOT
ATOM      1  C   UNL A   1      45.234  43.748  27.329  1.00  0.00     0.188 C 
ENDROOT
BRANCH   1   2
ATOM      2  C   UNL A   1      45.513  44.405  25.968  1.00  0.00     0.188 C 
BRANCH   2   3
ATOM      3  O   UNL A   1      44.477  44.516  25.007  1.00  0.00    -0.376 OA
BRANCH   3   4
ATOM      4  C   UNL A   1      43.996  43.344  24.364  1.00  0.00     0.202 C 
BRANCH   4   5
ATOM      5  C   UNL A   1      43.463  43.381  22.915  1.00  0.00     0.261 C 
BRANCH   5   6
ATOM      6  O   UNL A   1      44.048  44.358  22.028  1.00  0.00    -0.462 OA
BRANCH   6   7
ATOM      7  C   UNL A   1      44.328  43.944  20.764  1.00  0.00     0.331 C 
ATOM      8  O   UNL A   1      43.519  43.400  20.019  1.00  0.00    -0.250 OA
BRANCH   7   9
ATOM      9  C   UNL A   1      45.802  44.159  20.344  1.00  0.00     0.218 C 
BRANCH   9  10
ATOM     10  N   UNL A   1      46.647  45.084  21.119  1.00  0.00    -0.339 N 
ATOM     11  C   UNL A   1      47.063  46.363  20.907  1.00  0.00     0.244 C 
ATOM     12  O   UNL A   1      47.684  46.898  21.836  1.00  0.00    -0.273 OA
ATOM     13  H   UNL A   1      46.979  44.698  21.963  1.00  0.00     0.164 HD
BRANCH  11  14
ATOM     14  C   UNL A   1      46.731  47.210  19.659  1.00  0.00     0.181 C 
BRANCH  14  15
ATOM     15  N   UNL A   1      46.073  48.477  19.970  1.00  0.00    -0.339 N 
ATOM     16  O   UNL A   1      44.621  50.168  19.778  1.00  0.00    -0.269 OA
ATOM     17  C   UNL A   1      44.929  49.026  19.448  1.00  0.00     0.251 C 
ATOM     18  H   UNL A   1      46.517  49.019  20.661  1.00  0.00     0.164 HD
BRANCH  17  19
ATOM     19  C   UNL A   1      44.093  48.300  18.464  1.00  0.00     0.040 A 
ATOM     20  C   UNL A   1      43.588  48.915  17.311  1.00  0.00     0.017 A 
ATOM     21  C   UNL A   1      43.869  46.933  18.679  1.00  0.00     0.017 A 
ATOM     22  C   UNL A   1      42.789  48.187  16.426  1.00  0.00     0.040 A 
ATOM     23  C   UNL A   1      43.091  46.202  17.779  1.00  0.00     0.040 A 
ATOM     24  C   UNL A   1      42.546  46.839  16.670  1.00  0.00     0.123 A 
ATOM     25  F   UNL A   1      41.784  46.142  15.817  1.00  0.00    -0.207 F 
ENDBRANCH  17  19
ENDBRANCH  14  15
BRANCH  14  26
ATOM     26  C   UNL A   1      47.842  47.297  18.596  1.00  0.00     0.101 C 
BRANCH  26  27
ATOM     27  S   UNL A   1      47.404  46.822  16.896  1.00  0.00    -0.177 SA
ATOM     28  H   UNL A   1      48.435  46.133  16.338  1.00  0.00     0.102 HD
ENDBRANCH  26  27
ENDBRANCH  14  26
ENDBRANCH  11  14
ENDBRANCH   9  10
BRANCH   9  29
ATOM     29  C   UNL A   1      46.458  42.775  20.333  1.00  0.00     0.193 C 
BRANCH  29  30
ATOM     30  O   UNL A   1      47.816  42.851  19.896  1.00  0.00    -0.394 OA
ATOM     31  H   UNL A   1      47.893  42.456  19.014  1.00  0.00     0.210 HD
ENDBRANCH  29  30
ENDBRANCH   9  29
ENDBRANCH   7   9
ENDBRANCH   6   7
ENDBRANCH   5   6
ENDBRANCH   4   5
ENDBRANCH   3   4
ENDBRANCH   2   3
ENDBRANCH   1   2
BRANCH   1  32
ATOM     32  O   UNL A   1      45.404  42.349  27.375  1.00  0.00    -0.377 OA
BRANCH  32  33
ATOM     33  C   UNL A   1      46.726  41.883  27.152  1.00  0.00     0.188 C 
BRANCH  33  34
ATOM     34  C   UNL A   1      47.001  41.142  25.830  1.00  0.00     0.188 C 
BRANCH  34  35
ATOM     35  O   UNL A   1      47.525  39.829  26.000  1.00  0.00    -0.376 OA
BRANCH  35  36
ATOM     36  C   UNL A   1      46.765  38.717  25.547  1.00  0.00     0.202 C 
BRANCH  36  37
ATOM     37  C   UNL A   1      46.978  37.361  26.242  1.00  0.00     0.261 C 
BRANCH  37  38
ATOM     38  O   UNL A   1      46.360  37.186  27.526  1.00  0.00    -0.460 OA
BRANCH  38  39
ATOM     39  C   UNL A   1      46.974  36.389  28.428  1.00  0.00     0.338 C 
ATOM     40  O   UNL A   1      47.867  36.693  29.190  1.00  0.00    -0.246 OA
BRANCH  39  41
ATOM     41  C   UNL A   1      46.215  35.118  28.485  1.00  0.00     0.060 A 
ATOM     42  C   UNL A   1      46.695  34.085  29.302  1.00  0.00     0.016 A 
ATOM     43  C   UNL A   1      45.033  34.953  27.759  1.00  0.00     0.016 A 
ATOM     44  C   UNL A   1      46.010  32.872  29.371  1.00  0.00     0.010 A 
ATOM     45  C   UNL A   1      44.363  33.727  27.806  1.00  0.00     0.010 A 
ATOM     46  C   UNL A   1      44.868  32.670  28.586  1.00  0.00    -0.014 A 
BRANCH  46  47
ATOM     47  C   UNL A   1      44.327  31.299  28.431  1.00  0.00     0.031 A 
ATOM     48  C   UNL A   1      45.177  30.271  27.737  1.00  0.00     0.074 A 
ATOM     49  C   UNL A   1      43.124  30.958  28.926  1.00  0.00     0.049 A 
ATOM     50  N   UNL A   1      44.916  29.015  27.475  1.00  0.00    -0.248 NA
ATOM     51  C   UNL A   1      46.503  30.719  27.280  1.00  0.00     0.031 C 
ATOM     52  C   UNL A   1      42.226  31.846  29.663  1.00  0.00     0.029 A 
ATOM     53  N   UNL A   1      42.453  29.761  28.880  1.00  0.00    -0.354 N 
ATOM     54  C   UNL A   1      46.039  28.529  26.817  1.00  0.00     0.074 A 
ATOM     55  C   UNL A   1      46.970  29.630  26.691  1.00  0.00     0.031 C 
ATOM     56  C   UNL A   1      41.116  31.163  29.996  1.00  0.00     0.029 A 
ATOM     57  C   UNL A   1      41.212  29.804  29.467  1.00  0.00     0.049 A 
ATOM     58  H   UNL A   1      42.826  28.950  28.466  1.00  0.00     0.167 HD
ATOM     59  C   UNL A   1      46.279  27.276  26.361  1.00  0.00     0.031 A 
ATOM     60  C   UNL A   1      40.256  28.857  29.548  1.00  0.00     0.031 A 
ATOM     61  C   UNL A   1      45.346  26.187  26.466  1.00  0.00     0.049 A 
ATOM     62  C   UNL A   1      40.511  27.496  28.952  1.00  0.00     0.074 A 
ATOM     63  C   UNL A   1      45.499  24.878  26.044  1.00  0.00     0.029 A 
ATOM     64  N   UNL A   1      44.079  26.284  27.022  1.00  0.00    -0.354 N 
ATOM     65  N   UNL A   1      41.586  27.040  28.357  1.00  0.00    -0.248 NA
ATOM     66  C   UNL A   1      39.418  26.518  29.051  1.00  0.00     0.031 C 
ATOM     67  C   UNL A   1      44.299  24.200  26.283  1.00  0.00     0.029 A 
ATOM     68  C   UNL A   1      43.427  25.066  26.923  1.00  0.00     0.049 A 
ATOM     69  H   UNL A   1      43.700  27.097  27.426  1.00  0.00     0.167 HD
ATOM     70  C   UNL A   1      41.312  25.714  28.041  1.00  0.00     0.074 A 
ATOM     71  C   UNL A   1      39.977  25.435  28.527  1.00  0.00     0.031 C 
ATOM     72  C   UNL A   1      42.095  24.805  27.406  1.00  0.00     0.031 A 
BRANCH  59  73
ATOM     73  C   UNL A   1      47.591  27.033  25.667  1.00  0.00    -0.014 A 
ATOM     74  C   UNL A   1      47.711  27.121  24.271  1.00  0.00     0.009 A 
ATOM     75  C   UNL A   1      48.733  26.735  26.428  1.00  0.00     0.009 A 
ATOM     76  C   UNL A   1      48.939  26.882  23.650  1.00  0.00     0.001 A 
ATOM     77  C   UNL A   1      49.966  26.528  25.807  1.00  0.00     0.001 A 
ATOM     78  C   UNL A   1      50.066  26.592  24.419  1.00  0.00     0.000 A 
ENDBRANCH  59  73
BRANCH  60  79
ATOM     79  C   UNL A   1      38.954  29.163  30.199  1.00  0.00    -0.014 A 
ATOM     80  C   UNL A   1      37.872  29.654  29.452  1.00  0.00     0.009 A 
ATOM     81  C   UNL A   1      38.796  28.994  31.585  1.00  0.00     0.009 A 
ATOM     82  C   UNL A   1      36.673  29.998  30.080  1.00  0.00     0.001 A 
ATOM     83  C   UNL A   1      37.585  29.307  32.205  1.00  0.00     0.001 A 
ATOM     84  C   UNL A   1      36.528  29.819  31.455  1.00  0.00     0.000 A 
ENDBRANCH  60  79
BRANCH  72  85
ATOM     85  C   UNL A   1      41.544  23.415  27.239  1.00  0.00    -0.014 A 
ATOM     86  C   UNL A   1      40.820  23.043  26.095  1.00  0.00     0.009 A 
ATOM     87  C   UNL A   1      41.780  22.452  28.234  1.00  0.00     0.009 A 
ATOM     88  C   UNL A   1      40.306  21.749  25.973  1.00  0.00     0.001 A 
ATOM     89  C   UNL A   1      41.297  21.150  28.092  1.00  0.00     0.001 A 
ATOM     90  C   UNL A   1      40.549  20.803  26.969  1.00  0.00     0.000 A 
ENDBRANCH  72  85
ENDBRANCH  46  47
ENDBRANCH  39  41
ENDBRANCH  38  39
ENDBRANCH  37  38
ENDBRANCH  36  37
ENDBRANCH  35  36
ENDBRANCH  34  35
ENDBRANCH  33  34
ENDBRANCH  32  33
ENDBRANCH   1  32
TORSDOF 28
ENDMDL
MODEL 3
REMARK VINA RESULT:      -7.4      6.840     12.914
REMARK SMILES O=C(N[C@@H](CS)C(=O)N[C@@H](CO)C(=O)OCCOCCOCCOCCOC(=O)c1ccc(-c2c3nc(c(-c4ccccc4)c4ccc([nH]4)c(-c4ccccc4)c4nc(c(-c5ccccc5)c5ccc2[nH]5)C=C4)C=C3)cc1)c1ccc(F)cc1
REMARK SMILES IDX 20 1 19 2 18 3 17 4 16 5 15 6 13 7 14 8 10 9 9 10 7 11 8 12
REMARK SMILES IDX 4 14 3 15 1 16 2 17 78 19 79 20 84 21 80 22 83 23 81 24
REMARK SMILES IDX 82 25 5 26 6 27 11 29 12 30 21 32 22 33 23 34 24 35 25 36
REMARK SMILES IDX 26 37 27 38 28 39 29 40 30 41 31 42 77 43 32 44 76 45 33 46
REMARK SMILES IDX 34 47 35 48 70 49 36 50 75 51 69 52 71 53 37 54 74 55 68 56
REMARK SMILES IDX 67 57 38 59 60 60 45 61 59 62 46 63 49 64 58 65 72 66 47 67
REMARK SMILES IDX 48 68 57 70 73 71 50 72 39 73 40 74 44 75 41 76 43 77 42 78
REMARK SMILES IDX 61 79 62 80 66 81 63 82 65 83 64 84 51 85 52 86 56 87 53 88
REMARK SMILES IDX 55 89 54 90
REMARK H PARENT 9 13 3 18 6 28 12 31 71 58 49 69
REMARK Flexibility Score: inf
ROOT
ATOM      1  C   UNL A   1      43.493  39.153  34.370  1.00  0.00     0.188 C 
ENDROOT
BRANCH   1   2
ATOM      2  C   UNL A   1      44.029  39.899  33.139  1.00  0.00     0.188 C 
BRANCH   2   3
ATOM      3  O   UNL A   1      43.274  39.924  31.940  1.00  0.00    -0.376 OA
BRANCH   3   4
ATOM      4  C   UNL A   1      43.732  39.190  30.813  1.00  0.00     0.202 C 
BRANCH   4   5
ATOM      5  C   UNL A   1      43.954  39.868  29.444  1.00  0.00     0.261 C 
BRANCH   5   6
ATOM      6  O   UNL A   1      44.666  39.106  28.445  1.00  0.00    -0.462 OA
BRANCH   6   7
ATOM      7  C   UNL A   1      43.950  38.700  27.364  1.00  0.00     0.331 C 
ATOM      8  O   UNL A   1      43.452  39.460  26.538  1.00  0.00    -0.250 OA
BRANCH   7   9
ATOM      9  C   UNL A   1      43.750  37.168  27.281  1.00  0.00     0.218 C 
BRANCH   9  10
ATOM     10  N   UNL A   1      43.920  36.350  28.496  1.00  0.00    -0.339 N 
ATOM     11  C   UNL A   1      44.700  35.274  28.790  1.00  0.00     0.244 C 
ATOM     12  O   UNL A   1      44.685  34.893  29.969  1.00  0.00    -0.273 OA
ATOM     13  H   UNL A   1      43.353  36.641  29.247  1.00  0.00     0.164 HD
BRANCH  11  14
ATOM     14  C   UNL A   1      45.663  34.577  27.803  1.00  0.00     0.181 C 
BRANCH  14  15
ATOM     15  N   UNL A   1      45.054  34.270  26.511  1.00  0.00    -0.339 N 
ATOM     16  O   UNL A   1      44.328  33.030  24.797  1.00  0.00    -0.269 OA
ATOM     17  C   UNL A   1      44.728  33.058  25.958  1.00  0.00     0.251 C 
ATOM     18  H   UNL A   1      44.845  35.053  25.952  1.00  0.00     0.164 HD
BRANCH  17  19
ATOM     19  C   UNL A   1      44.896  31.789  26.703  1.00  0.00     0.040 A 
ATOM     20  C   UNL A   1      43.992  31.373  27.689  1.00  0.00     0.017 A 
ATOM     21  C   UNL A   1      45.966  30.957  26.343  1.00  0.00     0.017 A 
ATOM     22  C   UNL A   1      44.210  30.174  28.373  1.00  0.00     0.040 A 
ATOM     23  C   UNL A   1      46.166  29.747  27.011  1.00  0.00     0.040 A 
ATOM     24  C   UNL A   1      45.296  29.375  28.029  1.00  0.00     0.123 A 
ATOM     25  F   UNL A   1      45.499  28.223  28.682  1.00  0.00    -0.207 F 
ENDBRANCH  17  19
ENDBRANCH  14  15
BRANCH  14  26
ATOM     26  C   UNL A   1      47.084  35.165  27.730  1.00  0.00     0.101 C 
BRANCH  26  27
ATOM     27  S   UNL A   1      48.393  34.288  28.639  1.00  0.00    -0.177 SA
ATOM     28  H   UNL A   1      49.371  35.167  28.985  1.00  0.00     0.102 HD
ENDBRANCH  26  27
ENDBRANCH  14  26
ENDBRANCH  11  14
ENDBRANCH   9  10
BRANCH   9  29
ATOM     29  C   UNL A   1      42.342  36.942  26.722  1.00  0.00     0.193 C 
BRANCH  29  30
ATOM     30  O   UNL A   1      42.159  35.584  26.317  1.00  0.00    -0.394 OA
ATOM     31  H   UNL A   1      41.385  35.522  25.738  1.00  0.00     0.210 HD
ENDBRANCH  29  30
ENDBRANCH   9  29
ENDBRANCH   7   9
ENDBRANCH   6   7
ENDBRANCH   5   6
ENDBRANCH   4   5
ENDBRANCH   3   4
ENDBRANCH   2   3
ENDBRANCH   1   2
BRANCH   1  32
ATOM     32  O   UNL A   1      43.343  37.759  34.218  1.00  0.00    -0.377 OA
BRANCH  32  33
ATOM     33  C   UNL A   1      43.835  36.968  35.290  1.00  0.00     0.188 C 
BRANCH  33  34
ATOM     34  C   UNL A   1      44.209  37.698  36.594  1.00  0.00     0.188 C 
BRANCH  34  35
ATOM     35  O   UNL A   1      44.193  36.866  37.749  1.00  0.00    -0.376 OA
BRANCH  35  36
ATOM     36  C   UNL A   1      43.700  37.392  38.973  1.00  0.00     0.202 C 
BRANCH  36  37
ATOM     37  C   UNL A   1      42.201  37.727  39.069  1.00  0.00     0.261 C 
BRANCH  37  38
ATOM     38  O   UNL A   1      41.289  36.618  39.068  1.00  0.00    -0.460 OA
BRANCH  38  39
ATOM     39  C   UNL A   1      40.038  36.820  38.598  1.00  0.00     0.338 C 
ATOM     40  O   UNL A   1      39.238  37.651  38.970  1.00  0.00    -0.246 OA
BRANCH  39  41
ATOM     41  C   UNL A   1      39.882  35.987  37.383  1.00  0.00     0.060 A 
ATOM     42  C   UNL A   1      39.112  34.818  37.464  1.00  0.00     0.016 A 
ATOM     43  C   UNL A   1      40.470  36.362  36.173  1.00  0.00     0.016 A 
ATOM     44  C   UNL A   1      38.954  34.005  36.342  1.00  0.00     0.010 A 
ATOM     45  C   UNL A   1      40.335  35.531  35.056  1.00  0.00     0.010 A 
ATOM     46  C   UNL A   1      39.604  34.333  35.145  1.00  0.00    -0.014 A 
BRANCH  46  47
ATOM     47  C   UNL A   1      39.682  33.325  34.062  1.00  0.00     0.031 A 
ATOM     48  C   UNL A   1      40.799  32.318  34.104  1.00  0.00     0.074 A 
ATOM     49  C   UNL A   1      38.764  33.274  33.081  1.00  0.00     0.049 A 
ATOM     50  N   UNL A   1      41.079  31.352  33.266  1.00  0.00    -0.248 NA
ATOM     51  C   UNL A   1      41.723  32.413  35.246  1.00  0.00     0.031 C 
ATOM     52  C   UNL A   1      37.606  34.158  32.956  1.00  0.00     0.029 A 
ATOM     53  N   UNL A   1      38.666  32.434  32.000  1.00  0.00    -0.354 N 
ATOM     54  C   UNL A   1      42.213  30.731  33.777  1.00  0.00     0.074 A 
ATOM     55  C   UNL A   1      42.588  31.448  34.976  1.00  0.00     0.031 C 
ATOM     56  C   UNL A   1      36.916  33.816  31.853  1.00  0.00     0.029 A 
ATOM     57  C   UNL A   1      37.601  32.715  31.180  1.00  0.00     0.049 A 
ATOM     58  H   UNL A   1      39.300  31.700  31.829  1.00  0.00     0.167 HD
ATOM     59  C   UNL A   1      42.882  29.657  33.294  1.00  0.00     0.031 A 
ATOM     60  C   UNL A   1      37.235  32.157  30.008  1.00  0.00     0.031 A 
ATOM     61  C   UNL A   1      42.523  28.957  32.091  1.00  0.00     0.049 A 
ATOM     62  C   UNL A   1      38.050  31.021  29.444  1.00  0.00     0.074 A 
ATOM     63  C   UNL A   1      43.131  27.851  31.522  1.00  0.00     0.029 A 
ATOM     64  N   UNL A   1      41.468  29.304  31.261  1.00  0.00    -0.354 N 
ATOM     65  N   UNL A   1      39.103  30.425  29.949  1.00  0.00    -0.248 NA
ATOM     66  C   UNL A   1      37.613  30.475  28.151  1.00  0.00     0.031 C 
ATOM     67  C   UNL A   1      42.486  27.571  30.314  1.00  0.00     0.029 A 
ATOM     68  C   UNL A   1      41.429  28.454  30.168  1.00  0.00     0.049 A 
ATOM     69  H   UNL A   1      40.840  30.044  31.424  1.00  0.00     0.167 HD
ATOM     70  C   UNL A   1      39.435  29.416  29.052  1.00  0.00     0.074 A 
ATOM     71  C   UNL A   1      38.459  29.468  27.983  1.00  0.00     0.031 C 
ATOM     72  C   UNL A   1      40.455  28.522  29.108  1.00  0.00     0.031 A 
BRANCH  59  73
ATOM     73  C   UNL A   1      44.099  29.203  34.052  1.00  0.00    -0.014 A 
ATOM     74  C   UNL A   1      43.993  28.562  35.298  1.00  0.00     0.009 A 
ATOM     75  C   UNL A   1      45.374  29.398  33.496  1.00  0.00     0.009 A 
ATOM     76  C   UNL A   1      45.140  28.158  35.985  1.00  0.00     0.001 A 
ATOM     77  C   UNL A   1      46.516  28.963  34.170  1.00  0.00     0.001 A 
ATOM     78  C   UNL A   1      46.399  28.353  35.418  1.00  0.00     0.000 A 
ENDBRANCH  59  73
BRANCH  60  79
ATOM     79  C   UNL A   1      36.053  32.676  29.269  1.00  0.00    -0.014 A 
ATOM     80  C   UNL A   1      36.131  33.866  28.529  1.00  0.00     0.009 A 
ATOM     81  C   UNL A   1      34.825  31.997  29.329  1.00  0.00     0.009 A 
ATOM     82  C   UNL A   1      35.000  34.380  27.890  1.00  0.00     0.001 A 
ATOM     83  C   UNL A   1      33.705  32.495  28.661  1.00  0.00     0.001 A 
ATOM     84  C   UNL A   1      33.790  33.691  27.951  1.00  0.00     0.000 A 
ENDBRANCH  60  79
BRANCH  72  85
ATOM     85  C   UNL A   1      40.542  27.503  28.004  1.00  0.00    -0.014 A 
ATOM     86  C   UNL A   1      41.315  27.728  26.854  1.00  0.00     0.009 A 
ATOM     87  C   UNL A   1      39.858  26.283  28.132  1.00  0.00     0.009 A 
ATOM     88  C   UNL A   1      41.366  26.771  25.837  1.00  0.00     0.001 A 
ATOM     89  C   UNL A   1      39.940  25.313  27.131  1.00  0.00     0.001 A 
ATOM     90  C   UNL A   1      40.683  25.564  25.979  1.00  0.00     0.000 A 
ENDBRANCH  72  85
ENDBRANCH  46  47
ENDBRANCH  39  41
ENDBRANCH  38  39
ENDBRANCH  37  38
ENDBRANCH  36  37
ENDBRANCH  35  36
ENDBRANCH  34  35
ENDBRANCH  33  34
ENDBRANCH  32  33
ENDBRANCH   1  32
TORSDOF 28
ENDMDL
