MODEL 1
REMARK VINA RESULT:      -8.2      0.000      0.000
REMARK SMILES CSCCC(=O)N1[C@H](C)CCC[C@@H]1C(=O)OCCOCCOCCOCCOC(=O)c1ccc(-c2c3nc(c(-c4ccccc4)c4ccc([nH]4)c(-c4ccccc4)c4nc(c(-c5ccccc5)c5ccc2[nH]5)C=C4)C=C3)cc1
REMARK SMILES IDX 21 1 20 2 19 3 18 4 17 5 16 6 14 7 15 8 13 9 7 10 8 11 9 12
REMARK SMILES IDX 10 13 12 14 11 15 5 16 6 17 4 18 3 19 2 20 1 21 22 22 23 23
REMARK SMILES IDX 24 24 25 25 26 26 27 27 28 28 29 29 30 30 31 31 32 32 78 33
REMARK SMILES IDX 33 34 77 35 34 36 35 37 36 38 71 39 37 40 76 41 70 42 72 43
REMARK SMILES IDX 38 44 75 45 69 46 68 47 39 49 61 50 46 51 60 52 47 53 50 54
REMARK SMILES IDX 59 55 73 56 48 57 49 58 58 60 74 61 51 62 40 63 41 64 45 65
REMARK SMILES IDX 42 66 44 67 43 68 62 69 63 70 67 71 64 72 66 73 65 74 52 75
REMARK SMILES IDX 53 76 57 77 54 78 56 79 55 80
REMARK H PARENT 72 48 50 59
REMARK Flexibility Score: inf
ROOT
ATOM      1  C   UNL A   1      36.279  24.074  25.757  1.00  0.00     0.188 C 
ENDROOT
BRANCH   1   2
ATOM      2  C   UNL A   1      34.824  24.575  25.780  1.00  0.00     0.188 C 
BRANCH   2   3
ATOM      3  O   UNL A   1      33.742  23.662  25.778  1.00  0.00    -0.376 OA
BRANCH   3   4
ATOM      4  C   UNL A   1      32.903  23.518  26.913  1.00  0.00     0.202 C 
BRANCH   4   5
ATOM      5  C   UNL A   1      31.383  23.629  26.811  1.00  0.00     0.261 C 
BRANCH   5   6
ATOM      6  O   UNL A   1      30.878  24.139  25.565  1.00  0.00    -0.462 OA
BRANCH   6   7
ATOM      7  C   UNL A   1      30.615  25.469  25.499  1.00  0.00     0.328 C 
ATOM      8  O   UNL A   1      30.287  26.140  26.475  1.00  0.00    -0.250 OA
BRANCH   7   9
ATOM      9  C   UNL A   1      30.507  26.004  24.055  1.00  0.00     0.195 C 
ATOM     10  N   UNL A   1      31.857  26.495  23.778  1.00  0.00    -0.326 N 
ATOM     11  C   UNL A   1      32.196  27.833  24.305  1.00  0.00     0.083 C 
ATOM     12  C   UNL A   1      33.076  27.868  25.551  1.00  0.00     0.031 C 
ATOM     13  C   UNL A   1      30.963  28.749  24.465  1.00  0.00     0.025 C 
ATOM     14  C   UNL A   1      29.436  26.987  23.567  1.00  0.00     0.037 C 
ATOM     15  C   UNL A   1      29.920  28.426  23.411  1.00  0.00     0.005 C 
BRANCH  10  16
ATOM     16  C   UNL A   1      32.662  25.685  22.998  1.00  0.00     0.224 C 
ATOM     17  O   UNL A   1      33.729  26.092  22.529  1.00  0.00    -0.275 OA
BRANCH  16  18
ATOM     18  C   UNL A   1      32.143  24.329  22.595  1.00  0.00     0.111 C 
BRANCH  18  19
ATOM     19  C   UNL A   1      33.165  23.203  22.565  1.00  0.00     0.079 C 
BRANCH  19  20
ATOM     20  S   UNL A   1      32.661  21.601  23.289  1.00  0.00    -0.165 SA
ATOM     21  C   UNL A   1      31.772  20.865  21.884  1.00  0.00     0.085 C 
ENDBRANCH  19  20
ENDBRANCH  18  19
ENDBRANCH  16  18
ENDBRANCH  10  16
ENDBRANCH   7   9
ENDBRANCH   6   7
ENDBRANCH   5   6
ENDBRANCH   4   5
ENDBRANCH   3   4
ENDBRANCH   2   3
ENDBRANCH   1   2
BRANCH   1  22
ATOM     22  O   UNL A   1      36.751  23.568  24.521  1.00  0.00    -0.377 OA
BRANCH  22  23
ATOM     23  C   UNL A   1      36.458  22.219  24.178  1.00  0.00     0.188 C 
BRANCH  23  24
ATOM     24  C   UNL A   1      36.475  21.151  25.287  1.00  0.00     0.188 C 
BRANCH  24  25
ATOM     25  O   UNL A   1      36.627  19.826  24.811  1.00  0.00    -0.376 OA
BRANCH  25  26
ATOM     26  C   UNL A   1      37.869  19.159  24.982  1.00  0.00     0.202 C 
BRANCH  26  27
ATOM     27  C   UNL A   1      39.147  19.999  25.151  1.00  0.00     0.261 C 
BRANCH  27  28
ATOM     28  O   UNL A   1      39.938  19.762  26.328  1.00  0.00    -0.460 OA
BRANCH  28  29
ATOM     29  C   UNL A   1      41.272  19.595  26.186  1.00  0.00     0.338 C 
ATOM     30  O   UNL A   1      41.847  18.673  25.656  1.00  0.00    -0.246 OA
BRANCH  29  31
ATOM     31  C   UNL A   1      41.926  20.851  26.620  1.00  0.00     0.060 A 
ATOM     32  C   UNL A   1      41.959  21.162  27.985  1.00  0.00     0.016 A 
ATOM     33  C   UNL A   1      42.468  21.729  25.680  1.00  0.00     0.016 A 
ATOM     34  C   UNL A   1      42.487  22.379  28.413  1.00  0.00     0.010 A 
ATOM     35  C   UNL A   1      42.972  22.962  26.107  1.00  0.00     0.010 A 
ATOM     36  C   UNL A   1      42.942  23.308  27.469  1.00  0.00    -0.014 A 
BRANCH  36  37
ATOM     37  C   UNL A   1      43.156  24.715  27.886  1.00  0.00     0.031 A 
ATOM     38  C   UNL A   1      44.574  25.193  28.063  1.00  0.00     0.074 A 
ATOM     39  C   UNL A   1      42.129  25.567  28.051  1.00  0.00     0.049 A 
ATOM     40  N   UNL A   1      45.015  26.359  28.454  1.00  0.00    -0.248 NA
ATOM     41  C   UNL A   1      45.638  24.222  27.748  1.00  0.00     0.031 C 
ATOM     42  C   UNL A   1      40.718  25.250  27.840  1.00  0.00     0.029 A 
ATOM     43  N   UNL A   1      42.124  26.885  28.435  1.00  0.00    -0.354 N 
ATOM     44  C   UNL A   1      46.401  26.264  28.431  1.00  0.00     0.074 A 
ATOM     45  C   UNL A   1      46.731  24.917  28.024  1.00  0.00     0.031 C 
ATOM     46  C   UNL A   1      39.982  26.343  28.106  1.00  0.00     0.029 A 
ATOM     47  C   UNL A   1      40.865  27.423  28.541  1.00  0.00     0.049 A 
ATOM     48  H   UNL A   1      42.946  27.395  28.617  1.00  0.00     0.167 HD
ATOM     49  C   UNL A   1      47.322  27.217  28.709  1.00  0.00     0.031 A 
ATOM     50  C   UNL A   1      40.475  28.642  28.966  1.00  0.00     0.031 A 
ATOM     51  C   UNL A   1      46.998  28.552  29.130  1.00  0.00     0.049 A 
ATOM     52  C   UNL A   1      41.522  29.645  29.389  1.00  0.00     0.074 A 
ATOM     53  C   UNL A   1      47.860  29.584  29.460  1.00  0.00     0.029 A 
ATOM     54  N   UNL A   1      45.711  29.039  29.282  1.00  0.00    -0.354 N 
ATOM     55  N   UNL A   1      42.829  29.544  29.358  1.00  0.00    -0.248 NA
ATOM     56  C   UNL A   1      41.034  30.935  29.898  1.00  0.00     0.031 C 
ATOM     57  C   UNL A   1      47.092  30.680  29.861  1.00  0.00     0.029 A 
ATOM     58  C   UNL A   1      45.754  30.352  29.718  1.00  0.00     0.049 A 
ATOM     59  H   UNL A   1      44.888  28.528  29.105  1.00  0.00     0.167 HD
ATOM     60  C   UNL A   1      43.314  30.770  29.801  1.00  0.00     0.074 A 
ATOM     61  C   UNL A   1      42.163  31.602  30.078  1.00  0.00     0.031 C 
ATOM     62  C   UNL A   1      44.599  31.173  29.967  1.00  0.00     0.031 A 
BRANCH  49  63
ATOM     63  C   UNL A   1      48.772  26.842  28.584  1.00  0.00    -0.014 A 
ATOM     64  C   UNL A   1      49.472  26.281  29.664  1.00  0.00     0.009 A 
ATOM     65  C   UNL A   1      49.431  27.001  27.355  1.00  0.00     0.009 A 
ATOM     66  C   UNL A   1      50.808  25.904  29.521  1.00  0.00     0.001 A 
ATOM     67  C   UNL A   1      50.758  26.596  27.206  1.00  0.00     0.001 A 
ATOM     68  C   UNL A   1      51.448  26.054  28.290  1.00  0.00     0.000 A 
ENDBRANCH  49  63
BRANCH  50  69
ATOM     69  C   UNL A   1      39.031  28.990  29.061  1.00  0.00    -0.014 A 
ATOM     70  C   UNL A   1      38.366  29.603  27.987  1.00  0.00     0.009 A 
ATOM     71  C   UNL A   1      38.329  28.786  30.260  1.00  0.00     0.009 A 
ATOM     72  C   UNL A   1      37.049  30.048  28.127  1.00  0.00     0.001 A 
ATOM     73  C   UNL A   1      37.000  29.199  30.385  1.00  0.00     0.001 A 
ATOM     74  C   UNL A   1      36.367  29.845  29.325  1.00  0.00     0.000 A 
ENDBRANCH  50  69
BRANCH  62  75
ATOM     75  C   UNL A   1      44.830  32.593  30.403  1.00  0.00    -0.014 A 
ATOM     76  C   UNL A   1      44.903  33.645  29.476  1.00  0.00     0.009 A 
ATOM     77  C   UNL A   1      44.930  32.887  31.772  1.00  0.00     0.009 A 
ATOM     78  C   UNL A   1      45.114  34.955  29.912  1.00  0.00     0.001 A 
ATOM     79  C   UNL A   1      45.105  34.201  32.206  1.00  0.00     0.001 A 
ATOM     80  C   UNL A   1      45.208  35.233  31.275  1.00  0.00     0.000 A 
ENDBRANCH  62  75
ENDBRANCH  36  37
ENDBRANCH  29  31
ENDBRANCH  28  29
ENDBRANCH  27  28
ENDBRANCH  26  27
ENDBRANCH  25  26
ENDBRANCH  24  25
ENDBRANCH  23  24
ENDBRANCH  22  23
ENDBRANCH   1  22
TORSDOF 24
ENDMDL
MODEL 2
REMARK VINA RESULT:      -8.2      3.968      7.913
REMARK SMILES CSCCC(=O)N1[C@H](C)CCC[C@@H]1C(=O)OCCOCCOCCOCCOC(=O)c1ccc(-c2c3nc(c(-c4ccccc4)c4ccc([nH]4)c(-c4ccccc4)c4nc(c(-c5ccccc5)c5ccc2[nH]5)C=C4)C=C3)cc1
REMARK SMILES IDX 21 1 20 2 19 3 18 4 17 5 16 6 14 7 15 8 13 9 7 10 8 11 9 12
REMARK SMILES IDX 10 13 12 14 11 15 5 16 6 17 4 18 3 19 2 20 1 21 22 22 23 23
REMARK SMILES IDX 24 24 25 25 26 26 27 27 28 28 29 29 30 30 31 31 32 32 78 33
REMARK SMILES IDX 33 34 77 35 34 36 35 37 36 38 71 39 37 40 76 41 70 42 72 43
REMARK SMILES IDX 38 44 75 45 69 46 68 47 39 49 61 50 46 51 60 52 47 53 50 54
REMARK SMILES IDX 59 55 73 56 48 57 49 58 58 60 74 61 51 62 40 63 41 64 45 65
REMARK SMILES IDX 42 66 44 67 43 68 62 69 63 70 67 71 64 72 66 73 65 74 52 75
REMARK SMILES IDX 53 76 57 77 54 78 56 79 55 80
REMARK H PARENT 72 48 50 59
REMARK Flexibility Score: inf
ROOT
ATOM      1  C   UNL A   1      30.674  29.155  22.584  1.00  0.00     0.188 C 
ENDROOT
BRANCH   1   2
ATOM      2  C   UNL A   1      29.638  28.740  23.644  1.00  0.00     0.188 C 
BRANCH   2   3
ATOM      3  O   UNL A   1      28.777  27.637  23.425  1.00  0.00    -0.376 OA
BRANCH   3   4
ATOM      4  C   UNL A   1      29.109  26.343  23.900  1.00  0.00     0.202 C 
BRANCH   4   5
ATOM      5  C   UNL A   1      30.035  26.137  25.097  1.00  0.00     0.261 C 
BRANCH   5   6
ATOM      6  O   UNL A   1      31.157  25.266  24.873  1.00  0.00    -0.462 OA
BRANCH   6   7
ATOM      7  C   UNL A   1      31.226  24.137  25.622  1.00  0.00     0.328 C 
ATOM      8  O   UNL A   1      31.125  24.134  26.847  1.00  0.00    -0.250 OA
BRANCH   7   9
ATOM      9  C   UNL A   1      31.704  22.900  24.830  1.00  0.00     0.195 C 
ATOM     10  N   UNL A   1      33.078  22.714  25.298  1.00  0.00    -0.326 N 
ATOM     11  C   UNL A   1      34.109  23.574  24.681  1.00  0.00     0.083 C 
ATOM     12  C   UNL A   1      34.607  24.745  25.524  1.00  0.00     0.031 C 
ATOM     13  C   UNL A   1      33.741  24.030  23.253  1.00  0.00     0.025 C 
ATOM     14  C   UNL A   1      31.598  22.746  23.308  1.00  0.00     0.037 C 
ATOM     15  C   UNL A   1      32.907  22.972  22.556  1.00  0.00     0.005 C 
BRANCH  10  16
ATOM     16  C   UNL A   1      33.285  21.709  26.225  1.00  0.00     0.224 C 
ATOM     17  O   UNL A   1      33.173  21.914  27.437  1.00  0.00    -0.275 OA
BRANCH  16  18
ATOM     18  C   UNL A   1      33.804  20.380  25.740  1.00  0.00     0.111 C 
BRANCH  18  19
ATOM     19  C   UNL A   1      32.833  19.538  24.928  1.00  0.00     0.079 C 
BRANCH  19  20
ATOM     20  S   UNL A   1      32.744  17.755  25.324  1.00  0.00    -0.165 SA
ATOM     21  C   UNL A   1      33.244  17.034  23.731  1.00  0.00     0.085 C 
ENDBRANCH  19  20
ENDBRANCH  18  19
ENDBRANCH  16  18
ENDBRANCH  10  16
ENDBRANCH   7   9
ENDBRANCH   6   7
ENDBRANCH   5   6
ENDBRANCH   4   5
ENDBRANCH   3   4
ENDBRANCH   2   3
ENDBRANCH   1   2
BRANCH   1  22
ATOM     22  O   UNL A   1      31.723  28.236  22.336  1.00  0.00    -0.377 OA
BRANCH  22  23
ATOM     23  C   UNL A   1      32.716  28.046  23.338  1.00  0.00     0.188 C 
BRANCH  23  24
ATOM     24  C   UNL A   1      32.868  29.108  24.442  1.00  0.00     0.188 C 
BRANCH  24  25
ATOM     25  O   UNL A   1      32.395  28.693  25.711  1.00  0.00    -0.376 OA
BRANCH  25  26
ATOM     26  C   UNL A   1      31.858  29.655  26.606  1.00  0.00     0.202 C 
BRANCH  26  27
ATOM     27  C   UNL A   1      32.271  31.129  26.451  1.00  0.00     0.261 C 
BRANCH  27  28
ATOM     28  O   UNL A   1      32.535  31.869  27.656  1.00  0.00    -0.460 OA
BRANCH  28  29
ATOM     29  C   UNL A   1      33.477  32.837  27.625  1.00  0.00     0.338 C 
ATOM     30  O   UNL A   1      33.312  34.023  27.455  1.00  0.00    -0.246 OA
BRANCH  29  31
ATOM     31  C   UNL A   1      34.759  32.221  28.040  1.00  0.00     0.060 A 
ATOM     32  C   UNL A   1      34.785  30.858  28.356  1.00  0.00     0.016 A 
ATOM     33  C   UNL A   1      35.915  32.997  28.150  1.00  0.00     0.016 A 
ATOM     34  C   UNL A   1      35.957  30.273  28.836  1.00  0.00     0.010 A 
ATOM     35  C   UNL A   1      37.082  32.417  28.658  1.00  0.00     0.010 A 
ATOM     36  C   UNL A   1      37.093  31.064  29.044  1.00  0.00    -0.014 A 
BRANCH  36  37
ATOM     37  C   UNL A   1      38.198  30.536  29.880  1.00  0.00     0.031 A 
ATOM     38  C   UNL A   1      39.194  29.609  29.233  1.00  0.00     0.074 A 
ATOM     39  C   UNL A   1      38.352  30.908  31.163  1.00  0.00     0.049 A 
ATOM     40  N   UNL A   1      40.219  28.992  29.760  1.00  0.00    -0.248 NA
ATOM     41  C   UNL A   1      39.010  29.350  27.793  1.00  0.00     0.031 C 
ATOM     42  C   UNL A   1      37.502  31.853  31.883  1.00  0.00     0.029 A 
ATOM     43  N   UNL A   1      39.293  30.529  32.087  1.00  0.00    -0.354 N 
ATOM     44  C   UNL A   1      40.801  28.276  28.721  1.00  0.00     0.074 A 
ATOM     45  C   UNL A   1      39.997  28.502  27.541  1.00  0.00     0.031 C 
ATOM     46  C   UNL A   1      37.957  31.974  33.143  1.00  0.00     0.029 A 
ATOM     47  C   UNL A   1      39.104  31.087  33.328  1.00  0.00     0.049 A 
ATOM     48  H   UNL A   1      40.034  29.913  31.881  1.00  0.00     0.167 HD
ATOM     49  C   UNL A   1      41.916  27.508  28.741  1.00  0.00     0.031 A 
ATOM     50  C   UNL A   1      39.769  30.884  34.482  1.00  0.00     0.031 A 
ATOM     51  C   UNL A   1      42.707  27.266  29.915  1.00  0.00     0.049 A 
ATOM     52  C   UNL A   1      40.934  29.924  34.502  1.00  0.00     0.074 A 
ATOM     53  C   UNL A   1      43.841  26.482  30.043  1.00  0.00     0.029 A 
ATOM     54  N   UNL A   1      42.447  27.804  31.164  1.00  0.00    -0.354 N 
ATOM     55  N   UNL A   1      41.477  29.256  33.512  1.00  0.00    -0.248 NA
ATOM     56  C   UNL A   1      41.583  29.698  35.803  1.00  0.00     0.031 C 
ATOM     57  C   UNL A   1      44.236  26.506  31.383  1.00  0.00     0.029 A 
ATOM     58  C   UNL A   1      43.388  27.355  32.074  1.00  0.00     0.049 A 
ATOM     59  H   UNL A   1      41.704  28.415  31.374  1.00  0.00     0.167 HD
ATOM     60  C   UNL A   1      42.554  28.570  34.064  1.00  0.00     0.074 A 
ATOM     61  C   UNL A   1      42.596  28.914  35.469  1.00  0.00     0.031 C 
ATOM     62  C   UNL A   1      43.429  27.726  33.464  1.00  0.00     0.031 A 
BRANCH  49  63
ATOM     63  C   UNL A   1      42.335  26.855  27.453  1.00  0.00    -0.014 A 
ATOM     64  C   UNL A   1      43.236  27.486  26.581  1.00  0.00     0.009 A 
ATOM     65  C   UNL A   1      41.868  25.570  27.137  1.00  0.00     0.009 A 
ATOM     66  C   UNL A   1      43.645  26.851  25.407  1.00  0.00     0.001 A 
ATOM     67  C   UNL A   1      42.301  24.925  25.978  1.00  0.00     0.001 A 
ATOM     68  C   UNL A   1      43.184  25.568  25.111  1.00  0.00     0.000 A 
ENDBRANCH  49  63
BRANCH  50  69
ATOM     69  C   UNL A   1      39.341  31.559  35.738  1.00  0.00    -0.014 A 
ATOM     70  C   UNL A   1      38.240  31.085  36.470  1.00  0.00     0.009 A 
ATOM     71  C   UNL A   1      39.980  32.733  36.168  1.00  0.00     0.009 A 
ATOM     72  C   UNL A   1      37.761  31.798  37.573  1.00  0.00     0.001 A 
ATOM     73  C   UNL A   1      39.522  33.423  37.292  1.00  0.00     0.001 A 
ATOM     74  C   UNL A   1      38.402  32.965  37.983  1.00  0.00     0.000 A 
ENDBRANCH  50  69
BRANCH  62  75
ATOM     75  C   UNL A   1      44.547  27.172  34.304  1.00  0.00    -0.014 A 
ATOM     76  C   UNL A   1      44.438  25.930  34.947  1.00  0.00     0.009 A 
ATOM     77  C   UNL A   1      45.748  27.891  34.415  1.00  0.00     0.009 A 
ATOM     78  C   UNL A   1      45.495  25.438  35.717  1.00  0.00     0.001 A 
ATOM     79  C   UNL A   1      46.815  27.381  35.156  1.00  0.00     0.001 A 
ATOM     80  C   UNL A   1      46.683  26.161  35.815  1.00  0.00     0.000 A 
ENDBRANCH  62  75
ENDBRANCH  36  37
ENDBRANCH  29  31
ENDBRANCH  28  29
ENDBRANCH  27  28
ENDBRANCH  26  27
ENDBRANCH  25  26
ENDBRANCH  24  25
ENDBRANCH  23  24
ENDBRANCH  22  23
ENDBRANCH   1  22
TORSDOF 24
ENDMDL
MODEL 3
REMARK VINA RESULT:      -8.2      3.169      8.321
REMARK SMILES CSCCC(=O)N1[C@H](C)CCC[C@@H]1C(=O)OCCOCCOCCOCCOC(=O)c1ccc(-c2c3nc(c(-c4ccccc4)c4ccc([nH]4)c(-c4ccccc4)c4nc(c(-c5ccccc5)c5ccc2[nH]5)C=C4)C=C3)cc1
REMARK SMILES IDX 21 1 20 2 19 3 18 4 17 5 16 6 14 7 15 8 13 9 7 10 8 11 9 12
REMARK SMILES IDX 10 13 12 14 11 15 5 16 6 17 4 18 3 19 2 20 1 21 22 22 23 23
REMARK SMILES IDX 24 24 25 25 26 26 27 27 28 28 29 29 30 30 31 31 32 32 78 33
REMARK SMILES IDX 33 34 77 35 34 36 35 37 36 38 71 39 37 40 76 41 70 42 72 43
REMARK SMILES IDX 38 44 75 45 69 46 68 47 39 49 61 50 46 51 60 52 47 53 50 54
REMARK SMILES IDX 59 55 73 56 48 57 49 58 58 60 74 61 51 62 40 63 41 64 45 65
REMARK SMILES IDX 42 66 44 67 43 68 62 69 63 70 67 71 64 72 66 73 65 74 52 75
REMARK SMILES IDX 53 76 57 77 54 78 56 79 55 80
REMARK H PARENT 72 48 50 59
REMARK Flexibility Score: inf
ROOT
ATOM      1  C   UNL A   1      35.049  32.552  28.001  1.00  0.00     0.188 C 
ENDROOT
BRANCH   1   2
ATOM      2  C   UNL A   1      34.117  31.330  27.925  1.00  0.00     0.188 C 
BRANCH   2   3
ATOM      3  O   UNL A   1      33.173  31.202  26.876  1.00  0.00    -0.376 OA
BRANCH   3   4
ATOM      4  C   UNL A   1      32.136  30.236  26.939  1.00  0.00     0.202 C 
BRANCH   4   5
ATOM      5  C   UNL A   1      32.399  28.799  27.384  1.00  0.00     0.261 C 
BRANCH   5   6
ATOM      6  O   UNL A   1      31.349  27.858  27.103  1.00  0.00    -0.462 OA
BRANCH   6   7
ATOM      7  C   UNL A   1      31.700  26.699  26.491  1.00  0.00     0.328 C 
ATOM      8  O   UNL A   1      31.379  25.591  26.913  1.00  0.00    -0.250 OA
BRANCH   7   9
ATOM      9  C   UNL A   1      32.751  26.886  25.375  1.00  0.00     0.195 C 
ATOM     10  N   UNL A   1      31.936  27.137  24.186  1.00  0.00    -0.326 N 
ATOM     11  C   UNL A   1      31.360  25.952  23.517  1.00  0.00     0.083 C 
ATOM     12  C   UNL A   1      29.875  25.694  23.757  1.00  0.00     0.031 C 
ATOM     13  C   UNL A   1      32.192  24.670  23.736  1.00  0.00     0.025 C 
ATOM     14  C   UNL A   1      33.895  25.907  25.082  1.00  0.00     0.037 C 
ATOM     15  C   UNL A   1      33.665  25.009  23.870  1.00  0.00     0.005 C 
BRANCH  10  16
ATOM     16  C   UNL A   1      31.838  28.451  23.769  1.00  0.00     0.224 C 
ATOM     17  O   UNL A   1      32.838  29.155  23.605  1.00  0.00    -0.275 OA
BRANCH  16  18
ATOM     18  C   UNL A   1      30.468  29.070  23.661  1.00  0.00     0.111 C 
BRANCH  18  19
ATOM     19  C   UNL A   1      29.903  29.205  22.256  1.00  0.00     0.079 C 
BRANCH  19  20
ATOM     20  S   UNL A   1      28.817  30.640  21.928  1.00  0.00    -0.165 SA
ATOM     21  C   UNL A   1      28.818  31.438  23.562  1.00  0.00     0.085 C 
ENDBRANCH  19  20
ENDBRANCH  18  19
ENDBRANCH  16  18
ENDBRANCH  10  16
ENDBRANCH   7   9
ENDBRANCH   6   7
ENDBRANCH   5   6
ENDBRANCH   4   5
ENDBRANCH   3   4
ENDBRANCH   2   3
ENDBRANCH   1   2
BRANCH   1  22
ATOM     22  O   UNL A   1      34.489  33.796  27.621  1.00  0.00    -0.377 OA
BRANCH  22  23
ATOM     23  C   UNL A   1      33.598  34.447  28.520  1.00  0.00     0.188 C 
BRANCH  23  24
ATOM     24  C   UNL A   1      33.764  34.209  30.032  1.00  0.00     0.188 C 
BRANCH  24  25
ATOM     25  O   UNL A   1      34.780  34.992  30.631  1.00  0.00    -0.376 OA
BRANCH  25  26
ATOM     26  C   UNL A   1      35.229  34.673  31.939  1.00  0.00     0.202 C 
BRANCH  26  27
ATOM     27  C   UNL A   1      36.560  33.919  32.106  1.00  0.00     0.261 C 
BRANCH  27  28
ATOM     28  O   UNL A   1      36.926  32.993  31.069  1.00  0.00    -0.460 OA
BRANCH  28  29
ATOM     29  C   UNL A   1      36.494  31.715  31.163  1.00  0.00     0.338 C 
ATOM     30  O   UNL A   1      35.388  31.330  31.464  1.00  0.00    -0.246 OA
BRANCH  29  31
ATOM     31  C   UNL A   1      37.568  30.844  30.632  1.00  0.00     0.060 A 
ATOM     32  C   UNL A   1      38.342  30.098  31.530  1.00  0.00     0.016 A 
ATOM     33  C   UNL A   1      37.829  30.795  29.261  1.00  0.00     0.016 A 
ATOM     34  C   UNL A   1      39.416  29.340  31.065  1.00  0.00     0.010 A 
ATOM     35  C   UNL A   1      38.924  30.058  28.799  1.00  0.00     0.010 A 
ATOM     36  C   UNL A   1      39.746  29.365  29.705  1.00  0.00    -0.014 A 
BRANCH  36  37
ATOM     37  C   UNL A   1      41.076  28.868  29.275  1.00  0.00     0.031 A 
ATOM     38  C   UNL A   1      42.235  29.829  29.311  1.00  0.00     0.074 A 
ATOM     39  C   UNL A   1      41.269  27.587  28.917  1.00  0.00     0.049 A 
ATOM     40  N   UNL A   1      43.479  29.645  28.953  1.00  0.00    -0.248 NA
ATOM     41  C   UNL A   1      41.953  31.181  29.829  1.00  0.00     0.031 C 
ATOM     42  C   UNL A   1      40.248  26.542  28.911  1.00  0.00     0.029 A 
ATOM     43  N   UNL A   1      42.407  26.949  28.489  1.00  0.00    -0.354 N 
ATOM     44  C   UNL A   1      44.125  30.850  29.201  1.00  0.00     0.074 A 
ATOM     45  C   UNL A   1      43.132  31.772  29.706  1.00  0.00     0.031 C 
ATOM     46  C   UNL A   1      40.804  25.392  28.490  1.00  0.00     0.029 A 
ATOM     47  C   UNL A   1      42.209  25.630  28.162  1.00  0.00     0.049 A 
ATOM     48  H   UNL A   1      43.282  27.396  28.421  1.00  0.00     0.167 HD
ATOM     49  C   UNL A   1      45.432  31.161  29.039  1.00  0.00     0.031 A 
ATOM     50  C   UNL A   1      43.062  24.729  27.635  1.00  0.00     0.031 A 
ATOM     51  C   UNL A   1      46.419  30.254  28.522  1.00  0.00     0.049 A 
ATOM     52  C   UNL A   1      44.486  25.141  27.348  1.00  0.00     0.074 A 
ATOM     53  C   UNL A   1      47.766  30.482  28.297  1.00  0.00     0.029 A 
ATOM     54  N   UNL A   1      46.165  28.945  28.148  1.00  0.00    -0.354 N 
ATOM     55  N   UNL A   1      45.085  26.282  27.592  1.00  0.00    -0.248 NA
ATOM     56  C   UNL A   1      45.353  24.133  26.720  1.00  0.00     0.031 C 
ATOM     57  C   UNL A   1      48.315  29.325  27.737  1.00  0.00     0.029 A 
ATOM     58  C   UNL A   1      47.326  28.358  27.676  1.00  0.00     0.049 A 
ATOM     59  H   UNL A   1      45.289  28.499  28.209  1.00  0.00     0.167 HD
ATOM     60  C   UNL A   1      46.404  26.111  27.188  1.00  0.00     0.074 A 
ATOM     61  C   UNL A   1      46.522  24.754  26.699  1.00  0.00     0.031 C 
ATOM     62  C   UNL A   1      47.430  26.999  27.215  1.00  0.00     0.031 A 
BRANCH  49  63
ATOM     63  C   UNL A   1      45.869  32.551  29.409  1.00  0.00    -0.014 A 
ATOM     64  C   UNL A   1      45.812  33.601  28.478  1.00  0.00     0.009 A 
ATOM     65  C   UNL A   1      46.288  32.826  30.720  1.00  0.00     0.009 A 
ATOM     66  C   UNL A   1      46.186  34.894  28.848  1.00  0.00     0.001 A 
ATOM     67  C   UNL A   1      46.633  34.125  31.095  1.00  0.00     0.001 A 
ATOM     68  C   UNL A   1      46.588  35.157  30.158  1.00  0.00     0.000 A 
ENDBRANCH  49  63
BRANCH  50  69
ATOM     69  C   UNL A   1      42.604  23.353  27.297  1.00  0.00    -0.014 A 
ATOM     70  C   UNL A   1      42.105  23.055  26.018  1.00  0.00     0.009 A 
ATOM     71  C   UNL A   1      42.587  22.348  28.277  1.00  0.00     0.009 A 
ATOM     72  C   UNL A   1      41.555  21.800  25.745  1.00  0.00     0.001 A 
ATOM     73  C   UNL A   1      42.070  21.083  27.991  1.00  0.00     0.001 A 
ATOM     74  C   UNL A   1      41.538  20.815  26.731  1.00  0.00     0.000 A 
ENDBRANCH  50  69
BRANCH  62  75
ATOM     75  C   UNL A   1      48.781  26.512  26.769  1.00  0.00    -0.014 A 
ATOM     76  C   UNL A   1      49.619  25.782  27.625  1.00  0.00     0.009 A 
ATOM     77  C   UNL A   1      49.200  26.752  25.451  1.00  0.00     0.009 A 
ATOM     78  C   UNL A   1      50.868  25.338  27.182  1.00  0.00     0.001 A 
ATOM     79  C   UNL A   1      50.432  26.277  24.999  1.00  0.00     0.001 A 
ATOM     80  C   UNL A   1      51.270  25.581  25.869  1.00  0.00     0.000 A 
ENDBRANCH  62  75
ENDBRANCH  36  37
ENDBRANCH  29  31
ENDBRANCH  28  29
ENDBRANCH  27  28
ENDBRANCH  26  27
ENDBRANCH  25  26
ENDBRANCH  24  25
ENDBRANCH  23  24
ENDBRANCH  22  23
ENDBRANCH   1  22
TORSDOF 24
ENDMDL
