MODEL 1
REMARK VINA RESULT:      -9.2      0.000      0.000
REMARK SMILES Cc1nc(N[C@@H](C(=O)OCCOCCOCCOCCOC(=O)c2ccc(-c3c4nc(c(-c5ccccc5)c5ccc([nH]5)c(-c5ccccc5)c5nc(c(-c6ccccc6)c6ccc3[nH]6)C=C5)C=C4)cc2)C(C)C)c2c3c(sc2n1)CCCC3
REMARK SMILES IDX 15 1 14 2 13 3 12 4 11 5 10 6 9 7 7 8 8 9 6 10 5 11 4 13
REMARK SMILES IDX 1 14 2 15 3 16 80 17 79 18 75 19 78 20 76 21 77 22 84 23
REMARK SMILES IDX 81 24 83 25 82 26 72 27 73 28 74 29 16 30 17 31 18 32 19 33
REMARK SMILES IDX 20 34 21 35 22 36 23 37 24 38 25 39 71 40 26 41 70 42 27 43
REMARK SMILES IDX 28 44 29 45 64 46 30 47 69 48 63 49 65 50 31 51 68 52 62 53
REMARK SMILES IDX 61 54 32 56 54 57 39 58 53 59 40 60 43 61 52 62 66 63 41 64
REMARK SMILES IDX 42 65 51 67 67 68 44 69 33 70 34 71 38 72 35 73 37 74 36 75
REMARK SMILES IDX 55 76 56 77 60 78 57 79 59 80 58 81 45 82 46 83 50 84 47 85
REMARK SMILES IDX 49 86 48 87
REMARK H PARENT 5 12 65 55 43 66
REMARK Flexibility Score: inf
ROOT
ATOM      1  O   UNL A   1      37.344  21.869  26.002  1.00  0.00    -0.377 OA
ENDROOT
BRANCH   1   2
ATOM      2  C   UNL A   1      36.146  21.494  25.355  1.00  0.00     0.188 C 
BRANCH   2   3
ATOM      3  C   UNL A   1      34.978  22.488  25.507  1.00  0.00     0.188 C 
BRANCH   3   4
ATOM      4  O   UNL A   1      34.466  22.857  26.783  1.00  0.00    -0.376 OA
BRANCH   4   5
ATOM      5  C   UNL A   1      33.118  22.587  27.137  1.00  0.00     0.202 C 
BRANCH   5   6
ATOM      6  C   UNL A   1      31.991  23.534  26.698  1.00  0.00     0.261 C 
BRANCH   6   7
ATOM      7  O   UNL A   1      32.401  24.867  26.357  1.00  0.00    -0.462 OA
BRANCH   7   8
ATOM      8  C   UNL A   1      31.712  25.475  25.357  1.00  0.00     0.328 C 
ATOM      9  O   UNL A   1      30.530  25.800  25.444  1.00  0.00    -0.250 OA
BRANCH   8  10
ATOM     10  C   UNL A   1      32.552  25.739  24.086  1.00  0.00     0.193 C 
BRANCH  10  11
ATOM     11  N   UNL A   1      32.850  27.140  23.851  1.00  0.00    -0.356 N 
ATOM     12  H   UNL A   1      33.214  27.336  22.957  1.00  0.00     0.163 HD
BRANCH  11  13
ATOM     13  C   UNL A   1      32.710  28.235  24.662  1.00  0.00     0.139 A 
ATOM     14  C   UNL A   1      34.976  29.264  27.406  1.00  0.00     0.090 C 
ATOM     15  C   UNL A   1      33.845  29.308  26.423  1.00  0.00     0.129 A 
ATOM     16  N   UNL A   1      33.752  28.309  25.535  1.00  0.00    -0.216 NA
ATOM     17  N   UNL A   1      32.985  30.312  26.537  1.00  0.00    -0.222 NA
ATOM     18  C   UNL A   1      31.969  30.244  25.662  1.00  0.00     0.129 A 
ATOM     19  C   UNL A   1      31.713  29.250  24.715  1.00  0.00     0.057 A 
ATOM     20  S   UNL A   1      30.843  31.519  25.663  1.00  0.00    -0.120 S 
ATOM     21  C   UNL A   1      30.456  29.576  24.024  1.00  0.00    -0.021 A 
ATOM     22  C   UNL A   1      29.968  30.817  24.402  1.00  0.00     0.011 A 
ATOM     23  C   UNL A   1      29.714  28.797  22.973  1.00  0.00     0.037 C 
ATOM     24  C   UNL A   1      28.773  31.503  23.811  1.00  0.00     0.047 C 
ATOM     25  C   UNL A   1      28.397  29.412  22.495  1.00  0.00     0.005 C 
ATOM     26  C   UNL A   1      28.472  30.930  22.423  1.00  0.00     0.006 C 
ENDBRANCH  11  13
ENDBRANCH  10  11
BRANCH  10  27
ATOM     27  C   UNL A   1      31.996  25.060  22.808  1.00  0.00     0.017 C 
ATOM     28  C   UNL A   1      31.761  26.115  21.713  1.00  0.00     0.010 C 
ATOM     29  C   UNL A   1      32.973  24.008  22.262  1.00  0.00     0.010 C 
ENDBRANCH  10  27
ENDBRANCH   8  10
ENDBRANCH   7   8
ENDBRANCH   6   7
ENDBRANCH   5   6
ENDBRANCH   4   5
ENDBRANCH   3   4
ENDBRANCH   2   3
ENDBRANCH   1   2
BRANCH   1  30
ATOM     30  C   UNL A   1      38.553  21.306  25.512  1.00  0.00     0.188 C 
BRANCH  30  31
ATOM     31  C   UNL A   1      39.861  21.730  26.203  1.00  0.00     0.188 C 
BRANCH  31  32
ATOM     32  O   UNL A   1      39.729  22.889  27.022  1.00  0.00    -0.376 OA
BRANCH  32  33
ATOM     33  C   UNL A   1      40.923  23.549  27.436  1.00  0.00     0.202 C 
BRANCH  33  34
ATOM     34  C   UNL A   1      41.540  24.525  26.425  1.00  0.00     0.261 C 
BRANCH  34  35
ATOM     35  O   UNL A   1      40.667  25.616  26.083  1.00  0.00    -0.460 OA
BRANCH  35  36
ATOM     36  C   UNL A   1      41.233  26.831  25.995  1.00  0.00     0.338 C 
ATOM     37  O   UNL A   1      42.061  27.216  25.182  1.00  0.00    -0.246 OA
BRANCH  36  38
ATOM     38  C   UNL A   1      40.685  27.668  27.058  1.00  0.00     0.060 A 
ATOM     39  C   UNL A   1      41.429  28.716  27.612  1.00  0.00     0.016 A 
ATOM     40  C   UNL A   1      39.443  27.315  27.572  1.00  0.00     0.016 A 
ATOM     41  C   UNL A   1      40.931  29.402  28.718  1.00  0.00     0.010 A 
ATOM     42  C   UNL A   1      38.968  27.984  28.690  1.00  0.00     0.010 A 
ATOM     43  C   UNL A   1      39.708  29.019  29.285  1.00  0.00    -0.014 A 
BRANCH  43  44
ATOM     44  C   UNL A   1      39.231  29.677  30.525  1.00  0.00     0.031 A 
ATOM     45  C   UNL A   1      39.961  29.310  31.770  1.00  0.00     0.074 A 
ATOM     46  C   UNL A   1      38.676  30.910  30.489  1.00  0.00     0.049 A 
ATOM     47  N   UNL A   1      41.145  29.787  32.019  1.00  0.00    -0.248 NA
ATOM     48  C   UNL A   1      39.561  28.222  32.660  1.00  0.00     0.031 C 
ATOM     49  C   UNL A   1      38.807  31.829  29.349  1.00  0.00     0.029 A 
ATOM     50  N   UNL A   1      38.136  31.688  31.489  1.00  0.00    -0.354 N 
ATOM     51  C   UNL A   1      41.710  28.988  32.986  1.00  0.00     0.074 A 
ATOM     52  C   UNL A   1      40.668  28.074  33.408  1.00  0.00     0.031 C 
ATOM     53  C   UNL A   1      38.559  33.082  29.775  1.00  0.00     0.029 A 
ATOM     54  C   UNL A   1      38.097  33.042  31.157  1.00  0.00     0.049 A 
ATOM     55  H   UNL A   1      37.813  31.328  32.346  1.00  0.00     0.167 HD
ATOM     56  C   UNL A   1      43.021  29.073  33.326  1.00  0.00     0.031 A 
ATOM     57  C   UNL A   1      38.250  34.073  32.030  1.00  0.00     0.031 A 
ATOM     58  C   UNL A   1      43.804  30.019  32.585  1.00  0.00     0.049 A 
ATOM     59  C   UNL A   1      39.676  33.911  32.485  1.00  0.00     0.074 A 
ATOM     60  C   UNL A   1      44.580  29.997  31.443  1.00  0.00     0.029 A 
ATOM     61  N   UNL A   1      43.762  31.343  32.950  1.00  0.00    -0.354 N 
ATOM     62  N   UNL A   1      40.747  34.301  31.850  1.00  0.00    -0.248 NA
ATOM     63  C   UNL A   1      39.928  33.000  33.603  1.00  0.00     0.031 C 
ATOM     64  C   UNL A   1      44.578  31.339  30.948  1.00  0.00     0.029 A 
ATOM     65  C   UNL A   1      43.748  32.078  31.787  1.00  0.00     0.049 A 
ATOM     66  H   UNL A   1      43.744  31.699  33.867  1.00  0.00     0.167 HD
ATOM     67  C   UNL A   1      41.768  33.462  32.296  1.00  0.00     0.074 A 
ATOM     68  C   UNL A   1      41.210  32.723  33.411  1.00  0.00     0.031 C 
ATOM     69  C   UNL A   1      42.936  33.265  31.615  1.00  0.00     0.031 A 
BRANCH  56  70
ATOM     70  C   UNL A   1      43.627  28.281  34.408  1.00  0.00    -0.014 A 
ATOM     71  C   UNL A   1      44.164  27.026  34.092  1.00  0.00     0.009 A 
ATOM     72  C   UNL A   1      43.557  28.687  35.744  1.00  0.00     0.009 A 
ATOM     73  C   UNL A   1      44.600  26.171  35.102  1.00  0.00     0.001 A 
ATOM     74  C   UNL A   1      44.001  27.831  36.754  1.00  0.00     0.001 A 
ATOM     75  C   UNL A   1      44.514  26.573  36.433  1.00  0.00     0.000 A 
ENDBRANCH  56  70
BRANCH  57  76
ATOM     76  C   UNL A   1      37.125  34.295  32.992  1.00  0.00    -0.014 A 
ATOM     77  C   UNL A   1      37.266  33.825  34.313  1.00  0.00     0.009 A 
ATOM     78  C   UNL A   1      35.906  34.904  32.655  1.00  0.00     0.009 A 
ATOM     79  C   UNL A   1      36.274  34.037  35.276  1.00  0.00     0.001 A 
ATOM     80  C   UNL A   1      34.924  35.143  33.624  1.00  0.00     0.001 A 
ATOM     81  C   UNL A   1      35.113  34.719  34.936  1.00  0.00     0.000 A 
ENDBRANCH  57  76
BRANCH  69  82
ATOM     82  C   UNL A   1      43.193  34.185  30.464  1.00  0.00    -0.014 A 
ATOM     83  C   UNL A   1      42.743  33.845  29.181  1.00  0.00     0.009 A 
ATOM     84  C   UNL A   1      43.852  35.411  30.646  1.00  0.00     0.009 A 
ATOM     85  C   UNL A   1      42.925  34.723  28.109  1.00  0.00     0.001 A 
ATOM     86  C   UNL A   1      44.020  36.295  29.577  1.00  0.00     0.001 A 
ATOM     87  C   UNL A   1      43.552  35.951  28.310  1.00  0.00     0.000 A 
ENDBRANCH  69  82
ENDBRANCH  43  44
ENDBRANCH  36  38
ENDBRANCH  35  36
ENDBRANCH  34  35
ENDBRANCH  33  34
ENDBRANCH  32  33
ENDBRANCH  31  32
ENDBRANCH  30  31
ENDBRANCH   1  30
TORSDOF 23
ENDMDL
MODEL 2
REMARK VINA RESULT:      -9.1      1.216      2.374
REMARK SMILES Cc1nc(N[C@@H](C(=O)OCCOCCOCCOCCOC(=O)c2ccc(-c3c4nc(c(-c5ccccc5)c5ccc([nH]5)c(-c5ccccc5)c5nc(c(-c6ccccc6)c6ccc3[nH]6)C=C5)C=C4)cc2)C(C)C)c2c3c(sc2n1)CCCC3
REMARK SMILES IDX 15 1 14 2 13 3 12 4 11 5 10 6 9 7 7 8 8 9 6 10 5 11 4 13
REMARK SMILES IDX 1 14 2 15 3 16 80 17 79 18 75 19 78 20 76 21 77 22 84 23
REMARK SMILES IDX 81 24 83 25 82 26 72 27 73 28 74 29 16 30 17 31 18 32 19 33
REMARK SMILES IDX 20 34 21 35 22 36 23 37 24 38 25 39 71 40 26 41 70 42 27 43
REMARK SMILES IDX 28 44 29 45 64 46 30 47 69 48 63 49 65 50 31 51 68 52 62 53
REMARK SMILES IDX 61 54 32 56 54 57 39 58 53 59 40 60 43 61 52 62 66 63 41 64
REMARK SMILES IDX 42 65 51 67 67 68 44 69 33 70 34 71 38 72 35 73 37 74 36 75
REMARK SMILES IDX 55 76 56 77 60 78 57 79 59 80 58 81 45 82 46 83 50 84 47 85
REMARK SMILES IDX 49 86 48 87
REMARK H PARENT 5 12 65 55 43 66
REMARK Flexibility Score: inf
ROOT
ATOM      1  O   UNL A   1      36.702  23.035  26.171  1.00  0.00    -0.377 OA
ENDROOT
BRANCH   1   2
ATOM      2  C   UNL A   1      35.480  23.100  25.466  1.00  0.00     0.188 C 
BRANCH   2   3
ATOM      3  C   UNL A   1      34.686  24.409  25.647  1.00  0.00     0.188 C 
BRANCH   3   4
ATOM      4  O   UNL A   1      33.535  24.482  26.480  1.00  0.00    -0.376 OA
BRANCH   4   5
ATOM      5  C   UNL A   1      32.462  23.565  26.330  1.00  0.00     0.202 C 
BRANCH   5   6
ATOM      6  C   UNL A   1      31.291  23.882  25.387  1.00  0.00     0.261 C 
BRANCH   6   7
ATOM      7  O   UNL A   1      31.142  25.265  25.030  1.00  0.00    -0.462 OA
BRANCH   7   8
ATOM      8  C   UNL A   1      30.645  25.520  23.792  1.00  0.00     0.328 C 
ATOM      9  O   UNL A   1      29.460  25.390  23.493  1.00  0.00    -0.250 OA
BRANCH   8  10
ATOM     10  C   UNL A   1      31.706  26.005  22.777  1.00  0.00     0.193 C 
BRANCH  10  11
ATOM     11  N   UNL A   1      31.395  27.280  22.156  1.00  0.00    -0.356 N 
ATOM     12  H   UNL A   1      31.579  27.319  21.189  1.00  0.00     0.163 HD
BRANCH  11  13
ATOM     13  C   UNL A   1      30.886  28.436  22.687  1.00  0.00     0.139 A 
ATOM     14  C   UNL A   1      28.092  30.455  21.331  1.00  0.00     0.090 C 
ATOM     15  C   UNL A   1      29.169  29.989  22.264  1.00  0.00     0.129 A 
ATOM     16  N   UNL A   1      29.842  28.878  21.934  1.00  0.00    -0.216 NA
ATOM     17  N   UNL A   1      29.414  30.743  23.328  1.00  0.00    -0.222 NA
ATOM     18  C   UNL A   1      30.432  30.293  24.076  1.00  0.00     0.129 A 
ATOM     19  C   UNL A   1      31.251  29.186  23.841  1.00  0.00     0.057 A 
ATOM     20  S   UNL A   1      30.790  31.137  25.510  1.00  0.00    -0.120 S 
ATOM     21  C   UNL A   1      32.267  29.121  24.903  1.00  0.00    -0.021 A 
ATOM     22  C   UNL A   1      32.042  30.070  25.888  1.00  0.00     0.011 A 
ATOM     23  C   UNL A   1      33.414  28.164  25.070  1.00  0.00     0.037 C 
ATOM     24  C   UNL A   1      32.816  30.204  27.165  1.00  0.00     0.047 C 
ATOM     25  C   UNL A   1      34.315  28.410  26.282  1.00  0.00     0.005 C 
ATOM     26  C   UNL A   1      33.523  28.885  27.491  1.00  0.00     0.006 C 
ENDBRANCH  11  13
ENDBRANCH  10  11
BRANCH  10  27
ATOM     27  C   UNL A   1      32.100  24.944  21.718  1.00  0.00     0.017 C 
ATOM     28  C   UNL A   1      32.588  25.639  20.435  1.00  0.00     0.010 C 
ATOM     29  C   UNL A   1      33.225  24.032  22.229  1.00  0.00     0.010 C 
ENDBRANCH  10  27
ENDBRANCH   8  10
ENDBRANCH   7   8
ENDBRANCH   6   7
ENDBRANCH   5   6
ENDBRANCH   4   5
ENDBRANCH   3   4
ENDBRANCH   2   3
ENDBRANCH   1   2
BRANCH   1  30
ATOM     30  C   UNL A   1      37.702  22.164  25.662  1.00  0.00     0.188 C 
BRANCH  30  31
ATOM     31  C   UNL A   1      39.152  22.410  26.116  1.00  0.00     0.188 C 
BRANCH  31  32
ATOM     32  O   UNL A   1      39.354  23.682  26.727  1.00  0.00    -0.376 OA
BRANCH  32  33
ATOM     33  C   UNL A   1      40.694  24.067  27.031  1.00  0.00     0.202 C 
BRANCH  33  34
ATOM     34  C   UNL A   1      41.493  24.696  25.882  1.00  0.00     0.261 C 
BRANCH  34  35
ATOM     35  O   UNL A   1      41.029  26.009  25.521  1.00  0.00    -0.460 OA
BRANCH  35  36
ATOM     36  C   UNL A   1      41.807  27.041  25.889  1.00  0.00     0.338 C 
ATOM     37  O   UNL A   1      42.930  27.314  25.490  1.00  0.00    -0.246 OA
BRANCH  36  38
ATOM     38  C   UNL A   1      41.079  27.831  26.877  1.00  0.00     0.060 A 
ATOM     39  C   UNL A   1      41.709  28.857  27.591  1.00  0.00     0.016 A 
ATOM     40  C   UNL A   1      39.773  27.452  27.161  1.00  0.00     0.016 A 
ATOM     41  C   UNL A   1      41.025  29.496  28.624  1.00  0.00     0.010 A 
ATOM     42  C   UNL A   1      39.109  28.072  28.209  1.00  0.00     0.010 A 
ATOM     43  C   UNL A   1      39.728  29.085  28.962  1.00  0.00    -0.014 A 
BRANCH  43  44
ATOM     44  C   UNL A   1      39.043  29.689  30.129  1.00  0.00     0.031 A 
ATOM     45  C   UNL A   1      39.645  29.384  31.457  1.00  0.00     0.074 A 
ATOM     46  C   UNL A   1      38.385  30.865  30.017  1.00  0.00     0.049 A 
ATOM     47  N   UNL A   1      40.739  29.969  31.847  1.00  0.00    -0.248 NA
ATOM     48  C   UNL A   1      39.241  28.260  32.297  1.00  0.00     0.031 C 
ATOM     49  C   UNL A   1      38.569  31.798  28.896  1.00  0.00     0.029 A 
ATOM     50  N   UNL A   1      37.656  31.584  30.938  1.00  0.00    -0.354 N 
ATOM     51  C   UNL A   1      41.252  29.220  32.881  1.00  0.00     0.074 A 
ATOM     52  C   UNL A   1      40.256  28.211  33.177  1.00  0.00     0.031 C 
ATOM     53  C   UNL A   1      38.155  33.021  29.281  1.00  0.00     0.029 A 
ATOM     54  C   UNL A   1      37.532  32.930  30.595  1.00  0.00     0.049 A 
ATOM     55  H   UNL A   1      37.264  31.191  31.751  1.00  0.00     0.167 HD
ATOM     56  C   UNL A   1      42.498  29.425  33.379  1.00  0.00     0.031 A 
ATOM     57  C   UNL A   1      37.480  33.967  31.474  1.00  0.00     0.031 A 
ATOM     58  C   UNL A   1      43.275  30.444  32.734  1.00  0.00     0.049 A 
ATOM     59  C   UNL A   1      38.847  33.935  32.102  1.00  0.00     0.074 A 
ATOM     60  C   UNL A   1      44.185  30.500  31.697  1.00  0.00     0.029 A 
ATOM     61  N   UNL A   1      43.065  31.756  33.083  1.00  0.00    -0.354 N 
ATOM     62  N   UNL A   1      39.947  34.427  31.601  1.00  0.00    -0.248 NA
ATOM     63  C   UNL A   1      39.043  33.046  33.248  1.00  0.00     0.031 C 
ATOM     64  C   UNL A   1      44.119  31.838  31.197  1.00  0.00     0.029 A 
ATOM     65  C   UNL A   1      43.127  32.493  31.923  1.00  0.00     0.049 A 
ATOM     66  H   UNL A   1      42.902  32.104  33.989  1.00  0.00     0.167 HD
ATOM     67  C   UNL A   1      40.979  33.683  32.175  1.00  0.00     0.074 A 
ATOM     68  C   UNL A   1      40.359  32.891  33.217  1.00  0.00     0.031 C 
ATOM     69  C   UNL A   1      42.235  33.600  31.645  1.00  0.00     0.031 A 
BRANCH  56  70
ATOM     70  C   UNL A   1      43.037  28.688  34.532  1.00  0.00    -0.014 A 
ATOM     71  C   UNL A   1      43.012  29.308  35.789  1.00  0.00     0.009 A 
ATOM     72  C   UNL A   1      43.688  27.460  34.381  1.00  0.00     0.009 A 
ATOM     73  C   UNL A   1      43.654  28.722  36.878  1.00  0.00     0.001 A 
ATOM     74  C   UNL A   1      44.326  26.871  35.476  1.00  0.00     0.001 A 
ATOM     75  C   UNL A   1      44.315  27.506  36.719  1.00  0.00     0.000 A 
ENDBRANCH  56  70
BRANCH  57  76
ATOM     76  C   UNL A   1      36.229  34.078  32.288  1.00  0.00    -0.014 A 
ATOM     77  C   UNL A   1      35.817  35.356  32.719  1.00  0.00     0.009 A 
ATOM     78  C   UNL A   1      35.453  32.983  32.699  1.00  0.00     0.009 A 
ATOM     79  C   UNL A   1      34.636  35.539  33.444  1.00  0.00     0.001 A 
ATOM     80  C   UNL A   1      34.255  33.167  33.400  1.00  0.00     0.001 A 
ATOM     81  C   UNL A   1      33.842  34.446  33.763  1.00  0.00     0.000 A 
ENDBRANCH  57  76
BRANCH  69  82
ATOM     82  C   UNL A   1      42.546  34.546  30.529  1.00  0.00    -0.014 A 
ATOM     83  C   UNL A   1      42.070  34.286  29.236  1.00  0.00     0.009 A 
ATOM     84  C   UNL A   1      43.282  35.719  30.753  1.00  0.00     0.009 A 
ATOM     85  C   UNL A   1      42.303  35.190  28.198  1.00  0.00     0.001 A 
ATOM     86  C   UNL A   1      43.501  36.632  29.719  1.00  0.00     0.001 A 
ATOM     87  C   UNL A   1      43.008  36.368  28.442  1.00  0.00     0.000 A 
ENDBRANCH  69  82
ENDBRANCH  43  44
ENDBRANCH  36  38
ENDBRANCH  35  36
ENDBRANCH  34  35
ENDBRANCH  33  34
ENDBRANCH  32  33
ENDBRANCH  31  32
ENDBRANCH  30  31
ENDBRANCH   1  30
TORSDOF 23
ENDMDL
MODEL 3
REMARK VINA RESULT:      -8.5      5.221      9.790
REMARK SMILES Cc1nc(N[C@@H](C(=O)OCCOCCOCCOCCOC(=O)c2ccc(-c3c4nc(c(-c5ccccc5)c5ccc([nH]5)c(-c5ccccc5)c5nc(c(-c6ccccc6)c6ccc3[nH]6)C=C5)C=C4)cc2)C(C)C)c2c3c(sc2n1)CCCC3
REMARK SMILES IDX 15 1 14 2 13 3 12 4 11 5 10 6 9 7 7 8 8 9 6 10 5 11 4 13
REMARK SMILES IDX 1 14 2 15 3 16 80 17 79 18 75 19 78 20 76 21 77 22 84 23
REMARK SMILES IDX 81 24 83 25 82 26 72 27 73 28 74 29 16 30 17 31 18 32 19 33
REMARK SMILES IDX 20 34 21 35 22 36 23 37 24 38 25 39 71 40 26 41 70 42 27 43
REMARK SMILES IDX 28 44 29 45 64 46 30 47 69 48 63 49 65 50 31 51 68 52 62 53
REMARK SMILES IDX 61 54 32 56 54 57 39 58 53 59 40 60 43 61 52 62 66 63 41 64
REMARK SMILES IDX 42 65 51 67 67 68 44 69 33 70 34 71 38 72 35 73 37 74 36 75
REMARK SMILES IDX 55 76 56 77 60 78 57 79 59 80 58 81 45 82 46 83 50 84 47 85
REMARK SMILES IDX 49 86 48 87
REMARK H PARENT 5 12 65 55 43 66
REMARK Flexibility Score: inf
ROOT
ATOM      1  O   UNL A   1      41.111  26.899  34.868  1.00  0.00    -0.377 OA
ENDROOT
BRANCH   1   2
ATOM      2  C   UNL A   1      41.617  27.886  33.993  1.00  0.00     0.188 C 
BRANCH   2   3
ATOM      3  C   UNL A   1      40.557  28.629  33.158  1.00  0.00     0.188 C 
BRANCH   3   4
ATOM      4  O   UNL A   1      39.172  28.310  33.243  1.00  0.00    -0.376 OA
BRANCH   4   5
ATOM      5  C   UNL A   1      38.517  27.606  32.199  1.00  0.00     0.202 C 
BRANCH   5   6
ATOM      6  C   UNL A   1      38.299  28.267  30.829  1.00  0.00     0.261 C 
BRANCH   6   7
ATOM      7  O   UNL A   1      37.655  29.550  30.858  1.00  0.00    -0.462 OA
BRANCH   7   8
ATOM      8  C   UNL A   1      38.450  30.631  30.648  1.00  0.00     0.328 C 
ATOM      9  O   UNL A   1      39.638  30.554  30.342  1.00  0.00    -0.250 OA
BRANCH   8  10
ATOM     10  C   UNL A   1      37.725  31.986  30.819  1.00  0.00     0.193 C 
BRANCH  10  11
ATOM     11  N   UNL A   1      36.665  31.971  31.812  1.00  0.00    -0.356 N 
ATOM     12  H   UNL A   1      36.224  31.099  31.926  1.00  0.00     0.163 HD
BRANCH  11  13
ATOM     13  C   UNL A   1      36.177  32.967  32.617  1.00  0.00     0.139 A 
ATOM     14  C   UNL A   1      37.019  33.550  36.176  1.00  0.00     0.090 C 
ATOM     15  C   UNL A   1      36.426  33.766  34.816  1.00  0.00     0.129 A 
ATOM     16  N   UNL A   1      36.737  32.886  33.855  1.00  0.00    -0.216 NA
ATOM     17  N   UNL A   1      35.592  34.789  34.676  1.00  0.00    -0.222 NA
ATOM     18  C   UNL A   1      35.057  34.875  33.449  1.00  0.00     0.129 A 
ATOM     19  C   UNL A   1      35.247  34.015  32.364  1.00  0.00     0.057 A 
ATOM     20  S   UNL A   1      34.030  36.192  33.128  1.00  0.00    -0.120 S 
ATOM     21  C   UNL A   1      34.410  34.480  31.247  1.00  0.00    -0.021 A 
ATOM     22  C   UNL A   1      33.795  35.689  31.534  1.00  0.00     0.011 A 
ATOM     23  C   UNL A   1      34.205  33.869  29.889  1.00  0.00     0.037 C 
ATOM     24  C   UNL A   1      32.968  36.497  30.579  1.00  0.00     0.047 C 
ATOM     25  C   UNL A   1      33.219  34.599  28.973  1.00  0.00     0.005 C 
ATOM     26  C   UNL A   1      33.305  36.109  29.136  1.00  0.00     0.006 C 
ENDBRANCH  11  13
ENDBRANCH  10  11
BRANCH  10  27
ATOM     27  C   UNL A   1      37.241  32.618  29.489  1.00  0.00     0.017 C 
ATOM     28  C   UNL A   1      38.168  33.779  29.091  1.00  0.00     0.010 C 
ATOM     29  C   UNL A   1      37.239  31.590  28.348  1.00  0.00     0.010 C 
ENDBRANCH  10  27
ENDBRANCH   8  10
ENDBRANCH   7   8
ENDBRANCH   6   7
ENDBRANCH   5   6
ENDBRANCH   4   5
ENDBRANCH   3   4
ENDBRANCH   2   3
ENDBRANCH   1   2
BRANCH   1  30
ATOM     30  C   UNL A   1      41.913  26.548  35.987  1.00  0.00     0.188 C 
BRANCH  30  31
ATOM     31  C   UNL A   1      42.308  25.068  36.137  1.00  0.00     0.188 C 
BRANCH  31  32
ATOM     32  O   UNL A   1      43.390  24.850  37.039  1.00  0.00    -0.376 OA
BRANCH  32  33
ATOM     33  C   UNL A   1      44.612  24.347  36.502  1.00  0.00     0.202 C 
BRANCH  33  34
ATOM     34  C   UNL A   1      44.816  24.540  34.993  1.00  0.00     0.261 C 
BRANCH  34  35
ATOM     35  O   UNL A   1      45.997  23.889  34.492  1.00  0.00    -0.460 OA
BRANCH  35  36
ATOM     36  C   UNL A   1      47.117  24.631  34.450  1.00  0.00     0.338 C 
ATOM     37  O   UNL A   1      48.150  24.467  35.082  1.00  0.00    -0.246 OA
BRANCH  36  38
ATOM     38  C   UNL A   1      46.913  25.709  33.488  1.00  0.00     0.060 A 
ATOM     39  C   UNL A   1      46.508  25.442  32.175  1.00  0.00     0.016 A 
ATOM     40  C   UNL A   1      47.243  26.997  33.892  1.00  0.00     0.016 A 
ATOM     41  C   UNL A   1      46.460  26.480  31.246  1.00  0.00     0.010 A 
ATOM     42  C   UNL A   1      47.220  28.019  32.955  1.00  0.00     0.010 A 
ATOM     43  C   UNL A   1      46.847  27.773  31.622  1.00  0.00    -0.014 A 
BRANCH  43  44
ATOM     44  C   UNL A   1      46.899  28.852  30.609  1.00  0.00     0.031 A 
ATOM     45  C   UNL A   1      47.842  28.627  29.477  1.00  0.00     0.074 A 
ATOM     46  C   UNL A   1      45.815  29.618  30.351  1.00  0.00     0.049 A 
ATOM     47  N   UNL A   1      47.553  27.796  28.519  1.00  0.00    -0.248 NA
ATOM     48  C   UNL A   1      49.229  29.085  29.467  1.00  0.00     0.031 C 
ATOM     49  C   UNL A   1      44.449  29.256  30.753  1.00  0.00     0.029 A 
ATOM     50  N   UNL A   1      45.643  30.684  29.495  1.00  0.00    -0.354 N 
ATOM     51  C   UNL A   1      48.730  27.502  27.869  1.00  0.00     0.074 A 
ATOM     52  C   UNL A   1      49.732  28.377  28.441  1.00  0.00     0.031 C 
ATOM     53  C   UNL A   1      43.577  29.943  29.989  1.00  0.00     0.029 A 
ATOM     54  C   UNL A   1      44.306  30.903  29.169  1.00  0.00     0.049 A 
ATOM     55  H   UNL A   1      46.385  31.233  29.152  1.00  0.00     0.167 HD
ATOM     56  C   UNL A   1      48.826  26.502  26.956  1.00  0.00     0.031 A 
ATOM     57  C   UNL A   1      43.851  31.366  27.973  1.00  0.00     0.031 A 
ATOM     58  C   UNL A   1      47.636  25.733  26.736  1.00  0.00     0.049 A 
ATOM     59  C   UNL A   1      44.219  30.253  27.028  1.00  0.00     0.074 A 
ATOM     60  C   UNL A   1      47.083  24.578  27.254  1.00  0.00     0.029 A 
ATOM     61  N   UNL A   1      46.673  26.230  25.891  1.00  0.00    -0.354 N 
ATOM     62  N   UNL A   1      43.563  29.142  26.838  1.00  0.00    -0.248 NA
ATOM     63  C   UNL A   1      45.568  30.271  26.459  1.00  0.00     0.031 C 
ATOM     64  C   UNL A   1      45.673  24.695  27.039  1.00  0.00     0.029 A 
ATOM     65  C   UNL A   1      45.455  25.943  26.460  1.00  0.00     0.049 A 
ATOM     66  H   UNL A   1      46.826  26.702  25.041  1.00  0.00     0.167 HD
ATOM     67  C   UNL A   1      44.513  28.224  26.389  1.00  0.00     0.074 A 
ATOM     68  C   UNL A   1      45.711  28.995  26.126  1.00  0.00     0.031 C 
ATOM     69  C   UNL A   1      44.342  26.870  26.447  1.00  0.00     0.031 A 
BRANCH  56  70
ATOM     70  C   UNL A   1      50.054  26.220  26.196  1.00  0.00    -0.014 A 
ATOM     71  C   UNL A   1      50.932  25.245  26.690  1.00  0.00     0.009 A 
ATOM     72  C   UNL A   1      50.424  26.986  25.087  1.00  0.00     0.009 A 
ATOM     73  C   UNL A   1      52.180  25.056  26.099  1.00  0.00     0.001 A 
ATOM     74  C   UNL A   1      51.673  26.790  24.492  1.00  0.00     0.001 A 
ATOM     75  C   UNL A   1      52.551  25.833  25.003  1.00  0.00     0.000 A 
ENDBRANCH  56  70
BRANCH  57  76
ATOM     76  C   UNL A   1      44.141  32.802  27.668  1.00  0.00    -0.014 A 
ATOM     77  C   UNL A   1      44.255  33.194  26.319  1.00  0.00     0.009 A 
ATOM     78  C   UNL A   1      44.358  33.788  28.643  1.00  0.00     0.009 A 
ATOM     79  C   UNL A   1      44.480  34.527  25.961  1.00  0.00     0.001 A 
ATOM     80  C   UNL A   1      44.554  35.128  28.286  1.00  0.00     0.001 A 
ATOM     81  C   UNL A   1      44.605  35.498  26.945  1.00  0.00     0.000 A 
ENDBRANCH  57  76
BRANCH  69  82
ATOM     82  C   UNL A   1      42.968  26.392  26.799  1.00  0.00    -0.014 A 
ATOM     83  C   UNL A   1      42.594  26.262  28.143  1.00  0.00     0.009 A 
ATOM     84  C   UNL A   1      42.023  26.099  25.803  1.00  0.00     0.009 A 
ATOM     85  C   UNL A   1      41.296  25.873  28.484  1.00  0.00     0.001 A 
ATOM     86  C   UNL A   1      40.721  25.726  26.145  1.00  0.00     0.001 A 
ATOM     87  C   UNL A   1      40.358  25.617  27.485  1.00  0.00     0.000 A 
ENDBRANCH  69  82
ENDBRANCH  43  44
ENDBRANCH  36  38
ENDBRANCH  35  36
ENDBRANCH  34  35
ENDBRANCH  33  34
ENDBRANCH  32  33
ENDBRANCH  31  32
ENDBRANCH  30  31
ENDBRANCH   1  30
TORSDOF 23
ENDMDL
