MODEL 1
REMARK VINA RESULT:     -10.5      0.000      0.000
REMARK SMILES Cc1cc2c(cc1C(=O)c1ccccc1C(=O)OCCOCCOCCOCCOC(=O)c1ccc(-c3c4nc(c(-c5ccccc5)c5ccc([nH]5)c(-c5ccccc5)c5nc(c(-c6ccccc6)c6ccc3[nH]6)C=C5)C=C4)cc1)CCCC2
REMARK SMILES IDX 24 1 23 2 22 3 21 4 20 5 19 6 18 7 16 8 17 9 15 10 10 11
REMARK SMILES IDX 11 12 12 13 14 14 13 15 8 16 9 17 7 18 1 19 2 20 3 21 4 22
REMARK SMILES IDX 6 23 5 24 84 25 81 26 83 27 82 28 25 29 26 30 27 31 28 32
REMARK SMILES IDX 29 33 30 34 31 35 32 36 33 37 34 38 80 39 35 40 79 41 36 42
REMARK SMILES IDX 37 43 38 44 73 45 39 46 78 47 72 48 74 49 40 50 77 51 71 52
REMARK SMILES IDX 70 53 41 55 63 56 48 57 62 58 49 59 52 60 61 61 75 62 50 63
REMARK SMILES IDX 51 64 60 66 76 67 53 68 42 69 43 70 47 71 44 72 46 73 45 74
REMARK SMILES IDX 64 75 65 76 69 77 66 78 68 79 67 80 54 81 55 82 59 83 56 84
REMARK SMILES IDX 58 85 57 86
REMARK H PARENT 74 54 52 65
REMARK Flexibility Score: inf
ROOT
ATOM      1  O   UNL A   1      32.783  34.493  28.639  1.00  0.00    -0.377 OA
ENDROOT
BRANCH   1   2
ATOM      2  C   UNL A   1      33.724  33.672  27.967  1.00  0.00     0.188 C 
BRANCH   2   3
ATOM      3  C   UNL A   1      33.809  32.172  28.310  1.00  0.00     0.188 C 
BRANCH   3   4
ATOM      4  O   UNL A   1      34.434  31.365  27.320  1.00  0.00    -0.376 OA
BRANCH   4   5
ATOM      5  C   UNL A   1      33.824  30.107  27.066  1.00  0.00     0.202 C 
BRANCH   5   6
ATOM      6  C   UNL A   1      32.304  30.154  26.863  1.00  0.00     0.261 C 
BRANCH   6   7
ATOM      7  O   UNL A   1      31.807  29.140  25.977  1.00  0.00    -0.460 OA
BRANCH   7   8
ATOM      8  C   UNL A   1      31.985  29.364  24.662  1.00  0.00     0.338 C 
ATOM      9  O   UNL A   1      33.057  29.351  24.074  1.00  0.00    -0.246 OA
BRANCH   8  10
ATOM     10  C   UNL A   1      30.684  29.405  23.952  1.00  0.00     0.071 A 
ATOM     11  C   UNL A   1      30.138  28.357  23.194  1.00  0.00     0.037 A 
ATOM     12  C   UNL A   1      28.799  28.441  22.788  1.00  0.00     0.013 A 
ATOM     13  C   UNL A   1      28.087  29.636  22.926  1.00  0.00     0.001 A 
ATOM     14  C   UNL A   1      29.960  30.605  24.086  1.00  0.00     0.016 A 
ATOM     15  C   UNL A   1      28.686  30.734  23.535  1.00  0.00     0.001 A 
BRANCH  11  16
ATOM     16  C   UNL A   1      30.894  27.133  22.871  1.00  0.00     0.194 C 
ATOM     17  O   UNL A   1      31.131  26.961  21.674  1.00  0.00    -0.289 OA
BRANCH  16  18
ATOM     18  C   UNL A   1      31.432  26.153  23.905  1.00  0.00     0.026 A 
ATOM     19  C   UNL A   1      29.349  25.812  25.441  1.00  0.00     0.045 C 
ATOM     20  C   UNL A   1      30.785  25.617  25.042  1.00  0.00    -0.040 A 
ATOM     21  C   UNL A   1      31.533  24.829  25.951  1.00  0.00     0.008 A 
ATOM     22  C   UNL A   1      32.867  24.478  25.724  1.00  0.00    -0.044 A 
ATOM     23  C   UNL A   1      32.769  25.752  23.672  1.00  0.00     0.016 A 
ATOM     24  C   UNL A   1      33.487  24.927  24.559  1.00  0.00    -0.044 A 
ATOM     25  C   UNL A   1      33.610  23.687  26.771  1.00  0.00     0.036 C 
ATOM     26  C   UNL A   1      34.882  24.481  24.201  1.00  0.00     0.036 C 
ATOM     27  C   UNL A   1      34.901  23.054  26.261  1.00  0.00     0.005 C 
ATOM     28  C   UNL A   1      35.699  24.030  25.410  1.00  0.00     0.005 C 
ENDBRANCH  16  18
ENDBRANCH  11  16
ENDBRANCH   8  10
ENDBRANCH   7   8
ENDBRANCH   6   7
ENDBRANCH   5   6
ENDBRANCH   4   5
ENDBRANCH   3   4
ENDBRANCH   2   3
ENDBRANCH   1   2
BRANCH   1  29
ATOM     29  C   UNL A   1      33.246  35.504  29.529  1.00  0.00     0.188 C 
BRANCH  29  30
ATOM     30  C   UNL A   1      33.313  35.249  31.051  1.00  0.00     0.188 C 
BRANCH  30  31
ATOM     31  O   UNL A   1      34.598  35.438  31.629  1.00  0.00    -0.376 OA
BRANCH  31  32
ATOM     32  C   UNL A   1      34.794  34.894  32.925  1.00  0.00     0.202 C 
BRANCH  32  33
ATOM     33  C   UNL A   1      34.263  33.468  33.111  1.00  0.00     0.261 C 
BRANCH  33  34
ATOM     34  O   UNL A   1      35.211  32.419  32.866  1.00  0.00    -0.460 OA
BRANCH  34  35
ATOM     35  C   UNL A   1      36.380  32.448  33.544  1.00  0.00     0.338 C 
ATOM     36  O   UNL A   1      36.556  32.740  34.713  1.00  0.00    -0.246 OA
BRANCH  35  37
ATOM     37  C   UNL A   1      37.410  31.885  32.649  1.00  0.00     0.060 A 
ATOM     38  C   UNL A   1      37.360  32.165  31.285  1.00  0.00     0.016 A 
ATOM     39  C   UNL A   1      38.406  31.046  33.167  1.00  0.00     0.016 A 
ATOM     40  C   UNL A   1      38.331  31.624  30.443  1.00  0.00     0.010 A 
ATOM     41  C   UNL A   1      39.363  30.486  32.313  1.00  0.00     0.010 A 
ATOM     42  C   UNL A   1      39.341  30.784  30.945  1.00  0.00    -0.014 A 
BRANCH  42  43
ATOM     43  C   UNL A   1      40.467  30.403  30.056  1.00  0.00     0.031 A 
ATOM     44  C   UNL A   1      41.656  31.288  29.830  1.00  0.00     0.074 A 
ATOM     45  C   UNL A   1      40.413  29.189  29.476  1.00  0.00     0.049 A 
ATOM     46  N   UNL A   1      42.776  31.002  29.214  1.00  0.00    -0.248 NA
ATOM     47  C   UNL A   1      41.597  32.656  30.366  1.00  0.00     0.031 C 
ATOM     48  C   UNL A   1      39.303  28.243  29.623  1.00  0.00     0.029 A 
ATOM     49  N   UNL A   1      41.309  28.531  28.675  1.00  0.00    -0.354 N 
ATOM     50  C   UNL A   1      43.571  32.136  29.317  1.00  0.00     0.074 A 
ATOM     51  C   UNL A   1      42.789  33.132  30.020  1.00  0.00     0.031 C 
ATOM     52  C   UNL A   1      39.605  27.111  28.972  1.00  0.00     0.029 A 
ATOM     53  C   UNL A   1      40.908  27.262  28.333  1.00  0.00     0.049 A 
ATOM     54  H   UNL A   1      42.158  28.928  28.373  1.00  0.00     0.167 HD
ATOM     55  C   UNL A   1      44.841  32.315  28.880  1.00  0.00     0.031 A 
ATOM     56  C   UNL A   1      41.519  26.315  27.597  1.00  0.00     0.031 A 
ATOM     57  C   UNL A   1      45.594  31.338  28.132  1.00  0.00     0.049 A 
ATOM     58  C   UNL A   1      42.886  26.586  27.039  1.00  0.00     0.074 A 
ATOM     59  C   UNL A   1      46.892  31.437  27.658  1.00  0.00     0.029 A 
ATOM     60  N   UNL A   1      45.118  30.100  27.731  1.00  0.00    -0.354 N 
ATOM     61  N   UNL A   1      43.654  27.632  27.217  1.00  0.00    -0.248 NA
ATOM     62  C   UNL A   1      43.476  25.541  26.191  1.00  0.00     0.031 C 
ATOM     63  C   UNL A   1      47.174  30.294  26.908  1.00  0.00     0.029 A 
ATOM     64  C   UNL A   1      46.083  29.445  26.982  1.00  0.00     0.049 A 
ATOM     65  H   UNL A   1      44.227  29.740  27.946  1.00  0.00     0.167 HD
ATOM     66  C   UNL A   1      44.828  27.360  26.528  1.00  0.00     0.074 A 
ATOM     67  C   UNL A   1      44.678  26.045  25.942  1.00  0.00     0.031 C 
ATOM     68  C   UNL A   1      45.931  28.136  26.398  1.00  0.00     0.031 A 
BRANCH  55  69
ATOM     69  C   UNL A   1      45.533  33.614  29.195  1.00  0.00    -0.014 A 
ATOM     70  C   UNL A   1      46.190  33.783  30.425  1.00  0.00     0.009 A 
ATOM     71  C   UNL A   1      45.392  34.720  28.342  1.00  0.00     0.009 A 
ATOM     72  C   UNL A   1      46.666  35.039  30.808  1.00  0.00     0.001 A 
ATOM     73  C   UNL A   1      45.891  35.970  28.718  1.00  0.00     0.001 A 
ATOM     74  C   UNL A   1      46.515  36.132  29.955  1.00  0.00     0.000 A 
ENDBRANCH  55  69
BRANCH  56  75
ATOM     75  C   UNL A   1      40.848  25.005  27.386  1.00  0.00    -0.014 A 
ATOM     76  C   UNL A   1      41.440  23.816  27.840  1.00  0.00     0.009 A 
ATOM     77  C   UNL A   1      39.631  24.936  26.695  1.00  0.00     0.009 A 
ATOM     78  C   UNL A   1      40.838  22.582  27.586  1.00  0.00     0.001 A 
ATOM     79  C   UNL A   1      39.013  23.704  26.472  1.00  0.00     0.001 A 
ATOM     80  C   UNL A   1      39.622  22.527  26.909  1.00  0.00     0.000 A 
ENDBRANCH  56  75
BRANCH  68  81
ATOM     81  C   UNL A   1      47.088  27.591  25.604  1.00  0.00    -0.014 A 
ATOM     82  C   UNL A   1      47.161  27.835  24.222  1.00  0.00     0.009 A 
ATOM     83  C   UNL A   1      48.047  26.757  26.197  1.00  0.00     0.009 A 
ATOM     84  C   UNL A   1      48.157  27.240  23.448  1.00  0.00     0.001 A 
ATOM     85  C   UNL A   1      49.064  26.189  25.425  1.00  0.00     0.001 A 
ATOM     86  C   UNL A   1      49.111  26.422  24.050  1.00  0.00     0.000 A 
ENDBRANCH  68  81
ENDBRANCH  42  43
ENDBRANCH  35  37
ENDBRANCH  34  35
ENDBRANCH  33  34
ENDBRANCH  32  33
ENDBRANCH  31  32
ENDBRANCH  30  31
ENDBRANCH  29  30
ENDBRANCH   1  29
TORSDOF 22
ENDMDL
MODEL 2
REMARK VINA RESULT:     -10.4      3.906      9.986
REMARK SMILES Cc1cc2c(cc1C(=O)c1ccccc1C(=O)OCCOCCOCCOCCOC(=O)c1ccc(-c3c4nc(c(-c5ccccc5)c5ccc([nH]5)c(-c5ccccc5)c5nc(c(-c6ccccc6)c6ccc3[nH]6)C=C5)C=C4)cc1)CCCC2
REMARK SMILES IDX 24 1 23 2 22 3 21 4 20 5 19 6 18 7 16 8 17 9 15 10 10 11
REMARK SMILES IDX 11 12 12 13 14 14 13 15 8 16 9 17 7 18 1 19 2 20 3 21 4 22
REMARK SMILES IDX 6 23 5 24 84 25 81 26 83 27 82 28 25 29 26 30 27 31 28 32
REMARK SMILES IDX 29 33 30 34 31 35 32 36 33 37 34 38 80 39 35 40 79 41 36 42
REMARK SMILES IDX 37 43 38 44 73 45 39 46 78 47 72 48 74 49 40 50 77 51 71 52
REMARK SMILES IDX 70 53 41 55 63 56 48 57 62 58 49 59 52 60 61 61 75 62 50 63
REMARK SMILES IDX 51 64 60 66 76 67 53 68 42 69 43 70 47 71 44 72 46 73 45 74
REMARK SMILES IDX 64 75 65 76 69 77 66 78 68 79 67 80 54 81 55 82 59 83 56 84
REMARK SMILES IDX 58 85 57 86
REMARK H PARENT 74 54 52 65
REMARK Flexibility Score: inf
ROOT
ATOM      1  O   UNL A   1      39.074  21.471  26.363  1.00  0.00    -0.377 OA
ENDROOT
BRANCH   1   2
ATOM      2  C   UNL A   1      38.565  20.733  25.264  1.00  0.00     0.188 C 
BRANCH   2   3
ATOM      3  C   UNL A   1      37.044  20.678  25.021  1.00  0.00     0.188 C 
BRANCH   3   4
ATOM      4  O   UNL A   1      36.371  21.925  25.148  1.00  0.00    -0.376 OA
BRANCH   4   5
ATOM      5  C   UNL A   1      36.309  22.721  23.972  1.00  0.00     0.202 C 
BRANCH   5   6
ATOM      6  C   UNL A   1      35.158  23.734  23.937  1.00  0.00     0.261 C 
BRANCH   6   7
ATOM      7  O   UNL A   1      34.581  23.909  22.635  1.00  0.00    -0.460 OA
BRANCH   7   8
ATOM      8  C   UNL A   1      33.278  24.246  22.605  1.00  0.00     0.338 C 
ATOM      9  O   UNL A   1      32.678  24.688  21.636  1.00  0.00    -0.246 OA
BRANCH   8  10
ATOM     10  C   UNL A   1      32.588  23.800  23.839  1.00  0.00     0.071 A 
ATOM     11  C   UNL A   1      32.136  24.643  24.867  1.00  0.00     0.037 A 
ATOM     12  C   UNL A   1      31.286  24.117  25.850  1.00  0.00     0.013 A 
ATOM     13  C   UNL A   1      31.079  22.738  25.946  1.00  0.00     0.001 A 
ATOM     14  C   UNL A   1      32.375  22.413  23.945  1.00  0.00     0.016 A 
ATOM     15  C   UNL A   1      31.663  21.882  25.020  1.00  0.00     0.001 A 
BRANCH  11  16
ATOM     16  C   UNL A   1      32.457  26.082  24.913  1.00  0.00     0.194 C 
ATOM     17  O   UNL A   1      33.331  26.400  25.721  1.00  0.00    -0.289 OA
BRANCH  16  18
ATOM     18  C   UNL A   1      31.838  27.134  24.002  1.00  0.00     0.026 A 
ATOM     19  C   UNL A   1      33.957  28.205  22.918  1.00  0.00     0.045 C 
ATOM     20  C   UNL A   1      32.482  28.083  23.176  1.00  0.00    -0.040 A 
ATOM     21  C   UNL A   1      31.700  29.067  22.521  1.00  0.00     0.008 A 
ATOM     22  C   UNL A   1      30.304  29.083  22.582  1.00  0.00    -0.044 A 
ATOM     23  C   UNL A   1      30.423  27.141  24.017  1.00  0.00     0.016 A 
ATOM     24  C   UNL A   1      29.655  28.095  23.321  1.00  0.00    -0.044 A 
ATOM     25  C   UNL A   1      29.549  30.200  21.906  1.00  0.00     0.036 C 
ATOM     26  C   UNL A   1      28.151  27.989  23.324  1.00  0.00     0.036 C 
ATOM     27  C   UNL A   1      28.062  29.913  21.720  1.00  0.00     0.005 C 
ATOM     28  C   UNL A   1      27.454  29.302  22.974  1.00  0.00     0.005 C 
ENDBRANCH  16  18
ENDBRANCH  11  16
ENDBRANCH   8  10
ENDBRANCH   7   8
ENDBRANCH   6   7
ENDBRANCH   5   6
ENDBRANCH   4   5
ENDBRANCH   3   4
ENDBRANCH   2   3
ENDBRANCH   1   2
BRANCH   1  29
ATOM     29  C   UNL A   1      40.292  22.194  26.217  1.00  0.00     0.188 C 
BRANCH  29  30
ATOM     30  C   UNL A   1      41.652  21.519  26.501  1.00  0.00     0.188 C 
BRANCH  30  31
ATOM     31  O   UNL A   1      42.004  20.486  25.591  1.00  0.00    -0.376 OA
BRANCH  31  32
ATOM     32  C   UNL A   1      42.350  19.233  26.160  1.00  0.00     0.202 C 
BRANCH  32  33
ATOM     33  C   UNL A   1      43.522  18.518  25.478  1.00  0.00     0.261 C 
BRANCH  33  34
ATOM     34  O   UNL A   1      44.005  19.134  24.274  1.00  0.00    -0.460 OA
BRANCH  34  35
ATOM     35  C   UNL A   1      45.267  19.617  24.270  1.00  0.00     0.338 C 
ATOM     36  O   UNL A   1      46.272  19.070  23.854  1.00  0.00    -0.246 OA
BRANCH  35  37
ATOM     37  C   UNL A   1      45.189  21.024  24.708  1.00  0.00     0.060 A 
ATOM     38  C   UNL A   1      45.494  21.349  26.028  1.00  0.00     0.016 A 
ATOM     39  C   UNL A   1      44.777  22.016  23.808  1.00  0.00     0.016 A 
ATOM     40  C   UNL A   1      45.413  22.678  26.439  1.00  0.00     0.010 A 
ATOM     41  C   UNL A   1      44.672  23.346  24.233  1.00  0.00     0.010 A 
ATOM     42  C   UNL A   1      45.005  23.689  25.550  1.00  0.00    -0.014 A 
BRANCH  42  43
ATOM     43  C   UNL A   1      45.132  25.108  25.966  1.00  0.00     0.031 A 
ATOM     44  C   UNL A   1      43.970  25.912  26.468  1.00  0.00     0.074 A 
ATOM     45  C   UNL A   1      46.360  25.657  25.923  1.00  0.00     0.049 A 
ATOM     46  N   UNL A   1      43.981  27.102  27.016  1.00  0.00    -0.248 NA
ATOM     47  C   UNL A   1      42.631  25.314  26.355  1.00  0.00     0.031 C 
ATOM     48  C   UNL A   1      47.566  24.970  25.451  1.00  0.00     0.029 A 
ATOM     49  N   UNL A   1      46.808  26.897  26.299  1.00  0.00    -0.354 N 
ATOM     50  C   UNL A   1      42.663  27.383  27.349  1.00  0.00     0.074 A 
ATOM     51  C   UNL A   1      41.869  26.256  26.903  1.00  0.00     0.031 C 
ATOM     52  C   UNL A   1      48.621  25.781  25.608  1.00  0.00     0.029 A 
ATOM     53  C   UNL A   1      48.166  27.054  26.155  1.00  0.00     0.049 A 
ATOM     54  H   UNL A   1      46.216  27.606  26.639  1.00  0.00     0.167 HD
ATOM     55  C   UNL A   1      42.170  28.473  27.985  1.00  0.00     0.031 A 
ATOM     56  C   UNL A   1      48.965  28.100  26.439  1.00  0.00     0.031 A 
ATOM     57  C   UNL A   1      42.959  29.617  28.377  1.00  0.00     0.049 A 
ATOM     58  C   UNL A   1      48.369  29.336  27.049  1.00  0.00     0.074 A 
ATOM     59  C   UNL A   1      42.538  30.762  29.034  1.00  0.00     0.029 A 
ATOM     60  N   UNL A   1      44.314  29.774  28.132  1.00  0.00    -0.354 N 
ATOM     61  N   UNL A   1      47.135  29.551  27.432  1.00  0.00    -0.248 NA
ATOM     62  C   UNL A   1      49.277  30.468  27.278  1.00  0.00     0.031 C 
ATOM     63  C   UNL A   1      43.620  31.640  29.120  1.00  0.00     0.029 A 
ATOM     64  C   UNL A   1      44.734  31.012  28.590  1.00  0.00     0.049 A 
ATOM     65  H   UNL A   1      44.891  29.105  27.698  1.00  0.00     0.167 HD
ATOM     66  C   UNL A   1      47.124  30.829  27.973  1.00  0.00     0.074 A 
ATOM     67  C   UNL A   1      48.478  31.335  27.883  1.00  0.00     0.031 C 
ATOM     68  C   UNL A   1      46.081  31.516  28.499  1.00  0.00     0.031 A 
BRANCH  55  69
ATOM     69  C   UNL A   1      40.704  28.509  28.322  1.00  0.00    -0.014 A 
ATOM     70  C   UNL A   1      39.795  29.136  27.453  1.00  0.00     0.009 A 
ATOM     71  C   UNL A   1      40.252  28.067  29.576  1.00  0.00     0.009 A 
ATOM     72  C   UNL A   1      38.471  29.346  27.844  1.00  0.00     0.001 A 
ATOM     73  C   UNL A   1      38.920  28.257  29.953  1.00  0.00     0.001 A 
ATOM     74  C   UNL A   1      38.035  28.907  29.094  1.00  0.00     0.000 A 
ENDBRANCH  55  69
BRANCH  56  75
ATOM     75  C   UNL A   1      50.425  27.996  26.184  1.00  0.00    -0.014 A 
ATOM     76  C   UNL A   1      50.967  28.390  24.951  1.00  0.00     0.009 A 
ATOM     77  C   UNL A   1      51.278  27.463  27.161  1.00  0.00     0.009 A 
ATOM     78  C   UNL A   1      52.330  28.232  24.692  1.00  0.00     0.001 A 
ATOM     79  C   UNL A   1      52.647  27.338  26.912  1.00  0.00     0.001 A 
ATOM     80  C   UNL A   1      53.170  27.714  25.675  1.00  0.00     0.000 A 
ENDBRANCH  56  75
BRANCH  68  81
ATOM     81  C   UNL A   1      46.347  32.894  29.041  1.00  0.00    -0.014 A 
ATOM     82  C   UNL A   1      46.666  33.058  30.400  1.00  0.00     0.009 A 
ATOM     83  C   UNL A   1      46.185  34.035  28.242  1.00  0.00     0.009 A 
ATOM     84  C   UNL A   1      46.798  34.334  30.950  1.00  0.00     0.001 A 
ATOM     85  C   UNL A   1      46.350  35.310  28.787  1.00  0.00     0.001 A 
ATOM     86  C   UNL A   1      46.646  35.459  30.142  1.00  0.00     0.000 A 
ENDBRANCH  68  81
ENDBRANCH  42  43
ENDBRANCH  35  37
ENDBRANCH  34  35
ENDBRANCH  33  34
ENDBRANCH  32  33
ENDBRANCH  31  32
ENDBRANCH  30  31
ENDBRANCH  29  30
ENDBRANCH   1  29
TORSDOF 22
ENDMDL
MODEL 3
REMARK VINA RESULT:     -10.0      4.214      9.638
REMARK SMILES Cc1cc2c(cc1C(=O)c1ccccc1C(=O)OCCOCCOCCOCCOC(=O)c1ccc(-c3c4nc(c(-c5ccccc5)c5ccc([nH]5)c(-c5ccccc5)c5nc(c(-c6ccccc6)c6ccc3[nH]6)C=C5)C=C4)cc1)CCCC2
REMARK SMILES IDX 24 1 23 2 22 3 21 4 20 5 19 6 18 7 16 8 17 9 15 10 10 11
REMARK SMILES IDX 11 12 12 13 14 14 13 15 8 16 9 17 7 18 1 19 2 20 3 21 4 22
REMARK SMILES IDX 6 23 5 24 84 25 81 26 83 27 82 28 25 29 26 30 27 31 28 32
REMARK SMILES IDX 29 33 30 34 31 35 32 36 33 37 34 38 80 39 35 40 79 41 36 42
REMARK SMILES IDX 37 43 38 44 73 45 39 46 78 47 72 48 74 49 40 50 77 51 71 52
REMARK SMILES IDX 70 53 41 55 63 56 48 57 62 58 49 59 52 60 61 61 75 62 50 63
REMARK SMILES IDX 51 64 60 66 76 67 53 68 42 69 43 70 47 71 44 72 46 73 45 74
REMARK SMILES IDX 64 75 65 76 69 77 66 78 68 79 67 80 54 81 55 82 59 83 56 84
REMARK SMILES IDX 58 85 57 86
REMARK H PARENT 74 54 52 65
REMARK Flexibility Score: inf
ROOT
ATOM      1  O   UNL A   1      38.876  22.080  26.437  1.00  0.00    -0.377 OA
ENDROOT
BRANCH   1   2
ATOM      2  C   UNL A   1      37.927  21.423  25.612  1.00  0.00     0.188 C 
BRANCH   2   3
ATOM      3  C   UNL A   1      37.364  22.145  24.372  1.00  0.00     0.188 C 
BRANCH   3   4
ATOM      4  O   UNL A   1      36.081  22.732  24.552  1.00  0.00    -0.376 OA
BRANCH   4   5
ATOM      5  C   UNL A   1      36.023  23.840  25.442  1.00  0.00     0.202 C 
BRANCH   5   6
ATOM      6  C   UNL A   1      34.631  24.462  25.609  1.00  0.00     0.261 C 
BRANCH   6   7
ATOM      7  O   UNL A   1      34.420  25.631  24.804  1.00  0.00    -0.460 OA
BRANCH   7   8
ATOM      8  C   UNL A   1      33.959  25.417  23.558  1.00  0.00     0.338 C 
ATOM      9  O   UNL A   1      34.636  25.099  22.592  1.00  0.00    -0.246 OA
BRANCH   8  10
ATOM     10  C   UNL A   1      32.476  25.391  23.541  1.00  0.00     0.071 A 
ATOM     11  C   UNL A   1      31.686  24.253  23.315  1.00  0.00     0.037 A 
ATOM     12  C   UNL A   1      30.309  24.322  23.573  1.00  0.00     0.013 A 
ATOM     13  C   UNL A   1      29.694  25.551  23.821  1.00  0.00     0.001 A 
ATOM     14  C   UNL A   1      31.847  26.626  23.791  1.00  0.00     0.016 A 
ATOM     15  C   UNL A   1      30.458  26.711  23.884  1.00  0.00     0.001 A 
BRANCH  11  16
ATOM     16  C   UNL A   1      32.257  22.961  22.890  1.00  0.00     0.194 C 
ATOM     17  O   UNL A   1      32.777  22.958  21.773  1.00  0.00    -0.289 OA
BRANCH  16  18
ATOM     18  C   UNL A   1      32.296  21.709  23.755  1.00  0.00     0.026 A 
ATOM     19  C   UNL A   1      31.969  22.708  26.145  1.00  0.00     0.045 C 
ATOM     20  C   UNL A   1      32.220  21.598  25.162  1.00  0.00    -0.040 A 
ATOM     21  C   UNL A   1      32.423  20.331  25.764  1.00  0.00     0.008 A 
ATOM     22  C   UNL A   1      32.605  19.163  25.019  1.00  0.00    -0.044 A 
ATOM     23  C   UNL A   1      32.439  20.510  23.018  1.00  0.00     0.016 A 
ATOM     24  C   UNL A   1      32.592  19.249  23.628  1.00  0.00    -0.044 A 
ATOM     25  C   UNL A   1      32.877  17.865  25.738  1.00  0.00     0.036 C 
ATOM     26  C   UNL A   1      32.661  18.009  22.773  1.00  0.00     0.036 C 
ATOM     27  C   UNL A   1      32.685  16.629  24.865  1.00  0.00     0.005 C 
ATOM     28  C   UNL A   1      33.301  16.820  23.487  1.00  0.00     0.005 C 
ENDBRANCH  16  18
ENDBRANCH  11  16
ENDBRANCH   8  10
ENDBRANCH   7   8
ENDBRANCH   6   7
ENDBRANCH   5   6
ENDBRANCH   4   5
ENDBRANCH   3   4
ENDBRANCH   2   3
ENDBRANCH   1   2
BRANCH   1  29
ATOM     29  C   UNL A   1      40.188  22.321  25.938  1.00  0.00     0.188 C 
BRANCH  29  30
ATOM     30  C   UNL A   1      41.392  21.500  26.450  1.00  0.00     0.188 C 
BRANCH  30  31
ATOM     31  O   UNL A   1      41.721  20.369  25.656  1.00  0.00    -0.376 OA
BRANCH  31  32
ATOM     32  C   UNL A   1      42.375  19.299  26.320  1.00  0.00     0.202 C 
BRANCH  32  33
ATOM     33  C   UNL A   1      43.452  18.590  25.492  1.00  0.00     0.261 C 
BRANCH  33  34
ATOM     34  O   UNL A   1      43.924  19.313  24.344  1.00  0.00    -0.460 OA
BRANCH  34  35
ATOM     35  C   UNL A   1      45.201  19.757  24.355  1.00  0.00     0.338 C 
ATOM     36  O   UNL A   1      46.195  19.178  23.957  1.00  0.00    -0.246 OA
BRANCH  35  37
ATOM     37  C   UNL A   1      45.160  21.169  24.785  1.00  0.00     0.060 A 
ATOM     38  C   UNL A   1      45.463  21.493  26.105  1.00  0.00     0.016 A 
ATOM     39  C   UNL A   1      44.782  22.167  23.876  1.00  0.00     0.016 A 
ATOM     40  C   UNL A   1      45.416  22.827  26.507  1.00  0.00     0.010 A 
ATOM     41  C   UNL A   1      44.712  23.501  24.291  1.00  0.00     0.010 A 
ATOM     42  C   UNL A   1      45.044  23.844  25.609  1.00  0.00    -0.014 A 
BRANCH  42  43
ATOM     43  C   UNL A   1      45.208  25.261  26.018  1.00  0.00     0.031 A 
ATOM     44  C   UNL A   1      44.079  26.081  26.565  1.00  0.00     0.074 A 
ATOM     45  C   UNL A   1      46.441  25.792  25.923  1.00  0.00     0.049 A 
ATOM     46  N   UNL A   1      44.130  27.272  27.111  1.00  0.00    -0.248 NA
ATOM     47  C   UNL A   1      42.729  25.503  26.509  1.00  0.00     0.031 C 
ATOM     48  C   UNL A   1      47.617  25.088  25.403  1.00  0.00     0.029 A 
ATOM     49  N   UNL A   1      46.922  27.026  26.278  1.00  0.00    -0.354 N 
ATOM     50  C   UNL A   1      42.830  27.571  27.498  1.00  0.00     0.074 A 
ATOM     51  C   UNL A   1      42.003  26.456  27.086  1.00  0.00     0.031 C 
ATOM     52  C   UNL A   1      48.688  25.884  25.515  1.00  0.00     0.029 A 
ATOM     53  C   UNL A   1      48.274  27.165  26.079  1.00  0.00     0.049 A 
ATOM     54  H   UNL A   1      46.354  27.744  26.642  1.00  0.00     0.167 HD
ATOM     55  C   UNL A   1      42.380  28.669  28.151  1.00  0.00     0.031 A 
ATOM     56  C   UNL A   1      49.099  28.200  26.328  1.00  0.00     0.031 A 
ATOM     57  C   UNL A   1      43.199  29.802  28.509  1.00  0.00     0.049 A 
ATOM     58  C   UNL A   1      48.546  29.443  26.960  1.00  0.00     0.074 A 
ATOM     59  C   UNL A   1      42.823  30.954  29.181  1.00  0.00     0.029 A 
ATOM     60  N   UNL A   1      44.545  29.939  28.209  1.00  0.00    -0.354 N 
ATOM     61  N   UNL A   1      47.332  29.676  27.393  1.00  0.00    -0.248 NA
ATOM     62  C   UNL A   1      49.479  30.563  27.150  1.00  0.00     0.031 C 
ATOM     63  C   UNL A   1      43.919  31.816  29.221  1.00  0.00     0.029 A 
ATOM     64  C   UNL A   1      45.001  31.172  28.647  1.00  0.00     0.049 A 
ATOM     65  H   UNL A   1      45.095  29.262  27.752  1.00  0.00     0.167 HD
ATOM     66  C   UNL A   1      47.361  30.955  27.932  1.00  0.00     0.074 A 
ATOM     67  C   UNL A   1      48.717  31.442  27.786  1.00  0.00     0.031 C 
ATOM     68  C   UNL A   1      46.350  31.657  28.499  1.00  0.00     0.031 A 
BRANCH  55  69
ATOM     69  C   UNL A   1      40.929  28.726  28.548  1.00  0.00    -0.014 A 
ATOM     70  C   UNL A   1      40.506  28.153  29.760  1.00  0.00     0.009 A 
ATOM     71  C   UNL A   1      39.963  29.199  27.646  1.00  0.00     0.009 A 
ATOM     72  C   UNL A   1      39.145  28.027  30.047  1.00  0.00     0.001 A 
ATOM     73  C   UNL A   1      38.602  29.092  27.949  1.00  0.00     0.001 A 
ATOM     74  C   UNL A   1      38.195  28.496  29.141  1.00  0.00     0.000 A 
ENDBRANCH  55  69
BRANCH  56  75
ATOM     75  C   UNL A   1      50.546  28.074  26.013  1.00  0.00    -0.014 A 
ATOM     76  C   UNL A   1      51.458  27.651  26.993  1.00  0.00     0.009 A 
ATOM     77  C   UNL A   1      51.026  28.417  24.741  1.00  0.00     0.009 A 
ATOM     78  C   UNL A   1      52.825  27.595  26.712  1.00  0.00     0.001 A 
ATOM     79  C   UNL A   1      52.389  28.326  24.453  1.00  0.00     0.001 A 
ATOM     80  C   UNL A   1      53.289  27.925  25.441  1.00  0.00     0.000 A 
ENDBRANCH  56  75
BRANCH  68  81
ATOM     81  C   UNL A   1      46.657  33.032  29.029  1.00  0.00    -0.014 A 
ATOM     82  C   UNL A   1      47.039  33.191  30.372  1.00  0.00     0.009 A 
ATOM     83  C   UNL A   1      46.476  34.174  28.236  1.00  0.00     0.009 A 
ATOM     84  C   UNL A   1      47.211  34.466  30.915  1.00  0.00     0.001 A 
ATOM     85  C   UNL A   1      46.681  35.447  28.773  1.00  0.00     0.001 A 
ATOM     86  C   UNL A   1      47.038  35.592  30.113  1.00  0.00     0.000 A 
ENDBRANCH  68  81
ENDBRANCH  42  43
ENDBRANCH  35  37
ENDBRANCH  34  35
ENDBRANCH  33  34
ENDBRANCH  32  33
ENDBRANCH  31  32
ENDBRANCH  30  31
ENDBRANCH  29  30
ENDBRANCH   1  29
TORSDOF 22
ENDMDL
