MODEL 1
REMARK VINA RESULT:     -10.0      0.000      0.000
REMARK SMILES Cc1cccc(C)c1Nc1ccccc1CC(=O)OCCOCCOCCOCCOC(=O)c1ccc(-c2c3nc(c(-c4ccccc4)c4ccc([nH]4)c(-c4ccccc4)c4nc(c(-c5ccccc5)c5ccc2[nH]5)C=C4)C=C3)cc1
REMARK SMILES IDX 24 1 23 2 22 3 21 4 20 5 19 6 17 7 18 8 16 9 15 10 10 11
REMARK SMILES IDX 11 12 12 13 14 14 13 15 9 16 8 18 1 19 2 20 3 21 4 22 6 23
REMARK SMILES IDX 5 24 7 25 25 26 26 27 27 28 28 29 29 30 30 31 31 32 32 33
REMARK SMILES IDX 33 34 34 35 35 36 81 37 36 38 80 39 37 40 38 41 39 42 74 43
REMARK SMILES IDX 40 44 79 45 73 46 75 47 41 48 78 49 72 50 71 51 42 53 64 54
REMARK SMILES IDX 49 55 63 56 50 57 53 58 62 59 76 60 51 61 52 62 61 64 77 65
REMARK SMILES IDX 54 66 43 67 44 68 48 69 45 70 47 71 46 72 65 73 66 74 70 75
REMARK SMILES IDX 67 76 69 77 68 78 55 79 56 80 60 81 57 82 59 83 58 84
REMARK H PARENT 9 17 75 52 53 63
REMARK Flexibility Score: inf
ROOT
ATOM      1  C   UNL A   1      33.741  34.476  28.488  1.00  0.00     0.188 C 
ENDROOT
BRANCH   1   2
ATOM      2  C   UNL A   1      34.160  32.993  28.586  1.00  0.00     0.188 C 
BRANCH   2   3
ATOM      3  O   UNL A   1      35.277  32.484  27.856  1.00  0.00    -0.376 OA
BRANCH   3   4
ATOM      4  C   UNL A   1      35.398  31.087  27.647  1.00  0.00     0.202 C 
BRANCH   4   5
ATOM      5  C   UNL A   1      34.094  30.260  27.671  1.00  0.00     0.261 C 
BRANCH   5   6
ATOM      6  O   UNL A   1      34.255  28.832  27.495  1.00  0.00    -0.463 OA
BRANCH   6   7
ATOM      7  C   UNL A   1      33.300  28.197  26.777  1.00  0.00     0.310 C 
ATOM      8  O   UNL A   1      32.140  28.079  27.174  1.00  0.00    -0.252 OA
BRANCH   7   9
ATOM      9  C   UNL A   1      33.668  27.767  25.365  1.00  0.00     0.160 C 
BRANCH   9  10
ATOM     10  C   UNL A   1      33.129  26.522  24.654  1.00  0.00    -0.013 A 
ATOM     11  C   UNL A   1      31.763  26.268  24.431  1.00  0.00     0.042 A 
ATOM     12  C   UNL A   1      31.361  25.041  23.854  1.00  0.00     0.026 A 
ATOM     13  C   UNL A   1      32.292  24.131  23.360  1.00  0.00     0.002 A 
ATOM     14  C   UNL A   1      34.047  25.630  24.051  1.00  0.00     0.006 A 
ATOM     15  C   UNL A   1      33.639  24.451  23.416  1.00  0.00     0.000 A 
BRANCH  11  16
ATOM     16  N   UNL A   1      30.769  27.258  24.522  1.00  0.00    -0.355 N 
ATOM     17  H   UNL A   1      30.503  27.489  25.442  1.00  0.00     0.167 HD
BRANCH  16  18
ATOM     18  C   UNL A   1      30.087  27.978  23.512  1.00  0.00     0.044 A 
ATOM     19  C   UNL A   1      27.997  26.686  24.194  1.00  0.00     0.046 C 
ATOM     20  C   UNL A   1      28.690  27.768  23.407  1.00  0.00    -0.027 A 
ATOM     21  C   UNL A   1      27.911  28.622  22.612  1.00  0.00     0.005 A 
ATOM     22  C   UNL A   1      28.497  29.672  21.916  1.00  0.00     0.001 A 
ATOM     23  C   UNL A   1      30.691  28.988  22.713  1.00  0.00    -0.027 A 
ATOM     24  C   UNL A   1      29.875  29.846  21.956  1.00  0.00     0.005 A 
ATOM     25  C   UNL A   1      32.172  29.275  22.656  1.00  0.00     0.046 C 
ENDBRANCH  16  18
ENDBRANCH  11  16
ENDBRANCH   9  10
ENDBRANCH   7   9
ENDBRANCH   6   7
ENDBRANCH   5   6
ENDBRANCH   4   5
ENDBRANCH   3   4
ENDBRANCH   2   3
ENDBRANCH   1   2
BRANCH   1  26
ATOM     26  O   UNL A   1      32.742  34.861  29.410  1.00  0.00    -0.377 OA
BRANCH  26  27
ATOM     27  C   UNL A   1      32.997  36.060  30.102  1.00  0.00     0.188 C 
BRANCH  27  28
ATOM     28  C   UNL A   1      32.227  36.217  31.419  1.00  0.00     0.188 C 
BRANCH  28  29
ATOM     29  O   UNL A   1      32.451  35.136  32.318  1.00  0.00    -0.376 OA
BRANCH  29  30
ATOM     30  C   UNL A   1      33.778  34.780  32.661  1.00  0.00     0.202 C 
BRANCH  30  31
ATOM     31  C   UNL A   1      34.056  33.356  33.173  1.00  0.00     0.261 C 
BRANCH  31  32
ATOM     32  O   UNL A   1      35.133  32.633  32.563  1.00  0.00    -0.460 OA
BRANCH  32  33
ATOM     33  C   UNL A   1      36.251  32.427  33.299  1.00  0.00     0.338 C 
ATOM     34  O   UNL A   1      36.398  32.642  34.477  1.00  0.00    -0.246 OA
BRANCH  33  35
ATOM     35  C   UNL A   1      37.211  31.685  32.441  1.00  0.00     0.060 A 
ATOM     36  C   UNL A   1      38.218  30.932  33.060  1.00  0.00     0.016 A 
ATOM     37  C   UNL A   1      37.093  31.691  31.048  1.00  0.00     0.016 A 
ATOM     38  C   UNL A   1      39.118  30.195  32.290  1.00  0.00     0.010 A 
ATOM     39  C   UNL A   1      38.022  30.987  30.275  1.00  0.00     0.010 A 
ATOM     40  C   UNL A   1      39.055  30.259  30.893  1.00  0.00    -0.014 A 
BRANCH  40  41
ATOM     41  C   UNL A   1      40.203  29.767  30.094  1.00  0.00     0.031 A 
ATOM     42  C   UNL A   1      41.334  30.723  29.833  1.00  0.00     0.074 A 
ATOM     43  C   UNL A   1      40.265  28.504  29.640  1.00  0.00     0.049 A 
ATOM     44  N   UNL A   1      42.434  30.546  29.147  1.00  0.00    -0.248 NA
ATOM     45  C   UNL A   1      41.206  32.063  30.430  1.00  0.00     0.031 C 
ATOM     46  C   UNL A   1      39.263  27.466  29.874  1.00  0.00     0.029 A 
ATOM     47  N   UNL A   1      41.224  27.884  28.877  1.00  0.00    -0.354 N 
ATOM     48  C   UNL A   1      43.123  31.750  29.225  1.00  0.00     0.074 A 
ATOM     49  C   UNL A   1      42.306  32.660  29.998  1.00  0.00     0.031 C 
ATOM     50  C   UNL A   1      39.657  26.337  29.258  1.00  0.00     0.029 A 
ATOM     51  C   UNL A   1      40.918  26.583  28.559  1.00  0.00     0.049 A 
ATOM     52  H   UNL A   1      42.053  28.329  28.586  1.00  0.00     0.167 HD
ATOM     53  C   UNL A   1      44.328  32.073  28.703  1.00  0.00     0.031 A 
ATOM     54  C   UNL A   1      41.572  25.703  27.774  1.00  0.00     0.031 A 
ATOM     55  C   UNL A   1      45.127  31.177  27.912  1.00  0.00     0.049 A 
ATOM     56  C   UNL A   1      42.866  26.117  27.121  1.00  0.00     0.074 A 
ATOM     57  C   UNL A   1      46.366  31.405  27.341  1.00  0.00     0.029 A 
ATOM     58  N   UNL A   1      44.758  29.885  27.570  1.00  0.00    -0.354 N 
ATOM     59  N   UNL A   1      43.522  27.250  27.222  1.00  0.00    -0.248 NA
ATOM     60  C   UNL A   1      43.516  25.127  26.250  1.00  0.00     0.031 C 
ATOM     61  C   UNL A   1      46.716  30.275  26.596  1.00  0.00     0.029 A 
ATOM     62  C   UNL A   1      45.730  29.315  26.766  1.00  0.00     0.049 A 
ATOM     63  H   UNL A   1      43.927  29.440  27.856  1.00  0.00     0.167 HD
ATOM     64  C   UNL A   1      44.673  27.095  26.457  1.00  0.00     0.074 A 
ATOM     65  C   UNL A   1      44.633  25.754  25.911  1.00  0.00     0.031 C 
ATOM     66  C   UNL A   1      45.674  27.979  26.229  1.00  0.00     0.031 A 
BRANCH  53  67
ATOM     67  C   UNL A   1      44.828  33.471  28.933  1.00  0.00    -0.014 A 
ATOM     68  C   UNL A   1      44.331  34.559  28.198  1.00  0.00     0.009 A 
ATOM     69  C   UNL A   1      45.803  33.705  29.915  1.00  0.00     0.009 A 
ATOM     70  C   UNL A   1      44.824  35.846  28.418  1.00  0.00     0.001 A 
ATOM     71  C   UNL A   1      46.270  34.997  30.156  1.00  0.00     0.001 A 
ATOM     72  C   UNL A   1      45.790  36.065  29.401  1.00  0.00     0.000 A 
ENDBRANCH  53  67
BRANCH  54  73
ATOM     73  C   UNL A   1      41.006  24.349  27.532  1.00  0.00    -0.014 A 
ATOM     74  C   UNL A   1      41.569  23.214  28.137  1.00  0.00     0.009 A 
ATOM     75  C   UNL A   1      39.917  24.179  26.661  1.00  0.00     0.009 A 
ATOM     76  C   UNL A   1      41.073  21.938  27.854  1.00  0.00     0.001 A 
ATOM     77  C   UNL A   1      39.401  22.906  26.405  1.00  0.00     0.001 A 
ATOM     78  C   UNL A   1      39.986  21.786  26.992  1.00  0.00     0.000 A 
ENDBRANCH  54  73
BRANCH  66  79
ATOM     79  C   UNL A   1      46.833  27.516  25.389  1.00  0.00    -0.014 A 
ATOM     80  C   UNL A   1      47.843  26.695  25.917  1.00  0.00     0.009 A 
ATOM     81  C   UNL A   1      46.887  27.868  24.030  1.00  0.00     0.009 A 
ATOM     82  C   UNL A   1      48.900  26.269  25.110  1.00  0.00     0.001 A 
ATOM     83  C   UNL A   1      47.926  27.412  23.218  1.00  0.00     0.001 A 
ATOM     84  C   UNL A   1      48.937  26.621  23.761  1.00  0.00     0.000 A 
ENDBRANCH  66  79
ENDBRANCH  40  41
ENDBRANCH  33  35
ENDBRANCH  32  33
ENDBRANCH  31  32
ENDBRANCH  30  31
ENDBRANCH  29  30
ENDBRANCH  28  29
ENDBRANCH  27  28
ENDBRANCH  26  27
ENDBRANCH   1  26
TORSDOF 23
ENDMDL
MODEL 2
REMARK VINA RESULT:      -9.9      0.936      2.566
REMARK SMILES Cc1cccc(C)c1Nc1ccccc1CC(=O)OCCOCCOCCOCCOC(=O)c1ccc(-c2c3nc(c(-c4ccccc4)c4ccc([nH]4)c(-c4ccccc4)c4nc(c(-c5ccccc5)c5ccc2[nH]5)C=C4)C=C3)cc1
REMARK SMILES IDX 24 1 23 2 22 3 21 4 20 5 19 6 17 7 18 8 16 9 15 10 10 11
REMARK SMILES IDX 11 12 12 13 14 14 13 15 9 16 8 18 1 19 2 20 3 21 4 22 6 23
REMARK SMILES IDX 5 24 7 25 25 26 26 27 27 28 28 29 29 30 30 31 31 32 32 33
REMARK SMILES IDX 33 34 34 35 35 36 81 37 36 38 80 39 37 40 38 41 39 42 74 43
REMARK SMILES IDX 40 44 79 45 73 46 75 47 41 48 78 49 72 50 71 51 42 53 64 54
REMARK SMILES IDX 49 55 63 56 50 57 53 58 62 59 76 60 51 61 52 62 61 64 77 65
REMARK SMILES IDX 54 66 43 67 44 68 48 69 45 70 47 71 46 72 65 73 66 74 70 75
REMARK SMILES IDX 67 76 69 77 68 78 55 79 56 80 60 81 57 82 59 83 58 84
REMARK H PARENT 9 17 75 52 53 63
REMARK Flexibility Score: inf
ROOT
ATOM      1  C   UNL A   1      34.824  33.230  28.119  1.00  0.00     0.188 C 
ENDROOT
BRANCH   1   2
ATOM      2  C   UNL A   1      35.098  31.717  27.972  1.00  0.00     0.188 C 
BRANCH   2   3
ATOM      3  O   UNL A   1      34.439  30.934  26.976  1.00  0.00    -0.376 OA
BRANCH   3   4
ATOM      4  C   UNL A   1      33.540  29.912  27.372  1.00  0.00     0.202 C 
BRANCH   4   5
ATOM      5  C   UNL A   1      33.037  28.956  26.269  1.00  0.00     0.261 C 
BRANCH   5   6
ATOM      6  O   UNL A   1      32.571  29.592  25.054  1.00  0.00    -0.463 OA
BRANCH   6   7
ATOM      7  C   UNL A   1      32.969  29.036  23.887  1.00  0.00     0.310 C 
ATOM      8  O   UNL A   1      34.114  28.621  23.705  1.00  0.00    -0.252 OA
BRANCH   7   9
ATOM      9  C   UNL A   1      31.895  28.786  22.839  1.00  0.00     0.160 C 
BRANCH   9  10
ATOM     10  C   UNL A   1      30.490  28.248  23.128  1.00  0.00    -0.013 A 
ATOM     11  C   UNL A   1      30.227  26.996  23.716  1.00  0.00     0.042 A 
ATOM     12  C   UNL A   1      28.893  26.548  23.849  1.00  0.00     0.026 A 
ATOM     13  C   UNL A   1      27.815  27.376  23.549  1.00  0.00     0.002 A 
ATOM     14  C   UNL A   1      29.379  29.102  22.931  1.00  0.00     0.006 A 
ATOM     15  C   UNL A   1      28.061  28.675  23.135  1.00  0.00     0.000 A 
BRANCH  11  16
ATOM     16  N   UNL A   1      31.198  26.251  24.408  1.00  0.00    -0.355 N 
ATOM     17  H   UNL A   1      31.590  26.711  25.187  1.00  0.00     0.167 HD
BRANCH  16  18
ATOM     18  C   UNL A   1      31.707  24.952  24.173  1.00  0.00     0.044 A 
ATOM     19  C   UNL A   1      30.576  24.263  26.352  1.00  0.00     0.046 C 
ATOM     20  C   UNL A   1      31.323  23.937  25.085  1.00  0.00    -0.027 A 
ATOM     21  C   UNL A   1      31.573  22.591  24.781  1.00  0.00     0.005 A 
ATOM     22  C   UNL A   1      32.204  22.238  23.594  1.00  0.00     0.001 A 
ATOM     23  C   UNL A   1      32.446  24.588  23.013  1.00  0.00    -0.027 A 
ATOM     24  C   UNL A   1      32.647  23.227  22.725  1.00  0.00     0.005 A 
ATOM     25  C   UNL A   1      32.991  25.560  21.995  1.00  0.00     0.046 C 
ENDBRANCH  16  18
ENDBRANCH  11  16
ENDBRANCH   9  10
ENDBRANCH   7   9
ENDBRANCH   6   7
ENDBRANCH   5   6
ENDBRANCH   4   5
ENDBRANCH   3   4
ENDBRANCH   2   3
ENDBRANCH   1   2
BRANCH   1  26
ATOM     26  O   UNL A   1      34.139  33.585  29.303  1.00  0.00    -0.377 OA
BRANCH  26  27
ATOM     27  C   UNL A   1      34.182  34.953  29.632  1.00  0.00     0.188 C 
BRANCH  27  28
ATOM     28  C   UNL A   1      32.915  35.489  30.311  1.00  0.00     0.188 C 
BRANCH  28  29
ATOM     29  O   UNL A   1      32.710  34.937  31.606  1.00  0.00    -0.376 OA
BRANCH  29  30
ATOM     30  C   UNL A   1      33.788  34.897  32.524  1.00  0.00     0.202 C 
BRANCH  30  31
ATOM     31  C   UNL A   1      34.087  33.581  33.263  1.00  0.00     0.261 C 
BRANCH  31  32
ATOM     32  O   UNL A   1      35.087  32.721  32.703  1.00  0.00    -0.460 OA
BRANCH  32  33
ATOM     33  C   UNL A   1      36.230  32.541  33.406  1.00  0.00     0.338 C 
ATOM     34  O   UNL A   1      36.409  32.771  34.577  1.00  0.00    -0.246 OA
BRANCH  33  35
ATOM     35  C   UNL A   1      37.176  31.807  32.526  1.00  0.00     0.060 A 
ATOM     36  C   UNL A   1      38.176  31.027  33.123  1.00  0.00     0.016 A 
ATOM     37  C   UNL A   1      37.052  31.848  31.134  1.00  0.00     0.016 A 
ATOM     38  C   UNL A   1      39.063  30.296  32.331  1.00  0.00     0.010 A 
ATOM     39  C   UNL A   1      37.969  31.150  30.341  1.00  0.00     0.010 A 
ATOM     40  C   UNL A   1      38.995  30.394  30.937  1.00  0.00    -0.014 A 
BRANCH  40  41
ATOM     41  C   UNL A   1      40.132  29.906  30.121  1.00  0.00     0.031 A 
ATOM     42  C   UNL A   1      41.286  30.844  29.897  1.00  0.00     0.074 A 
ATOM     43  C   UNL A   1      40.165  28.660  29.618  1.00  0.00     0.049 A 
ATOM     44  N   UNL A   1      42.383  30.667  29.207  1.00  0.00    -0.248 NA
ATOM     45  C   UNL A   1      41.189  32.163  30.546  1.00  0.00     0.031 C 
ATOM     46  C   UNL A   1      39.139  27.638  29.811  1.00  0.00     0.029 A 
ATOM     47  N   UNL A   1      41.111  28.047  28.834  1.00  0.00    -0.354 N 
ATOM     48  C   UNL A   1      43.099  31.851  29.332  1.00  0.00     0.074 A 
ATOM     49  C   UNL A   1      42.303  32.750  30.138  1.00  0.00     0.031 C 
ATOM     50  C   UNL A   1      39.507  26.524  29.153  1.00  0.00     0.029 A 
ATOM     51  C   UNL A   1      40.775  26.767  28.465  1.00  0.00     0.049 A 
ATOM     52  H   UNL A   1      41.950  28.483  28.561  1.00  0.00     0.167 HD
ATOM     53  C   UNL A   1      44.314  32.165  28.824  1.00  0.00     0.031 A 
ATOM     54  C   UNL A   1      41.409  25.903  27.648  1.00  0.00     0.031 A 
ATOM     55  C   UNL A   1      45.093  31.281  28.000  1.00  0.00     0.049 A 
ATOM     56  C   UNL A   1      42.715  26.310  27.013  1.00  0.00     0.074 A 
ATOM     57  C   UNL A   1      46.338  31.501  27.439  1.00  0.00     0.029 A 
ATOM     58  N   UNL A   1      44.694  30.012  27.608  1.00  0.00    -0.354 N 
ATOM     59  N   UNL A   1      43.396  27.423  27.158  1.00  0.00    -0.248 NA
ATOM     60  C   UNL A   1      43.342  25.339  26.106  1.00  0.00     0.031 C 
ATOM     61  C   UNL A   1      46.662  30.392  26.652  1.00  0.00     0.029 A 
ATOM     62  C   UNL A   1      45.654  29.451  26.784  1.00  0.00     0.049 A 
ATOM     63  H   UNL A   1      43.852  29.577  27.876  1.00  0.00     0.167 HD
ATOM     64  C   UNL A   1      44.545  27.269  26.389  1.00  0.00     0.074 A 
ATOM     65  C   UNL A   1      44.474  25.952  25.792  1.00  0.00     0.031 C 
ATOM     66  C   UNL A   1      45.568  28.138  26.196  1.00  0.00     0.031 A 
BRANCH  53  67
ATOM     67  C   UNL A   1      44.846  33.541  29.107  1.00  0.00    -0.014 A 
ATOM     68  C   UNL A   1      44.561  34.627  28.264  1.00  0.00     0.009 A 
ATOM     69  C   UNL A   1      45.632  33.757  30.250  1.00  0.00     0.009 A 
ATOM     70  C   UNL A   1      45.082  35.893  28.540  1.00  0.00     0.001 A 
ATOM     71  C   UNL A   1      46.124  35.030  30.541  1.00  0.00     0.001 A 
ATOM     72  C   UNL A   1      45.859  36.094  29.681  1.00  0.00     0.000 A 
ENDBRANCH  53  67
BRANCH  54  73
ATOM     73  C   UNL A   1      40.812  24.572  27.354  1.00  0.00    -0.014 A 
ATOM     74  C   UNL A   1      39.697  24.453  26.510  1.00  0.00     0.009 A 
ATOM     75  C   UNL A   1      41.336  23.411  27.947  1.00  0.00     0.009 A 
ATOM     76  C   UNL A   1      39.103  23.208  26.290  1.00  0.00     0.001 A 
ATOM     77  C   UNL A   1      40.761  22.163  27.700  1.00  0.00     0.001 A 
ATOM     78  C   UNL A   1      39.638  22.063  26.880  1.00  0.00     0.000 A 
ENDBRANCH  54  73
BRANCH  66  79
ATOM     79  C   UNL A   1      46.717  27.680  25.341  1.00  0.00    -0.014 A 
ATOM     80  C   UNL A   1      46.772  27.967  23.967  1.00  0.00     0.009 A 
ATOM     81  C   UNL A   1      47.789  26.992  25.932  1.00  0.00     0.009 A 
ATOM     82  C   UNL A   1      47.857  27.541  23.199  1.00  0.00     0.001 A 
ATOM     83  C   UNL A   1      48.889  26.598  25.170  1.00  0.00     0.001 A 
ATOM     84  C   UNL A   1      48.918  26.864  23.802  1.00  0.00     0.000 A 
ENDBRANCH  66  79
ENDBRANCH  40  41
ENDBRANCH  33  35
ENDBRANCH  32  33
ENDBRANCH  31  32
ENDBRANCH  30  31
ENDBRANCH  29  30
ENDBRANCH  28  29
ENDBRANCH  27  28
ENDBRANCH  26  27
ENDBRANCH   1  26
TORSDOF 23
ENDMDL
MODEL 3
REMARK VINA RESULT:      -9.8      1.564      6.535
REMARK SMILES Cc1cccc(C)c1Nc1ccccc1CC(=O)OCCOCCOCCOCCOC(=O)c1ccc(-c2c3nc(c(-c4ccccc4)c4ccc([nH]4)c(-c4ccccc4)c4nc(c(-c5ccccc5)c5ccc2[nH]5)C=C4)C=C3)cc1
REMARK SMILES IDX 24 1 23 2 22 3 21 4 20 5 19 6 17 7 18 8 16 9 15 10 10 11
REMARK SMILES IDX 11 12 12 13 14 14 13 15 9 16 8 18 1 19 2 20 3 21 4 22 6 23
REMARK SMILES IDX 5 24 7 25 25 26 26 27 27 28 28 29 29 30 30 31 31 32 32 33
REMARK SMILES IDX 33 34 34 35 35 36 81 37 36 38 80 39 37 40 38 41 39 42 74 43
REMARK SMILES IDX 40 44 79 45 73 46 75 47 41 48 78 49 72 50 71 51 42 53 64 54
REMARK SMILES IDX 49 55 63 56 50 57 53 58 62 59 76 60 51 61 52 62 61 64 77 65
REMARK SMILES IDX 54 66 43 67 44 68 48 69 45 70 47 71 46 72 65 73 66 74 70 75
REMARK SMILES IDX 67 76 69 77 68 78 55 79 56 80 60 81 57 82 59 83 58 84
REMARK H PARENT 9 17 75 52 53 63
REMARK Flexibility Score: inf
ROOT
ATOM      1  C   UNL A   1      34.673  33.022  28.649  1.00  0.00     0.188 C 
ENDROOT
BRANCH   1   2
ATOM      2  C   UNL A   1      34.463  31.522  28.348  1.00  0.00     0.188 C 
BRANCH   2   3
ATOM      3  O   UNL A   1      34.005  31.074  27.072  1.00  0.00    -0.376 OA
BRANCH   3   4
ATOM      4  C   UNL A   1      32.632  30.773  26.887  1.00  0.00     0.202 C 
BRANCH   4   5
ATOM      5  C   UNL A   1      32.266  29.885  25.678  1.00  0.00     0.261 C 
BRANCH   5   6
ATOM      6  O   UNL A   1      33.290  28.955  25.251  1.00  0.00    -0.463 OA
BRANCH   6   7
ATOM      7  C   UNL A   1      33.144  27.669  25.643  1.00  0.00     0.310 C 
ATOM      8  O   UNL A   1      33.790  27.180  26.571  1.00  0.00    -0.252 OA
BRANCH   7   9
ATOM      9  C   UNL A   1      32.019  26.874  24.998  1.00  0.00     0.160 C 
BRANCH   9  10
ATOM     10  C   UNL A   1      31.351  25.638  25.608  1.00  0.00    -0.013 A 
ATOM     11  C   UNL A   1      32.013  24.422  25.859  1.00  0.00     0.042 A 
ATOM     12  C   UNL A   1      31.282  23.308  26.332  1.00  0.00     0.026 A 
ATOM     13  C   UNL A   1      29.944  23.420  26.701  1.00  0.00     0.002 A 
ATOM     14  C   UNL A   1      30.023  25.749  26.088  1.00  0.00     0.006 A 
ATOM     15  C   UNL A   1      29.328  24.658  26.623  1.00  0.00     0.000 A 
BRANCH  11  16
ATOM     16  N   UNL A   1      33.413  24.301  25.901  1.00  0.00    -0.355 N 
ATOM     17  H   UNL A   1      33.875  25.041  26.358  1.00  0.00     0.167 HD
BRANCH  16  18
ATOM     18  C   UNL A   1      34.268  23.294  25.394  1.00  0.00     0.044 A 
ATOM     19  C   UNL A   1      34.294  24.609  23.209  1.00  0.00     0.046 C 
ATOM     20  C   UNL A   1      34.786  23.489  24.089  1.00  0.00    -0.027 A 
ATOM     21  C   UNL A   1      35.828  22.675  23.620  1.00  0.00     0.005 A 
ATOM     22  C   UNL A   1      36.356  21.669  24.420  1.00  0.00     0.001 A 
ATOM     23  C   UNL A   1      34.742  22.195  26.162  1.00  0.00    -0.027 A 
ATOM     24  C   UNL A   1      35.811  21.424  25.674  1.00  0.00     0.005 A 
ATOM     25  C   UNL A   1      34.231  21.813  27.530  1.00  0.00     0.046 C 
ENDBRANCH  16  18
ENDBRANCH  11  16
ENDBRANCH   9  10
ENDBRANCH   7   9
ENDBRANCH   6   7
ENDBRANCH   5   6
ENDBRANCH   4   5
ENDBRANCH   3   4
ENDBRANCH   2   3
ENDBRANCH   1   2
BRANCH   1  26
ATOM     26  O   UNL A   1      33.756  33.562  29.578  1.00  0.00    -0.377 OA
BRANCH  26  27
ATOM     27  C   UNL A   1      33.927  34.931  29.859  1.00  0.00     0.188 C 
BRANCH  27  28
ATOM     28  C   UNL A   1      32.824  35.550  30.728  1.00  0.00     0.188 C 
BRANCH  28  29
ATOM     29  O   UNL A   1      32.773  34.986  32.034  1.00  0.00    -0.376 OA
BRANCH  29  30
ATOM     30  C   UNL A   1      33.979  34.746  32.736  1.00  0.00     0.202 C 
BRANCH  30  31
ATOM     31  C   UNL A   1      34.288  33.318  33.217  1.00  0.00     0.261 C 
BRANCH  31  32
ATOM     32  O   UNL A   1      35.363  32.622  32.573  1.00  0.00    -0.460 OA
BRANCH  32  33
ATOM     33  C   UNL A   1      36.448  32.307  33.320  1.00  0.00     0.338 C 
ATOM     34  O   UNL A   1      36.543  32.351  34.523  1.00  0.00    -0.246 OA
BRANCH  33  35
ATOM     35  C   UNL A   1      37.446  31.691  32.408  1.00  0.00     0.060 A 
ATOM     36  C   UNL A   1      38.496  30.950  32.968  1.00  0.00     0.016 A 
ATOM     37  C   UNL A   1      37.324  31.802  31.020  1.00  0.00     0.016 A 
ATOM     38  C   UNL A   1      39.434  30.328  32.143  1.00  0.00     0.010 A 
ATOM     39  C   UNL A   1      38.290  31.214  30.196  1.00  0.00     0.010 A 
ATOM     40  C   UNL A   1      39.364  30.499  30.756  1.00  0.00    -0.014 A 
BRANCH  40  41
ATOM     41  C   UNL A   1      40.535  30.138  29.922  1.00  0.00     0.031 A 
ATOM     42  C   UNL A   1      40.526  28.793  29.247  1.00  0.00     0.074 A 
ATOM     43  C   UNL A   1      41.563  30.983  29.735  1.00  0.00     0.049 A 
ATOM     44  N   UNL A   1      41.434  28.235  28.489  1.00  0.00    -0.248 NA
ATOM     45  C   UNL A   1      39.325  27.967  29.457  1.00  0.00     0.031 C 
ATOM     46  C   UNL A   1      41.665  32.333  30.284  1.00  0.00     0.029 A 
ATOM     47  N   UNL A   1      42.727  30.817  29.024  1.00  0.00    -0.354 N 
ATOM     48  C   UNL A   1      40.917  26.994  28.139  1.00  0.00     0.074 A 
ATOM     49  C   UNL A   1      39.632  26.866  28.789  1.00  0.00     0.031 C 
ATOM     50  C   UNL A   1      42.836  32.871  29.896  1.00  0.00     0.029 A 
ATOM     51  C   UNL A   1      43.578  31.892  29.102  1.00  0.00     0.049 A 
ATOM     52  H   UNL A   1      42.931  30.005  28.506  1.00  0.00     0.167 HD
ATOM     53  C   UNL A   1      41.461  26.043  27.344  1.00  0.00     0.031 A 
ATOM     54  C   UNL A   1      44.822  32.054  28.609  1.00  0.00     0.031 A 
ATOM     55  C   UNL A   1      42.750  26.158  26.720  1.00  0.00     0.049 A 
ATOM     56  C   UNL A   1      45.448  30.941  27.808  1.00  0.00     0.074 A 
ATOM     57  C   UNL A   1      43.390  25.253  25.892  1.00  0.00     0.029 A 
ATOM     58  N   UNL A   1      43.603  27.242  26.866  1.00  0.00    -0.354 N 
ATOM     59  N   UNL A   1      44.941  29.781  27.461  1.00  0.00    -0.248 NA
ATOM     60  C   UNL A   1      46.819  31.163  27.324  1.00  0.00     0.031 C 
ATOM     61  C   UNL A   1      44.658  25.759  25.593  1.00  0.00     0.029 A 
ATOM     62  C   UNL A   1      44.778  27.013  26.172  1.00  0.00     0.049 A 
ATOM     63  H   UNL A   1      43.402  28.053  27.388  1.00  0.00     0.167 HD
ATOM     64  C   UNL A   1      45.916  29.153  26.692  1.00  0.00     0.074 A 
ATOM     65  C   UNL A   1      47.037  30.066  26.613  1.00  0.00     0.031 C 
ATOM     66  C   UNL A   1      45.885  27.932  26.103  1.00  0.00     0.031 A 
BRANCH  53  67
ATOM     67  C   UNL A   1      40.678  24.774  27.151  1.00  0.00    -0.014 A 
ATOM     68  C   UNL A   1      41.103  23.557  27.705  1.00  0.00     0.009 A 
ATOM     69  C   UNL A   1      39.484  24.804  26.414  1.00  0.00     0.009 A 
ATOM     70  C   UNL A   1      40.367  22.389  27.497  1.00  0.00     0.001 A 
ATOM     71  C   UNL A   1      38.733  23.642  26.235  1.00  0.00     0.001 A 
ATOM     72  C   UNL A   1      39.180  22.434  26.766  1.00  0.00     0.000 A 
ENDBRANCH  53  67
BRANCH  54  73
ATOM     73  C   UNL A   1      45.578  33.307  28.876  1.00  0.00    -0.014 A 
ATOM     74  C   UNL A   1      45.502  34.396  27.995  1.00  0.00     0.009 A 
ATOM     75  C   UNL A   1      46.413  33.406  30.002  1.00  0.00     0.009 A 
ATOM     76  C   UNL A   1      46.266  35.546  28.219  1.00  0.00     0.001 A 
ATOM     77  C   UNL A   1      47.150  34.568  30.242  1.00  0.00     0.001 A 
ATOM     78  C   UNL A   1      47.085  35.632  29.345  1.00  0.00     0.000 A 
ENDBRANCH  54  73
BRANCH  66  79
ATOM     79  C   UNL A   1      47.079  27.527  25.282  1.00  0.00    -0.014 A 
ATOM     80  C   UNL A   1      47.161  27.815  23.910  1.00  0.00     0.009 A 
ATOM     81  C   UNL A   1      48.164  26.888  25.906  1.00  0.00     0.009 A 
ATOM     82  C   UNL A   1      48.287  27.439  23.175  1.00  0.00     0.001 A 
ATOM     83  C   UNL A   1      49.302  26.545  25.177  1.00  0.00     0.001 A 
ATOM     84  C   UNL A   1      49.359  26.811  23.810  1.00  0.00     0.000 A 
ENDBRANCH  66  79
ENDBRANCH  40  41
ENDBRANCH  33  35
ENDBRANCH  32  33
ENDBRANCH  31  32
ENDBRANCH  30  31
ENDBRANCH  29  30
ENDBRANCH  28  29
ENDBRANCH  27  28
ENDBRANCH  26  27
ENDBRANCH   1  26
TORSDOF 23
ENDMDL
