MODEL 1
REMARK VINA RESULT:      -8.4      0.000      0.000
REMARK SMILES CCC[C@H](Cn1c(C)cc(=O)cc1C)C(=O)OCCOCCOCCOCCOC(=O)c1ccc(-c2c3nc(c(-c4ccccc4)c4ccc([nH]4)c(-c4ccccc4)c4nc(c(-c5ccccc5)c5ccc2[nH]5)C=C4)C=C3)cc1
REMARK SMILES IDX 23 1 22 2 21 3 20 4 19 5 18 6 17 7 15 8 16 9 4 10 3 11 2 12
REMARK SMILES IDX 1 13 5 14 6 15 7 16 13 17 8 18 9 19 12 20 14 21 10 22 11 23
REMARK SMILES IDX 24 24 25 25 26 26 27 27 28 28 29 29 30 30 31 31 32 32 33 33
REMARK SMILES IDX 79 34 34 35 78 36 35 37 36 38 37 39 72 40 38 41 77 42 71 43
REMARK SMILES IDX 73 44 39 45 76 46 70 47 69 48 40 50 62 51 47 52 61 53 48 54
REMARK SMILES IDX 51 55 60 56 74 57 49 58 50 59 59 61 75 62 52 63 41 64 42 65
REMARK SMILES IDX 46 66 43 67 45 68 44 69 63 70 64 71 68 72 65 73 67 74 66 75
REMARK SMILES IDX 53 76 54 77 58 78 55 79 57 80 56 81
REMARK H PARENT 73 49 51 60
REMARK Flexibility Score: inf
ROOT
ATOM      1  O   UNL A   1      34.137  30.181  27.700  1.00  0.00    -0.377 OA
ENDROOT
BRANCH   1   2
ATOM      2  C   UNL A   1      33.732  29.464  26.555  1.00  0.00     0.188 C 
BRANCH   2   3
ATOM      3  C   UNL A   1      32.508  28.554  26.655  1.00  0.00     0.188 C 
BRANCH   3   4
ATOM      4  O   UNL A   1      31.870  28.171  25.445  1.00  0.00    -0.376 OA
BRANCH   4   5
ATOM      5  C   UNL A   1      32.615  27.965  24.254  1.00  0.00     0.202 C 
BRANCH   5   6
ATOM      6  C   UNL A   1      33.480  26.711  24.035  1.00  0.00     0.261 C 
BRANCH   6   7
ATOM      7  O   UNL A   1      33.142  25.890  22.892  1.00  0.00    -0.463 OA
BRANCH   7   8
ATOM      8  C   UNL A   1      32.452  24.739  23.143  1.00  0.00     0.310 C 
ATOM      9  O   UNL A   1      31.265  24.711  23.442  1.00  0.00    -0.252 OA
BRANCH   8  10
ATOM     10  C   UNL A   1      33.339  23.489  23.140  1.00  0.00     0.119 C 
BRANCH  10  11
ATOM     11  C   UNL A   1      32.756  22.584  22.010  1.00  0.00     0.017 C 
BRANCH  11  12
ATOM     12  C   UNL A   1      31.911  21.370  22.396  1.00  0.00    -0.002 C 
ATOM     13  C   UNL A   1      31.960  20.256  21.356  1.00  0.00     0.004 C 
ENDBRANCH  11  12
ENDBRANCH  10  11
BRANCH  10  14
ATOM     14  C   UNL A   1      33.518  22.845  24.521  1.00  0.00     0.137 C 
BRANCH  14  15
ATOM     15  N   UNL A   1      34.754  22.054  24.884  1.00  0.00    -0.348 N 
ATOM     16  C   UNL A   1      34.569  20.650  25.110  1.00  0.00     0.018 A 
ATOM     17  C   UNL A   1      36.091  22.531  24.937  1.00  0.00     0.018 A 
ATOM     18  C   UNL A   1      33.193  20.083  25.391  1.00  0.00     0.064 C 
ATOM     19  C   UNL A   1      35.583  19.767  25.105  1.00  0.00     0.073 A 
ATOM     20  C   UNL A   1      37.151  21.699  24.914  1.00  0.00     0.073 A 
ATOM     21  C   UNL A   1      36.428  23.980  25.155  1.00  0.00     0.064 C 
ATOM     22  C   UNL A   1      36.953  20.243  24.881  1.00  0.00     0.182 A 
ATOM     23  O   UNL A   1      37.888  19.467  24.738  1.00  0.00    -0.290 OA
ENDBRANCH  14  15
ENDBRANCH  10  14
ENDBRANCH   8  10
ENDBRANCH   7   8
ENDBRANCH   6   7
ENDBRANCH   5   6
ENDBRANCH   4   5
ENDBRANCH   3   4
ENDBRANCH   2   3
ENDBRANCH   1   2
BRANCH   1  24
ATOM     24  C   UNL A   1      33.699  31.522  27.770  1.00  0.00     0.188 C 
BRANCH  24  25
ATOM     25  C   UNL A   1      34.527  32.356  28.752  1.00  0.00     0.188 C 
BRANCH  25  26
ATOM     26  O   UNL A   1      34.012  32.670  30.047  1.00  0.00    -0.376 OA
BRANCH  26  27
ATOM     27  C   UNL A   1      34.583  33.741  30.788  1.00  0.00     0.202 C 
BRANCH  27  28
ATOM     28  C   UNL A   1      34.907  33.362  32.244  1.00  0.00     0.261 C 
BRANCH  28  29
ATOM     29  O   UNL A   1      36.258  33.633  32.659  1.00  0.00    -0.460 OA
BRANCH  29  30
ATOM     30  C   UNL A   1      36.853  32.662  33.394  1.00  0.00     0.338 C 
ATOM     31  O   UNL A   1      36.670  32.395  34.570  1.00  0.00    -0.246 OA
BRANCH  30  32
ATOM     32  C   UNL A   1      37.722  31.850  32.513  1.00  0.00     0.060 A 
ATOM     33  C   UNL A   1      38.751  31.098  33.095  1.00  0.00     0.016 A 
ATOM     34  C   UNL A   1      37.541  31.845  31.127  1.00  0.00     0.016 A 
ATOM     35  C   UNL A   1      39.621  30.363  32.290  1.00  0.00     0.010 A 
ATOM     36  C   UNL A   1      38.435  31.136  30.317  1.00  0.00     0.010 A 
ATOM     37  C   UNL A   1      39.498  30.420  30.894  1.00  0.00    -0.014 A 
BRANCH  37  38
ATOM     38  C   UNL A   1      40.618  29.939  30.051  1.00  0.00     0.031 A 
ATOM     39  C   UNL A   1      41.731  30.904  29.744  1.00  0.00     0.074 A 
ATOM     40  C   UNL A   1      40.683  28.671  29.609  1.00  0.00     0.049 A 
ATOM     41  N   UNL A   1      42.824  30.718  29.050  1.00  0.00    -0.248 NA
ATOM     42  C   UNL A   1      41.597  32.260  30.306  1.00  0.00     0.031 C 
ATOM     43  C   UNL A   1      39.707  27.622  29.891  1.00  0.00     0.029 A 
ATOM     44  N   UNL A   1      41.630  28.050  28.831  1.00  0.00    -0.354 N 
ATOM     45  C   UNL A   1      43.512  31.924  29.108  1.00  0.00     0.074 A 
ATOM     46  C   UNL A   1      42.702  32.845  29.872  1.00  0.00     0.031 C 
ATOM     47  C   UNL A   1      40.108  26.483  29.297  1.00  0.00     0.029 A 
ATOM     48  C   UNL A   1      41.353  26.731  28.570  1.00  0.00     0.049 A 
ATOM     49  H   UNL A   1      42.432  28.509  28.492  1.00  0.00     0.167 HD
ATOM     50  C   UNL A   1      44.718  32.237  28.580  1.00  0.00     0.031 A 
ATOM     51  C   UNL A   1      42.025  25.832  27.824  1.00  0.00     0.031 A 
ATOM     52  C   UNL A   1      45.510  31.340  27.788  1.00  0.00     0.049 A 
ATOM     53  C   UNL A   1      43.303  26.243  27.140  1.00  0.00     0.074 A 
ATOM     54  C   UNL A   1      46.736  31.573  27.189  1.00  0.00     0.029 A 
ATOM     55  N   UNL A   1      45.150  30.039  27.475  1.00  0.00    -0.354 N 
ATOM     56  N   UNL A   1      43.946  27.384  27.206  1.00  0.00    -0.248 NA
ATOM     57  C   UNL A   1      43.948  25.240  26.278  1.00  0.00     0.031 C 
ATOM     58  C   UNL A   1      47.092  30.429  26.470  1.00  0.00     0.029 A 
ATOM     59  C   UNL A   1      46.116  29.465  26.669  1.00  0.00     0.049 A 
ATOM     60  H   UNL A   1      44.329  29.590  27.782  1.00  0.00     0.167 HD
ATOM     61  C   UNL A   1      45.080  27.229  26.416  1.00  0.00     0.074 A 
ATOM     62  C   UNL A   1      45.044  25.879  25.890  1.00  0.00     0.031 C 
ATOM     63  C   UNL A   1      46.064  28.122  26.152  1.00  0.00     0.031 A 
BRANCH  50  64
ATOM     64  C   UNL A   1      45.236  33.624  28.822  1.00  0.00    -0.014 A 
ATOM     65  C   UNL A   1      44.958  34.665  27.922  1.00  0.00     0.009 A 
ATOM     66  C   UNL A   1      45.981  33.901  29.978  1.00  0.00     0.009 A 
ATOM     67  C   UNL A   1      45.436  35.954  28.166  1.00  0.00     0.001 A 
ATOM     68  C   UNL A   1      46.436  35.196  30.232  1.00  0.00     0.001 A 
ATOM     69  C   UNL A   1      46.169  36.219  29.322  1.00  0.00     0.000 A 
ENDBRANCH  50  64
BRANCH  51  70
ATOM     70  C   UNL A   1      41.500  24.449  27.670  1.00  0.00    -0.014 A 
ATOM     71  C   UNL A   1      42.141  23.369  28.294  1.00  0.00     0.009 A 
ATOM     72  C   UNL A   1      40.365  24.201  26.882  1.00  0.00     0.009 A 
ATOM     73  C   UNL A   1      41.665  22.067  28.121  1.00  0.00     0.001 A 
ATOM     74  C   UNL A   1      39.877  22.900  26.730  1.00  0.00     0.001 A 
ATOM     75  C   UNL A   1      40.531  21.834  27.344  1.00  0.00     0.000 A 
ENDBRANCH  51  70
BRANCH  63  76
ATOM     76  C   UNL A   1      47.198  27.677  25.273  1.00  0.00    -0.014 A 
ATOM     77  C   UNL A   1      48.325  27.040  25.811  1.00  0.00     0.009 A 
ATOM     78  C   UNL A   1      47.095  27.818  23.880  1.00  0.00     0.009 A 
ATOM     79  C   UNL A   1      49.337  26.568  24.972  1.00  0.00     0.001 A 
ATOM     80  C   UNL A   1      48.095  27.322  23.042  1.00  0.00     0.001 A 
ATOM     81  C   UNL A   1      49.217  26.703  23.589  1.00  0.00     0.000 A 
ENDBRANCH  63  76
ENDBRANCH  37  38
ENDBRANCH  30  32
ENDBRANCH  29  30
ENDBRANCH  28  29
ENDBRANCH  27  28
ENDBRANCH  26  27
ENDBRANCH  25  26
ENDBRANCH  24  25
ENDBRANCH   1  24
TORSDOF 24
ENDMDL
MODEL 2
REMARK VINA RESULT:      -8.1      0.532      5.763
REMARK SMILES CCC[C@H](Cn1c(C)cc(=O)cc1C)C(=O)OCCOCCOCCOCCOC(=O)c1ccc(-c2c3nc(c(-c4ccccc4)c4ccc([nH]4)c(-c4ccccc4)c4nc(c(-c5ccccc5)c5ccc2[nH]5)C=C4)C=C3)cc1
REMARK SMILES IDX 23 1 22 2 21 3 20 4 19 5 18 6 17 7 15 8 16 9 4 10 3 11 2 12
REMARK SMILES IDX 1 13 5 14 6 15 7 16 13 17 8 18 9 19 12 20 14 21 10 22 11 23
REMARK SMILES IDX 24 24 25 25 26 26 27 27 28 28 29 29 30 30 31 31 32 32 33 33
REMARK SMILES IDX 79 34 34 35 78 36 35 37 36 38 37 39 72 40 38 41 77 42 71 43
REMARK SMILES IDX 73 44 39 45 76 46 70 47 69 48 40 50 62 51 47 52 61 53 48 54
REMARK SMILES IDX 51 55 60 56 74 57 49 58 50 59 59 61 75 62 52 63 41 64 42 65
REMARK SMILES IDX 46 66 43 67 45 68 44 69 63 70 64 71 68 72 65 73 67 74 66 75
REMARK SMILES IDX 53 76 54 77 58 78 55 79 57 80 56 81
REMARK H PARENT 73 49 51 60
REMARK Flexibility Score: inf
ROOT
ATOM      1  O   UNL A   1      33.552  30.110  27.322  1.00  0.00    -0.377 OA
ENDROOT
BRANCH   1   2
ATOM      2  C   UNL A   1      33.302  29.378  26.144  1.00  0.00     0.188 C 
BRANCH   2   3
ATOM      3  C   UNL A   1      32.035  28.527  26.063  1.00  0.00     0.188 C 
BRANCH   3   4
ATOM      4  O   UNL A   1      31.517  28.234  24.773  1.00  0.00    -0.376 OA
BRANCH   4   5
ATOM      5  C   UNL A   1      32.381  27.965  23.679  1.00  0.00     0.202 C 
BRANCH   5   6
ATOM      6  C   UNL A   1      33.133  26.630  23.537  1.00  0.00     0.261 C 
BRANCH   6   7
ATOM      7  O   UNL A   1      32.599  25.692  22.572  1.00  0.00    -0.463 OA
BRANCH   7   8
ATOM      8  C   UNL A   1      32.030  24.554  23.069  1.00  0.00     0.310 C 
ATOM      9  O   UNL A   1      30.900  24.511  23.541  1.00  0.00    -0.252 OA
BRANCH   8  10
ATOM     10  C   UNL A   1      32.988  23.359  23.095  1.00  0.00     0.119 C 
BRANCH  10  11
ATOM     11  C   UNL A   1      32.479  22.409  21.967  1.00  0.00     0.017 C 
BRANCH  11  12
ATOM     12  C   UNL A   1      31.798  21.097  22.355  1.00  0.00    -0.002 C 
ATOM     13  C   UNL A   1      31.899  20.029  21.271  1.00  0.00     0.004 C 
ENDBRANCH  11  12
ENDBRANCH  10  11
BRANCH  10  14
ATOM     14  C   UNL A   1      33.182  22.743  24.487  1.00  0.00     0.137 C 
BRANCH  14  15
ATOM     15  N   UNL A   1      34.458  22.036  24.881  1.00  0.00    -0.348 N 
ATOM     16  C   UNL A   1      34.385  20.610  25.009  1.00  0.00     0.018 A 
ATOM     17  C   UNL A   1      35.743  22.620  25.050  1.00  0.00     0.018 A 
ATOM     18  C   UNL A   1      33.050  19.912  25.165  1.00  0.00     0.064 C 
ATOM     19  C   UNL A   1      35.471  19.817  25.017  1.00  0.00     0.073 A 
ATOM     20  C   UNL A   1      36.872  21.882  25.047  1.00  0.00     0.073 A 
ATOM     21  C   UNL A   1      35.938  24.074  25.377  1.00  0.00     0.064 C 
ATOM     22  C   UNL A   1      36.804  20.421  24.913  1.00  0.00     0.182 A 
ATOM     23  O   UNL A   1      37.812  19.737  24.785  1.00  0.00    -0.290 OA
ENDBRANCH  14  15
ENDBRANCH  10  14
ENDBRANCH   8  10
ENDBRANCH   7   8
ENDBRANCH   6   7
ENDBRANCH   5   6
ENDBRANCH   4   5
ENDBRANCH   3   4
ENDBRANCH   2   3
ENDBRANCH   1   2
BRANCH   1  24
ATOM     24  C   UNL A   1      33.241  31.487  27.267  1.00  0.00     0.188 C 
BRANCH  24  25
ATOM     25  C   UNL A   1      34.158  32.330  28.158  1.00  0.00     0.188 C 
BRANCH  25  26
ATOM     26  O   UNL A   1      33.782  32.630  29.503  1.00  0.00    -0.376 OA
BRANCH  26  27
ATOM     27  C   UNL A   1      34.551  33.559  30.255  1.00  0.00     0.202 C 
BRANCH  27  28
ATOM     28  C   UNL A   1      34.823  33.091  31.696  1.00  0.00     0.261 C 
BRANCH  28  29
ATOM     29  O   UNL A   1      36.139  33.390  32.196  1.00  0.00    -0.460 OA
BRANCH  29  30
ATOM     30  C   UNL A   1      36.731  32.406  32.916  1.00  0.00     0.338 C 
ATOM     31  O   UNL A   1      36.472  32.051  34.055  1.00  0.00    -0.246 OA
BRANCH  30  32
ATOM     32  C   UNL A   1      37.714  31.703  32.062  1.00  0.00     0.060 A 
ATOM     33  C   UNL A   1      38.682  30.897  32.676  1.00  0.00     0.016 A 
ATOM     34  C   UNL A   1      37.697  31.849  30.671  1.00  0.00     0.016 A 
ATOM     35  C   UNL A   1      39.655  30.262  31.905  1.00  0.00     0.010 A 
ATOM     36  C   UNL A   1      38.694  31.241  29.901  1.00  0.00     0.010 A 
ATOM     37  C   UNL A   1      39.696  30.473  30.519  1.00  0.00    -0.014 A 
BRANCH  37  38
ATOM     38  C   UNL A   1      40.917  30.096  29.768  1.00  0.00     0.031 A 
ATOM     39  C   UNL A   1      41.008  28.692  29.234  1.00  0.00     0.074 A 
ATOM     40  C   UNL A   1      41.899  30.979  29.517  1.00  0.00     0.049 A 
ATOM     41  N   UNL A   1      41.957  28.130  28.532  1.00  0.00    -0.248 NA
ATOM     42  C   UNL A   1      39.865  27.807  29.521  1.00  0.00     0.031 C 
ATOM     43  C   UNL A   1      41.903  32.383  29.919  1.00  0.00     0.029 A 
ATOM     44  N   UNL A   1      43.086  30.818  28.845  1.00  0.00    -0.354 N 
ATOM     45  C   UNL A   1      41.520  26.836  28.281  1.00  0.00     0.074 A 
ATOM     46  C   UNL A   1      40.239  26.681  28.932  1.00  0.00     0.031 C 
ATOM     47  C   UNL A   1      43.038  32.958  29.482  1.00  0.00     0.029 A 
ATOM     48  C   UNL A   1      43.852  31.955  28.794  1.00  0.00     0.049 A 
ATOM     49  H   UNL A   1      43.362  29.964  28.438  1.00  0.00     0.167 HD
ATOM     50  C   UNL A   1      42.125  25.861  27.563  1.00  0.00     0.031 A 
ATOM     51  C   UNL A   1      45.073  32.160  28.261  1.00  0.00     0.031 A 
ATOM     52  C   UNL A   1      43.415  25.995  26.947  1.00  0.00     0.049 A 
ATOM     53  C   UNL A   1      45.784  31.021  27.577  1.00  0.00     0.074 A 
ATOM     54  C   UNL A   1      44.122  25.055  26.218  1.00  0.00     0.029 A 
ATOM     55  N   UNL A   1      44.195  27.139  26.995  1.00  0.00    -0.354 N 
ATOM     56  N   UNL A   1      45.358  29.803  27.342  1.00  0.00    -0.248 NA
ATOM     57  C   UNL A   1      47.145  31.286  27.084  1.00  0.00     0.031 C 
ATOM     58  C   UNL A   1      45.355  25.614  25.871  1.00  0.00     0.029 A 
ATOM     59  C   UNL A   1      45.390  26.920  26.333  1.00  0.00     0.049 A 
ATOM     60  H   UNL A   1      43.937  27.981  27.435  1.00  0.00     0.167 HD
ATOM     61  C   UNL A   1      46.386  29.166  26.654  1.00  0.00     0.074 A 
ATOM     62  C   UNL A   1      47.451  30.135  26.501  1.00  0.00     0.031 C 
ATOM     63  C   UNL A   1      46.441  27.894  26.191  1.00  0.00     0.031 A 
BRANCH  50  64
ATOM     64  C   UNL A   1      41.404  24.552  27.435  1.00  0.00    -0.014 A 
ATOM     65  C   UNL A   1      41.842  23.416  28.135  1.00  0.00     0.009 A 
ATOM     66  C   UNL A   1      40.256  24.460  26.635  1.00  0.00     0.009 A 
ATOM     67  C   UNL A   1      41.154  22.207  28.016  1.00  0.00     0.001 A 
ATOM     68  C   UNL A   1      39.556  23.257  26.538  1.00  0.00     0.001 A 
ATOM     69  C   UNL A   1      40.010  22.130  27.223  1.00  0.00     0.000 A 
ENDBRANCH  50  64
BRANCH  51  70
ATOM     70  C   UNL A   1      45.716  33.497  28.359  1.00  0.00    -0.014 A 
ATOM     71  C   UNL A   1      46.494  33.834  29.476  1.00  0.00     0.009 A 
ATOM     72  C   UNL A   1      45.538  34.450  27.344  1.00  0.00     0.009 A 
ATOM     73  C   UNL A   1      47.070  35.104  29.581  1.00  0.00     0.001 A 
ATOM     74  C   UNL A   1      46.135  35.710  27.441  1.00  0.00     0.001 A 
ATOM     75  C   UNL A   1      46.894  36.037  28.562  1.00  0.00     0.000 A 
ENDBRANCH  51  70
BRANCH  63  76
ATOM     76  C   UNL A   1      47.679  27.469  25.454  1.00  0.00    -0.014 A 
ATOM     77  C   UNL A   1      48.762  26.890  26.131  1.00  0.00     0.009 A 
ATOM     78  C   UNL A   1      47.724  27.569  24.054  1.00  0.00     0.009 A 
ATOM     79  C   UNL A   1      49.876  26.435  25.420  1.00  0.00     0.001 A 
ATOM     80  C   UNL A   1      48.826  27.088  23.345  1.00  0.00     0.001 A 
ATOM     81  C   UNL A   1      49.903  26.527  24.029  1.00  0.00     0.000 A 
ENDBRANCH  63  76
ENDBRANCH  37  38
ENDBRANCH  30  32
ENDBRANCH  29  30
ENDBRANCH  28  29
ENDBRANCH  27  28
ENDBRANCH  26  27
ENDBRANCH  25  26
ENDBRANCH  24  25
ENDBRANCH   1  24
TORSDOF 24
ENDMDL
MODEL 3
REMARK VINA RESULT:      -7.6      1.165      1.499
REMARK SMILES CCC[C@H](Cn1c(C)cc(=O)cc1C)C(=O)OCCOCCOCCOCCOC(=O)c1ccc(-c2c3nc(c(-c4ccccc4)c4ccc([nH]4)c(-c4ccccc4)c4nc(c(-c5ccccc5)c5ccc2[nH]5)C=C4)C=C3)cc1
REMARK SMILES IDX 23 1 22 2 21 3 20 4 19 5 18 6 17 7 15 8 16 9 4 10 3 11 2 12
REMARK SMILES IDX 1 13 5 14 6 15 7 16 13 17 8 18 9 19 12 20 14 21 10 22 11 23
REMARK SMILES IDX 24 24 25 25 26 26 27 27 28 28 29 29 30 30 31 31 32 32 33 33
REMARK SMILES IDX 79 34 34 35 78 36 35 37 36 38 37 39 72 40 38 41 77 42 71 43
REMARK SMILES IDX 73 44 39 45 76 46 70 47 69 48 40 50 62 51 47 52 61 53 48 54
REMARK SMILES IDX 51 55 60 56 74 57 49 58 50 59 59 61 75 62 52 63 41 64 42 65
REMARK SMILES IDX 46 66 43 67 45 68 44 69 63 70 64 71 68 72 65 73 67 74 66 75
REMARK SMILES IDX 53 76 54 77 58 78 55 79 57 80 56 81
REMARK H PARENT 73 49 51 60
REMARK Flexibility Score: inf
ROOT
ATOM      1  O   UNL A   1      35.639  30.997  28.071  1.00  0.00    -0.377 OA
ENDROOT
BRANCH   1   2
ATOM      2  C   UNL A   1      35.299  29.783  27.441  1.00  0.00     0.188 C 
BRANCH   2   3
ATOM      3  C   UNL A   1      33.820  29.428  27.282  1.00  0.00     0.188 C 
BRANCH   3   4
ATOM      4  O   UNL A   1      33.501  28.135  26.790  1.00  0.00    -0.376 OA
BRANCH   4   5
ATOM      5  C   UNL A   1      32.594  27.962  25.711  1.00  0.00     0.202 C 
BRANCH   5   6
ATOM      6  C   UNL A   1      32.807  26.895  24.623  1.00  0.00     0.261 C 
BRANCH   6   7
ATOM      7  O   UNL A   1      31.900  25.767  24.644  1.00  0.00    -0.463 OA
BRANCH   7   8
ATOM      8  C   UNL A   1      31.842  25.044  25.801  1.00  0.00     0.310 C 
ATOM      9  O   UNL A   1      31.379  25.477  26.849  1.00  0.00    -0.252 OA
BRANCH   8  10
ATOM     10  C   UNL A   1      32.529  23.678  25.697  1.00  0.00     0.119 C 
BRANCH  10  11
ATOM     11  C   UNL A   1      31.388  22.636  25.913  1.00  0.00     0.017 C 
BRANCH  11  12
ATOM     12  C   UNL A   1      29.952  23.133  26.080  1.00  0.00    -0.002 C 
ATOM     13  C   UNL A   1      29.245  22.518  27.283  1.00  0.00     0.004 C 
ENDBRANCH  11  12
ENDBRANCH  10  11
BRANCH  10  14
ATOM     14  C   UNL A   1      33.776  23.535  26.579  1.00  0.00     0.137 C 
BRANCH  14  15
ATOM     15  N   UNL A   1      34.964  22.701  26.160  1.00  0.00    -0.348 N 
ATOM     16  C   UNL A   1      34.775  21.280  26.150  1.00  0.00     0.018 A 
ATOM     17  C   UNL A   1      36.218  23.174  25.689  1.00  0.00     0.018 A 
ATOM     18  C   UNL A   1      33.629  20.644  26.910  1.00  0.00     0.064 C 
ATOM     19  C   UNL A   1      35.593  20.436  25.498  1.00  0.00     0.073 A 
ATOM     20  C   UNL A   1      37.074  22.384  25.010  1.00  0.00     0.073 A 
ATOM     21  C   UNL A   1      36.748  24.541  26.021  1.00  0.00     0.064 C 
ATOM     22  C   UNL A   1      36.751  20.970  24.772  1.00  0.00     0.182 A 
ATOM     23  O   UNL A   1      37.446  20.260  24.058  1.00  0.00    -0.290 OA
ENDBRANCH  14  15
ENDBRANCH  10  14
ENDBRANCH   8  10
ENDBRANCH   7   8
ENDBRANCH   6   7
ENDBRANCH   5   6
ENDBRANCH   4   5
ENDBRANCH   3   4
ENDBRANCH   2   3
ENDBRANCH   1   2
BRANCH   1  24
ATOM     24  C   UNL A   1      34.671  32.024  27.988  1.00  0.00     0.188 C 
BRANCH  24  25
ATOM     25  C   UNL A   1      34.917  33.142  29.004  1.00  0.00     0.188 C 
BRANCH  25  26
ATOM     26  O   UNL A   1      34.191  33.173  30.235  1.00  0.00    -0.376 OA
BRANCH  26  27
ATOM     27  C   UNL A   1      34.388  34.252  31.138  1.00  0.00     0.202 C 
BRANCH  27  28
ATOM     28  C   UNL A   1      34.861  33.797  32.530  1.00  0.00     0.261 C 
BRANCH  28  29
ATOM     29  O   UNL A   1      36.288  33.772  32.712  1.00  0.00    -0.460 OA
BRANCH  29  30
ATOM     30  C   UNL A   1      36.772  32.724  33.421  1.00  0.00     0.338 C 
ATOM     31  O   UNL A   1      36.490  32.398  34.563  1.00  0.00    -0.246 OA
BRANCH  30  32
ATOM     32  C   UNL A   1      37.653  31.914  32.551  1.00  0.00     0.060 A 
ATOM     33  C   UNL A   1      38.705  31.199  33.141  1.00  0.00     0.016 A 
ATOM     34  C   UNL A   1      37.461  31.872  31.167  1.00  0.00     0.016 A 
ATOM     35  C   UNL A   1      39.586  30.468  32.344  1.00  0.00     0.010 A 
ATOM     36  C   UNL A   1      38.365  31.167  30.365  1.00  0.00     0.010 A 
ATOM     37  C   UNL A   1      39.450  30.490  30.949  1.00  0.00    -0.014 A 
BRANCH  37  38
ATOM     38  C   UNL A   1      40.575  30.018  30.107  1.00  0.00     0.031 A 
ATOM     39  C   UNL A   1      41.676  30.994  29.793  1.00  0.00     0.074 A 
ATOM     40  C   UNL A   1      40.653  28.749  29.671  1.00  0.00     0.049 A 
ATOM     41  N   UNL A   1      42.770  30.817  29.100  1.00  0.00    -0.248 NA
ATOM     42  C   UNL A   1      41.527  32.351  30.349  1.00  0.00     0.031 C 
ATOM     43  C   UNL A   1      39.689  27.690  29.960  1.00  0.00     0.029 A 
ATOM     44  N   UNL A   1      41.606  28.135  28.895  1.00  0.00    -0.354 N 
ATOM     45  C   UNL A   1      43.445  32.030  29.150  1.00  0.00     0.074 A 
ATOM     46  C   UNL A   1      42.625  32.946  29.911  1.00  0.00     0.031 C 
ATOM     47  C   UNL A   1      40.102  26.553  29.371  1.00  0.00     0.029 A 
ATOM     48  C   UNL A   1      41.344  26.811  28.642  1.00  0.00     0.049 A 
ATOM     49  H   UNL A   1      42.403  28.601  28.553  1.00  0.00     0.167 HD
ATOM     50  C   UNL A   1      44.647  32.354  28.619  1.00  0.00     0.031 A 
ATOM     51  C   UNL A   1      42.025  25.916  27.899  1.00  0.00     0.031 A 
ATOM     52  C   UNL A   1      45.448  31.462  27.831  1.00  0.00     0.049 A 
ATOM     53  C   UNL A   1      43.297  26.338  27.211  1.00  0.00     0.074 A 
ATOM     54  C   UNL A   1      46.670  31.706  27.229  1.00  0.00     0.029 A 
ATOM     55  N   UNL A   1      45.102  30.156  27.525  1.00  0.00    -0.354 N 
ATOM     56  N   UNL A   1      43.928  27.486  27.271  1.00  0.00    -0.248 NA
ATOM     57  C   UNL A   1      43.953  25.337  26.354  1.00  0.00     0.031 C 
ATOM     58  C   UNL A   1      47.039  30.563  26.515  1.00  0.00     0.029 A 
ATOM     59  C   UNL A   1      46.074  29.589  26.721  1.00  0.00     0.049 A 
ATOM     60  H   UNL A   1      44.287  29.699  27.836  1.00  0.00     0.167 HD
ATOM     61  C   UNL A   1      45.063  27.339  26.480  1.00  0.00     0.074 A 
ATOM     62  C   UNL A   1      45.041  25.987  25.961  1.00  0.00     0.031 C 
ATOM     63  C   UNL A   1      46.036  28.243  26.211  1.00  0.00     0.031 A 
BRANCH  50  64
ATOM     64  C   UNL A   1      45.149  33.748  28.854  1.00  0.00    -0.014 A 
ATOM     65  C   UNL A   1      45.953  34.048  29.966  1.00  0.00     0.009 A 
ATOM     66  C   UNL A   1      44.846  34.766  27.937  1.00  0.00     0.009 A 
ATOM     67  C   UNL A   1      46.424  35.347  30.165  1.00  0.00     0.001 A 
ATOM     68  C   UNL A   1      45.339  36.057  28.126  1.00  0.00     0.001 A 
ATOM     69  C   UNL A   1      46.122  36.348  29.243  1.00  0.00     0.000 A 
ENDBRANCH  50  64
BRANCH  51  70
ATOM     70  C   UNL A   1      41.516  24.526  27.753  1.00  0.00    -0.014 A 
ATOM     71  C   UNL A   1      42.040  23.488  28.537  1.00  0.00     0.009 A 
ATOM     72  C   UNL A   1      40.515  24.229  26.815  1.00  0.00     0.009 A 
ATOM     73  C   UNL A   1      41.583  22.177  28.373  1.00  0.00     0.001 A 
ATOM     74  C   UNL A   1      40.042  22.922  26.672  1.00  0.00     0.001 A 
ATOM     75  C   UNL A   1      40.581  21.897  27.446  1.00  0.00     0.000 A 
ENDBRANCH  51  70
BRANCH  63  76
ATOM     76  C   UNL A   1      47.174  27.806  25.333  1.00  0.00    -0.014 A 
ATOM     77  C   UNL A   1      48.331  27.230  25.878  1.00  0.00     0.009 A 
ATOM     78  C   UNL A   1      47.048  27.891  23.937  1.00  0.00     0.009 A 
ATOM     79  C   UNL A   1      49.348  26.764  25.042  1.00  0.00     0.001 A 
ATOM     80  C   UNL A   1      48.054  27.400  23.103  1.00  0.00     0.001 A 
ATOM     81  C   UNL A   1      49.205  26.842  23.657  1.00  0.00     0.000 A 
ENDBRANCH  63  76
ENDBRANCH  37  38
ENDBRANCH  30  32
ENDBRANCH  29  30
ENDBRANCH  28  29
ENDBRANCH  27  28
ENDBRANCH  26  27
ENDBRANCH  25  26
ENDBRANCH  24  25
ENDBRANCH   1  24
TORSDOF 24
ENDMDL
