MODEL 1
REMARK VINA RESULT:      -9.1      0.000      0.000
REMARK SMILES O=C(/C=C/c1ccc(Br)cc1-n1ccnc1)OCCOCCOCCOCCOC(=O)c1ccc(-c2c3nc(c(-c4ccccc4)c4ccc([nH]4)c(-c4ccccc4)c4nc(c(-c5ccccc5)c5ccc2[nH]5)C=C4)C=C3)cc1
REMARK SMILES IDX 23 1 22 2 21 3 20 4 19 5 18 6 17 7 2 8 1 9 3 10 4 11 5 12
REMARK SMILES IDX 6 13 11 14 7 15 10 16 8 17 9 18 12 19 13 20 16 21 14 22
REMARK SMILES IDX 15 23 24 24 25 25 26 26 27 27 28 28 29 29 30 30 31 31 32 32
REMARK SMILES IDX 33 33 79 34 34 35 78 36 35 37 36 38 37 39 72 40 38 41 77 42
REMARK SMILES IDX 71 43 73 44 39 45 76 46 70 47 69 48 40 50 62 51 47 52 61 53
REMARK SMILES IDX 48 54 51 55 60 56 74 57 49 58 50 59 59 61 75 62 52 63 41 64
REMARK SMILES IDX 42 65 46 66 43 67 45 68 44 69 63 70 64 71 68 72 65 73 67 74
REMARK SMILES IDX 66 75 53 76 54 77 58 78 55 79 57 80 56 81
REMARK H PARENT 73 49 51 60
REMARK Flexibility Score: inf
ROOT
ATOM      1  O   UNL A   1      38.828  21.296  25.662  1.00  0.00    -0.377 OA
ENDROOT
BRANCH   1   2
ATOM      2  C   UNL A   1      37.674  21.412  24.844  1.00  0.00     0.188 C 
BRANCH   2   3
ATOM      3  C   UNL A   1      36.339  21.425  25.589  1.00  0.00     0.188 C 
BRANCH   3   4
ATOM      4  O   UNL A   1      35.258  22.181  25.070  1.00  0.00    -0.376 OA
BRANCH   4   5
ATOM      5  C   UNL A   1      34.159  21.598  24.400  1.00  0.00     0.202 C 
BRANCH   5   6
ATOM      6  C   UNL A   1      33.054  20.868  25.156  1.00  0.00     0.261 C 
BRANCH   6   7
ATOM      7  O   UNL A   1      32.255  21.567  26.114  1.00  0.00    -0.460 OA
BRANCH   7   8
ATOM      8  C   UNL A   1      32.593  22.509  27.008  1.00  0.00     0.330 C 
ATOM      9  O   UNL A   1      33.064  22.173  28.092  1.00  0.00    -0.247 OA
BRANCH   8  10
ATOM     10  C   UNL A   1      32.286  23.931  26.810  1.00  0.00     0.094 C 
ATOM     11  C   UNL A   1      32.100  24.618  25.673  1.00  0.00     0.018 C 
BRANCH  11  12
ATOM     12  C   UNL A   1      31.986  26.089  25.695  1.00  0.00    -0.001 A 
ATOM     13  C   UNL A   1      31.665  26.698  26.924  1.00  0.00     0.011 A 
ATOM     14  C   UNL A   1      32.199  26.940  24.597  1.00  0.00     0.055 A 
ATOM     15  C   UNL A   1      31.596  28.088  27.060  1.00  0.00     0.016 A 
ATOM     16  C   UNL A   1      32.142  28.338  24.728  1.00  0.00     0.043 A 
ATOM     17  C   UNL A   1      31.859  28.902  25.965  1.00  0.00     0.020 A 
ATOM     18  Br  UNL A   1      31.843  30.780  26.160  1.00  0.00    -0.051 Br
BRANCH  14  19
ATOM     19  N   UNL A   1      32.388  26.458  23.289  1.00  0.00    -0.306 N 
ATOM     20  C   UNL A   1      31.386  26.287  22.369  1.00  0.00     0.113 A 
ATOM     21  C   UNL A   1      33.565  26.458  22.582  1.00  0.00     0.204 A 
ATOM     22  C   UNL A   1      32.013  26.130  21.158  1.00  0.00     0.131 A 
ATOM     23  N   UNL A   1      33.374  26.219  21.301  1.00  0.00    -0.245 NA
ENDBRANCH  14  19
ENDBRANCH  11  12
ENDBRANCH   8  10
ENDBRANCH   7   8
ENDBRANCH   6   7
ENDBRANCH   5   6
ENDBRANCH   4   5
ENDBRANCH   3   4
ENDBRANCH   2   3
ENDBRANCH   1   2
BRANCH   1  24
ATOM     24  C   UNL A   1      39.085  22.444  26.447  1.00  0.00     0.188 C 
BRANCH  24  25
ATOM     25  C   UNL A   1      40.557  22.878  26.557  1.00  0.00     0.188 C 
BRANCH  25  26
ATOM     26  O   UNL A   1      41.654  22.005  26.801  1.00  0.00    -0.376 OA
BRANCH  26  27
ATOM     27  C   UNL A   1      42.478  21.470  25.782  1.00  0.00     0.202 C 
BRANCH  27  28
ATOM     28  C   UNL A   1      43.774  22.212  25.477  1.00  0.00     0.261 C 
BRANCH  28  29
ATOM     29  O   UNL A   1      43.965  23.328  26.321  1.00  0.00    -0.460 OA
BRANCH  29  30
ATOM     30  C   UNL A   1      43.883  24.527  25.705  1.00  0.00     0.338 C 
ATOM     31  O   UNL A   1      44.510  24.928  24.745  1.00  0.00    -0.246 OA
BRANCH  30  32
ATOM     32  C   UNL A   1      42.905  25.321  26.461  1.00  0.00     0.060 A 
ATOM     33  C   UNL A   1      42.050  26.146  25.731  1.00  0.00     0.016 A 
ATOM     34  C   UNL A   1      42.998  25.390  27.861  1.00  0.00     0.016 A 
ATOM     35  C   UNL A   1      41.487  27.220  26.379  1.00  0.00     0.010 A 
ATOM     36  C   UNL A   1      42.456  26.468  28.504  1.00  0.00     0.010 A 
ATOM     37  C   UNL A   1      41.804  27.417  27.727  1.00  0.00    -0.014 A 
BRANCH  37  38
ATOM     38  C   UNL A   1      41.579  28.723  28.288  1.00  0.00     0.031 A 
ATOM     39  C   UNL A   1      42.642  29.705  28.059  1.00  0.00     0.074 A 
ATOM     40  C   UNL A   1      40.403  29.025  28.866  1.00  0.00     0.049 A 
ATOM     41  N   UNL A   1      43.459  30.184  28.932  1.00  0.00    -0.248 NA
ATOM     42  C   UNL A   1      42.904  30.118  26.674  1.00  0.00     0.031 C 
ATOM     43  C   UNL A   1      39.158  28.251  28.832  1.00  0.00     0.029 A 
ATOM     44  N   UNL A   1      40.052  30.164  29.513  1.00  0.00    -0.354 N 
ATOM     45  C   UNL A   1      44.225  31.110  28.241  1.00  0.00     0.074 A 
ATOM     46  C   UNL A   1      43.980  30.885  26.838  1.00  0.00     0.031 C 
ATOM     47  C   UNL A   1      38.142  29.042  29.243  1.00  0.00     0.029 A 
ATOM     48  C   UNL A   1      38.686  30.318  29.679  1.00  0.00     0.049 A 
ATOM     49  H   UNL A   1      40.709  30.824  29.835  1.00  0.00     0.167 HD
ATOM     50  C   UNL A   1      44.790  32.173  28.869  1.00  0.00     0.031 A 
ATOM     51  C   UNL A   1      38.056  31.450  30.070  1.00  0.00     0.031 A 
ATOM     52  C   UNL A   1      44.789  32.024  30.301  1.00  0.00     0.049 A 
ATOM     53  C   UNL A   1      39.063  32.337  30.703  1.00  0.00     0.074 A 
ATOM     54  C   UNL A   1      45.311  31.102  31.186  1.00  0.00     0.029 A 
ATOM     55  N   UNL A   1      43.846  32.737  31.002  1.00  0.00    -0.354 N 
ATOM     56  N   UNL A   1      39.618  32.097  31.856  1.00  0.00    -0.248 NA
ATOM     57  C   UNL A   1      39.760  33.307  29.873  1.00  0.00     0.031 C 
ATOM     58  C   UNL A   1      44.363  31.020  32.246  1.00  0.00     0.029 A 
ATOM     59  C   UNL A   1      43.326  31.914  31.968  1.00  0.00     0.049 A 
ATOM     60  H   UNL A   1      43.588  33.673  30.840  1.00  0.00     0.167 HD
ATOM     61  C   UNL A   1      40.927  32.541  31.723  1.00  0.00     0.074 A 
ATOM     62  C   UNL A   1      40.914  33.395  30.540  1.00  0.00     0.031 C 
ATOM     63  C   UNL A   1      41.946  31.944  32.409  1.00  0.00     0.031 A 
BRANCH  50  64
ATOM     64  C   UNL A   1      44.963  33.508  28.200  1.00  0.00    -0.014 A 
ATOM     65  C   UNL A   1      43.911  34.014  27.422  1.00  0.00     0.009 A 
ATOM     66  C   UNL A   1      46.207  34.161  28.094  1.00  0.00     0.009 A 
ATOM     67  C   UNL A   1      44.111  35.092  26.553  1.00  0.00     0.001 A 
ATOM     68  C   UNL A   1      46.396  35.268  27.267  1.00  0.00     0.001 A 
ATOM     69  C   UNL A   1      45.351  35.718  26.475  1.00  0.00     0.000 A 
ENDBRANCH  50  64
BRANCH  51  70
ATOM     70  C   UNL A   1      36.699  31.909  29.717  1.00  0.00    -0.014 A 
ATOM     71  C   UNL A   1      35.815  32.354  30.712  1.00  0.00     0.009 A 
ATOM     72  C   UNL A   1      36.346  32.141  28.375  1.00  0.00     0.009 A 
ATOM     73  C   UNL A   1      34.640  33.036  30.375  1.00  0.00     0.001 A 
ATOM     74  C   UNL A   1      35.168  32.812  28.037  1.00  0.00     0.001 A 
ATOM     75  C   UNL A   1      34.322  33.274  29.039  1.00  0.00     0.000 A 
ENDBRANCH  51  70
BRANCH  63  76
ATOM     76  C   UNL A   1      41.581  31.012  33.538  1.00  0.00    -0.014 A 
ATOM     77  C   UNL A   1      41.312  29.645  33.342  1.00  0.00     0.009 A 
ATOM     78  C   UNL A   1      41.642  31.495  34.854  1.00  0.00     0.009 A 
ATOM     79  C   UNL A   1      41.070  28.799  34.428  1.00  0.00     0.001 A 
ATOM     80  C   UNL A   1      41.424  30.643  35.941  1.00  0.00     0.001 A 
ATOM     81  C   UNL A   1      41.130  29.299  35.727  1.00  0.00     0.000 A 
ENDBRANCH  63  76
ENDBRANCH  37  38
ENDBRANCH  30  32
ENDBRANCH  29  30
ENDBRANCH  28  29
ENDBRANCH  27  28
ENDBRANCH  26  27
ENDBRANCH  25  26
ENDBRANCH  24  25
ENDBRANCH   1  24
TORSDOF 22
ENDMDL
MODEL 2
REMARK VINA RESULT:      -8.6      1.517      2.173
REMARK SMILES O=C(/C=C/c1ccc(Br)cc1-n1ccnc1)OCCOCCOCCOCCOC(=O)c1ccc(-c2c3nc(c(-c4ccccc4)c4ccc([nH]4)c(-c4ccccc4)c4nc(c(-c5ccccc5)c5ccc2[nH]5)C=C4)C=C3)cc1
REMARK SMILES IDX 23 1 22 2 21 3 20 4 19 5 18 6 17 7 2 8 1 9 3 10 4 11 5 12
REMARK SMILES IDX 6 13 11 14 7 15 10 16 8 17 9 18 12 19 13 20 16 21 14 22
REMARK SMILES IDX 15 23 24 24 25 25 26 26 27 27 28 28 29 29 30 30 31 31 32 32
REMARK SMILES IDX 33 33 79 34 34 35 78 36 35 37 36 38 37 39 72 40 38 41 77 42
REMARK SMILES IDX 71 43 73 44 39 45 76 46 70 47 69 48 40 50 62 51 47 52 61 53
REMARK SMILES IDX 48 54 51 55 60 56 74 57 49 58 50 59 59 61 75 62 52 63 41 64
REMARK SMILES IDX 42 65 46 66 43 67 45 68 44 69 63 70 64 71 68 72 65 73 67 74
REMARK SMILES IDX 66 75 53 76 54 77 58 78 55 79 57 80 56 81
REMARK H PARENT 73 49 51 60
REMARK Flexibility Score: inf
ROOT
ATOM      1  O   UNL A   1      38.735  22.160  26.099  1.00  0.00    -0.377 OA
ENDROOT
BRANCH   1   2
ATOM      2  C   UNL A   1      37.749  22.758  25.272  1.00  0.00     0.188 C 
BRANCH   2   3
ATOM      3  C   UNL A   1      36.302  22.387  25.599  1.00  0.00     0.188 C 
BRANCH   3   4
ATOM      4  O   UNL A   1      35.490  23.305  26.310  1.00  0.00    -0.376 OA
BRANCH   4   5
ATOM      5  C   UNL A   1      34.088  23.384  26.148  1.00  0.00     0.202 C 
BRANCH   5   6
ATOM      6  C   UNL A   1      33.128  22.812  27.184  1.00  0.00     0.261 C 
BRANCH   6   7
ATOM      7  O   UNL A   1      31.754  22.596  26.850  1.00  0.00    -0.460 OA
BRANCH   7   8
ATOM      8  C   UNL A   1      30.725  23.455  26.803  1.00  0.00     0.330 C 
ATOM      9  O   UNL A   1      29.699  23.205  27.432  1.00  0.00    -0.247 OA
BRANCH   8  10
ATOM     10  C   UNL A   1      30.708  24.619  25.909  1.00  0.00     0.094 C 
ATOM     11  C   UNL A   1      30.967  25.908  26.173  1.00  0.00     0.018 C 
BRANCH  11  12
ATOM     12  C   UNL A   1      30.707  26.949  25.161  1.00  0.00    -0.001 A 
ATOM     13  C   UNL A   1      29.777  26.651  24.146  1.00  0.00     0.011 A 
ATOM     14  C   UNL A   1      31.290  28.228  25.139  1.00  0.00     0.055 A 
ATOM     15  C   UNL A   1      29.417  27.595  23.179  1.00  0.00     0.016 A 
ATOM     16  C   UNL A   1      30.925  29.185  24.176  1.00  0.00     0.043 A 
ATOM     17  C   UNL A   1      29.977  28.867  23.213  1.00  0.00     0.020 A 
ATOM     18  Br  UNL A   1      29.439  30.169  21.957  1.00  0.00    -0.051 Br
BRANCH  14  19
ATOM     19  N   UNL A   1      32.331  28.603  26.007  1.00  0.00    -0.306 N 
ATOM     20  C   UNL A   1      33.649  28.269  25.832  1.00  0.00     0.113 A 
ATOM     21  C   UNL A   1      32.311  29.644  26.902  1.00  0.00     0.204 A 
ATOM     22  C   UNL A   1      34.356  29.086  26.680  1.00  0.00     0.131 A 
ATOM     23  N   UNL A   1      33.514  29.929  27.358  1.00  0.00    -0.245 NA
ENDBRANCH  14  19
ENDBRANCH  11  12
ENDBRANCH   8  10
ENDBRANCH   7   8
ENDBRANCH   6   7
ENDBRANCH   5   6
ENDBRANCH   4   5
ENDBRANCH   3   4
ENDBRANCH   2   3
ENDBRANCH   1   2
BRANCH   1  24
ATOM     24  C   UNL A   1      39.320  23.056  27.023  1.00  0.00     0.188 C 
BRANCH  24  25
ATOM     25  C   UNL A   1      40.697  23.627  26.638  1.00  0.00     0.188 C 
BRANCH  25  26
ATOM     26  O   UNL A   1      41.903  22.876  26.558  1.00  0.00    -0.376 OA
BRANCH  26  27
ATOM     27  C   UNL A   1      42.484  22.446  25.342  1.00  0.00     0.202 C 
BRANCH  27  28
ATOM     28  C   UNL A   1      43.954  22.781  25.118  1.00  0.00     0.261 C 
BRANCH  28  29
ATOM     29  O   UNL A   1      44.442  23.713  26.060  1.00  0.00    -0.460 OA
BRANCH  29  30
ATOM     30  C   UNL A   1      44.540  24.981  25.607  1.00  0.00     0.338 C 
ATOM     31  O   UNL A   1      45.310  25.431  24.784  1.00  0.00    -0.246 OA
BRANCH  30  32
ATOM     32  C   UNL A   1      43.552  25.771  26.354  1.00  0.00     0.060 A 
ATOM     33  C   UNL A   1      42.796  26.697  25.634  1.00  0.00     0.016 A 
ATOM     34  C   UNL A   1      43.544  25.729  27.758  1.00  0.00     0.016 A 
ATOM     35  C   UNL A   1      42.245  27.750  26.325  1.00  0.00     0.010 A 
ATOM     36  C   UNL A   1      43.014  26.785  28.445  1.00  0.00     0.010 A 
ATOM     37  C   UNL A   1      42.471  27.826  27.703  1.00  0.00    -0.014 A 
BRANCH  37  38
ATOM     38  C   UNL A   1      42.274  29.096  28.349  1.00  0.00     0.031 A 
ATOM     39  C   UNL A   1      43.396  30.035  28.262  1.00  0.00     0.074 A 
ATOM     40  C   UNL A   1      41.079  29.417  28.876  1.00  0.00     0.049 A 
ATOM     41  N   UNL A   1      44.177  30.403  29.218  1.00  0.00    -0.248 NA
ATOM     42  C   UNL A   1      43.767  30.534  26.931  1.00  0.00     0.031 C 
ATOM     43  C   UNL A   1      39.803  28.716  28.706  1.00  0.00     0.029 A 
ATOM     44  N   UNL A   1      40.742  30.522  29.586  1.00  0.00    -0.354 N 
ATOM     45  C   UNL A   1      45.031  31.335  28.648  1.00  0.00     0.074 A 
ATOM     46  C   UNL A   1      44.866  31.229  27.220  1.00  0.00     0.031 C 
ATOM     47  C   UNL A   1      38.801  29.527  29.115  1.00  0.00     0.029 A 
ATOM     48  C   UNL A   1      39.378  30.736  29.680  1.00  0.00     0.049 A 
ATOM     49  H   UNL A   1      41.409  31.120  29.998  1.00  0.00     0.167 HD
ATOM     50  C   UNL A   1      45.605  32.317  29.390  1.00  0.00     0.031 A 
ATOM     51  C   UNL A   1      38.779  31.867  30.119  1.00  0.00     0.031 A 
ATOM     52  C   UNL A   1      45.504  32.062  30.804  1.00  0.00     0.049 A 
ATOM     53  C   UNL A   1      39.785  32.650  30.879  1.00  0.00     0.074 A 
ATOM     54  C   UNL A   1      45.921  31.050  31.645  1.00  0.00     0.029 A 
ATOM     55  N   UNL A   1      44.552  32.771  31.499  1.00  0.00    -0.354 N 
ATOM     56  N   UNL A   1      40.252  32.295  32.042  1.00  0.00    -0.248 NA
ATOM     57  C   UNL A   1      40.581  33.641  30.171  1.00  0.00     0.031 C 
ATOM     58  C   UNL A   1      44.903  30.940  32.636  1.00  0.00     0.029 A 
ATOM     59  C   UNL A   1      43.931  31.907  32.365  1.00  0.00     0.049 A 
ATOM     60  H   UNL A   1      44.352  33.729  31.395  1.00  0.00     0.167 HD
ATOM     61  C   UNL A   1      41.587  32.678  32.023  1.00  0.00     0.074 A 
ATOM     62  C   UNL A   1      41.693  33.616  30.912  1.00  0.00     0.031 C 
ATOM     63  C   UNL A   1      42.529  31.978  32.722  1.00  0.00     0.031 A 
BRANCH  50  64
ATOM     64  C   UNL A   1      45.885  33.687  28.839  1.00  0.00    -0.014 A 
ATOM     65  C   UNL A   1      47.174  34.222  28.984  1.00  0.00     0.009 A 
ATOM     66  C   UNL A   1      44.870  34.571  28.418  1.00  0.00     0.009 A 
ATOM     67  C   UNL A   1      47.420  35.580  28.757  1.00  0.00     0.001 A 
ATOM     68  C   UNL A   1      45.123  35.914  28.143  1.00  0.00     0.001 A 
ATOM     69  C   UNL A   1      46.397  36.425  28.337  1.00  0.00     0.000 A 
ENDBRANCH  50  64
BRANCH  51  70
ATOM     70  C   UNL A   1      37.472  32.423  29.721  1.00  0.00    -0.014 A 
ATOM     71  C   UNL A   1      36.940  32.155  28.451  1.00  0.00     0.009 A 
ATOM     72  C   UNL A   1      36.627  33.024  30.672  1.00  0.00     0.009 A 
ATOM     73  C   UNL A   1      35.602  32.444  28.158  1.00  0.00     0.001 A 
ATOM     74  C   UNL A   1      35.295  33.324  30.377  1.00  0.00     0.001 A 
ATOM     75  C   UNL A   1      34.778  33.019  29.123  1.00  0.00     0.000 A 
ENDBRANCH  51  70
BRANCH  63  76
ATOM     76  C   UNL A   1      42.046  30.985  33.751  1.00  0.00    -0.014 A 
ATOM     77  C   UNL A   1      41.690  29.664  33.427  1.00  0.00     0.009 A 
ATOM     78  C   UNL A   1      42.081  31.351  35.105  1.00  0.00     0.009 A 
ATOM     79  C   UNL A   1      41.338  28.750  34.425  1.00  0.00     0.001 A 
ATOM     80  C   UNL A   1      41.753  30.431  36.105  1.00  0.00     0.001 A 
ATOM     81  C   UNL A   1      41.374  29.135  35.764  1.00  0.00     0.000 A 
ENDBRANCH  63  76
ENDBRANCH  37  38
ENDBRANCH  30  32
ENDBRANCH  29  30
ENDBRANCH  28  29
ENDBRANCH  27  28
ENDBRANCH  26  27
ENDBRANCH  25  26
ENDBRANCH  24  25
ENDBRANCH   1  24
TORSDOF 22
ENDMDL
MODEL 3
REMARK VINA RESULT:      -7.9      4.499      8.366
REMARK SMILES O=C(/C=C/c1ccc(Br)cc1-n1ccnc1)OCCOCCOCCOCCOC(=O)c1ccc(-c2c3nc(c(-c4ccccc4)c4ccc([nH]4)c(-c4ccccc4)c4nc(c(-c5ccccc5)c5ccc2[nH]5)C=C4)C=C3)cc1
REMARK SMILES IDX 23 1 22 2 21 3 20 4 19 5 18 6 17 7 2 8 1 9 3 10 4 11 5 12
REMARK SMILES IDX 6 13 11 14 7 15 10 16 8 17 9 18 12 19 13 20 16 21 14 22
REMARK SMILES IDX 15 23 24 24 25 25 26 26 27 27 28 28 29 29 30 30 31 31 32 32
REMARK SMILES IDX 33 33 79 34 34 35 78 36 35 37 36 38 37 39 72 40 38 41 77 42
REMARK SMILES IDX 71 43 73 44 39 45 76 46 70 47 69 48 40 50 62 51 47 52 61 53
REMARK SMILES IDX 48 54 51 55 60 56 74 57 49 58 50 59 59 61 75 62 52 63 41 64
REMARK SMILES IDX 42 65 46 66 43 67 45 68 44 69 63 70 64 71 68 72 65 73 67 74
REMARK SMILES IDX 66 75 53 76 54 77 58 78 55 79 57 80 56 81
REMARK H PARENT 73 49 51 60
REMARK Flexibility Score: inf
ROOT
ATOM      1  O   UNL A   1      40.970  29.639  31.580  1.00  0.00    -0.377 OA
ENDROOT
BRANCH   1   2
ATOM      2  C   UNL A   1      41.363  28.963  32.765  1.00  0.00     0.188 C 
BRANCH   2   3
ATOM      3  C   UNL A   1      41.239  29.772  34.056  1.00  0.00     0.188 C 
BRANCH   3   4
ATOM      4  O   UNL A   1      40.047  29.692  34.817  1.00  0.00    -0.376 OA
BRANCH   4   5
ATOM      5  C   UNL A   1      39.159  30.780  34.979  1.00  0.00     0.202 C 
BRANCH   5   6
ATOM      6  C   UNL A   1      38.425  31.399  33.795  1.00  0.00     0.261 C 
BRANCH   6   7
ATOM      7  O   UNL A   1      38.971  32.539  33.127  1.00  0.00    -0.460 OA
BRANCH   7   8
ATOM      8  C   UNL A   1      39.025  32.839  31.820  1.00  0.00     0.330 C 
ATOM      9  O   UNL A   1      39.652  33.830  31.453  1.00  0.00    -0.247 OA
BRANCH   8  10
ATOM     10  C   UNL A   1      38.242  32.116  30.811  1.00  0.00     0.094 C 
ATOM     11  C   UNL A   1      37.764  32.539  29.631  1.00  0.00     0.018 C 
BRANCH  11  12
ATOM     12  C   UNL A   1      36.836  31.699  28.852  1.00  0.00    -0.001 A 
ATOM     13  C   UNL A   1      37.358  30.531  28.261  1.00  0.00     0.011 A 
ATOM     14  C   UNL A   1      35.465  31.949  28.671  1.00  0.00     0.055 A 
ATOM     15  C   UNL A   1      36.544  29.638  27.556  1.00  0.00     0.016 A 
ATOM     16  C   UNL A   1      34.639  31.051  27.973  1.00  0.00     0.043 A 
ATOM     17  C   UNL A   1      35.183  29.891  27.436  1.00  0.00     0.020 A 
ATOM     18  Br  UNL A   1      34.067  28.652  26.552  1.00  0.00    -0.051 Br
BRANCH  14  19
ATOM     19  N   UNL A   1      34.850  33.143  29.088  1.00  0.00    -0.306 N 
ATOM     20  C   UNL A   1      34.247  34.044  28.248  1.00  0.00     0.113 A 
ATOM     21  C   UNL A   1      34.393  33.427  30.351  1.00  0.00     0.204 A 
ATOM     22  C   UNL A   1      33.503  34.867  29.055  1.00  0.00     0.131 A 
ATOM     23  N   UNL A   1      33.613  34.489  30.368  1.00  0.00    -0.245 NA
ENDBRANCH  14  19
ENDBRANCH  11  12
ENDBRANCH   8  10
ENDBRANCH   7   8
ENDBRANCH   6   7
ENDBRANCH   5   6
ENDBRANCH   4   5
ENDBRANCH   3   4
ENDBRANCH   2   3
ENDBRANCH   1   2
BRANCH   1  24
ATOM     24  C   UNL A   1      39.878  29.032  30.917  1.00  0.00     0.188 C 
BRANCH  24  25
ATOM     25  C   UNL A   1      40.218  27.864  29.975  1.00  0.00     0.188 C 
BRANCH  25  26
ATOM     26  O   UNL A   1      39.293  27.204  29.118  1.00  0.00    -0.376 OA
BRANCH  26  27
ATOM     27  C   UNL A   1      39.640  26.648  27.864  1.00  0.00     0.202 C 
BRANCH  27  28
ATOM     28  C   UNL A   1      39.055  25.281  27.526  1.00  0.00     0.261 C 
BRANCH  28  29
ATOM     29  O   UNL A   1      39.770  24.227  28.134  1.00  0.00    -0.460 OA
BRANCH  29  30
ATOM     30  C   UNL A   1      40.277  23.315  27.277  1.00  0.00     0.338 C 
ATOM     31  O   UNL A   1      39.725  22.350  26.787  1.00  0.00    -0.246 OA
BRANCH  30  32
ATOM     32  C   UNL A   1      41.688  23.670  27.072  1.00  0.00     0.060 A 
ATOM     33  C   UNL A   1      42.517  23.668  28.194  1.00  0.00     0.016 A 
ATOM     34  C   UNL A   1      42.102  24.191  25.835  1.00  0.00     0.016 A 
ATOM     35  C   UNL A   1      43.661  24.430  28.146  1.00  0.00     0.010 A 
ATOM     36  C   UNL A   1      43.228  24.965  25.792  1.00  0.00     0.010 A 
ATOM     37  C   UNL A   1      43.922  25.154  26.980  1.00  0.00    -0.014 A 
BRANCH  37  38
ATOM     38  C   UNL A   1      44.851  26.251  27.062  1.00  0.00     0.031 A 
ATOM     39  C   UNL A   1      46.207  25.972  26.582  1.00  0.00     0.074 A 
ATOM     40  C   UNL A   1      44.434  27.473  27.437  1.00  0.00     0.049 A 
ATOM     41  N   UNL A   1      47.276  25.864  27.293  1.00  0.00    -0.248 NA
ATOM     42  C   UNL A   1      46.378  25.662  25.156  1.00  0.00     0.031 C 
ATOM     43  C   UNL A   1      43.055  27.947  27.589  1.00  0.00     0.029 A 
ATOM     44  N   UNL A   1      45.178  28.587  27.647  1.00  0.00    -0.354 N 
ATOM     45  C   UNL A   1      48.299  25.657  26.380  1.00  0.00     0.074 A 
ATOM     46  C   UNL A   1      47.671  25.347  25.119  1.00  0.00     0.031 C 
ATOM     47  C   UNL A   1      43.062  29.297  27.654  1.00  0.00     0.029 A 
ATOM     48  C   UNL A   1      44.441  29.759  27.672  1.00  0.00     0.049 A 
ATOM     49  H   UNL A   1      46.156  28.566  27.770  1.00  0.00     0.167 HD
ATOM     50  C   UNL A   1      49.577  26.026  26.651  1.00  0.00     0.031 A 
ATOM     51  C   UNL A   1      44.943  31.015  27.628  1.00  0.00     0.031 A 
ATOM     52  C   UNL A   1      49.779  26.307  28.049  1.00  0.00     0.049 A 
ATOM     53  C   UNL A   1      46.380  30.944  27.988  1.00  0.00     0.074 A 
ATOM     54  C   UNL A   1      49.636  25.588  29.218  1.00  0.00     0.029 A 
ATOM     55  N   UNL A   1      49.839  27.630  28.416  1.00  0.00    -0.354 N 
ATOM     56  N   UNL A   1      46.816  30.676  29.186  1.00  0.00    -0.248 NA
ATOM     57  C   UNL A   1      47.361  30.781  26.926  1.00  0.00     0.031 C 
ATOM     58  C   UNL A   1      49.191  26.532  30.188  1.00  0.00     0.029 A 
ATOM     59  C   UNL A   1      49.111  27.781  29.569  1.00  0.00     0.049 A 
ATOM     60  H   UNL A   1      50.320  28.343  27.938  1.00  0.00     0.167 HD
ATOM     61  C   UNL A   1      47.959  29.914  28.990  1.00  0.00     0.074 A 
ATOM     62  C   UNL A   1      48.318  30.129  27.592  1.00  0.00     0.031 C 
ATOM     63  C   UNL A   1      48.334  28.961  29.894  1.00  0.00     0.031 A 
BRANCH  50  64
ATOM     64  C   UNL A   1      50.518  26.520  25.588  1.00  0.00    -0.014 A 
ATOM     65  C   UNL A   1      50.020  27.368  24.588  1.00  0.00     0.009 A 
ATOM     66  C   UNL A   1      51.804  25.980  25.386  1.00  0.00     0.009 A 
ATOM     67  C   UNL A   1      50.758  27.626  23.427  1.00  0.00     0.001 A 
ATOM     68  C   UNL A   1      52.563  26.275  24.254  1.00  0.00     0.001 A 
ATOM     69  C   UNL A   1      52.028  27.080  23.260  1.00  0.00     0.000 A 
ENDBRANCH  50  64
BRANCH  51  70
ATOM     70  C   UNL A   1      44.322  32.228  27.064  1.00  0.00    -0.014 A 
ATOM     71  C   UNL A   1      44.012  33.320  27.888  1.00  0.00     0.009 A 
ATOM     72  C   UNL A   1      44.250  32.417  25.671  1.00  0.00     0.009 A 
ATOM     73  C   UNL A   1      43.677  34.563  27.338  1.00  0.00     0.001 A 
ATOM     74  C   UNL A   1      43.904  33.654  25.121  1.00  0.00     0.001 A 
ATOM     75  C   UNL A   1      43.633  34.732  25.956  1.00  0.00     0.000 A 
ENDBRANCH  51  70
BRANCH  63  76
ATOM     76  C   UNL A   1      47.662  28.972  31.245  1.00  0.00    -0.014 A 
ATOM     77  C   UNL A   1      48.182  29.672  32.349  1.00  0.00     0.009 A 
ATOM     78  C   UNL A   1      46.400  28.374  31.372  1.00  0.00     0.009 A 
ATOM     79  C   UNL A   1      47.478  29.733  33.555  1.00  0.00     0.001 A 
ATOM     80  C   UNL A   1      45.685  28.456  32.570  1.00  0.00     0.001 A 
ATOM     81  C   UNL A   1      46.228  29.128  33.663  1.00  0.00     0.000 A 
ENDBRANCH  63  76
ENDBRANCH  37  38
ENDBRANCH  30  32
ENDBRANCH  29  30
ENDBRANCH  28  29
ENDBRANCH  27  28
ENDBRANCH  26  27
ENDBRANCH  25  26
ENDBRANCH  24  25
ENDBRANCH   1  24
TORSDOF 22
ENDMDL
