MODEL 1
REMARK VINA RESULT:      -8.8      0.000      0.000
REMARK SMILES COC(=O)c1c(NC(=O)[C@@H]2C[C@@H]2C(=O)OCCOCCOCCOCCOC(=O)c2ccc(-c3c4nc(c(-c5ccccc5)c5ccc([nH]5)c(-c5ccccc5)c5nc(c(-c6ccccc6)c6ccc3[nH]6)C=C5)C=C4)cc2)sc2c1CC[N@@H+](Cc1ccccc1)C2
REMARK SMILES IDX 20 1 19 2 18 3 17 4 16 5 15 6 13 7 14 8 12 9 10 10 11 11
REMARK SMILES IDX 8 12 7 13 9 15 6 16 5 17 80 18 78 19 79 20 81 21 91 22 82 23
REMARK SMILES IDX 83 24 3 26 4 27 2 28 1 29 84 30 85 31 86 32 90 33 87 34
REMARK SMILES IDX 89 35 88 36 21 37 22 38 23 39 24 40 25 41 26 42 27 43 28 44
REMARK SMILES IDX 29 45 30 46 31 47 77 48 32 49 76 50 33 51 34 52 35 53 70 54
REMARK SMILES IDX 36 55 75 56 69 57 71 58 37 59 74 60 68 61 67 62 38 64 60 65
REMARK SMILES IDX 45 66 59 67 46 68 49 69 58 70 72 71 47 72 48 73 57 75 73 76
REMARK SMILES IDX 50 77 39 78 40 79 44 80 41 81 43 82 42 83 61 84 62 85 66 86
REMARK SMILES IDX 63 87 65 88 64 89 51 90 52 91 56 92 53 93 55 94 54 95
REMARK H PARENT 7 14 83 25 71 63 49 74
REMARK Flexibility Score: inf
ROOT
ATOM      1  C   UNL A   1      33.488  31.788  27.267  1.00  0.00     0.188 C 
ENDROOT
BRANCH   1   2
ATOM      2  C   UNL A   1      32.709  30.462  27.326  1.00  0.00     0.188 C 
BRANCH   2   3
ATOM      3  O   UNL A   1      31.441  30.567  26.724  1.00  0.00    -0.376 OA
BRANCH   3   4
ATOM      4  C   UNL A   1      31.095  31.731  26.019  1.00  0.00     0.202 C 
BRANCH   4   5
ATOM      5  C   UNL A   1      30.125  31.759  24.833  1.00  0.00     0.261 C 
BRANCH   5   6
ATOM      6  O   UNL A   1      29.573  30.556  24.278  1.00  0.00    -0.463 OA
BRANCH   6   7
ATOM      7  C   UNL A   1      30.173  30.066  23.162  1.00  0.00     0.309 C 
ATOM      8  O   UNL A   1      29.882  30.403  22.024  1.00  0.00    -0.252 OA
BRANCH   7   9
ATOM      9  C   UNL A   1      31.234  29.041  23.380  1.00  0.00     0.112 C 
ATOM     10  C   UNL A   1      31.104  27.536  23.475  1.00  0.00     0.094 C 
ATOM     11  C   UNL A   1      31.505  28.352  24.685  1.00  0.00     0.030 C 
BRANCH  10  12
ATOM     12  C   UNL A   1      29.883  26.702  23.563  1.00  0.00     0.229 C 
ATOM     13  N   UNL A   1      29.858  25.489  24.199  1.00  0.00    -0.317 N 
ATOM     14  H   UNL A   1      28.964  25.142  24.416  1.00  0.00     0.170 HD
ATOM     15  O   UNL A   1      28.834  27.152  23.106  1.00  0.00    -0.274 OA
BRANCH  13  16
ATOM     16  C   UNL A   1      30.910  24.693  24.575  1.00  0.00     0.110 A 
ATOM     17  C   UNL A   1      31.981  24.064  23.968  1.00  0.00     0.098 A 
ATOM     18  C   UNL A   1      32.258  22.855  24.708  1.00  0.00    -0.006 A 
ATOM     19  S   UNL A   1      30.775  24.280  26.232  1.00  0.00    -0.116 S 
ATOM     20  C   UNL A   1      31.744  22.911  25.991  1.00  0.00     0.065 A 
ATOM     21  C   UNL A   1      33.073  21.672  24.260  1.00  0.00     0.099 C 
ATOM     22  C   UNL A   1      32.006  21.891  27.058  1.00  0.00     0.310 C 
ATOM     23  C   UNL A   1      33.251  20.625  25.387  1.00  0.00     0.267 C 
ATOM     24  N   UNL A   1      33.230  21.121  26.778  1.00  0.00    -0.326 N 
ATOM     25  H   UNL A   1      33.192  20.290  27.368  1.00  0.00     0.348 HD
BRANCH  17  26
ATOM     26  C   UNL A   1      32.650  24.443  22.729  1.00  0.00     0.341 C 
ATOM     27  O   UNL A   1      33.852  24.299  22.542  1.00  0.00    -0.246 OA
BRANCH  26  28
ATOM     28  O   UNL A   1      31.803  24.973  21.798  1.00  0.00    -0.465 OA
ATOM     29  C   UNL A   1      32.475  25.564  20.681  1.00  0.00     0.282 C 
ENDBRANCH  26  28
ENDBRANCH  17  26
BRANCH  24  30
ATOM     30  C   UNL A   1      34.480  21.762  27.235  1.00  0.00     0.299 C 
BRANCH  30  31
ATOM     31  C   UNL A   1      35.501  22.151  26.183  1.00  0.00     0.006 A 
ATOM     32  C   UNL A   1      36.271  21.172  25.536  1.00  0.00     0.009 A 
ATOM     33  C   UNL A   1      35.622  23.483  25.758  1.00  0.00     0.009 A 
ATOM     34  C   UNL A   1      37.033  21.496  24.411  1.00  0.00     0.001 A 
ATOM     35  C   UNL A   1      36.390  23.807  24.637  1.00  0.00     0.001 A 
ATOM     36  C   UNL A   1      37.076  22.809  23.950  1.00  0.00     0.000 A 
ENDBRANCH  30  31
ENDBRANCH  24  30
ENDBRANCH  13  16
ENDBRANCH  10  12
ENDBRANCH   7   9
ENDBRANCH   6   7
ENDBRANCH   5   6
ENDBRANCH   4   5
ENDBRANCH   3   4
ENDBRANCH   2   3
ENDBRANCH   1   2
BRANCH   1  37
ATOM     37  O   UNL A   1      34.087  32.270  28.454  1.00  0.00    -0.377 OA
BRANCH  37  38
ATOM     38  C   UNL A   1      35.385  31.795  28.722  1.00  0.00     0.188 C 
BRANCH  38  39
ATOM     39  C   UNL A   1      35.761  31.884  30.211  1.00  0.00     0.188 C 
BRANCH  39  40
ATOM     40  O   UNL A   1      36.994  31.424  30.776  1.00  0.00    -0.376 OA
BRANCH  40  41
ATOM     41  C   UNL A   1      37.651  31.982  31.904  1.00  0.00     0.202 C 
BRANCH  41  42
ATOM     42  C   UNL A   1      38.862  32.905  31.729  1.00  0.00     0.261 C 
BRANCH  42  43
ATOM     43  O   UNL A   1      40.044  32.221  31.374  1.00  0.00    -0.460 OA
BRANCH  43  44
ATOM     44  C   UNL A   1      41.121  32.684  32.035  1.00  0.00     0.338 C 
ATOM     45  O   UNL A   1      41.158  33.111  33.176  1.00  0.00    -0.246 OA
BRANCH  44  46
ATOM     46  C   UNL A   1      42.275  32.707  31.119  1.00  0.00     0.060 A 
ATOM     47  C   UNL A   1      41.944  32.253  29.848  1.00  0.00     0.016 A 
ATOM     48  C   UNL A   1      43.554  32.546  31.674  1.00  0.00     0.016 A 
ATOM     49  C   UNL A   1      42.672  31.191  29.395  1.00  0.00     0.010 A 
ATOM     50  C   UNL A   1      44.294  31.489  31.214  1.00  0.00     0.010 A 
ATOM     51  C   UNL A   1      43.741  30.741  30.181  1.00  0.00    -0.014 A 
BRANCH  51  52
ATOM     52  C   UNL A   1      44.172  29.392  29.922  1.00  0.00     0.031 A 
ATOM     53  C   UNL A   1      44.979  29.262  28.708  1.00  0.00     0.074 A 
ATOM     54  C   UNL A   1      43.820  28.353  30.696  1.00  0.00     0.049 A 
ATOM     55  N   UNL A   1      44.667  28.655  27.615  1.00  0.00    -0.248 NA
ATOM     56  C   UNL A   1      46.227  30.031  28.669  1.00  0.00     0.031 C 
ATOM     57  C   UNL A   1      43.254  28.369  32.047  1.00  0.00     0.029 A 
ATOM     58  N   UNL A   1      44.011  27.029  30.447  1.00  0.00    -0.354 N 
ATOM     59  C   UNL A   1      45.766  28.820  26.790  1.00  0.00     0.074 A 
ATOM     60  C   UNL A   1      46.624  29.793  27.422  1.00  0.00     0.031 C 
ATOM     61  C   UNL A   1      43.376  27.134  32.584  1.00  0.00     0.029 A 
ATOM     62  C   UNL A   1      43.904  26.233  31.571  1.00  0.00     0.049 A 
ATOM     63  H   UNL A   1      44.208  26.673  29.551  1.00  0.00     0.167 HD
ATOM     64  C   UNL A   1      46.016  27.967  25.766  1.00  0.00     0.031 A 
ATOM     65  C   UNL A   1      44.319  24.949  31.674  1.00  0.00     0.031 A 
ATOM     66  C   UNL A   1      44.848  27.228  25.365  1.00  0.00     0.049 A 
ATOM     67  C   UNL A   1      44.470  24.398  30.306  1.00  0.00     0.074 A 
ATOM     68  C   UNL A   1      43.604  27.567  24.869  1.00  0.00     0.029 A 
ATOM     69  N   UNL A   1      44.752  25.920  25.772  1.00  0.00    -0.354 N 
ATOM     70  N   UNL A   1      43.472  24.121  29.518  1.00  0.00    -0.248 NA
ATOM     71  C   UNL A   1      45.766  24.494  29.650  1.00  0.00     0.031 C 
ATOM     72  C   UNL A   1      42.711  26.581  25.379  1.00  0.00     0.029 A 
ATOM     73  C   UNL A   1      43.456  25.694  26.158  1.00  0.00     0.049 A 
ATOM     74  H   UNL A   1      45.484  25.261  25.785  1.00  0.00     0.167 HD
ATOM     75  C   UNL A   1      43.929  24.417  28.241  1.00  0.00     0.074 A 
ATOM     76  C   UNL A   1      45.379  24.507  28.372  1.00  0.00     0.031 C 
ATOM     77  C   UNL A   1      43.072  24.841  27.265  1.00  0.00     0.031 A 
BRANCH  64  78
ATOM     78  C   UNL A   1      47.416  27.537  25.429  1.00  0.00    -0.014 A 
ATOM     79  C   UNL A   1      47.829  27.568  24.090  1.00  0.00     0.009 A 
ATOM     80  C   UNL A   1      48.251  26.855  26.339  1.00  0.00     0.009 A 
ATOM     81  C   UNL A   1      48.990  26.903  23.677  1.00  0.00     0.001 A 
ATOM     82  C   UNL A   1      49.434  26.234  25.942  1.00  0.00     0.001 A 
ATOM     83  C   UNL A   1      49.789  26.236  24.603  1.00  0.00     0.000 A 
ENDBRANCH  64  78
BRANCH  65  84
ATOM     84  C   UNL A   1      44.845  24.268  32.873  1.00  0.00    -0.014 A 
ATOM     85  C   UNL A   1      44.239  23.101  33.359  1.00  0.00     0.009 A 
ATOM     86  C   UNL A   1      46.093  24.632  33.413  1.00  0.00     0.009 A 
ATOM     87  C   UNL A   1      44.871  22.318  34.333  1.00  0.00     0.001 A 
ATOM     88  C   UNL A   1      46.718  23.858  34.393  1.00  0.00     0.001 A 
ATOM     89  C   UNL A   1      46.112  22.692  34.843  1.00  0.00     0.000 A 
ENDBRANCH  65  84
BRANCH  77  90
ATOM     90  C   UNL A   1      41.593  24.686  27.517  1.00  0.00    -0.014 A 
ATOM     91  C   UNL A   1      40.845  25.641  28.228  1.00  0.00     0.009 A 
ATOM     92  C   UNL A   1      40.908  23.624  26.908  1.00  0.00     0.009 A 
ATOM     93  C   UNL A   1      39.459  25.511  28.363  1.00  0.00     0.001 A 
ATOM     94  C   UNL A   1      39.520  23.507  27.024  1.00  0.00     0.001 A 
ATOM     95  C   UNL A   1      38.798  24.446  27.758  1.00  0.00     0.000 A 
ENDBRANCH  77  90
ENDBRANCH  51  52
ENDBRANCH  44  46
ENDBRANCH  43  44
ENDBRANCH  42  43
ENDBRANCH  41  42
ENDBRANCH  40  41
ENDBRANCH  39  40
ENDBRANCH  38  39
ENDBRANCH  37  38
ENDBRANCH   1  37
TORSDOF 26
ENDMDL
MODEL 2
REMARK VINA RESULT:      -8.8      3.718      9.833
REMARK SMILES COC(=O)c1c(NC(=O)[C@@H]2C[C@@H]2C(=O)OCCOCCOCCOCCOC(=O)c2ccc(-c3c4nc(c(-c5ccccc5)c5ccc([nH]5)c(-c5ccccc5)c5nc(c(-c6ccccc6)c6ccc3[nH]6)C=C5)C=C4)cc2)sc2c1CC[N@@H+](Cc1ccccc1)C2
REMARK SMILES IDX 20 1 19 2 18 3 17 4 16 5 15 6 13 7 14 8 12 9 10 10 11 11
REMARK SMILES IDX 8 12 7 13 9 15 6 16 5 17 80 18 78 19 79 20 81 21 91 22 82 23
REMARK SMILES IDX 83 24 3 26 4 27 2 28 1 29 84 30 85 31 86 32 90 33 87 34
REMARK SMILES IDX 89 35 88 36 21 37 22 38 23 39 24 40 25 41 26 42 27 43 28 44
REMARK SMILES IDX 29 45 30 46 31 47 77 48 32 49 76 50 33 51 34 52 35 53 70 54
REMARK SMILES IDX 36 55 75 56 69 57 71 58 37 59 74 60 68 61 67 62 38 64 60 65
REMARK SMILES IDX 45 66 59 67 46 68 49 69 58 70 72 71 47 72 48 73 57 75 73 76
REMARK SMILES IDX 50 77 39 78 40 79 44 80 41 81 43 82 42 83 61 84 62 85 66 86
REMARK SMILES IDX 63 87 65 88 64 89 51 90 52 91 56 92 53 93 55 94 54 95
REMARK H PARENT 7 14 83 25 71 63 49 74
REMARK Flexibility Score: inf
ROOT
ATOM      1  C   UNL A   1      41.930  26.994  29.085  1.00  0.00     0.188 C 
ENDROOT
BRANCH   1   2
ATOM      2  C   UNL A   1      41.137  26.209  28.023  1.00  0.00     0.188 C 
BRANCH   2   3
ATOM      3  O   UNL A   1      41.213  24.819  28.229  1.00  0.00    -0.376 OA
BRANCH   3   4
ATOM      4  C   UNL A   1      41.008  23.940  27.154  1.00  0.00     0.202 C 
BRANCH   4   5
ATOM      5  C   UNL A   1      39.838  22.954  27.063  1.00  0.00     0.261 C 
BRANCH   5   6
ATOM      6  O   UNL A   1      38.528  23.370  26.645  1.00  0.00    -0.463 OA
BRANCH   6   7
ATOM      7  C   UNL A   1      37.968  22.679  25.618  1.00  0.00     0.309 C 
ATOM      8  O   UNL A   1      38.162  21.492  25.405  1.00  0.00    -0.252 OA
BRANCH   7   9
ATOM      9  C   UNL A   1      37.084  23.459  24.705  1.00  0.00     0.112 C 
ATOM     10  C   UNL A   1      35.651  23.901  24.906  1.00  0.00     0.094 C 
ATOM     11  C   UNL A   1      35.999  22.871  23.852  1.00  0.00     0.030 C 
BRANCH  10  12
ATOM     12  C   UNL A   1      34.692  23.521  25.969  1.00  0.00     0.229 C 
ATOM     13  N   UNL A   1      33.386  23.933  25.970  1.00  0.00    -0.317 N 
ATOM     14  H   UNL A   1      32.783  23.433  26.566  1.00  0.00     0.170 HD
ATOM     15  O   UNL A   1      35.070  22.747  26.847  1.00  0.00    -0.274 OA
BRANCH  13  16
ATOM     16  C   UNL A   1      32.803  24.947  25.254  1.00  0.00     0.110 A 
ATOM     17  C   UNL A   1      32.725  25.350  23.934  1.00  0.00     0.098 A 
ATOM     18  C   UNL A   1      32.622  26.790  23.918  1.00  0.00    -0.006 A 
ATOM     19  S   UNL A   1      32.077  26.078  26.317  1.00  0.00    -0.116 S 
ATOM     20  C   UNL A   1      32.170  27.284  25.129  1.00  0.00     0.065 A 
ATOM     21  C   UNL A   1      32.862  27.715  22.756  1.00  0.00     0.099 C 
ATOM     22  C   UNL A   1      31.798  28.714  25.379  1.00  0.00     0.310 C 
ATOM     23  C   UNL A   1      32.521  29.185  23.099  1.00  0.00     0.267 C 
ATOM     24  N   UNL A   1      31.483  29.417  24.123  1.00  0.00    -0.326 N 
ATOM     25  H   UNL A   1      31.515  30.414  24.332  1.00  0.00     0.348 HD
BRANCH  17  26
ATOM     26  C   UNL A   1      32.858  24.520  22.741  1.00  0.00     0.341 C 
ATOM     27  O   UNL A   1      33.494  24.864  21.751  1.00  0.00    -0.246 OA
BRANCH  26  28
ATOM     28  O   UNL A   1      32.205  23.325  22.839  1.00  0.00    -0.465 OA
ATOM     29  C   UNL A   1      30.863  23.442  23.321  1.00  0.00     0.282 C 
ENDBRANCH  26  28
ENDBRANCH  17  26
BRANCH  24  30
ATOM     30  C   UNL A   1      30.092  29.248  23.655  1.00  0.00     0.299 C 
BRANCH  30  31
ATOM     31  C   UNL A   1      29.462  30.393  22.885  1.00  0.00     0.006 A 
ATOM     32  C   UNL A   1      29.265  30.301  21.499  1.00  0.00     0.009 A 
ATOM     33  C   UNL A   1      28.967  31.523  23.555  1.00  0.00     0.009 A 
ATOM     34  C   UNL A   1      28.479  31.241  20.828  1.00  0.00     0.001 A 
ATOM     35  C   UNL A   1      28.186  32.465  22.882  1.00  0.00     0.001 A 
ATOM     36  C   UNL A   1      27.923  32.311  21.524  1.00  0.00     0.000 A 
ENDBRANCH  30  31
ENDBRANCH  24  30
ENDBRANCH  13  16
ENDBRANCH  10  12
ENDBRANCH   7   9
ENDBRANCH   6   7
ENDBRANCH   5   6
ENDBRANCH   4   5
ENDBRANCH   3   4
ENDBRANCH   2   3
ENDBRANCH   1   2
BRANCH   1  37
ATOM     37  O   UNL A   1      43.332  27.094  28.939  1.00  0.00    -0.377 OA
BRANCH  37  38
ATOM     38  C   UNL A   1      43.806  27.182  27.616  1.00  0.00     0.188 C 
BRANCH  38  39
ATOM     39  C   UNL A   1      44.388  25.855  27.098  1.00  0.00     0.188 C 
BRANCH  39  40
ATOM     40  O   UNL A   1      45.753  25.447  27.238  1.00  0.00    -0.376 OA
BRANCH  40  41
ATOM     41  C   UNL A   1      46.318  24.806  28.372  1.00  0.00     0.202 C 
BRANCH  41  42
ATOM     42  C   UNL A   1      47.036  25.619  29.455  1.00  0.00     0.261 C 
BRANCH  42  43
ATOM     43  O   UNL A   1      46.185  26.497  30.158  1.00  0.00    -0.460 OA
BRANCH  43  44
ATOM     44  C   UNL A   1      46.861  27.300  31.000  1.00  0.00     0.338 C 
ATOM     45  O   UNL A   1      47.982  27.753  30.846  1.00  0.00    -0.246 OA
BRANCH  44  46
ATOM     46  C   UNL A   1      46.074  27.475  32.234  1.00  0.00     0.060 A 
ATOM     47  C   UNL A   1      44.765  27.032  32.087  1.00  0.00     0.016 A 
ATOM     48  C   UNL A   1      46.429  28.526  33.093  1.00  0.00     0.016 A 
ATOM     49  C   UNL A   1      43.799  27.962  32.337  1.00  0.00     0.010 A 
ATOM     50  C   UNL A   1      45.459  29.456  33.357  1.00  0.00     0.010 A 
ATOM     51  C   UNL A   1      44.199  29.214  32.823  1.00  0.00    -0.014 A 
BRANCH  51  52
ATOM     52  C   UNL A   1      43.248  30.280  32.636  1.00  0.00     0.031 A 
ATOM     53  C   UNL A   1      42.269  30.382  33.719  1.00  0.00     0.074 A 
ATOM     54  C   UNL A   1      43.238  31.066  31.548  1.00  0.00     0.049 A 
ATOM     55  N   UNL A   1      41.002  30.151  33.660  1.00  0.00    -0.248 NA
ATOM     56  C   UNL A   1      42.803  30.634  35.061  1.00  0.00     0.031 C 
ATOM     57  C   UNL A   1      44.287  31.246  30.541  1.00  0.00     0.029 A 
ATOM     58  N   UNL A   1      42.289  31.969  31.183  1.00  0.00    -0.354 N 
ATOM     59  C   UNL A   1      40.536  30.395  34.941  1.00  0.00     0.074 A 
ATOM     60  C   UNL A   1      41.694  30.537  35.790  1.00  0.00     0.031 C 
ATOM     61  C   UNL A   1      44.017  32.364  29.829  1.00  0.00     0.029 A 
ATOM     62  C   UNL A   1      42.726  32.887  30.249  1.00  0.00     0.049 A 
ATOM     63  H   UNL A   1      41.376  31.968  31.553  1.00  0.00     0.167 HD
ATOM     64  C   UNL A   1      39.237  30.708  35.173  1.00  0.00     0.031 A 
ATOM     65  C   UNL A   1      42.106  34.045  29.926  1.00  0.00     0.031 A 
ATOM     66  C   UNL A   1      38.371  30.310  34.095  1.00  0.00     0.049 A 
ATOM     67  C   UNL A   1      40.694  33.956  30.369  1.00  0.00     0.074 A 
ATOM     68  C   UNL A   1      38.047  29.105  33.502  1.00  0.00     0.029 A 
ATOM     69  N   UNL A   1      37.934  31.287  33.235  1.00  0.00    -0.354 N 
ATOM     70  N   UNL A   1      39.799  33.198  29.804  1.00  0.00    -0.248 NA
ATOM     71  C   UNL A   1      40.344  34.438  31.698  1.00  0.00     0.031 C 
ATOM     72  C   UNL A   1      37.802  29.410  32.131  1.00  0.00     0.029 A 
ATOM     73  C   UNL A   1      37.990  30.783  31.961  1.00  0.00     0.049 A 
ATOM     74  H   UNL A   1      37.633  32.190  33.488  1.00  0.00     0.167 HD
ATOM     75  C   UNL A   1      38.981  32.772  30.841  1.00  0.00     0.074 A 
ATOM     76  C   UNL A   1      39.279  33.671  31.950  1.00  0.00     0.031 C 
ATOM     77  C   UNL A   1      38.355  31.558  30.793  1.00  0.00     0.031 A 
BRANCH  64  78
ATOM     78  C   UNL A   1      38.851  31.735  36.199  1.00  0.00    -0.014 A 
ATOM     79  C   UNL A   1      38.064  31.338  37.290  1.00  0.00     0.009 A 
ATOM     80  C   UNL A   1      39.006  33.123  35.995  1.00  0.00     0.009 A 
ATOM     81  C   UNL A   1      37.424  32.284  38.100  1.00  0.00     0.001 A 
ATOM     82  C   UNL A   1      38.412  34.068  36.829  1.00  0.00     0.001 A 
ATOM     83  C   UNL A   1      37.597  33.646  37.867  1.00  0.00     0.000 A 
ENDBRANCH  64  78
BRANCH  65  84
ATOM     84  C   UNL A   1      42.732  35.313  29.502  1.00  0.00    -0.014 A 
ATOM     85  C   UNL A   1      43.616  35.995  30.350  1.00  0.00     0.009 A 
ATOM     86  C   UNL A   1      42.646  35.740  28.164  1.00  0.00     0.009 A 
ATOM     87  C   UNL A   1      44.398  37.052  29.869  1.00  0.00     0.001 A 
ATOM     88  C   UNL A   1      43.417  36.802  27.686  1.00  0.00     0.001 A 
ATOM     89  C   UNL A   1      44.304  37.449  28.536  1.00  0.00     0.000 A 
ENDBRANCH  65  84
BRANCH  77  90
ATOM     90  C   UNL A   1      38.326  30.838  29.468  1.00  0.00    -0.014 A 
ATOM     91  C   UNL A   1      39.399  30.051  29.013  1.00  0.00     0.009 A 
ATOM     92  C   UNL A   1      37.139  30.839  28.720  1.00  0.00     0.009 A 
ATOM     93  C   UNL A   1      39.302  29.323  27.824  1.00  0.00     0.001 A 
ATOM     94  C   UNL A   1      37.034  30.092  27.543  1.00  0.00     0.001 A 
ATOM     95  C   UNL A   1      38.118  29.342  27.091  1.00  0.00     0.000 A 
ENDBRANCH  77  90
ENDBRANCH  51  52
ENDBRANCH  44  46
ENDBRANCH  43  44
ENDBRANCH  42  43
ENDBRANCH  41  42
ENDBRANCH  40  41
ENDBRANCH  39  40
ENDBRANCH  38  39
ENDBRANCH  37  38
ENDBRANCH   1  37
TORSDOF 26
ENDMDL
MODEL 3
REMARK VINA RESULT:      -8.4      8.009     12.839
REMARK SMILES COC(=O)c1c(NC(=O)[C@@H]2C[C@@H]2C(=O)OCCOCCOCCOCCOC(=O)c2ccc(-c3c4nc(c(-c5ccccc5)c5ccc([nH]5)c(-c5ccccc5)c5nc(c(-c6ccccc6)c6ccc3[nH]6)C=C5)C=C4)cc2)sc2c1CC[N@@H+](Cc1ccccc1)C2
REMARK SMILES IDX 20 1 19 2 18 3 17 4 16 5 15 6 13 7 14 8 12 9 10 10 11 11
REMARK SMILES IDX 8 12 7 13 9 15 6 16 5 17 80 18 78 19 79 20 81 21 91 22 82 23
REMARK SMILES IDX 83 24 3 26 4 27 2 28 1 29 84 30 85 31 86 32 90 33 87 34
REMARK SMILES IDX 89 35 88 36 21 37 22 38 23 39 24 40 25 41 26 42 27 43 28 44
REMARK SMILES IDX 29 45 30 46 31 47 77 48 32 49 76 50 33 51 34 52 35 53 70 54
REMARK SMILES IDX 36 55 75 56 69 57 71 58 37 59 74 60 68 61 67 62 38 64 60 65
REMARK SMILES IDX 45 66 59 67 46 68 49 69 58 70 72 71 47 72 48 73 57 75 73 76
REMARK SMILES IDX 50 77 39 78 40 79 44 80 41 81 43 82 42 83 61 84 62 85 66 86
REMARK SMILES IDX 63 87 65 88 64 89 51 90 52 91 56 92 53 93 55 94 54 95
REMARK H PARENT 7 14 83 25 71 63 49 74
REMARK Flexibility Score: inf
ROOT
ATOM      1  C   UNL A   1      35.007  31.182  27.846  1.00  0.00     0.188 C 
ENDROOT
BRANCH   1   2
ATOM      2  C   UNL A   1      33.732  30.460  27.375  1.00  0.00     0.188 C 
BRANCH   2   3
ATOM      3  O   UNL A   1      33.919  29.069  27.273  1.00  0.00    -0.376 OA
BRANCH   3   4
ATOM      4  C   UNL A   1      32.810  28.222  27.125  1.00  0.00     0.202 C 
BRANCH   4   5
ATOM      5  C   UNL A   1      32.864  26.849  26.445  1.00  0.00     0.261 C 
BRANCH   5   6
ATOM      6  O   UNL A   1      31.986  25.779  26.829  1.00  0.00    -0.463 OA
BRANCH   6   7
ATOM      7  C   UNL A   1      32.381  24.520  26.505  1.00  0.00     0.309 C 
ATOM      8  O   UNL A   1      31.712  23.519  26.707  1.00  0.00    -0.252 OA
BRANCH   7   9
ATOM      9  C   UNL A   1      33.732  24.393  25.884  1.00  0.00     0.112 C 
ATOM     10  C   UNL A   1      34.143  23.651  24.631  1.00  0.00     0.094 C 
ATOM     11  C   UNL A   1      34.615  23.186  25.992  1.00  0.00     0.030 C 
BRANCH  10  12
ATOM     12  C   UNL A   1      33.361  22.708  23.799  1.00  0.00     0.229 C 
ATOM     13  N   UNL A   1      32.437  23.124  22.877  1.00  0.00    -0.317 N 
ATOM     14  H   UNL A   1      32.163  22.449  22.216  1.00  0.00     0.170 HD
ATOM     15  O   UNL A   1      33.604  21.506  23.893  1.00  0.00    -0.274 OA
BRANCH  13  16
ATOM     16  C   UNL A   1      31.841  24.352  22.750  1.00  0.00     0.110 A 
ATOM     17  C   UNL A   1      32.181  25.606  22.277  1.00  0.00     0.098 A 
ATOM     18  C   UNL A   1      31.455  26.582  23.057  1.00  0.00    -0.006 A 
ATOM     19  S   UNL A   1      30.298  24.340  23.495  1.00  0.00    -0.116 S 
ATOM     20  C   UNL A   1      30.348  26.025  23.672  1.00  0.00     0.065 A 
ATOM     21  C   UNL A   1      31.734  28.056  23.172  1.00  0.00     0.099 C 
ATOM     22  C   UNL A   1      29.301  26.805  24.408  1.00  0.00     0.310 C 
ATOM     23  C   UNL A   1      30.653  28.793  24.000  1.00  0.00     0.267 C 
ATOM     24  N   UNL A   1      29.292  28.219  23.995  1.00  0.00    -0.326 N 
ATOM     25  H   UNL A   1      28.774  28.728  24.711  1.00  0.00     0.348 HD
BRANCH  17  26
ATOM     26  C   UNL A   1      33.185  25.937  21.272  1.00  0.00     0.341 C 
ATOM     27  O   UNL A   1      33.918  26.915  21.351  1.00  0.00    -0.246 OA
BRANCH  26  28
ATOM     28  O   UNL A   1      33.226  25.047  20.236  1.00  0.00    -0.465 OA
ATOM     29  C   UNL A   1      32.403  25.421  19.127  1.00  0.00     0.282 C 
ENDBRANCH  26  28
ENDBRANCH  17  26
BRANCH  24  30
ATOM     30  C   UNL A   1      28.496  28.502  22.783  1.00  0.00     0.299 C 
BRANCH  30  31
ATOM     31  C   UNL A   1      28.230  29.954  22.435  1.00  0.00     0.006 A 
ATOM     32  C   UNL A   1      28.151  30.929  23.441  1.00  0.00     0.009 A 
ATOM     33  C   UNL A   1      28.162  30.371  21.096  1.00  0.00     0.009 A 
ATOM     34  C   UNL A   1      28.143  32.288  23.116  1.00  0.00     0.001 A 
ATOM     35  C   UNL A   1      28.148  31.729  20.773  1.00  0.00     0.001 A 
ATOM     36  C   UNL A   1      28.163  32.687  21.783  1.00  0.00     0.000 A 
ENDBRANCH  30  31
ENDBRANCH  24  30
ENDBRANCH  13  16
ENDBRANCH  10  12
ENDBRANCH   7   9
ENDBRANCH   6   7
ENDBRANCH   5   6
ENDBRANCH   4   5
ENDBRANCH   3   4
ENDBRANCH   2   3
ENDBRANCH   1   2
BRANCH   1  37
ATOM     37  O   UNL A   1      35.211  32.520  27.441  1.00  0.00    -0.377 OA
BRANCH  37  38
ATOM     38  C   UNL A   1      34.722  33.508  28.316  1.00  0.00     0.188 C 
BRANCH  38  39
ATOM     39  C   UNL A   1      34.559  33.002  29.761  1.00  0.00     0.188 C 
BRANCH  39  40
ATOM     40  O   UNL A   1      35.158  33.604  30.914  1.00  0.00    -0.376 OA
BRANCH  40  41
ATOM     41  C   UNL A   1      36.287  33.108  31.618  1.00  0.00     0.202 C 
BRANCH  41  42
ATOM     42  C   UNL A   1      36.769  33.789  32.904  1.00  0.00     0.261 C 
BRANCH  42  43
ATOM     43  O   UNL A   1      37.877  33.149  33.498  1.00  0.00    -0.460 OA
BRANCH  43  44
ATOM     44  C   UNL A   1      38.616  33.991  34.244  1.00  0.00     0.338 C 
ATOM     45  O   UNL A   1      38.513  35.204  34.305  1.00  0.00    -0.246 OA
BRANCH  44  46
ATOM     46  C   UNL A   1      39.680  33.228  34.919  1.00  0.00     0.060 A 
ATOM     47  C   UNL A   1      39.178  32.394  35.911  1.00  0.00     0.016 A 
ATOM     48  C   UNL A   1      40.957  33.807  34.987  1.00  0.00     0.016 A 
ATOM     49  C   UNL A   1      39.686  32.596  37.161  1.00  0.00     0.010 A 
ATOM     50  C   UNL A   1      41.477  34.001  36.240  1.00  0.00     0.010 A 
ATOM     51  C   UNL A   1      40.728  33.521  37.308  1.00  0.00    -0.014 A 
BRANCH  51  52
ATOM     52  C   UNL A   1      40.912  34.036  38.641  1.00  0.00     0.031 A 
ATOM     53  C   UNL A   1      41.812  33.222  39.459  1.00  0.00     0.074 A 
ATOM     54  C   UNL A   1      40.277  35.128  39.095  1.00  0.00     0.049 A 
ATOM     55  N   UNL A   1      41.514  32.521  40.498  1.00  0.00    -0.248 NA
ATOM     56  C   UNL A   1      43.183  33.065  38.963  1.00  0.00     0.031 C 
ATOM     57  C   UNL A   1      39.574  36.161  38.330  1.00  0.00     0.029 A 
ATOM     58  N   UNL A   1      40.232  35.592  40.373  1.00  0.00    -0.354 N 
ATOM     59  C   UNL A   1      42.711  31.953  40.900  1.00  0.00     0.074 A 
ATOM     60  C   UNL A   1      43.665  32.193  39.844  1.00  0.00     0.031 C 
ATOM     61  C   UNL A   1      39.389  37.239  39.126  1.00  0.00     0.029 A 
ATOM     62  C   UNL A   1      39.843  36.914  40.470  1.00  0.00     0.049 A 
ATOM     63  H   UNL A   1      40.457  35.037  41.155  1.00  0.00     0.167 HD
ATOM     64  C   UNL A   1      42.905  31.540  42.177  1.00  0.00     0.031 A 
ATOM     65  C   UNL A   1      39.983  37.703  41.559  1.00  0.00     0.031 A 
ATOM     66  C   UNL A   1      41.669  31.324  42.881  1.00  0.00     0.049 A 
ATOM     67  C   UNL A   1      40.178  36.831  42.743  1.00  0.00     0.074 A 
ATOM     68  C   UNL A   1      40.581  30.492  42.704  1.00  0.00     0.029 A 
ATOM     69  N   UNL A   1      41.272  32.283  43.780  1.00  0.00    -0.354 N 
ATOM     70  N   UNL A   1      39.243  36.095  43.268  1.00  0.00    -0.248 NA
ATOM     71  C   UNL A   1      41.535  36.481  43.140  1.00  0.00     0.031 C 
ATOM     72  C   UNL A   1      39.458  31.226  43.186  1.00  0.00     0.029 A 
ATOM     73  C   UNL A   1      39.921  32.466  43.631  1.00  0.00     0.049 A 
ATOM     74  H   UNL A   1      41.853  32.757  44.418  1.00  0.00     0.167 HD
ATOM     75  C   UNL A   1      39.893  34.952  43.716  1.00  0.00     0.074 A 
ATOM     76  C   UNL A   1      41.307  35.307  43.735  1.00  0.00     0.031 C 
ATOM     77  C   UNL A   1      39.253  33.745  43.754  1.00  0.00     0.031 A 
BRANCH  64  78
ATOM     78  C   UNL A   1      44.223  31.737  42.872  1.00  0.00    -0.014 A 
ATOM     79  C   UNL A   1      45.323  30.970  42.464  1.00  0.00     0.009 A 
ATOM     80  C   UNL A   1      44.355  32.450  44.082  1.00  0.00     0.009 A 
ATOM     81  C   UNL A   1      46.474  30.882  43.255  1.00  0.00     0.001 A 
ATOM     82  C   UNL A   1      45.518  32.405  44.849  1.00  0.00     0.001 A 
ATOM     83  C   UNL A   1      46.569  31.597  44.446  1.00  0.00     0.000 A 
ENDBRANCH  64  78
BRANCH  65  84
ATOM     84  C   UNL A   1      40.224  39.159  41.591  1.00  0.00    -0.014 A 
ATOM     85  C   UNL A   1      39.554  40.016  40.707  1.00  0.00     0.009 A 
ATOM     86  C   UNL A   1      40.942  39.742  42.652  1.00  0.00     0.009 A 
ATOM     87  C   UNL A   1      39.585  41.403  40.893  1.00  0.00     0.001 A 
ATOM     88  C   UNL A   1      40.985  41.126  42.830  1.00  0.00     0.001 A 
ATOM     89  C   UNL A   1      40.294  41.957  41.957  1.00  0.00     0.000 A 
ENDBRANCH  65  84
BRANCH  77  90
ATOM     90  C   UNL A   1      37.753  33.743  43.592  1.00  0.00    -0.014 A 
ATOM     91  C   UNL A   1      36.878  33.994  44.663  1.00  0.00     0.009 A 
ATOM     92  C   UNL A   1      37.210  33.623  42.303  1.00  0.00     0.009 A 
ATOM     93  C   UNL A   1      35.497  34.076  44.458  1.00  0.00     0.001 A 
ATOM     94  C   UNL A   1      35.832  33.729  42.095  1.00  0.00     0.001 A 
ATOM     95  C   UNL A   1      34.976  33.948  43.173  1.00  0.00     0.000 A 
ENDBRANCH  77  90
ENDBRANCH  51  52
ENDBRANCH  44  46
ENDBRANCH  43  44
ENDBRANCH  42  43
ENDBRANCH  41  42
ENDBRANCH  40  41
ENDBRANCH  39  40
ENDBRANCH  38  39
ENDBRANCH  37  38
ENDBRANCH   1  37
TORSDOF 26
ENDMDL
