MODEL 1
REMARK VINA RESULT:      -9.7      0.000      0.000
REMARK SMILES CCC(CC)COc1cc2c(cc1Cl)C=C(C(=O)OCCOCCOCCOCCOC(=O)c1ccc(-c3c4nc(c(-c5ccccc5)c5ccc([nH]5)c(-c5ccccc5)c5nc(c(-c6ccccc6)c6ccc3[nH]6)C=C5)C=C4)cc1)[C@@H](C(F)(F)F)O2
REMARK SMILES IDX 24 1 23 2 22 3 21 4 20 5 19 6 17 7 18 8 16 9 8 10 9 11 13 12
REMARK SMILES IDX 10 13 12 14 14 15 11 16 87 17 15 18 82 19 7 20 6 21 3 22
REMARK SMILES IDX 2 23 1 24 4 25 5 26 83 27 84 28 85 29 86 30 25 31 26 32
REMARK SMILES IDX 27 33 28 34 29 35 30 36 31 37 32 38 33 39 34 40 35 41 81 42
REMARK SMILES IDX 36 43 80 44 37 45 38 46 39 47 74 48 40 49 79 50 73 51 75 52
REMARK SMILES IDX 41 53 78 54 72 55 71 56 42 58 64 59 49 60 63 61 50 62 53 63
REMARK SMILES IDX 62 64 76 65 51 66 52 67 61 69 77 70 54 71 43 72 44 73 48 74
REMARK SMILES IDX 45 75 47 76 46 77 65 78 66 79 70 80 67 81 69 82 68 83 55 84
REMARK SMILES IDX 56 85 60 86 57 87 59 88 58 89
REMARK H PARENT 75 57 53 68
REMARK Flexibility Score: inf
ROOT
ATOM      1  C   UNL A   1      36.119  19.224  24.613  1.00  0.00     0.188 C 
ENDROOT
BRANCH   1   2
ATOM      2  C   UNL A   1      34.930  18.306  24.943  1.00  0.00     0.188 C 
BRANCH   2   3
ATOM      3  O   UNL A   1      34.138  17.965  23.807  1.00  0.00    -0.376 OA
BRANCH   3   4
ATOM      4  C   UNL A   1      32.909  18.660  23.650  1.00  0.00     0.202 C 
BRANCH   4   5
ATOM      5  C   UNL A   1      32.542  19.627  24.787  1.00  0.00     0.261 C 
BRANCH   5   6
ATOM      6  O   UNL A   1      32.178  20.948  24.352  1.00  0.00    -0.460 OA
BRANCH   6   7
ATOM      7  C   UNL A   1      32.646  21.956  25.111  1.00  0.00     0.338 C 
ATOM      8  O   UNL A   1      33.506  21.867  25.973  1.00  0.00    -0.246 OA
BRANCH   7   9
ATOM      9  C   UNL A   1      32.076  23.235  24.650  1.00  0.00     0.087 C 
ATOM     10  C   UNL A   1      31.619  27.969  23.122  1.00  0.00     0.141 A 
ATOM     11  C   UNL A   1      30.671  26.987  23.449  1.00  0.00     0.095 A 
ATOM     12  C   UNL A   1      32.984  27.666  23.206  1.00  0.00     0.083 A 
ATOM     13  C   UNL A   1      31.101  25.697  23.787  1.00  0.00     0.131 A 
ATOM     14  C   UNL A   1      33.395  26.351  23.391  1.00  0.00     0.036 A 
ATOM     15  Cl  UNL A   1      34.220  28.869  23.165  1.00  0.00    -0.080 Cl
ATOM     16  C   UNL A   1      32.455  25.368  23.683  1.00  0.00     0.019 A 
ATOM     17  O   UNL A   1      30.168  24.789  24.218  1.00  0.00    -0.475 OA
ATOM     18  C   UNL A   1      32.913  24.027  23.972  1.00  0.00     0.027 C 
ATOM     19  C   UNL A   1      30.661  23.636  24.983  1.00  0.00     0.316 C 
BRANCH  10  20
ATOM     20  O   UNL A   1      31.209  29.246  22.838  1.00  0.00    -0.492 OA
BRANCH  20  21
ATOM     21  C   UNL A   1      30.041  29.676  23.578  1.00  0.00     0.233 C 
BRANCH  21  22
ATOM     22  C   UNL A   1      29.065  30.534  22.731  1.00  0.00     0.026 C 
BRANCH  22  23
ATOM     23  C   UNL A   1      27.956  29.655  22.110  1.00  0.00     0.003 C 
ATOM     24  C   UNL A   1      27.283  28.736  23.119  1.00  0.00     0.004 C 
ENDBRANCH  22  23
BRANCH  22  25
ATOM     25  C   UNL A   1      28.497  31.748  23.499  1.00  0.00     0.003 C 
ATOM     26  C   UNL A   1      29.015  33.110  23.071  1.00  0.00     0.004 C 
ENDBRANCH  22  25
ENDBRANCH  21  22
ENDBRANCH  20  21
ENDBRANCH  10  20
BRANCH  19  27
ATOM     27  C   UNL A   1      30.509  23.869  26.493  1.00  0.00     0.430 C 
ATOM     28  F   UNL A   1      29.590  24.824  26.763  1.00  0.00    -0.167 F 
ATOM     29  F   UNL A   1      30.099  22.741  27.125  1.00  0.00    -0.167 F 
ATOM     30  F   UNL A   1      31.674  24.247  27.068  1.00  0.00    -0.167 F 
ENDBRANCH  19  27
ENDBRANCH   7   9
ENDBRANCH   6   7
ENDBRANCH   5   6
ENDBRANCH   4   5
ENDBRANCH   3   4
ENDBRANCH   2   3
ENDBRANCH   1   2
BRANCH   1  31
ATOM     31  O   UNL A   1      35.865  20.612  24.739  1.00  0.00    -0.377 OA
BRANCH  31  32
ATOM     32  C   UNL A   1      36.940  21.530  24.534  1.00  0.00     0.188 C 
BRANCH  32  33
ATOM     33  C   UNL A   1      37.632  22.291  25.690  1.00  0.00     0.188 C 
BRANCH  33  34
ATOM     34  O   UNL A   1      38.816  21.674  26.179  1.00  0.00    -0.376 OA
BRANCH  34  35
ATOM     35  C   UNL A   1      39.399  20.677  25.354  1.00  0.00     0.202 C 
BRANCH  35  36
ATOM     36  C   UNL A   1      40.005  19.509  26.137  1.00  0.00     0.261 C 
BRANCH  36  37
ATOM     37  O   UNL A   1      41.215  18.967  25.585  1.00  0.00    -0.460 OA
BRANCH  37  38
ATOM     38  C   UNL A   1      42.341  19.039  26.327  1.00  0.00     0.338 C 
ATOM     39  O   UNL A   1      43.106  18.133  26.607  1.00  0.00    -0.246 OA
BRANCH  38  40
ATOM     40  C   UNL A   1      42.594  20.473  26.574  1.00  0.00     0.060 A 
ATOM     41  C   UNL A   1      42.399  21.005  27.850  1.00  0.00     0.016 A 
ATOM     42  C   UNL A   1      42.953  21.304  25.504  1.00  0.00     0.016 A 
ATOM     43  C   UNL A   1      42.575  22.372  28.062  1.00  0.00     0.010 A 
ATOM     44  C   UNL A   1      43.118  22.674  25.715  1.00  0.00     0.010 A 
ATOM     45  C   UNL A   1      42.946  23.214  26.999  1.00  0.00    -0.014 A 
BRANCH  45  46
ATOM     46  C   UNL A   1      43.332  24.615  27.284  1.00  0.00     0.031 A 
ATOM     47  C   UNL A   1      42.326  25.671  27.623  1.00  0.00     0.074 A 
ATOM     48  C   UNL A   1      44.643  24.916  27.243  1.00  0.00     0.049 A 
ATOM     49  N   UNL A   1      42.539  26.909  27.991  1.00  0.00    -0.248 NA
ATOM     50  C   UNL A   1      40.907  25.299  27.543  1.00  0.00     0.031 C 
ATOM     51  C   UNL A   1      45.707  23.963  26.920  1.00  0.00     0.029 A 
ATOM     52  N   UNL A   1      45.306  26.092  27.484  1.00  0.00    -0.354 N 
ATOM     53  C   UNL A   1      41.285  27.462  28.209  1.00  0.00     0.074 A 
ATOM     54  C   UNL A   1      40.313  26.435  27.891  1.00  0.00     0.031 C 
ATOM     55  C   UNL A   1      46.891  24.586  27.006  1.00  0.00     0.029 A 
ATOM     56  C   UNL A   1      46.669  25.985  27.363  1.00  0.00     0.049 A 
ATOM     57  H   UNL A   1      44.849  26.931  27.722  1.00  0.00     0.167 HD
ATOM     58  C   UNL A   1      40.983  28.709  28.647  1.00  0.00     0.031 A 
ATOM     59  C   UNL A   1      47.640  26.903  27.524  1.00  0.00     0.031 A 
ATOM     60  C   UNL A   1      41.961  29.729  28.934  1.00  0.00     0.049 A 
ATOM     61  C   UNL A   1      47.272  28.294  27.953  1.00  0.00     0.074 A 
ATOM     62  C   UNL A   1      41.745  31.007  29.422  1.00  0.00     0.029 A 
ATOM     63  N   UNL A   1      43.329  29.600  28.748  1.00  0.00    -0.354 N 
ATOM     64  N   UNL A   1      46.087  28.779  28.230  1.00  0.00    -0.248 NA
ATOM     65  C   UNL A   1      48.370  29.256  28.109  1.00  0.00     0.031 C 
ATOM     66  C   UNL A   1      42.971  31.675  29.460  1.00  0.00     0.029 A 
ATOM     67  C   UNL A   1      43.963  30.788  29.073  1.00  0.00     0.049 A 
ATOM     68  H   UNL A   1      43.781  28.785  28.432  1.00  0.00     0.167 HD
ATOM     69  C   UNL A   1      46.297  30.095  28.620  1.00  0.00     0.074 A 
ATOM     70  C   UNL A   1      47.726  30.329  28.553  1.00  0.00     0.031 C 
ATOM     71  C   UNL A   1      45.384  31.020  29.002  1.00  0.00     0.031 A 
BRANCH  58  72
ATOM     72  C   UNL A   1      39.536  29.063  28.858  1.00  0.00    -0.014 A 
ATOM     73  C   UNL A   1      38.924  28.803  30.096  1.00  0.00     0.009 A 
ATOM     74  C   UNL A   1      38.743  29.518  27.794  1.00  0.00     0.009 A 
ATOM     75  C   UNL A   1      37.547  28.972  30.258  1.00  0.00     0.001 A 
ATOM     76  C   UNL A   1      37.370  29.713  27.967  1.00  0.00     0.001 A 
ATOM     77  C   UNL A   1      36.772  29.428  29.193  1.00  0.00     0.000 A 
ENDBRANCH  58  72
BRANCH  59  78
ATOM     78  C   UNL A   1      49.054  26.500  27.316  1.00  0.00    -0.014 A 
ATOM     79  C   UNL A   1      49.518  26.166  26.032  1.00  0.00     0.009 A 
ATOM     80  C   UNL A   1      49.925  26.370  28.407  1.00  0.00     0.009 A 
ATOM     81  C   UNL A   1      50.815  25.683  25.850  1.00  0.00     0.001 A 
ATOM     82  C   UNL A   1      51.232  25.914  28.217  1.00  0.00     0.001 A 
ATOM     83  C   UNL A   1      51.671  25.561  26.942  1.00  0.00     0.000 A 
ENDBRANCH  59  78
BRANCH  71  84
ATOM     84  C   UNL A   1      45.880  32.384  29.398  1.00  0.00    -0.014 A 
ATOM     85  C   UNL A   1      46.040  33.377  28.418  1.00  0.00     0.009 A 
ATOM     86  C   UNL A   1      46.304  32.650  30.709  1.00  0.00     0.009 A 
ATOM     87  C   UNL A   1      46.635  34.599  28.734  1.00  0.00     0.001 A 
ATOM     88  C   UNL A   1      46.872  33.886  31.030  1.00  0.00     0.001 A 
ATOM     89  C   UNL A   1      47.048  34.853  30.041  1.00  0.00     0.000 A 
ENDBRANCH  71  84
ENDBRANCH  45  46
ENDBRANCH  38  40
ENDBRANCH  37  38
ENDBRANCH  36  37
ENDBRANCH  35  36
ENDBRANCH  34  35
ENDBRANCH  33  34
ENDBRANCH  32  33
ENDBRANCH  31  32
ENDBRANCH   1  31
TORSDOF 26
ENDMDL
MODEL 2
REMARK VINA RESULT:      -9.3      1.895      5.984
REMARK SMILES CCC(CC)COc1cc2c(cc1Cl)C=C(C(=O)OCCOCCOCCOCCOC(=O)c1ccc(-c3c4nc(c(-c5ccccc5)c5ccc([nH]5)c(-c5ccccc5)c5nc(c(-c6ccccc6)c6ccc3[nH]6)C=C5)C=C4)cc1)[C@@H](C(F)(F)F)O2
REMARK SMILES IDX 24 1 23 2 22 3 21 4 20 5 19 6 17 7 18 8 16 9 8 10 9 11 13 12
REMARK SMILES IDX 10 13 12 14 14 15 11 16 87 17 15 18 82 19 7 20 6 21 3 22
REMARK SMILES IDX 2 23 1 24 4 25 5 26 83 27 84 28 85 29 86 30 25 31 26 32
REMARK SMILES IDX 27 33 28 34 29 35 30 36 31 37 32 38 33 39 34 40 35 41 81 42
REMARK SMILES IDX 36 43 80 44 37 45 38 46 39 47 74 48 40 49 79 50 73 51 75 52
REMARK SMILES IDX 41 53 78 54 72 55 71 56 42 58 64 59 49 60 63 61 50 62 53 63
REMARK SMILES IDX 62 64 76 65 51 66 52 67 61 69 77 70 54 71 43 72 44 73 48 74
REMARK SMILES IDX 45 75 47 76 46 77 65 78 66 79 70 80 67 81 69 82 68 83 55 84
REMARK SMILES IDX 56 85 60 86 57 87 59 88 58 89
REMARK H PARENT 75 57 53 68
REMARK Flexibility Score: inf
ROOT
ATOM      1  C   UNL A   1      35.685  18.348  24.609  1.00  0.00     0.188 C 
ENDROOT
BRANCH   1   2
ATOM      2  C   UNL A   1      34.350  17.585  24.582  1.00  0.00     0.188 C 
BRANCH   2   3
ATOM      3  O   UNL A   1      33.828  17.392  23.269  1.00  0.00    -0.376 OA
BRANCH   3   4
ATOM      4  C   UNL A   1      32.587  18.020  22.974  1.00  0.00     0.202 C 
BRANCH   4   5
ATOM      5  C   UNL A   1      32.191  19.179  23.903  1.00  0.00     0.261 C 
BRANCH   5   6
ATOM      6  O   UNL A   1      32.876  20.415  23.637  1.00  0.00    -0.460 OA
BRANCH   6   7
ATOM      7  C   UNL A   1      32.211  21.289  22.859  1.00  0.00     0.338 C 
ATOM      8  O   UNL A   1      31.627  21.024  21.820  1.00  0.00    -0.246 OA
BRANCH   7   9
ATOM      9  C   UNL A   1      32.156  22.605  23.520  1.00  0.00     0.087 C 
ATOM     10  C   UNL A   1      30.799  27.240  24.794  1.00  0.00     0.141 A 
ATOM     11  C   UNL A   1      31.884  26.437  25.174  1.00  0.00     0.095 A 
ATOM     12  C   UNL A   1      29.855  26.741  23.887  1.00  0.00     0.083 A 
ATOM     13  C   UNL A   1      31.972  25.122  24.697  1.00  0.00     0.131 A 
ATOM     14  C   UNL A   1      29.866  25.395  23.542  1.00  0.00     0.036 A 
ATOM     15  Cl  UNL A   1      28.692  27.739  23.094  1.00  0.00    -0.080 Cl
ATOM     16  C   UNL A   1      30.923  24.587  23.945  1.00  0.00     0.019 A 
ATOM     17  O   UNL A   1      33.100  24.396  24.984  1.00  0.00    -0.475 OA
ATOM     18  C   UNL A   1      30.967  23.214  23.490  1.00  0.00     0.027 C 
ATOM     19  C   UNL A   1      33.382  23.236  24.129  1.00  0.00     0.316 C 
BRANCH  10  20
ATOM     20  O   UNL A   1      30.732  28.543  25.216  1.00  0.00    -0.492 OA
BRANCH  20  21
ATOM     21  C   UNL A   1      32.020  29.178  25.399  1.00  0.00     0.233 C 
BRANCH  21  22
ATOM     22  C   UNL A   1      32.267  29.647  26.857  1.00  0.00     0.026 C 
BRANCH  22  23
ATOM     23  C   UNL A   1      33.293  28.731  27.564  1.00  0.00     0.003 C 
ATOM     24  C   UNL A   1      34.728  28.993  27.132  1.00  0.00     0.004 C 
ENDBRANCH  22  23
BRANCH  22  25
ATOM     25  C   UNL A   1      32.640  31.143  26.961  1.00  0.00     0.003 C 
ATOM     26  C   UNL A   1      31.485  32.125  26.869  1.00  0.00     0.004 C 
ENDBRANCH  22  25
ENDBRANCH  21  22
ENDBRANCH  20  21
ENDBRANCH  10  20
BRANCH  19  27
ATOM     27  C   UNL A   1      34.403  23.590  23.038  1.00  0.00     0.430 C 
ATOM     28  F   UNL A   1      35.319  22.608  22.870  1.00  0.00    -0.167 F 
ATOM     29  F   UNL A   1      33.798  23.769  21.837  1.00  0.00    -0.167 F 
ATOM     30  F   UNL A   1      35.073  24.730  23.320  1.00  0.00    -0.167 F 
ENDBRANCH  19  27
ENDBRANCH   7   9
ENDBRANCH   6   7
ENDBRANCH   5   6
ENDBRANCH   4   5
ENDBRANCH   3   4
ENDBRANCH   2   3
ENDBRANCH   1   2
BRANCH   1  31
ATOM     31  O   UNL A   1      35.588  19.725  24.930  1.00  0.00    -0.377 OA
BRANCH  31  32
ATOM     32  C   UNL A   1      36.738  20.554  24.759  1.00  0.00     0.188 C 
BRANCH  32  33
ATOM     33  C   UNL A   1      37.039  21.776  25.660  1.00  0.00     0.188 C 
BRANCH  33  34
ATOM     34  O   UNL A   1      38.353  21.803  26.201  1.00  0.00    -0.376 OA
BRANCH  34  35
ATOM     35  C   UNL A   1      39.344  21.068  25.499  1.00  0.00     0.202 C 
BRANCH  35  36
ATOM     36  C   UNL A   1      39.921  19.896  26.297  1.00  0.00     0.261 C 
BRANCH  36  37
ATOM     37  O   UNL A   1      40.927  19.130  25.615  1.00  0.00    -0.460 OA
BRANCH  37  38
ATOM     38  C   UNL A   1      42.163  19.076  26.159  1.00  0.00     0.338 C 
ATOM     39  O   UNL A   1      42.910  18.115  26.210  1.00  0.00    -0.246 OA
BRANCH  38  40
ATOM     40  C   UNL A   1      42.534  20.463  26.504  1.00  0.00     0.060 A 
ATOM     41  C   UNL A   1      42.383  20.918  27.816  1.00  0.00     0.016 A 
ATOM     42  C   UNL A   1      42.962  21.334  25.494  1.00  0.00     0.016 A 
ATOM     43  C   UNL A   1      42.672  22.247  28.123  1.00  0.00     0.010 A 
ATOM     44  C   UNL A   1      43.240  22.668  25.800  1.00  0.00     0.010 A 
ATOM     45  C   UNL A   1      43.112  23.128  27.120  1.00  0.00    -0.014 A 
BRANCH  45  46
ATOM     46  C   UNL A   1      43.614  24.468  27.501  1.00  0.00     0.031 A 
ATOM     47  C   UNL A   1      45.064  24.833  27.424  1.00  0.00     0.074 A 
ATOM     48  C   UNL A   1      42.708  25.374  27.914  1.00  0.00     0.049 A 
ATOM     49  N   UNL A   1      45.622  25.998  27.632  1.00  0.00    -0.248 NA
ATOM     50  C   UNL A   1      46.009  23.764  27.070  1.00  0.00     0.031 C 
ATOM     51  C   UNL A   1      41.270  25.122  28.029  1.00  0.00     0.029 A 
ATOM     52  N   UNL A   1      42.852  26.683  28.298  1.00  0.00    -0.354 N 
ATOM     53  C   UNL A   1      46.980  25.815  27.413  1.00  0.00     0.074 A 
ATOM     54  C   UNL A   1      47.168  24.413  27.097  1.00  0.00     0.031 C 
ATOM     55  C   UNL A   1      40.662  26.246  28.432  1.00  0.00     0.029 A 
ATOM     56  C   UNL A   1      41.666  27.288  28.630  1.00  0.00     0.049 A 
ATOM     57  H   UNL A   1      43.722  27.143  28.331  1.00  0.00     0.167 HD
ATOM     58  C   UNL A   1      47.970  26.740  27.461  1.00  0.00     0.031 A 
ATOM     59  C   UNL A   1      41.405  28.543  29.042  1.00  0.00     0.031 A 
ATOM     60  C   UNL A   1      47.771  28.127  27.802  1.00  0.00     0.049 A 
ATOM     61  C   UNL A   1      42.531  29.531  29.142  1.00  0.00     0.074 A 
ATOM     62  C   UNL A   1      48.712  29.143  27.835  1.00  0.00     0.029 A 
ATOM     63  N   UNL A   1      46.563  28.691  28.184  1.00  0.00    -0.354 N 
ATOM     64  N   UNL A   1      43.798  29.362  28.857  1.00  0.00    -0.248 NA
ATOM     65  C   UNL A   1      42.190  30.884  29.602  1.00  0.00     0.031 C 
ATOM     66  C   UNL A   1      48.090  30.300  28.308  1.00  0.00     0.029 A 
ATOM     67  C   UNL A   1      46.744  30.029  28.492  1.00  0.00     0.049 A 
ATOM     68  H   UNL A   1      45.705  28.211  28.229  1.00  0.00     0.167 HD
ATOM     69  C   UNL A   1      44.404  30.592  29.076  1.00  0.00     0.074 A 
ATOM     70  C   UNL A   1      43.362  31.502  29.509  1.00  0.00     0.031 C 
ATOM     71  C   UNL A   1      45.707  30.932  28.926  1.00  0.00     0.031 A 
BRANCH  58  72
ATOM     72  C   UNL A   1      49.372  26.306  27.132  1.00  0.00    -0.014 A 
ATOM     73  C   UNL A   1      50.299  26.090  28.165  1.00  0.00     0.009 A 
ATOM     74  C   UNL A   1      49.815  26.248  25.802  1.00  0.00     0.009 A 
ATOM     75  C   UNL A   1      51.644  25.848  27.874  1.00  0.00     0.001 A 
ATOM     76  C   UNL A   1      51.155  25.977  25.513  1.00  0.00     0.001 A 
ATOM     77  C   UNL A   1      52.070  25.790  26.548  1.00  0.00     0.000 A 
ENDBRANCH  58  72
BRANCH  59  78
ATOM     78  C   UNL A   1      40.002  28.924  29.342  1.00  0.00    -0.014 A 
ATOM     79  C   UNL A   1      39.454  28.680  30.613  1.00  0.00     0.009 A 
ATOM     80  C   UNL A   1      39.180  29.461  28.341  1.00  0.00     0.009 A 
ATOM     81  C   UNL A   1      38.106  28.938  30.865  1.00  0.00     0.001 A 
ATOM     82  C   UNL A   1      37.838  29.746  28.606  1.00  0.00     0.001 A 
ATOM     83  C   UNL A   1      37.300  29.474  29.862  1.00  0.00     0.000 A 
ENDBRANCH  59  78
BRANCH  71  84
ATOM     84  C   UNL A   1      46.106  32.353  29.214  1.00  0.00    -0.014 A 
ATOM     85  C   UNL A   1      46.116  33.297  28.174  1.00  0.00     0.009 A 
ATOM     86  C   UNL A   1      46.587  32.731  30.477  1.00  0.00     0.009 A 
ATOM     87  C   UNL A   1      46.621  34.580  28.384  1.00  0.00     0.001 A 
ATOM     88  C   UNL A   1      47.063  34.026  30.693  1.00  0.00     0.001 A 
ATOM     89  C   UNL A   1      47.092  34.945  29.644  1.00  0.00     0.000 A 
ENDBRANCH  71  84
ENDBRANCH  45  46
ENDBRANCH  38  40
ENDBRANCH  37  38
ENDBRANCH  36  37
ENDBRANCH  35  36
ENDBRANCH  34  35
ENDBRANCH  33  34
ENDBRANCH  32  33
ENDBRANCH  31  32
ENDBRANCH   1  31
TORSDOF 26
ENDMDL
MODEL 3
REMARK VINA RESULT:      -8.2      6.439     11.392
REMARK SMILES CCC(CC)COc1cc2c(cc1Cl)C=C(C(=O)OCCOCCOCCOCCOC(=O)c1ccc(-c3c4nc(c(-c5ccccc5)c5ccc([nH]5)c(-c5ccccc5)c5nc(c(-c6ccccc6)c6ccc3[nH]6)C=C5)C=C4)cc1)[C@@H](C(F)(F)F)O2
REMARK SMILES IDX 24 1 23 2 22 3 21 4 20 5 19 6 17 7 18 8 16 9 8 10 9 11 13 12
REMARK SMILES IDX 10 13 12 14 14 15 11 16 87 17 15 18 82 19 7 20 6 21 3 22
REMARK SMILES IDX 2 23 1 24 4 25 5 26 83 27 84 28 85 29 86 30 25 31 26 32
REMARK SMILES IDX 27 33 28 34 29 35 30 36 31 37 32 38 33 39 34 40 35 41 81 42
REMARK SMILES IDX 36 43 80 44 37 45 38 46 39 47 74 48 40 49 79 50 73 51 75 52
REMARK SMILES IDX 41 53 78 54 72 55 71 56 42 58 64 59 49 60 63 61 50 62 53 63
REMARK SMILES IDX 62 64 76 65 51 66 52 67 61 69 77 70 54 71 43 72 44 73 48 74
REMARK SMILES IDX 45 75 47 76 46 77 65 78 66 79 70 80 67 81 69 82 68 83 55 84
REMARK SMILES IDX 56 85 60 86 57 87 59 88 58 89
REMARK H PARENT 75 57 53 68
REMARK Flexibility Score: inf
ROOT
ATOM      1  C   UNL A   1      33.458  36.576  33.131  1.00  0.00     0.188 C 
ENDROOT
BRANCH   1   2
ATOM      2  C   UNL A   1      33.484  37.450  31.866  1.00  0.00     0.188 C 
BRANCH   2   3
ATOM      3  O   UNL A   1      32.729  36.912  30.784  1.00  0.00    -0.376 OA
BRANCH   3   4
ATOM      4  C   UNL A   1      33.433  36.108  29.846  1.00  0.00     0.202 C 
BRANCH   4   5
ATOM      5  C   UNL A   1      33.273  34.590  30.022  1.00  0.00     0.261 C 
BRANCH   5   6
ATOM      6  O   UNL A   1      34.389  33.815  29.551  1.00  0.00    -0.460 OA
BRANCH   6   7
ATOM      7  C   UNL A   1      35.540  33.989  30.226  1.00  0.00     0.338 C 
ATOM      8  O   UNL A   1      35.760  34.854  31.059  1.00  0.00    -0.246 OA
BRANCH   7   9
ATOM      9  C   UNL A   1      36.466  32.881  29.928  1.00  0.00     0.087 C 
ATOM     10  C   UNL A   1      39.025  28.602  30.229  1.00  0.00     0.141 A 
ATOM     11  C   UNL A   1      39.104  29.688  29.345  1.00  0.00     0.095 A 
ATOM     12  C   UNL A   1      38.079  28.620  31.262  1.00  0.00     0.083 A 
ATOM     13  C   UNL A   1      38.191  30.744  29.464  1.00  0.00     0.131 A 
ATOM     14  C   UNL A   1      37.084  29.591  31.278  1.00  0.00     0.036 A 
ATOM     15  Cl  UNL A   1      38.117  27.523  32.593  1.00  0.00    -0.080 Cl
ATOM     16  C   UNL A   1      37.141  30.653  30.382  1.00  0.00     0.019 A 
ATOM     17  O   UNL A   1      38.361  31.849  28.669  1.00  0.00    -0.475 OA
ATOM     18  C   UNL A   1      36.154  31.706  30.481  1.00  0.00     0.027 C 
ATOM     19  C   UNL A   1      37.712  33.092  29.105  1.00  0.00     0.316 C 
BRANCH  10  20
ATOM     20  O   UNL A   1      39.945  27.588  30.151  1.00  0.00    -0.492 OA
BRANCH  20  21
ATOM     21  C   UNL A   1      40.918  27.747  29.090  1.00  0.00     0.233 C 
BRANCH  21  22
ATOM     22  C   UNL A   1      40.862  26.611  28.036  1.00  0.00     0.026 C 
BRANCH  22  23
ATOM     23  C   UNL A   1      39.717  25.620  28.355  1.00  0.00     0.003 C 
ATOM     24  C   UNL A   1      39.234  24.850  27.135  1.00  0.00     0.004 C 
ENDBRANCH  22  23
BRANCH  22  25
ATOM     25  C   UNL A   1      40.806  27.130  26.583  1.00  0.00     0.003 C 
ATOM     26  C   UNL A   1      41.007  28.625  26.401  1.00  0.00     0.004 C 
ENDBRANCH  22  25
ENDBRANCH  21  22
ENDBRANCH  20  21
ENDBRANCH  10  20
BRANCH  19  27
ATOM     27  C   UNL A   1      38.701  34.001  29.849  1.00  0.00     0.430 C 
ATOM     28  F   UNL A   1      39.984  33.706  29.538  1.00  0.00    -0.167 F 
ATOM     29  F   UNL A   1      38.510  35.304  29.524  1.00  0.00    -0.167 F 
ATOM     30  F   UNL A   1      38.571  33.901  31.191  1.00  0.00    -0.167 F 
ENDBRANCH  19  27
ENDBRANCH   7   9
ENDBRANCH   6   7
ENDBRANCH   5   6
ENDBRANCH   4   5
ENDBRANCH   3   4
ENDBRANCH   2   3
ENDBRANCH   1   2
BRANCH   1  31
ATOM     31  O   UNL A   1      34.724  36.136  33.590  1.00  0.00    -0.377 OA
BRANCH  31  32
ATOM     32  C   UNL A   1      34.799  34.936  34.360  1.00  0.00     0.188 C 
BRANCH  32  33
ATOM     33  C   UNL A   1      35.472  33.641  33.843  1.00  0.00     0.188 C 
BRANCH  33  34
ATOM     34  O   UNL A   1      36.684  33.301  34.503  1.00  0.00    -0.376 OA
BRANCH  34  35
ATOM     35  C   UNL A   1      36.615  33.140  35.912  1.00  0.00     0.202 C 
BRANCH  35  36
ATOM     36  C   UNL A   1      37.671  33.947  36.674  1.00  0.00     0.261 C 
BRANCH  36  37
ATOM     37  O   UNL A   1      39.006  33.423  36.607  1.00  0.00    -0.460 OA
BRANCH  37  38
ATOM     38  C   UNL A   1      39.174  32.090  36.751  1.00  0.00     0.338 C 
ATOM     39  O   UNL A   1      38.585  31.345  37.513  1.00  0.00    -0.246 OA
BRANCH  38  40
ATOM     40  C   UNL A   1      40.071  31.656  35.660  1.00  0.00     0.060 A 
ATOM     41  C   UNL A   1      41.453  31.808  35.792  1.00  0.00     0.016 A 
ATOM     42  C   UNL A   1      39.519  31.166  34.468  1.00  0.00     0.016 A 
ATOM     43  C   UNL A   1      42.289  31.459  34.733  1.00  0.00     0.010 A 
ATOM     44  C   UNL A   1      40.358  30.827  33.404  1.00  0.00     0.010 A 
ATOM     45  C   UNL A   1      41.750  30.957  33.536  1.00  0.00    -0.014 A 
BRANCH  45  46
ATOM     46  C   UNL A   1      42.657  30.396  32.509  1.00  0.00     0.031 A 
ATOM     47  C   UNL A   1      43.122  31.191  31.330  1.00  0.00     0.074 A 
ATOM     48  C   UNL A   1      43.073  29.127  32.678  1.00  0.00     0.049 A 
ATOM     49  N   UNL A   1      43.994  30.854  30.414  1.00  0.00    -0.248 NA
ATOM     50  C   UNL A   1      42.543  32.531  31.151  1.00  0.00     0.031 C 
ATOM     51  C   UNL A   1      42.679  28.261  33.791  1.00  0.00     0.029 A 
ATOM     52  N   UNL A   1      43.923  28.350  31.933  1.00  0.00    -0.354 N 
ATOM     53  C   UNL A   1      44.089  31.943  29.559  1.00  0.00     0.074 A 
ATOM     54  C   UNL A   1      43.153  32.939  30.043  1.00  0.00     0.031 C 
ATOM     55  C   UNL A   1      43.302  27.082  33.668  1.00  0.00     0.029 A 
ATOM     56  C   UNL A   1      44.119  27.097  32.457  1.00  0.00     0.049 A 
ATOM     57  H   UNL A   1      44.352  28.662  31.102  1.00  0.00     0.167 HD
ATOM     58  C   UNL A   1      44.896  32.096  28.481  1.00  0.00     0.031 A 
ATOM     59  C   UNL A   1      44.874  26.071  32.022  1.00  0.00     0.031 A 
ATOM     60  C   UNL A   1      45.804  31.086  27.995  1.00  0.00     0.049 A 
ATOM     61  C   UNL A   1      45.713  26.248  30.790  1.00  0.00     0.074 A 
ATOM     62  C   UNL A   1      46.690  31.171  26.933  1.00  0.00     0.029 A 
ATOM     63  N   UNL A   1      45.935  29.810  28.521  1.00  0.00    -0.354 N 
ATOM     64  N   UNL A   1      45.851  27.311  30.037  1.00  0.00    -0.248 NA
ATOM     65  C   UNL A   1      46.513  25.094  30.357  1.00  0.00     0.031 C 
ATOM     66  C   UNL A   1      47.299  29.926  26.771  1.00  0.00     0.029 A 
ATOM     67  C   UNL A   1      46.857  29.087  27.781  1.00  0.00     0.049 A 
ATOM     68  H   UNL A   1      45.447  29.469  29.304  1.00  0.00     0.167 HD
ATOM     69  C   UNL A   1      46.772  26.966  29.057  1.00  0.00     0.074 A 
ATOM     70  C   UNL A   1      47.168  25.597  29.318  1.00  0.00     0.031 C 
ATOM     71  C   UNL A   1      47.247  27.724  28.039  1.00  0.00     0.031 A 
BRANCH  58  72
ATOM     72  C   UNL A   1      44.856  33.402  27.735  1.00  0.00    -0.014 A 
ATOM     73  C   UNL A   1      44.133  33.502  26.534  1.00  0.00     0.009 A 
ATOM     74  C   UNL A   1      45.645  34.489  28.141  1.00  0.00     0.009 A 
ATOM     75  C   UNL A   1      44.217  34.652  25.747  1.00  0.00     0.001 A 
ATOM     76  C   UNL A   1      45.706  35.649  27.366  1.00  0.00     0.001 A 
ATOM     77  C   UNL A   1      45.003  35.725  26.165  1.00  0.00     0.000 A 
ENDBRANCH  58  72
BRANCH  59  78
ATOM     78  C   UNL A   1      44.888  24.807  32.801  1.00  0.00    -0.014 A 
ATOM     79  C   UNL A   1      45.812  24.623  33.844  1.00  0.00     0.009 A 
ATOM     80  C   UNL A   1      44.033  23.749  32.457  1.00  0.00     0.009 A 
ATOM     81  C   UNL A   1      45.899  23.398  34.506  1.00  0.00     0.001 A 
ATOM     82  C   UNL A   1      44.104  22.534  33.142  1.00  0.00     0.001 A 
ATOM     83  C   UNL A   1      45.043  22.355  34.156  1.00  0.00     0.000 A 
ENDBRANCH  59  78
BRANCH  71  84
ATOM     84  C   UNL A   1      48.265  27.112  27.117  1.00  0.00    -0.014 A 
ATOM     85  C   UNL A   1      49.628  27.401  27.295  1.00  0.00     0.009 A 
ATOM     86  C   UNL A   1      47.874  26.353  26.003  1.00  0.00     0.009 A 
ATOM     87  C   UNL A   1      50.575  26.966  26.368  1.00  0.00     0.001 A 
ATOM     88  C   UNL A   1      48.827  25.892  25.093  1.00  0.00     0.001 A 
ATOM     89  C   UNL A   1      50.174  26.209  25.268  1.00  0.00     0.000 A 
ENDBRANCH  71  84
ENDBRANCH  45  46
ENDBRANCH  38  40
ENDBRANCH  37  38
ENDBRANCH  36  37
ENDBRANCH  35  36
ENDBRANCH  34  35
ENDBRANCH  33  34
ENDBRANCH  32  33
ENDBRANCH  31  32
ENDBRANCH   1  31
TORSDOF 26
ENDMDL
