MODEL 1
REMARK VINA RESULT:     -10.4      0.000      0.000
REMARK SMILES O=C(NC1(C(=O)OCCOCCOCCOCCOC(=O)c2ccc(-c3c4nc(c(-c5ccccc5)c5ccc([nH]5)c(-c5ccccc5)c5nc(c(-c6ccccc6)c6ccc3[nH]6)C=C5)C=C4)cc2)CC[NH2+]CC1)OCC1c2ccccc2-c2ccccc21
REMARK SMILES IDX 12 1 11 2 10 3 9 4 8 5 7 6 5 7 6 8 4 9 70 10 74 11 71 12
REMARK SMILES IDX 73 13 72 14 3 17 1 18 2 19 75 21 76 22 77 23 78 24 89 25
REMARK SMILES IDX 79 26 83 27 84 28 88 29 80 30 82 31 85 32 87 33 81 34 86 35
REMARK SMILES IDX 13 36 14 37 15 38 16 39 17 40 18 41 19 42 20 43 21 44 22 45
REMARK SMILES IDX 23 46 69 47 24 48 68 49 25 50 26 51 27 52 62 53 28 54 67 55
REMARK SMILES IDX 61 56 63 57 29 58 66 59 60 60 59 61 30 63 52 64 37 65 51 66
REMARK SMILES IDX 38 67 41 68 50 69 64 70 39 71 40 72 49 74 65 75 42 76 31 77
REMARK SMILES IDX 32 78 36 79 33 80 35 81 34 82 53 83 54 84 58 85 55 86 57 87
REMARK SMILES IDX 56 88 43 89 44 90 48 91 45 92 47 93 46 94
REMARK H PARENT 72 15 72 16 3 20 63 62 41 73
REMARK Flexibility Score: inf
ROOT
ATOM      1  C   UNL A   1      35.011  31.363  27.648  1.00  0.00     0.188 C 
ENDROOT
BRANCH   1   2
ATOM      2  C   UNL A   1      34.207  30.207  27.039  1.00  0.00     0.188 C 
BRANCH   2   3
ATOM      3  O   UNL A   1      32.826  30.425  26.811  1.00  0.00    -0.376 OA
BRANCH   3   4
ATOM      4  C   UNL A   1      31.900  29.343  26.733  1.00  0.00     0.202 C 
BRANCH   4   5
ATOM      5  C   UNL A   1      31.787  28.223  27.764  1.00  0.00     0.261 C 
BRANCH   5   6
ATOM      6  O   UNL A   1      31.208  27.095  27.165  1.00  0.00    -0.461 OA
BRANCH   6   7
ATOM      7  C   UNL A   1      31.968  26.386  26.300  1.00  0.00     0.332 C 
ATOM      8  O   UNL A   1      33.187  26.409  26.222  1.00  0.00    -0.249 OA
BRANCH   7   9
ATOM      9  C   UNL A   1      30.985  25.627  25.395  1.00  0.00     0.151 C 
ATOM     10  C   UNL A   1      30.002  26.769  24.945  1.00  0.00     0.102 C 
ATOM     11  C   UNL A   1      31.724  24.922  24.250  1.00  0.00     0.102 C 
ATOM     12  C   UNL A   1      29.551  26.781  23.501  1.00  0.00     0.263 C 
ATOM     13  C   UNL A   1      31.036  25.040  22.896  1.00  0.00     0.263 C 
ATOM     14  N   UNL A   1      30.653  26.421  22.629  1.00  0.00    -0.346 N 
ATOM     15  H   UNL A   1      31.446  27.037  22.808  1.00  0.00     0.346 HD
ATOM     16  H   UNL A   1      30.368  26.518  21.655  1.00  0.00     0.346 HD
BRANCH   9  17
ATOM     17  N   UNL A   1      30.230  24.646  26.242  1.00  0.00    -0.305 N 
ATOM     18  O   UNL A   1      29.815  22.821  27.483  1.00  0.00    -0.225 OA
ATOM     19  C   UNL A   1      30.644  23.495  26.877  1.00  0.00     0.408 C 
ATOM     20  H   UNL A   1      29.278  24.861  26.367  1.00  0.00     0.168 HD
BRANCH  19  21
ATOM     21  O   UNL A   1      31.992  23.220  26.870  1.00  0.00    -0.449 OA
BRANCH  21  22
ATOM     22  C   UNL A   1      32.290  21.854  26.476  1.00  0.00     0.248 C 
BRANCH  22  23
ATOM     23  C   UNL A   1      33.095  21.611  25.146  1.00  0.00     0.088 C 
ATOM     24  C   UNL A   1      34.511  22.166  25.002  1.00  0.00    -0.029 A 
ATOM     25  C   UNL A   1      33.348  20.106  24.876  1.00  0.00    -0.029 A 
ATOM     26  C   UNL A   1      34.963  23.461  25.197  1.00  0.00     0.005 A 
ATOM     27  C   UNL A   1      35.429  21.128  24.692  1.00  0.00    -0.014 A 
ATOM     28  C   UNL A   1      34.722  19.870  24.641  1.00  0.00    -0.014 A 
ATOM     29  C   UNL A   1      32.460  19.042  24.980  1.00  0.00     0.005 A 
ATOM     30  C   UNL A   1      36.343  23.700  25.138  1.00  0.00     0.000 A 
ATOM     31  C   UNL A   1      36.796  21.367  24.629  1.00  0.00     0.009 A 
ATOM     32  C   UNL A   1      35.223  18.577  24.559  1.00  0.00     0.009 A 
ATOM     33  C   UNL A   1      32.971  17.740  24.919  1.00  0.00     0.000 A 
ATOM     34  C   UNL A   1      37.251  22.663  24.869  1.00  0.00     0.001 A 
ATOM     35  C   UNL A   1      34.340  17.508  24.718  1.00  0.00     0.001 A 
ENDBRANCH  22  23
ENDBRANCH  21  22
ENDBRANCH  19  21
ENDBRANCH   9  17
ENDBRANCH   7   9
ENDBRANCH   6   7
ENDBRANCH   5   6
ENDBRANCH   4   5
ENDBRANCH   3   4
ENDBRANCH   2   3
ENDBRANCH   1   2
BRANCH   1  36
ATOM     36  O   UNL A   1      34.358  31.983  28.741  1.00  0.00    -0.377 OA
BRANCH  36  37
ATOM     37  C   UNL A   1      34.027  33.357  28.591  1.00  0.00     0.188 C 
BRANCH  37  38
ATOM     38  C   UNL A   1      34.963  34.442  29.171  1.00  0.00     0.188 C 
BRANCH  38  39
ATOM     39  O   UNL A   1      35.421  34.145  30.483  1.00  0.00    -0.376 OA
BRANCH  39  40
ATOM     40  C   UNL A   1      34.468  34.234  31.526  1.00  0.00     0.202 C 
BRANCH  40  41
ATOM     41  C   UNL A   1      34.505  33.053  32.507  1.00  0.00     0.261 C 
BRANCH  41  42
ATOM     42  O   UNL A   1      35.370  31.963  32.132  1.00  0.00    -0.460 OA
BRANCH  42  43
ATOM     43  C   UNL A   1      36.501  31.784  32.851  1.00  0.00     0.338 C 
ATOM     44  O   UNL A   1      36.633  31.965  34.048  1.00  0.00    -0.246 OA
BRANCH  43  45
ATOM     45  C   UNL A   1      37.501  31.078  32.001  1.00  0.00     0.060 A 
ATOM     46  C   UNL A   1      38.548  30.392  32.636  1.00  0.00     0.016 A 
ATOM     47  C   UNL A   1      37.386  31.032  30.606  1.00  0.00     0.016 A 
ATOM     48  C   UNL A   1      39.517  29.722  31.884  1.00  0.00     0.010 A 
ATOM     49  C   UNL A   1      38.370  30.380  29.851  1.00  0.00     0.010 A 
ATOM     50  C   UNL A   1      39.470  29.772  30.484  1.00  0.00    -0.014 A 
BRANCH  50  51
ATOM     51  C   UNL A   1      40.713  29.516  29.711  1.00  0.00     0.031 A 
ATOM     52  C   UNL A   1      40.892  28.124  29.153  1.00  0.00     0.074 A 
ATOM     53  C   UNL A   1      41.643  30.458  29.467  1.00  0.00     0.049 A 
ATOM     54  N   UNL A   1      41.891  27.614  28.480  1.00  0.00    -0.248 NA
ATOM     55  C   UNL A   1      39.786  27.181  29.394  1.00  0.00     0.031 C 
ATOM     56  C   UNL A   1      41.575  31.855  29.884  1.00  0.00     0.029 A 
ATOM     57  N   UNL A   1      42.841  30.361  28.800  1.00  0.00    -0.354 N 
ATOM     58  C   UNL A   1      41.537  26.294  28.231  1.00  0.00     0.074 A 
ATOM     59  C   UNL A   1      40.247  26.071  28.843  1.00  0.00     0.031 C 
ATOM     60  C   UNL A   1      42.690  32.487  29.469  1.00  0.00     0.029 A 
ATOM     61  C   UNL A   1      43.564  31.530  28.788  1.00  0.00     0.049 A 
ATOM     62  H   UNL A   1      43.154  29.531  28.372  1.00  0.00     0.167 HD
ATOM     63  C   UNL A   1      42.217  25.342  27.552  1.00  0.00     0.031 A 
ATOM     64  C   UNL A   1      44.794  31.788  28.300  1.00  0.00     0.031 A 
ATOM     65  C   UNL A   1      43.506  25.544  26.954  1.00  0.00     0.049 A 
ATOM     66  C   UNL A   1      45.579  30.684  27.632  1.00  0.00     0.074 A 
ATOM     67  C   UNL A   1      44.274  24.642  26.240  1.00  0.00     0.029 A 
ATOM     68  N   UNL A   1      44.222  26.728  27.012  1.00  0.00    -0.354 N 
ATOM     69  N   UNL A   1      45.225  29.445  27.384  1.00  0.00    -0.248 NA
ATOM     70  C   UNL A   1      46.938  31.020  27.173  1.00  0.00     0.031 C 
ATOM     71  C   UNL A   1      45.483  25.264  25.917  1.00  0.00     0.029 A 
ATOM     72  C   UNL A   1      45.438  26.572  26.372  1.00  0.00     0.049 A 
ATOM     73  H   UNL A   1      43.911  27.557  27.444  1.00  0.00     0.167 HD
ATOM     74  C   UNL A   1      46.299  28.868  26.713  1.00  0.00     0.074 A 
ATOM     75  C   UNL A   1      47.312  29.894  26.582  1.00  0.00     0.031 C 
ATOM     76  C   UNL A   1      46.434  27.603  26.244  1.00  0.00     0.031 A 
BRANCH  63  77
ATOM     77  C   UNL A   1      41.590  23.980  27.465  1.00  0.00    -0.014 A 
ATOM     78  C   UNL A   1      41.965  22.945  28.335  1.00  0.00     0.009 A 
ATOM     79  C   UNL A   1      40.603  23.734  26.498  1.00  0.00     0.009 A 
ATOM     80  C   UNL A   1      41.387  21.680  28.216  1.00  0.00     0.001 A 
ATOM     81  C   UNL A   1      40.005  22.478  26.401  1.00  0.00     0.001 A 
ATOM     82  C   UNL A   1      40.404  21.449  27.253  1.00  0.00     0.000 A 
ENDBRANCH  63  77
BRANCH  64  83
ATOM     83  C   UNL A   1      45.396  33.143  28.441  1.00  0.00    -0.014 A 
ATOM     84  C   UNL A   1      46.120  33.492  29.591  1.00  0.00     0.009 A 
ATOM     85  C   UNL A   1      45.202  34.115  27.446  1.00  0.00     0.009 A 
ATOM     86  C   UNL A   1      46.612  34.789  29.756  1.00  0.00     0.001 A 
ATOM     87  C   UNL A   1      45.721  35.404  27.600  1.00  0.00     0.001 A 
ATOM     88  C   UNL A   1      46.415  35.743  28.759  1.00  0.00     0.000 A 
ENDBRANCH  64  83
BRANCH  76  89
ATOM     89  C   UNL A   1      47.697  27.263  25.503  1.00  0.00    -0.014 A 
ATOM     90  C   UNL A   1      47.805  27.448  24.115  1.00  0.00     0.009 A 
ATOM     91  C   UNL A   1      48.818  26.809  26.216  1.00  0.00     0.009 A 
ATOM     92  C   UNL A   1      49.000  27.153  23.456  1.00  0.00     0.001 A 
ATOM     93  C   UNL A   1      50.020  26.545  25.559  1.00  0.00     0.001 A 
ATOM     94  C   UNL A   1      50.107  26.709  24.178  1.00  0.00     0.000 A 
ENDBRANCH  76  89
ENDBRANCH  50  51
ENDBRANCH  43  45
ENDBRANCH  42  43
ENDBRANCH  41  42
ENDBRANCH  40  41
ENDBRANCH  39  40
ENDBRANCH  38  39
ENDBRANCH  37  38
ENDBRANCH  36  37
ENDBRANCH   1  36
TORSDOF 24
ENDMDL
MODEL 2
REMARK VINA RESULT:     -10.4      4.061      9.769
REMARK SMILES O=C(NC1(C(=O)OCCOCCOCCOCCOC(=O)c2ccc(-c3c4nc(c(-c5ccccc5)c5ccc([nH]5)c(-c5ccccc5)c5nc(c(-c6ccccc6)c6ccc3[nH]6)C=C5)C=C4)cc2)CC[NH2+]CC1)OCC1c2ccccc2-c2ccccc21
REMARK SMILES IDX 12 1 11 2 10 3 9 4 8 5 7 6 5 7 6 8 4 9 70 10 74 11 71 12
REMARK SMILES IDX 73 13 72 14 3 17 1 18 2 19 75 21 76 22 77 23 78 24 89 25
REMARK SMILES IDX 79 26 83 27 84 28 88 29 80 30 82 31 85 32 87 33 81 34 86 35
REMARK SMILES IDX 13 36 14 37 15 38 16 39 17 40 18 41 19 42 20 43 21 44 22 45
REMARK SMILES IDX 23 46 69 47 24 48 68 49 25 50 26 51 27 52 62 53 28 54 67 55
REMARK SMILES IDX 61 56 63 57 29 58 66 59 60 60 59 61 30 63 52 64 37 65 51 66
REMARK SMILES IDX 38 67 41 68 50 69 64 70 39 71 40 72 49 74 65 75 42 76 31 77
REMARK SMILES IDX 32 78 36 79 33 80 35 81 34 82 53 83 54 84 58 85 55 86 57 87
REMARK SMILES IDX 56 88 43 89 44 90 48 91 45 92 47 93 46 94
REMARK H PARENT 72 15 72 16 3 20 63 62 41 73
REMARK Flexibility Score: inf
ROOT
ATOM      1  C   UNL A   1      39.600  21.523  26.521  1.00  0.00     0.188 C 
ENDROOT
BRANCH   1   2
ATOM      2  C   UNL A   1      38.510  21.934  25.523  1.00  0.00     0.188 C 
BRANCH   2   3
ATOM      3  O   UNL A   1      37.991  23.248  25.633  1.00  0.00    -0.376 OA
BRANCH   3   4
ATOM      4  C   UNL A   1      36.630  23.543  25.326  1.00  0.00     0.202 C 
BRANCH   4   5
ATOM      5  C   UNL A   1      35.484  23.492  26.334  1.00  0.00     0.261 C 
BRANCH   5   6
ATOM      6  O   UNL A   1      34.487  22.626  25.862  1.00  0.00    -0.461 OA
BRANCH   6   7
ATOM      7  C   UNL A   1      33.440  22.371  26.679  1.00  0.00     0.332 C 
ATOM      8  O   UNL A   1      33.439  22.449  27.899  1.00  0.00    -0.249 OA
BRANCH   7   9
ATOM      9  C   UNL A   1      32.300  21.889  25.770  1.00  0.00     0.151 C 
ATOM     10  C   UNL A   1      32.428  22.858  24.538  1.00  0.00     0.102 C 
ATOM     11  C   UNL A   1      32.454  20.398  25.439  1.00  0.00     0.102 C 
ATOM     12  C   UNL A   1      32.253  22.266  23.157  1.00  0.00     0.263 C 
ATOM     13  C   UNL A   1      32.175  20.050  23.982  1.00  0.00     0.263 C 
ATOM     14  N   UNL A   1      32.880  20.960  23.088  1.00  0.00    -0.346 N 
ATOM     15  H   UNL A   1      33.856  21.034  23.375  1.00  0.00     0.346 HD
ATOM     16  H   UNL A   1      32.838  20.607  22.133  1.00  0.00     0.346 HD
BRANCH   9  17
ATOM     17  N   UNL A   1      30.999  22.160  26.466  1.00  0.00    -0.305 N 
ATOM     18  O   UNL A   1      29.342  23.307  27.455  1.00  0.00    -0.225 OA
ATOM     19  C   UNL A   1      30.406  23.345  26.845  1.00  0.00     0.408 C 
ATOM     20  H   UNL A   1      30.480  21.354  26.689  1.00  0.00     0.168 HD
BRANCH  19  21
ATOM     21  O   UNL A   1      31.006  24.511  26.428  1.00  0.00    -0.449 OA
BRANCH  21  22
ATOM     22  C   UNL A   1      30.055  25.491  25.929  1.00  0.00     0.248 C 
BRANCH  22  23
ATOM     23  C   UNL A   1      30.605  26.826  25.304  1.00  0.00     0.088 C 
ATOM     24  C   UNL A   1      31.684  27.620  26.038  1.00  0.00    -0.029 A 
ATOM     25  C   UNL A   1      31.297  26.596  23.937  1.00  0.00    -0.029 A 
ATOM     26  C   UNL A   1      31.695  28.070  27.347  1.00  0.00     0.005 A 
ATOM     27  C   UNL A   1      32.818  27.815  25.206  1.00  0.00    -0.014 A 
ATOM     28  C   UNL A   1      32.590  27.167  23.935  1.00  0.00    -0.014 A 
ATOM     29  C   UNL A   1      30.868  25.826  22.863  1.00  0.00     0.005 A 
ATOM     30  C   UNL A   1      32.867  28.664  27.837  1.00  0.00     0.000 A 
ATOM     31  C   UNL A   1      33.978  28.407  25.691  1.00  0.00     0.009 A 
ATOM     32  C   UNL A   1      33.476  26.934  22.890  1.00  0.00     0.009 A 
ATOM     33  C   UNL A   1      31.769  25.573  21.822  1.00  0.00     0.000 A 
ATOM     34  C   UNL A   1      34.000  28.820  27.022  1.00  0.00     0.001 A 
ATOM     35  C   UNL A   1      33.064  26.114  21.838  1.00  0.00     0.001 A 
ENDBRANCH  22  23
ENDBRANCH  21  22
ENDBRANCH  19  21
ENDBRANCH   9  17
ENDBRANCH   7   9
ENDBRANCH   6   7
ENDBRANCH   5   6
ENDBRANCH   4   5
ENDBRANCH   3   4
ENDBRANCH   2   3
ENDBRANCH   1   2
BRANCH   1  36
ATOM     36  O   UNL A   1      40.853  21.274  25.910  1.00  0.00    -0.377 OA
BRANCH  36  37
ATOM     37  C   UNL A   1      41.446  20.007  26.163  1.00  0.00     0.188 C 
BRANCH  37  38
ATOM     38  C   UNL A   1      42.972  19.824  25.991  1.00  0.00     0.188 C 
BRANCH  38  39
ATOM     39  O   UNL A   1      43.712  21.006  26.263  1.00  0.00    -0.376 OA
BRANCH  39  40
ATOM     40  C   UNL A   1      44.388  21.602  25.170  1.00  0.00     0.202 C 
BRANCH  40  41
ATOM     41  C   UNL A   1      43.632  22.778  24.536  1.00  0.00     0.261 C 
BRANCH  41  42
ATOM     42  O   UNL A   1      43.111  23.752  25.462  1.00  0.00    -0.460 OA
BRANCH  42  43
ATOM     43  C   UNL A   1      43.646  24.994  25.431  1.00  0.00     0.338 C 
ATOM     44  O   UNL A   1      44.431  25.423  24.606  1.00  0.00    -0.246 OA
BRANCH  43  45
ATOM     45  C   UNL A   1      42.925  25.848  26.417  1.00  0.00     0.060 A 
ATOM     46  C   UNL A   1      43.310  27.192  26.539  1.00  0.00     0.016 A 
ATOM     47  C   UNL A   1      41.847  25.364  27.168  1.00  0.00     0.016 A 
ATOM     48  C   UNL A   1      42.673  28.034  27.455  1.00  0.00     0.010 A 
ATOM     49  C   UNL A   1      41.223  26.201  28.103  1.00  0.00     0.010 A 
ATOM     50  C   UNL A   1      41.671  27.522  28.291  1.00  0.00    -0.014 A 
BRANCH  50  51
ATOM     51  C   UNL A   1      41.357  28.229  29.560  1.00  0.00     0.031 A 
ATOM     52  C   UNL A   1      40.186  29.181  29.535  1.00  0.00     0.074 A 
ATOM     53  C   UNL A   1      42.038  28.037  30.705  1.00  0.00     0.049 A 
ATOM     54  N   UNL A   1      39.717  29.956  30.479  1.00  0.00    -0.248 NA
ATOM     55  C   UNL A   1      39.445  29.267  28.264  1.00  0.00     0.031 C 
ATOM     56  C   UNL A   1      43.146  27.105  30.896  1.00  0.00     0.029 A 
ATOM     57  N   UNL A   1      41.882  28.634  31.933  1.00  0.00    -0.354 N 
ATOM     58  C   UNL A   1      38.640  30.625  29.911  1.00  0.00     0.074 A 
ATOM     59  C   UNL A   1      38.537  30.187  28.538  1.00  0.00     0.031 C 
ATOM     60  C   UNL A   1      43.577  27.199  32.168  1.00  0.00     0.029 A 
ATOM     61  C   UNL A   1      42.798  28.219  32.870  1.00  0.00     0.049 A 
ATOM     62  H   UNL A   1      41.180  29.297  32.124  1.00  0.00     0.167 HD
ATOM     63  C   UNL A   1      37.801  31.525  30.475  1.00  0.00     0.031 A 
ATOM     64  C   UNL A   1      42.994  28.634  34.138  1.00  0.00     0.031 A 
ATOM     65  C   UNL A   1      37.902  31.981  31.832  1.00  0.00     0.049 A 
ATOM     66  C   UNL A   1      42.109  29.712  34.718  1.00  0.00     0.074 A 
ATOM     67  C   UNL A   1      37.097  32.888  32.496  1.00  0.00     0.029 A 
ATOM     68  N   UNL A   1      38.877  31.574  32.726  1.00  0.00    -0.354 N 
ATOM     69  N   UNL A   1      41.081  30.322  34.177  1.00  0.00    -0.248 NA
ATOM     70  C   UNL A   1      42.415  30.157  36.088  1.00  0.00     0.031 C 
ATOM     71  C   UNL A   1      37.621  33.074  33.778  1.00  0.00     0.029 A 
ATOM     72  C   UNL A   1      38.712  32.234  33.931  1.00  0.00     0.049 A 
ATOM     73  H   UNL A   1      39.582  30.914  32.534  1.00  0.00     0.167 HD
ATOM     74  C   UNL A   1      40.599  31.192  35.151  1.00  0.00     0.074 A 
ATOM     75  C   UNL A   1      41.439  31.024  36.317  1.00  0.00     0.031 C 
ATOM     76  C   UNL A   1      39.552  32.052  35.085  1.00  0.00     0.031 A 
BRANCH  63  77
ATOM     77  C   UNL A   1      36.730  32.107  29.598  1.00  0.00    -0.014 A 
ATOM     78  C   UNL A   1      36.874  33.372  29.008  1.00  0.00     0.009 A 
ATOM     79  C   UNL A   1      35.559  31.372  29.357  1.00  0.00     0.009 A 
ATOM     80  C   UNL A   1      35.852  33.903  28.219  1.00  0.00     0.001 A 
ATOM     81  C   UNL A   1      34.552  31.892  28.544  1.00  0.00     0.001 A 
ATOM     82  C   UNL A   1      34.694  33.161  27.984  1.00  0.00     0.000 A 
ENDBRANCH  63  77
BRANCH  64  83
ATOM     83  C   UNL A   1      44.094  28.057  34.962  1.00  0.00    -0.014 A 
ATOM     84  C   UNL A   1      45.384  28.607  34.923  1.00  0.00     0.009 A 
ATOM     85  C   UNL A   1      43.869  26.918  35.751  1.00  0.00     0.009 A 
ATOM     86  C   UNL A   1      46.431  28.013  35.632  1.00  0.00     0.001 A 
ATOM     87  C   UNL A   1      44.912  26.344  36.484  1.00  0.00     0.001 A 
ATOM     88  C   UNL A   1      46.194  26.885  36.415  1.00  0.00     0.000 A 
ENDBRANCH  64  83
BRANCH  76  89
ATOM     89  C   UNL A   1      39.220  32.843  36.320  1.00  0.00    -0.014 A 
ATOM     90  C   UNL A   1      38.360  32.335  37.307  1.00  0.00     0.009 A 
ATOM     91  C   UNL A   1      39.828  34.092  36.526  1.00  0.00     0.009 A 
ATOM     92  C   UNL A   1      38.092  33.079  38.458  1.00  0.00     0.001 A 
ATOM     93  C   UNL A   1      39.583  34.818  37.693  1.00  0.00     0.001 A 
ATOM     94  C   UNL A   1      38.707  34.314  38.653  1.00  0.00     0.000 A 
ENDBRANCH  76  89
ENDBRANCH  50  51
ENDBRANCH  43  45
ENDBRANCH  42  43
ENDBRANCH  41  42
ENDBRANCH  40  41
ENDBRANCH  39  40
ENDBRANCH  38  39
ENDBRANCH  37  38
ENDBRANCH  36  37
ENDBRANCH   1  36
TORSDOF 24
ENDMDL
MODEL 3
REMARK VINA RESULT:     -10.2      3.085      9.045
REMARK SMILES O=C(NC1(C(=O)OCCOCCOCCOCCOC(=O)c2ccc(-c3c4nc(c(-c5ccccc5)c5ccc([nH]5)c(-c5ccccc5)c5nc(c(-c6ccccc6)c6ccc3[nH]6)C=C5)C=C4)cc2)CC[NH2+]CC1)OCC1c2ccccc2-c2ccccc21
REMARK SMILES IDX 12 1 11 2 10 3 9 4 8 5 7 6 5 7 6 8 4 9 70 10 74 11 71 12
REMARK SMILES IDX 73 13 72 14 3 17 1 18 2 19 75 21 76 22 77 23 78 24 89 25
REMARK SMILES IDX 79 26 83 27 84 28 88 29 80 30 82 31 85 32 87 33 81 34 86 35
REMARK SMILES IDX 13 36 14 37 15 38 16 39 17 40 18 41 19 42 20 43 21 44 22 45
REMARK SMILES IDX 23 46 69 47 24 48 68 49 25 50 26 51 27 52 62 53 28 54 67 55
REMARK SMILES IDX 61 56 63 57 29 58 66 59 60 60 59 61 30 63 52 64 37 65 51 66
REMARK SMILES IDX 38 67 41 68 50 69 64 70 39 71 40 72 49 74 65 75 42 76 31 77
REMARK SMILES IDX 32 78 36 79 33 80 35 81 34 82 53 83 54 84 58 85 55 86 57 87
REMARK SMILES IDX 56 88 43 89 44 90 48 91 45 92 47 93 46 94
REMARK H PARENT 72 15 72 16 3 20 63 62 41 73
REMARK Flexibility Score: inf
ROOT
ATOM      1  C   UNL A   1      37.578  21.361  24.801  1.00  0.00     0.188 C 
ENDROOT
BRANCH   1   2
ATOM      2  C   UNL A   1      36.602  20.305  25.338  1.00  0.00     0.188 C 
BRANCH   2   3
ATOM      3  O   UNL A   1      35.385  20.129  24.634  1.00  0.00    -0.376 OA
BRANCH   3   4
ATOM      4  C   UNL A   1      34.721  18.868  24.592  1.00  0.00     0.202 C 
BRANCH   4   5
ATOM      5  C   UNL A   1      33.239  18.658  24.896  1.00  0.00     0.261 C 
BRANCH   5   6
ATOM      6  O   UNL A   1      32.752  19.755  25.621  1.00  0.00    -0.461 OA
BRANCH   6   7
ATOM      7  C   UNL A   1      32.353  20.841  24.922  1.00  0.00     0.332 C 
ATOM      8  O   UNL A   1      32.061  20.869  23.736  1.00  0.00    -0.249 OA
BRANCH   7   9
ATOM      9  C   UNL A   1      32.426  22.025  25.898  1.00  0.00     0.151 C 
ATOM     10  C   UNL A   1      33.431  21.495  26.985  1.00  0.00     0.102 C 
ATOM     11  C   UNL A   1      32.870  23.305  25.177  1.00  0.00     0.102 C 
ATOM     12  C   UNL A   1      34.465  22.461  27.518  1.00  0.00     0.263 C 
ATOM     13  C   UNL A   1      33.888  24.136  25.949  1.00  0.00     0.263 C 
ATOM     14  N   UNL A   1      34.971  23.296  26.445  1.00  0.00    -0.346 N 
ATOM     15  H   UNL A   1      35.322  22.707  25.689  1.00  0.00     0.346 HD
ATOM     16  H   UNL A   1      35.731  23.881  26.792  1.00  0.00     0.346 HD
BRANCH   9  17
ATOM     17  N   UNL A   1      31.077  22.196  26.529  1.00  0.00    -0.305 N 
ATOM     18  O   UNL A   1      29.316  23.207  27.488  1.00  0.00    -0.225 OA
ATOM     19  C   UNL A   1      30.411  23.329  26.947  1.00  0.00     0.408 C 
ATOM     20  H   UNL A   1      30.581  21.357  26.669  1.00  0.00     0.168 HD
BRANCH  19  21
ATOM     21  O   UNL A   1      30.982  24.543  26.642  1.00  0.00    -0.449 OA
BRANCH  21  22
ATOM     22  C   UNL A   1      30.044  25.474  26.038  1.00  0.00     0.248 C 
BRANCH  22  23
ATOM     23  C   UNL A   1      30.611  26.746  25.305  1.00  0.00     0.088 C 
ATOM     24  C   UNL A   1      31.677  27.603  25.985  1.00  0.00    -0.029 A 
ATOM     25  C   UNL A   1      31.330  26.391  23.979  1.00  0.00    -0.029 A 
ATOM     26  C   UNL A   1      31.662  28.172  27.248  1.00  0.00     0.005 A 
ATOM     27  C   UNL A   1      32.829  27.720  25.162  1.00  0.00    -0.014 A 
ATOM     28  C   UNL A   1      32.624  26.959  23.951  1.00  0.00    -0.014 A 
ATOM     29  C   UNL A   1      30.921  25.526  22.972  1.00  0.00     0.005 A 
ATOM     30  C   UNL A   1      32.826  28.806  27.705  1.00  0.00     0.000 A 
ATOM     31  C   UNL A   1      33.979  28.353  25.615  1.00  0.00     0.009 A 
ATOM     32  C   UNL A   1      33.531  26.630  22.952  1.00  0.00     0.009 A 
ATOM     33  C   UNL A   1      31.843  25.178  21.977  1.00  0.00     0.000 A 
ATOM     34  C   UNL A   1      33.976  28.886  26.903  1.00  0.00     0.001 A 
ATOM     35  C   UNL A   1      33.139  25.718  21.970  1.00  0.00     0.001 A 
ENDBRANCH  22  23
ENDBRANCH  21  22
ENDBRANCH  19  21
ENDBRANCH   9  17
ENDBRANCH   7   9
ENDBRANCH   6   7
ENDBRANCH   5   6
ENDBRANCH   4   5
ENDBRANCH   3   4
ENDBRANCH   2   3
ENDBRANCH   1   2
BRANCH   1  36
ATOM     36  O   UNL A   1      38.044  22.250  25.800  1.00  0.00    -0.377 OA
BRANCH  36  37
ATOM     37  C   UNL A   1      39.348  22.008  26.312  1.00  0.00     0.188 C 
BRANCH  37  38
ATOM     38  C   UNL A   1      40.081  20.694  25.960  1.00  0.00     0.188 C 
BRANCH  38  39
ATOM     39  O   UNL A   1      41.340  20.563  26.607  1.00  0.00    -0.376 OA
BRANCH  39  40
ATOM     40  C   UNL A   1      41.984  19.307  26.501  1.00  0.00     0.202 C 
BRANCH  40  41
ATOM     41  C   UNL A   1      43.137  19.281  25.487  1.00  0.00     0.261 C 
BRANCH  41  42
ATOM     42  O   UNL A   1      43.421  20.537  24.840  1.00  0.00    -0.460 OA
BRANCH  42  43
ATOM     43  C   UNL A   1      44.492  21.240  25.276  1.00  0.00     0.338 C 
ATOM     44  O   UNL A   1      45.660  21.008  25.023  1.00  0.00    -0.246 OA
BRANCH  43  45
ATOM     45  C   UNL A   1      44.010  22.502  25.905  1.00  0.00     0.060 A 
ATOM     46  C   UNL A   1      43.597  23.547  25.065  1.00  0.00     0.016 A 
ATOM     47  C   UNL A   1      43.904  22.644  27.293  1.00  0.00     0.016 A 
ATOM     48  C   UNL A   1      43.145  24.755  25.603  1.00  0.00     0.010 A 
ATOM     49  C   UNL A   1      43.474  23.863  27.835  1.00  0.00     0.010 A 
ATOM     50  C   UNL A   1      43.147  24.943  26.992  1.00  0.00    -0.014 A 
BRANCH  50  51
ATOM     51  C   UNL A   1      43.161  26.326  27.534  1.00  0.00     0.031 A 
ATOM     52  C   UNL A   1      44.511  26.980  27.695  1.00  0.00     0.074 A 
ATOM     53  C   UNL A   1      42.045  27.010  27.849  1.00  0.00     0.049 A 
ATOM     54  N   UNL A   1      44.820  28.156  28.179  1.00  0.00    -0.248 NA
ATOM     55  C   UNL A   1      45.673  26.192  27.246  1.00  0.00     0.031 C 
ATOM     56  C   UNL A   1      40.674  26.535  27.686  1.00  0.00     0.029 A 
ATOM     57  N   UNL A   1      41.905  28.271  28.381  1.00  0.00    -0.354 N 
ATOM     58  C   UNL A   1      46.205  28.238  28.103  1.00  0.00     0.074 A 
ATOM     59  C   UNL A   1      46.681  26.990  27.552  1.00  0.00     0.031 C 
ATOM     60  C   UNL A   1      39.829  27.490  28.118  1.00  0.00     0.029 A 
ATOM     61  C   UNL A   1      40.600  28.630  28.617  1.00  0.00     0.049 A 
ATOM     62  H   UNL A   1      42.669  28.861  28.574  1.00  0.00     0.167 HD
ATOM     63  C   UNL A   1      47.019  29.259  28.456  1.00  0.00     0.031 A 
ATOM     64  C   UNL A   1      40.093  29.740  29.189  1.00  0.00     0.031 A 
ATOM     65  C   UNL A   1      46.562  30.497  29.021  1.00  0.00     0.049 A 
ATOM     66  C   UNL A   1      41.027  30.828  29.668  1.00  0.00     0.074 A 
ATOM     67  C   UNL A   1      47.310  31.594  29.407  1.00  0.00     0.029 A 
ATOM     68  N   UNL A   1      45.237  30.794  29.292  1.00  0.00    -0.354 N 
ATOM     69  N   UNL A   1      42.332  30.902  29.572  1.00  0.00    -0.248 NA
ATOM     70  C   UNL A   1      40.409  31.986  30.334  1.00  0.00     0.031 C 
ATOM     71  C   UNL A   1      46.441  32.535  29.968  1.00  0.00     0.029 A 
ATOM     72  C   UNL A   1      45.148  32.049  29.869  1.00  0.00     0.049 A 
ATOM     73  H   UNL A   1      44.474  30.202  29.102  1.00  0.00     0.167 HD
ATOM     74  C   UNL A   1      42.686  32.127  30.131  1.00  0.00     0.074 A 
ATOM     75  C   UNL A   1      41.459  32.765  30.554  1.00  0.00     0.031 C 
ATOM     76  C   UNL A   1      43.918  32.674  30.279  1.00  0.00     0.031 A 
BRANCH  63  77
ATOM     77  C   UNL A   1      48.497  29.051  28.282  1.00  0.00    -0.014 A 
ATOM     78  C   UNL A   1      49.291  28.535  29.318  1.00  0.00     0.009 A 
ATOM     79  C   UNL A   1      49.100  29.373  27.057  1.00  0.00     0.009 A 
ATOM     80  C   UNL A   1      50.666  28.376  29.140  1.00  0.00     0.001 A 
ATOM     81  C   UNL A   1      50.469  29.185  26.871  1.00  0.00     0.001 A 
ATOM     82  C   UNL A   1      51.253  28.696  27.915  1.00  0.00     0.000 A 
ENDBRANCH  63  77
BRANCH  64  83
ATOM     83  C   UNL A   1      38.623  29.891  29.379  1.00  0.00    -0.014 A 
ATOM     84  C   UNL A   1      37.825  30.470  28.379  1.00  0.00     0.009 A 
ATOM     85  C   UNL A   1      38.018  29.507  30.586  1.00  0.00     0.009 A 
ATOM     86  C   UNL A   1      36.462  30.686  28.594  1.00  0.00     0.001 A 
ATOM     87  C   UNL A   1      36.648  29.696  30.786  1.00  0.00     0.001 A 
ATOM     88  C   UNL A   1      35.873  30.295  29.796  1.00  0.00     0.000 A 
ENDBRANCH  64  83
BRANCH  76  89
ATOM     89  C   UNL A   1      44.004  34.051  30.877  1.00  0.00    -0.014 A 
ATOM     90  C   UNL A   1      43.993  35.202  30.074  1.00  0.00     0.009 A 
ATOM     91  C   UNL A   1      44.032  34.197  32.274  1.00  0.00     0.009 A 
ATOM     92  C   UNL A   1      44.043  36.469  30.658  1.00  0.00     0.001 A 
ATOM     93  C   UNL A   1      44.050  35.466  32.855  1.00  0.00     0.001 A 
ATOM     94  C   UNL A   1      44.065  36.601  32.046  1.00  0.00     0.000 A 
ENDBRANCH  76  89
ENDBRANCH  50  51
ENDBRANCH  43  45
ENDBRANCH  42  43
ENDBRANCH  41  42
ENDBRANCH  40  41
ENDBRANCH  39  40
ENDBRANCH  38  39
ENDBRANCH  37  38
ENDBRANCH  36  37
ENDBRANCH   1  36
TORSDOF 24
ENDMDL
