MODEL 1
REMARK VINA RESULT:      -9.7      0.000      0.000
REMARK SMILES C[C@H](C(=O)OCCOCCOCCOCCOC(=O)c1ccc(-c2c3nc(c(-c4ccccc4)c4ccc([nH]4)c(-c4ccccc4)c4nc(c(-c5ccccc5)c5ccc2[nH]5)C=C4)C=C3)cc1)c1ccc2c3cc(Cl)ccc3n(C(=O)c3cocn3)c2c1
REMARK SMILES IDX 10 1 9 2 8 3 7 4 6 5 5 6 3 7 4 8 2 9 1 10 68 11 69 12 88 13
REMARK SMILES IDX 70 14 87 15 71 16 79 17 72 18 78 19 73 20 77 21 74 22 76 23
REMARK SMILES IDX 75 24 80 25 81 26 82 27 83 28 86 29 84 30 85 31 11 32 12 33
REMARK SMILES IDX 13 34 14 35 15 36 16 37 17 38 18 39 19 40 20 41 21 42 67 43
REMARK SMILES IDX 22 44 66 45 23 46 24 47 25 48 60 49 26 50 65 51 59 52 61 53
REMARK SMILES IDX 27 54 64 55 58 56 57 57 28 59 50 60 35 61 49 62 36 63 39 64
REMARK SMILES IDX 48 65 62 66 37 67 38 68 47 70 63 71 40 72 29 73 30 74 34 75
REMARK SMILES IDX 31 76 33 77 32 78 51 79 52 80 56 81 53 82 55 83 54 84 41 85
REMARK SMILES IDX 42 86 46 87 43 88 45 89 44 90
REMARK H PARENT 61 58 39 69
REMARK Flexibility Score: inf
ROOT
ATOM      1  C   UNL A   1      32.086  27.866  26.221  1.00  0.00     0.188 C 
ENDROOT
BRANCH   1   2
ATOM      2  C   UNL A   1      32.179  27.220  24.824  1.00  0.00     0.188 C 
BRANCH   2   3
ATOM      3  O   UNL A   1      33.384  26.671  24.296  1.00  0.00    -0.376 OA
BRANCH   3   4
ATOM      4  C   UNL A   1      33.805  25.367  24.656  1.00  0.00     0.202 C 
BRANCH   4   5
ATOM      5  C   UNL A   1      34.448  24.521  23.551  1.00  0.00     0.261 C 
BRANCH   5   6
ATOM      6  O   UNL A   1      34.695  23.148  23.888  1.00  0.00    -0.463 OA
BRANCH   6   7
ATOM      7  C   UNL A   1      35.969  22.707  23.761  1.00  0.00     0.313 C 
ATOM      8  O   UNL A   1      36.669  22.909  22.771  1.00  0.00    -0.252 OA
BRANCH   7   9
ATOM      9  C   UNL A   1      36.514  21.975  24.984  1.00  0.00     0.126 C 
ATOM     10  C   UNL A   1      36.608  20.463  24.768  1.00  0.00     0.025 C 
BRANCH   9  11
ATOM     11  C   UNL A   1      37.765  22.496  25.692  1.00  0.00    -0.032 A 
ATOM     12  C   UNL A   1      37.791  23.859  26.010  1.00  0.00     0.005 A 
ATOM     13  C   UNL A   1      38.839  21.686  26.117  1.00  0.00     0.032 A 
ATOM     14  C   UNL A   1      38.858  24.426  26.705  1.00  0.00     0.011 A 
ATOM     15  C   UNL A   1      39.946  22.266  26.786  1.00  0.00     0.058 A 
ATOM     16  C   UNL A   1      39.952  23.627  27.085  1.00  0.00     0.008 A 
ATOM     17  N   UNL A   1      41.138  21.708  27.292  1.00  0.00    -0.274 N 
ATOM     18  C   UNL A   1      41.187  23.931  27.711  1.00  0.00     0.009 A 
ATOM     19  C   UNL A   1      41.963  22.769  27.709  1.00  0.00     0.057 A 
ATOM     20  C   UNL A   1      41.730  25.140  28.196  1.00  0.00     0.031 A 
ATOM     21  C   UNL A   1      43.329  22.832  28.054  1.00  0.00     0.029 A 
ATOM     22  C   UNL A   1      43.061  25.178  28.602  1.00  0.00     0.041 A 
ATOM     23  C   UNL A   1      43.859  24.047  28.509  1.00  0.00     0.023 A 
ATOM     24  Cl  UNL A   1      43.730  26.657  29.172  1.00  0.00    -0.084 Cl
BRANCH  17  25
ATOM     25  C   UNL A   1      41.449  20.316  27.333  1.00  0.00     0.284 C 
ATOM     26  O   UNL A   1      40.872  19.645  28.184  1.00  0.00    -0.266 OA
BRANCH  25  27
ATOM     27  C   UNL A   1      42.416  19.658  26.454  1.00  0.00     0.167 A 
ATOM     28  C   UNL A   1      42.792  18.331  26.424  1.00  0.00     0.231 A 
ATOM     29  N   UNL A   1      43.053  20.316  25.415  1.00  0.00    -0.211 NA
ATOM     30  O   UNL A   1      43.687  18.158  25.409  1.00  0.00    -0.451 OA
ATOM     31  C   UNL A   1      43.791  19.392  24.848  1.00  0.00     0.308 A 
ENDBRANCH  25  27
ENDBRANCH  17  25
ENDBRANCH   9  11
ENDBRANCH   7   9
ENDBRANCH   6   7
ENDBRANCH   5   6
ENDBRANCH   4   5
ENDBRANCH   3   4
ENDBRANCH   2   3
ENDBRANCH   1   2
BRANCH   1  32
ATOM     32  O   UNL A   1      33.318  28.003  26.904  1.00  0.00    -0.377 OA
BRANCH  32  33
ATOM     33  C   UNL A   1      34.027  29.204  26.646  1.00  0.00     0.188 C 
BRANCH  33  34
ATOM     34  C   UNL A   1      33.578  30.391  27.507  1.00  0.00     0.188 C 
BRANCH  34  35
ATOM     35  O   UNL A   1      34.603  31.379  27.623  1.00  0.00    -0.376 OA
BRANCH  35  36
ATOM     36  C   UNL A   1      34.365  32.447  28.533  1.00  0.00     0.202 C 
BRANCH  36  37
ATOM     37  C   UNL A   1      35.507  32.689  29.530  1.00  0.00     0.261 C 
BRANCH  37  38
ATOM     38  O   UNL A   1      35.230  32.320  30.892  1.00  0.00    -0.460 OA
BRANCH  38  39
ATOM     39  C   UNL A   1      35.866  31.243  31.395  1.00  0.00     0.338 C 
ATOM     40  O   UNL A   1      36.052  30.168  30.847  1.00  0.00    -0.246 OA
BRANCH  39  41
ATOM     41  C   UNL A   1      36.483  31.639  32.675  1.00  0.00     0.060 A 
ATOM     42  C   UNL A   1      36.010  32.785  33.330  1.00  0.00     0.016 A 
ATOM     43  C   UNL A   1      37.521  30.886  33.226  1.00  0.00     0.016 A 
ATOM     44  C   UNL A   1      36.601  33.201  34.522  1.00  0.00     0.010 A 
ATOM     45  C   UNL A   1      38.126  31.316  34.408  1.00  0.00     0.010 A 
ATOM     46  C   UNL A   1      37.692  32.493  35.044  1.00  0.00    -0.014 A 
BRANCH  46  47
ATOM     47  C   UNL A   1      38.520  33.088  36.118  1.00  0.00     0.031 A 
ATOM     48  C   UNL A   1      39.652  33.994  35.718  1.00  0.00     0.074 A 
ATOM     49  C   UNL A   1      38.298  32.823  37.417  1.00  0.00     0.049 A 
ATOM     50  N   UNL A   1      40.560  34.569  36.463  1.00  0.00    -0.248 NA
ATOM     51  C   UNL A   1      39.778  34.284  34.279  1.00  0.00     0.031 C 
ATOM     52  C   UNL A   1      37.222  31.988  37.943  1.00  0.00     0.029 A 
ATOM     53  N   UNL A   1      38.998  33.214  38.531  1.00  0.00    -0.354 N 
ATOM     54  C   UNL A   1      41.360  35.290  35.586  1.00  0.00     0.074 A 
ATOM     55  C   UNL A   1      40.863  35.041  34.251  1.00  0.00     0.031 C 
ATOM     56  C   UNL A   1      37.353  31.901  39.279  1.00  0.00     0.029 A 
ATOM     57  C   UNL A   1      38.529  32.659  39.697  1.00  0.00     0.049 A 
ATOM     58  H   UNL A   1      39.764  33.833  38.498  1.00  0.00     0.167 HD
ATOM     59  C   UNL A   1      42.406  36.104  35.864  1.00  0.00     0.031 A 
ATOM     60  C   UNL A   1      39.012  32.736  40.952  1.00  0.00     0.031 A 
ATOM     61  C   UNL A   1      42.913  36.346  37.186  1.00  0.00     0.049 A 
ATOM     62  C   UNL A   1      40.234  33.572  41.229  1.00  0.00     0.074 A 
ATOM     63  C   UNL A   1      43.950  37.177  37.573  1.00  0.00     0.029 A 
ATOM     64  N   UNL A   1      42.422  35.751  38.336  1.00  0.00    -0.354 N 
ATOM     65  N   UNL A   1      40.958  34.283  40.397  1.00  0.00    -0.248 NA
ATOM     66  C   UNL A   1      40.697  33.628  42.624  1.00  0.00     0.031 C 
ATOM     67  C   UNL A   1      44.119  37.044  38.956  1.00  0.00     0.029 A 
ATOM     68  C   UNL A   1      43.152  36.174  39.433  1.00  0.00     0.049 A 
ATOM     69  H   UNL A   1      41.667  35.119  38.369  1.00  0.00     0.167 HD
ATOM     70  C   UNL A   1      41.931  34.902  41.173  1.00  0.00     0.074 A 
ATOM     71  C   UNL A   1      41.708  34.482  42.541  1.00  0.00     0.031 C 
ATOM     72  C   UNL A   1      42.914  35.752  40.789  1.00  0.00     0.031 A 
BRANCH  59  73
ATOM     73  C   UNL A   1      43.079  36.773  34.700  1.00  0.00    -0.014 A 
ATOM     74  C   UNL A   1      43.956  36.062  33.865  1.00  0.00     0.009 A 
ATOM     75  C   UNL A   1      42.828  38.126  34.430  1.00  0.00     0.009 A 
ATOM     76  C   UNL A   1      44.598  36.706  32.804  1.00  0.00     0.001 A 
ATOM     77  C   UNL A   1      43.449  38.759  33.353  1.00  0.00     0.001 A 
ATOM     78  C   UNL A   1      44.341  38.052  32.548  1.00  0.00     0.000 A 
ENDBRANCH  59  73
BRANCH  60  79
ATOM     79  C   UNL A   1      38.355  31.984  42.052  1.00  0.00    -0.014 A 
ATOM     80  C   UNL A   1      38.728  30.663  42.341  1.00  0.00     0.009 A 
ATOM     81  C   UNL A   1      37.325  32.577  42.799  1.00  0.00     0.009 A 
ATOM     82  C   UNL A   1      38.062  29.940  43.334  1.00  0.00     0.001 A 
ATOM     83  C   UNL A   1      36.678  31.861  43.808  1.00  0.00     0.001 A 
ATOM     84  C   UNL A   1      37.040  30.540  44.068  1.00  0.00     0.000 A 
ENDBRANCH  60  79
BRANCH  72  85
ATOM     85  C   UNL A   1      43.791  36.329  41.865  1.00  0.00    -0.014 A 
ATOM     86  C   UNL A   1      45.096  35.861  42.075  1.00  0.00     0.009 A 
ATOM     87  C   UNL A   1      43.314  37.394  42.645  1.00  0.00     0.009 A 
ATOM     88  C   UNL A   1      45.897  36.431  43.068  1.00  0.00     0.001 A 
ATOM     89  C   UNL A   1      44.126  37.979  43.619  1.00  0.00     0.001 A 
ATOM     90  C   UNL A   1      45.414  37.492  43.834  1.00  0.00     0.000 A 
ENDBRANCH  72  85
ENDBRANCH  46  47
ENDBRANCH  39  41
ENDBRANCH  38  39
ENDBRANCH  37  38
ENDBRANCH  36  37
ENDBRANCH  35  36
ENDBRANCH  34  35
ENDBRANCH  33  34
ENDBRANCH  32  33
ENDBRANCH   1  32
TORSDOF 23
ENDMDL
MODEL 2
REMARK VINA RESULT:      -9.3      3.509      5.473
REMARK SMILES C[C@H](C(=O)OCCOCCOCCOCCOC(=O)c1ccc(-c2c3nc(c(-c4ccccc4)c4ccc([nH]4)c(-c4ccccc4)c4nc(c(-c5ccccc5)c5ccc2[nH]5)C=C4)C=C3)cc1)c1ccc2c3cc(Cl)ccc3n(C(=O)c3cocn3)c2c1
REMARK SMILES IDX 10 1 9 2 8 3 7 4 6 5 5 6 3 7 4 8 2 9 1 10 68 11 69 12 88 13
REMARK SMILES IDX 70 14 87 15 71 16 79 17 72 18 78 19 73 20 77 21 74 22 76 23
REMARK SMILES IDX 75 24 80 25 81 26 82 27 83 28 86 29 84 30 85 31 11 32 12 33
REMARK SMILES IDX 13 34 14 35 15 36 16 37 17 38 18 39 19 40 20 41 21 42 67 43
REMARK SMILES IDX 22 44 66 45 23 46 24 47 25 48 60 49 26 50 65 51 59 52 61 53
REMARK SMILES IDX 27 54 64 55 58 56 57 57 28 59 50 60 35 61 49 62 36 63 39 64
REMARK SMILES IDX 48 65 62 66 37 67 38 68 47 70 63 71 40 72 29 73 30 74 34 75
REMARK SMILES IDX 31 76 33 77 32 78 51 79 52 80 56 81 53 82 55 83 54 84 41 85
REMARK SMILES IDX 42 86 46 87 43 88 45 89 44 90
REMARK H PARENT 61 58 39 69
REMARK Flexibility Score: inf
ROOT
ATOM      1  C   UNL A   1      32.005  28.007  26.402  1.00  0.00     0.188 C 
ENDROOT
BRANCH   1   2
ATOM      2  C   UNL A   1      32.175  27.498  24.956  1.00  0.00     0.188 C 
BRANCH   2   3
ATOM      3  O   UNL A   1      33.380  26.909  24.473  1.00  0.00    -0.376 OA
BRANCH   3   4
ATOM      4  C   UNL A   1      33.708  25.567  24.785  1.00  0.00     0.202 C 
BRANCH   4   5
ATOM      5  C   UNL A   1      34.571  24.813  23.767  1.00  0.00     0.261 C 
BRANCH   5   6
ATOM      6  O   UNL A   1      34.823  23.433  24.071  1.00  0.00    -0.463 OA
BRANCH   6   7
ATOM      7  C   UNL A   1      36.073  22.972  23.826  1.00  0.00     0.313 C 
ATOM      8  O   UNL A   1      36.722  23.252  22.821  1.00  0.00    -0.252 OA
BRANCH   7   9
ATOM      9  C   UNL A   1      36.660  22.105  24.935  1.00  0.00     0.126 C 
ATOM     10  C   UNL A   1      36.836  20.646  24.507  1.00  0.00     0.025 C 
BRANCH   9  11
ATOM     11  C   UNL A   1      37.882  22.588  25.717  1.00  0.00    -0.032 A 
ATOM     12  C   UNL A   1      37.901  23.936  26.091  1.00  0.00     0.005 A 
ATOM     13  C   UNL A   1      38.931  21.754  26.154  1.00  0.00     0.032 A 
ATOM     14  C   UNL A   1      38.939  24.467  26.855  1.00  0.00     0.011 A 
ATOM     15  C   UNL A   1      40.011  22.298  26.893  1.00  0.00     0.058 A 
ATOM     16  C   UNL A   1      40.012  23.646  27.248  1.00  0.00     0.008 A 
ATOM     17  N   UNL A   1      41.178  21.712  27.427  1.00  0.00    -0.274 N 
ATOM     18  C   UNL A   1      41.220  23.916  27.938  1.00  0.00     0.009 A 
ATOM     19  C   UNL A   1      41.989  22.750  27.923  1.00  0.00     0.057 A 
ATOM     20  C   UNL A   1      41.748  25.100  28.495  1.00  0.00     0.031 A 
ATOM     21  C   UNL A   1      43.340  22.789  28.328  1.00  0.00     0.029 A 
ATOM     22  C   UNL A   1      43.061  25.113  28.959  1.00  0.00     0.041 A 
ATOM     23  C   UNL A   1      43.856  23.981  28.854  1.00  0.00     0.023 A 
ATOM     24  Cl  UNL A   1      43.712  26.562  29.618  1.00  0.00    -0.084 Cl
BRANCH  17  25
ATOM     25  C   UNL A   1      41.480  20.317  27.425  1.00  0.00     0.284 C 
ATOM     26  O   UNL A   1      40.888  19.621  28.245  1.00  0.00    -0.266 OA
BRANCH  25  27
ATOM     27  C   UNL A   1      42.453  19.683  26.535  1.00  0.00     0.167 A 
ATOM     28  C   UNL A   1      42.861  18.366  26.500  1.00  0.00     0.231 A 
ATOM     29  N   UNL A   1      43.063  20.357  25.490  1.00  0.00    -0.211 NA
ATOM     30  O   UNL A   1      43.749  18.214  25.476  1.00  0.00    -0.451 OA
ATOM     31  C   UNL A   1      43.817  19.451  24.914  1.00  0.00     0.308 A 
ENDBRANCH  25  27
ENDBRANCH  17  25
ENDBRANCH   9  11
ENDBRANCH   7   9
ENDBRANCH   6   7
ENDBRANCH   5   6
ENDBRANCH   4   5
ENDBRANCH   3   4
ENDBRANCH   2   3
ENDBRANCH   1   2
BRANCH   1  32
ATOM     32  O   UNL A   1      33.193  28.461  27.024  1.00  0.00    -0.377 OA
BRANCH  32  33
ATOM     33  C   UNL A   1      33.620  29.759  26.645  1.00  0.00     0.188 C 
BRANCH  33  34
ATOM     34  C   UNL A   1      33.137  30.873  27.584  1.00  0.00     0.188 C 
BRANCH  34  35
ATOM     35  O   UNL A   1      33.959  32.038  27.490  1.00  0.00    -0.376 OA
BRANCH  35  36
ATOM     36  C   UNL A   1      33.635  33.122  28.352  1.00  0.00     0.202 C 
BRANCH  36  37
ATOM     37  C   UNL A   1      34.795  33.580  29.249  1.00  0.00     0.261 C 
BRANCH  37  38
ATOM     38  O   UNL A   1      35.590  32.526  29.818  1.00  0.00    -0.460 OA
BRANCH  38  39
ATOM     39  C   UNL A   1      36.715  32.164  29.170  1.00  0.00     0.338 C 
ATOM     40  O   UNL A   1      36.949  32.270  27.976  1.00  0.00    -0.246 OA
BRANCH  39  41
ATOM     41  C   UNL A   1      37.719  31.783  30.182  1.00  0.00     0.060 A 
ATOM     42  C   UNL A   1      37.283  31.223  31.390  1.00  0.00     0.016 A 
ATOM     43  C   UNL A   1      39.080  31.978  29.940  1.00  0.00     0.016 A 
ATOM     44  C   UNL A   1      38.210  30.888  32.377  1.00  0.00     0.010 A 
ATOM     45  C   UNL A   1      40.004  31.663  30.937  1.00  0.00     0.010 A 
ATOM     46  C   UNL A   1      39.571  31.148  32.173  1.00  0.00    -0.014 A 
BRANCH  46  47
ATOM     47  C   UNL A   1      40.519  31.095  33.310  1.00  0.00     0.031 A 
ATOM     48  C   UNL A   1      41.386  29.873  33.451  1.00  0.00     0.074 A 
ATOM     49  C   UNL A   1      40.604  32.088  34.212  1.00  0.00     0.049 A 
ATOM     50  N   UNL A   1      42.231  29.559  34.397  1.00  0.00    -0.248 NA
ATOM     51  C   UNL A   1      41.276  28.868  32.379  1.00  0.00     0.031 C 
ATOM     52  C   UNL A   1      39.847  33.336  34.179  1.00  0.00     0.029 A 
ATOM     53  N   UNL A   1      41.357  32.179  35.357  1.00  0.00    -0.354 N 
ATOM     54  C   UNL A   1      42.755  28.325  34.034  1.00  0.00     0.074 A 
ATOM     55  C   UNL A   1      42.098  27.925  32.809  1.00  0.00     0.031 C 
ATOM     56  C   UNL A   1      40.147  34.056  35.275  1.00  0.00     0.029 A 
ATOM     57  C   UNL A   1      41.103  33.312  36.090  1.00  0.00     0.049 A 
ATOM     58  H   UNL A   1      42.014  31.497  35.627  1.00  0.00     0.167 HD
ATOM     59  C   UNL A   1      43.713  27.594  34.651  1.00  0.00     0.031 A 
ATOM     60  C   UNL A   1      41.573  33.691  37.295  1.00  0.00     0.031 A 
ATOM     61  C   UNL A   1      44.361  27.978  35.874  1.00  0.00     0.049 A 
ATOM     62  C   UNL A   1      42.569  32.819  38.013  1.00  0.00     0.074 A 
ATOM     63  C   UNL A   1      45.365  27.319  36.563  1.00  0.00     0.029 A 
ATOM     64  N   UNL A   1      44.064  29.123  36.594  1.00  0.00    -0.354 N 
ATOM     65  N   UNL A   1      43.088  31.673  37.639  1.00  0.00    -0.248 NA
ATOM     66  C   UNL A   1      43.055  33.300  39.315  1.00  0.00     0.031 C 
ATOM     67  C   UNL A   1      45.639  28.043  37.729  1.00  0.00     0.029 A 
ATOM     68  C   UNL A   1      44.844  29.178  37.735  1.00  0.00     0.049 A 
ATOM     69  H   UNL A   1      43.395  29.798  36.334  1.00  0.00     0.167 HD
ATOM     70  C   UNL A   1      43.992  31.323  38.636  1.00  0.00     0.074 A 
ATOM     71  C   UNL A   1      43.947  32.372  39.632  1.00  0.00     0.031 C 
ATOM     72  C   UNL A   1      44.794  30.233  38.713  1.00  0.00     0.031 A 
BRANCH  59  73
ATOM     73  C   UNL A   1      44.096  26.290  34.012  1.00  0.00    -0.014 A 
ATOM     74  C   UNL A   1      43.468  25.090  34.383  1.00  0.00     0.009 A 
ATOM     75  C   UNL A   1      45.089  26.262  33.021  1.00  0.00     0.009 A 
ATOM     76  C   UNL A   1      43.856  23.881  33.800  1.00  0.00     0.001 A 
ATOM     77  C   UNL A   1      45.454  25.056  32.421  1.00  0.00     0.001 A 
ATOM     78  C   UNL A   1      44.845  23.866  32.819  1.00  0.00     0.000 A 
ENDBRANCH  59  73
BRANCH  60  79
ATOM     79  C   UNL A   1      41.095  34.951  37.921  1.00  0.00    -0.014 A 
ATOM     80  C   UNL A   1      41.891  36.107  37.905  1.00  0.00     0.009 A 
ATOM     81  C   UNL A   1      39.849  34.993  38.567  1.00  0.00     0.009 A 
ATOM     82  C   UNL A   1      41.462  37.270  38.551  1.00  0.00     0.001 A 
ATOM     83  C   UNL A   1      39.413  36.164  39.191  1.00  0.00     0.001 A 
ATOM     84  C   UNL A   1      40.224  37.298  39.190  1.00  0.00     0.000 A 
ENDBRANCH  60  79
BRANCH  72  85
ATOM     85  C   UNL A   1      45.730  30.144  39.886  1.00  0.00    -0.014 A 
ATOM     86  C   UNL A   1      45.362  29.488  41.070  1.00  0.00     0.009 A 
ATOM     87  C   UNL A   1      47.022  30.684  39.780  1.00  0.00     0.009 A 
ATOM     88  C   UNL A   1      46.260  29.402  42.136  1.00  0.00     0.001 A 
ATOM     89  C   UNL A   1      47.926  30.573  40.836  1.00  0.00     0.001 A 
ATOM     90  C   UNL A   1      47.543  29.939  42.017  1.00  0.00     0.000 A 
ENDBRANCH  72  85
ENDBRANCH  46  47
ENDBRANCH  39  41
ENDBRANCH  38  39
ENDBRANCH  37  38
ENDBRANCH  36  37
ENDBRANCH  35  36
ENDBRANCH  34  35
ENDBRANCH  33  34
ENDBRANCH  32  33
ENDBRANCH   1  32
TORSDOF 23
ENDMDL
MODEL 3
REMARK VINA RESULT:      -9.2      6.074      7.275
REMARK SMILES C[C@H](C(=O)OCCOCCOCCOCCOC(=O)c1ccc(-c2c3nc(c(-c4ccccc4)c4ccc([nH]4)c(-c4ccccc4)c4nc(c(-c5ccccc5)c5ccc2[nH]5)C=C4)C=C3)cc1)c1ccc2c3cc(Cl)ccc3n(C(=O)c3cocn3)c2c1
REMARK SMILES IDX 10 1 9 2 8 3 7 4 6 5 5 6 3 7 4 8 2 9 1 10 68 11 69 12 88 13
REMARK SMILES IDX 70 14 87 15 71 16 79 17 72 18 78 19 73 20 77 21 74 22 76 23
REMARK SMILES IDX 75 24 80 25 81 26 82 27 83 28 86 29 84 30 85 31 11 32 12 33
REMARK SMILES IDX 13 34 14 35 15 36 16 37 17 38 18 39 19 40 20 41 21 42 67 43
REMARK SMILES IDX 22 44 66 45 23 46 24 47 25 48 60 49 26 50 65 51 59 52 61 53
REMARK SMILES IDX 27 54 64 55 58 56 57 57 28 59 50 60 35 61 49 62 36 63 39 64
REMARK SMILES IDX 48 65 62 66 37 67 38 68 47 70 63 71 40 72 29 73 30 74 34 75
REMARK SMILES IDX 31 76 33 77 32 78 51 79 52 80 56 81 53 82 55 83 54 84 41 85
REMARK SMILES IDX 42 86 46 87 43 88 45 89 44 90
REMARK H PARENT 61 58 39 69
REMARK Flexibility Score: inf
ROOT
ATOM      1  C   UNL A   1      32.432  28.346  26.745  1.00  0.00     0.188 C 
ENDROOT
BRANCH   1   2
ATOM      2  C   UNL A   1      32.561  28.131  25.223  1.00  0.00     0.188 C 
BRANCH   2   3
ATOM      3  O   UNL A   1      33.666  27.463  24.620  1.00  0.00    -0.376 OA
BRANCH   3   4
ATOM      4  C   UNL A   1      33.968  26.119  24.947  1.00  0.00     0.202 C 
BRANCH   4   5
ATOM      5  C   UNL A   1      34.133  25.144  23.776  1.00  0.00     0.261 C 
BRANCH   5   6
ATOM      6  O   UNL A   1      34.155  23.752  24.128  1.00  0.00    -0.463 OA
BRANCH   6   7
ATOM      7  C   UNL A   1      35.290  23.069  23.847  1.00  0.00     0.313 C 
ATOM      8  O   UNL A   1      35.895  23.153  22.781  1.00  0.00    -0.252 OA
BRANCH   7   9
ATOM      9  C   UNL A   1      35.816  22.211  24.993  1.00  0.00     0.126 C 
ATOM     10  C   UNL A   1      35.647  20.712  24.729  1.00  0.00     0.025 C 
BRANCH   9  11
ATOM     11  C   UNL A   1      37.191  22.498  25.596  1.00  0.00    -0.032 A 
ATOM     12  C   UNL A   1      37.354  23.730  26.241  1.00  0.00     0.005 A 
ATOM     13  C   UNL A   1      38.261  21.581  25.621  1.00  0.00     0.032 A 
ATOM     14  C   UNL A   1      38.548  24.070  26.873  1.00  0.00     0.011 A 
ATOM     15  C   UNL A   1      39.492  21.939  26.225  1.00  0.00     0.058 A 
ATOM     16  C   UNL A   1      39.633  23.174  26.854  1.00  0.00     0.008 A 
ATOM     17  N   UNL A   1      40.708  21.240  26.372  1.00  0.00    -0.274 N 
ATOM     18  C   UNL A   1      40.965  23.275  27.327  1.00  0.00     0.009 A 
ATOM     19  C   UNL A   1      41.654  22.135  26.904  1.00  0.00     0.057 A 
ATOM     20  C   UNL A   1      41.654  24.302  28.007  1.00  0.00     0.031 A 
ATOM     21  C   UNL A   1      43.058  22.073  27.026  1.00  0.00     0.029 A 
ATOM     22  C   UNL A   1      43.030  24.201  28.187  1.00  0.00     0.041 A 
ATOM     23  C   UNL A   1      43.729  23.115  27.681  1.00  0.00     0.023 A 
ATOM     24  Cl  UNL A   1      43.873  25.464  28.996  1.00  0.00    -0.084 Cl
BRANCH  17  25
ATOM     25  C   UNL A   1      40.930  19.878  26.008  1.00  0.00     0.284 C 
ATOM     26  O   UNL A   1      39.935  19.198  25.776  1.00  0.00    -0.266 OA
BRANCH  25  27
ATOM     27  C   UNL A   1      42.248  19.250  25.920  1.00  0.00     0.167 A 
ATOM     28  C   UNL A   1      42.825  18.331  26.773  1.00  0.00     0.231 A 
ATOM     29  N   UNL A   1      43.105  19.451  24.851  1.00  0.00    -0.211 NA
ATOM     30  O   UNL A   1      44.047  17.985  26.275  1.00  0.00    -0.451 OA
ATOM     31  C   UNL A   1      44.143  18.696  25.119  1.00  0.00     0.308 A 
ENDBRANCH  25  27
ENDBRANCH  17  25
ENDBRANCH   9  11
ENDBRANCH   7   9
ENDBRANCH   6   7
ENDBRANCH   5   6
ENDBRANCH   4   5
ENDBRANCH   3   4
ENDBRANCH   2   3
ENDBRANCH   1   2
BRANCH   1  32
ATOM     32  O   UNL A   1      33.651  28.590  27.423  1.00  0.00    -0.377 OA
BRANCH  32  33
ATOM     33  C   UNL A   1      34.270  29.833  27.133  1.00  0.00     0.188 C 
BRANCH  33  34
ATOM     34  C   UNL A   1      33.542  31.046  27.727  1.00  0.00     0.188 C 
BRANCH  34  35
ATOM     35  O   UNL A   1      34.382  32.201  27.766  1.00  0.00    -0.376 OA
BRANCH  35  36
ATOM     36  C   UNL A   1      33.771  33.425  28.155  1.00  0.00     0.202 C 
BRANCH  36  37
ATOM     37  C   UNL A   1      34.280  33.984  29.492  1.00  0.00     0.261 C 
BRANCH  37  38
ATOM     38  O   UNL A   1      35.516  33.424  29.967  1.00  0.00    -0.460 OA
BRANCH  38  39
ATOM     39  C   UNL A   1      35.477  32.661  31.079  1.00  0.00     0.338 C 
ATOM     40  O   UNL A   1      34.492  32.350  31.730  1.00  0.00    -0.246 OA
BRANCH  39  41
ATOM     41  C   UNL A   1      36.822  32.091  31.284  1.00  0.00     0.060 A 
ATOM     42  C   UNL A   1      37.535  32.434  32.441  1.00  0.00     0.016 A 
ATOM     43  C   UNL A   1      37.377  31.224  30.341  1.00  0.00     0.016 A 
ATOM     44  C   UNL A   1      38.823  31.937  32.640  1.00  0.00     0.010 A 
ATOM     45  C   UNL A   1      38.674  30.746  30.530  1.00  0.00     0.010 A 
ATOM     46  C   UNL A   1      39.416  31.127  31.664  1.00  0.00    -0.014 A 
BRANCH  46  47
ATOM     47  C   UNL A   1      40.870  30.853  31.707  1.00  0.00     0.031 A 
ATOM     48  C   UNL A   1      41.790  31.805  30.992  1.00  0.00     0.074 A 
ATOM     49  C   UNL A   1      41.374  29.780  32.342  1.00  0.00     0.049 A 
ATOM     50  N   UNL A   1      43.085  31.739  30.820  1.00  0.00    -0.248 NA
ATOM     51  C   UNL A   1      41.158  32.989  30.383  1.00  0.00     0.031 C 
ATOM     52  C   UNL A   1      40.602  28.797  33.096  1.00  0.00     0.029 A 
ATOM     53  N   UNL A   1      42.669  29.328  32.422  1.00  0.00    -0.354 N 
ATOM     54  C   UNL A   1      43.422  32.871  30.089  1.00  0.00     0.074 A 
ATOM     55  C   UNL A   1      42.193  33.580  29.807  1.00  0.00     0.031 C 
ATOM     56  C   UNL A   1      41.434  27.835  33.536  1.00  0.00     0.029 A 
ATOM     57  C   UNL A   1      42.790  28.129  33.080  1.00  0.00     0.049 A 
ATOM     58  H   UNL A   1      43.435  29.817  32.044  1.00  0.00     0.167 HD
ATOM     59  C   UNL A   1      44.647  33.298  29.700  1.00  0.00     0.031 A 
ATOM     60  C   UNL A   1      43.871  27.346  33.269  1.00  0.00     0.031 A 
ATOM     61  C   UNL A   1      45.870  32.593  29.966  1.00  0.00     0.049 A 
ATOM     62  C   UNL A   1      45.212  27.792  32.747  1.00  0.00     0.074 A 
ATOM     63  C   UNL A   1      47.164  32.958  29.638  1.00  0.00     0.029 A 
ATOM     64  N   UNL A   1      45.948  31.374  30.618  1.00  0.00    -0.354 N 
ATOM     65  N   UNL A   1      45.524  28.886  32.093  1.00  0.00    -0.248 NA
ATOM     66  C   UNL A   1      46.353  26.900  33.004  1.00  0.00     0.031 C 
ATOM     67  C   UNL A   1      48.022  31.932  30.050  1.00  0.00     0.029 A 
ATOM     68  C   UNL A   1      47.266  30.957  30.680  1.00  0.00     0.049 A 
ATOM     69  H   UNL A   1      45.180  30.876  30.982  1.00  0.00     0.167 HD
ATOM     70  C   UNL A   1      46.901  28.832  31.900  1.00  0.00     0.074 A 
ATOM     71  C   UNL A   1      47.362  27.599  32.503  1.00  0.00     0.031 C 
ATOM     72  C   UNL A   1      47.710  29.730  31.289  1.00  0.00     0.031 A 
BRANCH  59  73
ATOM     73  C   UNL A   1      44.709  34.583  28.926  1.00  0.00    -0.014 A 
ATOM     74  C   UNL A   1      44.607  34.589  27.525  1.00  0.00     0.009 A 
ATOM     75  C   UNL A   1      44.862  35.801  29.604  1.00  0.00     0.009 A 
ATOM     76  C   UNL A   1      44.696  35.790  26.817  1.00  0.00     0.001 A 
ATOM     77  C   UNL A   1      44.922  37.002  28.894  1.00  0.00     0.001 A 
ATOM     78  C   UNL A   1      44.850  36.994  27.502  1.00  0.00     0.000 A 
ENDBRANCH  59  73
BRANCH  60  79
ATOM     79  C   UNL A   1      43.736  26.043  33.969  1.00  0.00    -0.014 A 
ATOM     80  C   UNL A   1      43.676  25.984  35.369  1.00  0.00     0.009 A 
ATOM     81  C   UNL A   1      43.701  24.846  33.236  1.00  0.00     0.009 A 
ATOM     82  C   UNL A   1      43.614  24.750  36.023  1.00  0.00     0.001 A 
ATOM     83  C   UNL A   1      43.614  23.616  33.892  1.00  0.00     0.001 A 
ATOM     84  C   UNL A   1      43.581  23.568  35.284  1.00  0.00     0.000 A 
ENDBRANCH  60  79
BRANCH  72  85
ATOM     85  C   UNL A   1      49.186  29.443  31.286  1.00  0.00    -0.014 A 
ATOM     86  C   UNL A   1      49.804  28.795  30.207  1.00  0.00     0.009 A 
ATOM     87  C   UNL A   1      49.975  29.877  32.364  1.00  0.00     0.009 A 
ATOM     88  C   UNL A   1      51.181  28.561  30.222  1.00  0.00     0.001 A 
ATOM     89  C   UNL A   1      51.354  29.665  32.363  1.00  0.00     0.001 A 
ATOM     90  C   UNL A   1      51.955  29.000  31.296  1.00  0.00     0.000 A 
ENDBRANCH  72  85
ENDBRANCH  46  47
ENDBRANCH  39  41
ENDBRANCH  38  39
ENDBRANCH  37  38
ENDBRANCH  36  37
ENDBRANCH  35  36
ENDBRANCH  34  35
ENDBRANCH  33  34
ENDBRANCH  32  33
ENDBRANCH   1  32
TORSDOF 23
ENDMDL
