MODEL 1
REMARK VINA RESULT:     -10.6      0.000      0.000
REMARK SMILES Cc1ccnc(C(=O)c2[nH]c3cc(F)ccc3c2CC(=O)OCCOCCOCCOCCOC(=O)c2ccc(-c3c4nc(c(-c5ccccc5)c5ccc([nH]5)c(-c5ccccc5)c5nc(c(-c6ccccc6)c6ccc3[nH]6)C=C5)C=C4)cc2)c1
REMARK SMILES IDX 27 1 26 2 25 3 24 4 23 5 22 6 20 7 21 8 19 9 18 10 9 11
REMARK SMILES IDX 10 12 11 13 17 15 12 16 16 17 13 18 15 19 14 20 7 21 8 22
REMARK SMILES IDX 6 23 1 24 2 25 3 26 85 27 4 28 5 29 28 30 29 31 30 32 31 33
REMARK SMILES IDX 32 34 33 35 34 36 35 37 36 38 37 39 38 40 84 41 39 42 83 43
REMARK SMILES IDX 40 44 41 45 42 46 77 47 43 48 82 49 76 50 78 51 44 52 81 53
REMARK SMILES IDX 75 54 74 55 45 57 67 58 52 59 66 60 53 61 56 62 65 63 79 64
REMARK SMILES IDX 54 65 55 66 64 68 80 69 57 70 46 71 47 72 51 73 48 74 50 75
REMARK SMILES IDX 49 76 68 77 69 78 73 79 70 80 72 81 71 82 58 83 59 84 63 85
REMARK SMILES IDX 60 86 62 87 61 88
REMARK H PARENT 10 14 78 56 56 67
REMARK Flexibility Score: inf
ROOT
ATOM      1  C   UNL A   1      34.566  34.695  28.398  1.00  0.00     0.188 C 
ENDROOT
BRANCH   1   2
ATOM      2  C   UNL A   1      33.746  33.482  27.962  1.00  0.00     0.188 C 
BRANCH   2   3
ATOM      3  O   UNL A   1      34.441  32.408  27.360  1.00  0.00    -0.376 OA
BRANCH   3   4
ATOM      4  C   UNL A   1      34.067  31.088  27.751  1.00  0.00     0.202 C 
BRANCH   4   5
ATOM      5  C   UNL A   1      33.713  30.031  26.683  1.00  0.00     0.261 C 
BRANCH   5   6
ATOM      6  O   UNL A   1      32.291  29.775  26.501  1.00  0.00    -0.463 OA
BRANCH   6   7
ATOM      7  C   UNL A   1      31.889  28.494  26.695  1.00  0.00     0.310 C 
ATOM      8  O   UNL A   1      32.314  27.800  27.621  1.00  0.00    -0.252 OA
BRANCH   7   9
ATOM      9  C   UNL A   1      30.859  27.909  25.744  1.00  0.00     0.161 C 
BRANCH   9  10
ATOM     10  C   UNL A   1      31.185  27.493  24.324  1.00  0.00     0.000 A 
ATOM     11  C   UNL A   1      30.460  27.778  23.152  1.00  0.00     0.093 A 
ATOM     12  N   UNL A   1      31.181  27.230  22.110  1.00  0.00    -0.351 N 
ATOM     13  C   UNL A   1      32.045  26.273  22.588  1.00  0.00     0.049 A 
ATOM     14  H   UNL A   1      31.091  27.488  21.164  1.00  0.00     0.167 HD
ATOM     15  C   UNL A   1      32.091  26.431  23.972  1.00  0.00     0.004 A 
ATOM     16  C   UNL A   1      32.756  25.274  21.910  1.00  0.00     0.066 A 
ATOM     17  C   UNL A   1      32.875  25.527  24.723  1.00  0.00     0.013 A 
ATOM     18  C   UNL A   1      33.481  24.373  22.688  1.00  0.00     0.125 A 
ATOM     19  C   UNL A   1      33.544  24.484  24.069  1.00  0.00     0.040 A 
ATOM     20  F   UNL A   1      34.114  23.356  22.085  1.00  0.00    -0.207 F 
BRANCH  11  21
ATOM     21  C   UNL A   1      29.193  28.501  23.022  1.00  0.00     0.227 C 
ATOM     22  O   UNL A   1      28.100  27.939  23.106  1.00  0.00    -0.285 OA
BRANCH  21  23
ATOM     23  C   UNL A   1      29.148  29.961  22.721  1.00  0.00     0.113 A 
ATOM     24  C   UNL A   1      27.802  32.306  20.077  1.00  0.00     0.044 C 
ATOM     25  C   UNL A   1      28.408  31.774  21.341  1.00  0.00    -0.047 A 
ATOM     26  C   UNL A   1      28.570  32.620  22.443  1.00  0.00     0.023 A 
ATOM     27  C   UNL A   1      28.702  30.413  21.484  1.00  0.00     0.036 A 
ATOM     28  C   UNL A   1      29.050  32.085  23.628  1.00  0.00     0.112 A 
ATOM     29  N   UNL A   1      29.354  30.781  23.786  1.00  0.00    -0.253 NA
ENDBRANCH  21  23
ENDBRANCH  11  21
ENDBRANCH   9  10
ENDBRANCH   7   9
ENDBRANCH   6   7
ENDBRANCH   5   6
ENDBRANCH   4   5
ENDBRANCH   3   4
ENDBRANCH   2   3
ENDBRANCH   1   2
BRANCH   1  30
ATOM     30  O   UNL A   1      33.970  35.644  29.266  1.00  0.00    -0.377 OA
BRANCH  30  31
ATOM     31  C   UNL A   1      33.258  35.204  30.414  1.00  0.00     0.188 C 
BRANCH  31  32
ATOM     32  C   UNL A   1      32.828  36.250  31.442  1.00  0.00     0.188 C 
BRANCH  32  33
ATOM     33  O   UNL A   1      33.252  36.080  32.795  1.00  0.00    -0.376 OA
BRANCH  33  34
ATOM     34  C   UNL A   1      34.644  36.006  33.087  1.00  0.00     0.202 C 
BRANCH  34  35
ATOM     35  C   UNL A   1      35.119  34.637  33.567  1.00  0.00     0.261 C 
BRANCH  35  36
ATOM     36  O   UNL A   1      35.879  33.969  32.551  1.00  0.00    -0.460 OA
BRANCH  36  37
ATOM     37  C   UNL A   1      35.391  32.763  32.169  1.00  0.00     0.338 C 
ATOM     38  O   UNL A   1      34.242  32.383  32.187  1.00  0.00    -0.246 OA
BRANCH  37  39
ATOM     39  C   UNL A   1      36.489  32.007  31.537  1.00  0.00     0.060 A 
ATOM     40  C   UNL A   1      37.324  31.242  32.360  1.00  0.00     0.016 A 
ATOM     41  C   UNL A   1      36.700  32.064  30.158  1.00  0.00     0.016 A 
ATOM     42  C   UNL A   1      38.386  30.534  31.807  1.00  0.00     0.010 A 
ATOM     43  C   UNL A   1      37.779  31.374  29.607  1.00  0.00     0.010 A 
ATOM     44  C   UNL A   1      38.634  30.625  30.434  1.00  0.00    -0.014 A 
BRANCH  44  45
ATOM     45  C   UNL A   1      39.877  30.061  29.869  1.00  0.00     0.031 A 
ATOM     46  C   UNL A   1      41.088  30.943  29.788  1.00  0.00     0.074 A 
ATOM     47  C   UNL A   1      39.907  28.794  29.424  1.00  0.00     0.049 A 
ATOM     48  N   UNL A   1      42.248  30.705  29.236  1.00  0.00    -0.248 NA
ATOM     49  C   UNL A   1      40.975  32.273  30.410  1.00  0.00     0.031 C 
ATOM     50  C   UNL A   1      38.804  27.837  29.510  1.00  0.00     0.029 A 
ATOM     51  N   UNL A   1      40.908  28.102  28.794  1.00  0.00    -0.354 N 
ATOM     52  C   UNL A   1      42.996  31.859  29.428  1.00  0.00     0.074 A 
ATOM     53  C   UNL A   1      42.157  32.802  30.135  1.00  0.00     0.031 C 
ATOM     54  C   UNL A   1      39.185  26.684  28.936  1.00  0.00     0.029 A 
ATOM     55  C   UNL A   1      40.537  26.839  28.403  1.00  0.00     0.049 A 
ATOM     56  H   UNL A   1      41.807  28.473  28.637  1.00  0.00     0.167 HD
ATOM     57  C   UNL A   1      44.268  32.107  29.043  1.00  0.00     0.031 A 
ATOM     58  C   UNL A   1      41.203  25.933  27.665  1.00  0.00     0.031 A 
ATOM     59  C   UNL A   1      45.085  31.165  28.326  1.00  0.00     0.049 A 
ATOM     60  C   UNL A   1      42.581  26.278  27.160  1.00  0.00     0.074 A 
ATOM     61  C   UNL A   1      46.395  31.306  27.907  1.00  0.00     0.029 A 
ATOM     62  N   UNL A   1      44.660  29.914  27.909  1.00  0.00    -0.354 N 
ATOM     63  N   UNL A   1      43.296  27.357  27.376  1.00  0.00    -0.248 NA
ATOM     64  C   UNL A   1      43.240  25.282  26.304  1.00  0.00     0.031 C 
ATOM     65  C   UNL A   1      46.740  30.168  27.173  1.00  0.00     0.029 A 
ATOM     66  C   UNL A   1      45.668  29.289  27.197  1.00  0.00     0.049 A 
ATOM     67  H   UNL A   1      43.774  29.527  28.093  1.00  0.00     0.167 HD
ATOM     68  C   UNL A   1      44.498  27.156  26.706  1.00  0.00     0.074 A 
ATOM     69  C   UNL A   1      44.421  25.844  26.097  1.00  0.00     0.031 C 
ATOM     70  C   UNL A   1      45.566  27.983  26.598  1.00  0.00     0.031 A 
BRANCH  57  71
ATOM     71  C   UNL A   1      44.840  33.464  29.343  1.00  0.00    -0.014 A 
ATOM     72  C   UNL A   1      45.580  33.709  30.509  1.00  0.00     0.009 A 
ATOM     73  C   UNL A   1      44.676  34.502  28.412  1.00  0.00     0.009 A 
ATOM     74  C   UNL A   1      46.127  34.973  30.746  1.00  0.00     0.001 A 
ATOM     75  C   UNL A   1      45.248  35.756  28.637  1.00  0.00     0.001 A 
ATOM     76  C   UNL A   1      45.967  35.991  29.807  1.00  0.00     0.000 A 
ENDBRANCH  57  71
BRANCH  58  77
ATOM     77  C   UNL A   1      40.574  24.632  27.312  1.00  0.00    -0.014 A 
ATOM     78  C   UNL A   1      39.416  24.589  26.519  1.00  0.00     0.009 A 
ATOM     79  C   UNL A   1      41.100  23.427  27.804  1.00  0.00     0.009 A 
ATOM     80  C   UNL A   1      38.782  23.372  26.257  1.00  0.00     0.001 A 
ATOM     81  C   UNL A   1      40.483  22.209  27.512  1.00  0.00     0.001 A 
ATOM     82  C   UNL A   1      39.317  22.184  26.750  1.00  0.00     0.000 A 
ENDBRANCH  58  77
BRANCH  70  83
ATOM     83  C   UNL A   1      46.749  27.480  25.817  1.00  0.00    -0.014 A 
ATOM     84  C   UNL A   1      46.974  27.890  24.494  1.00  0.00     0.009 A 
ATOM     85  C   UNL A   1      47.677  26.626  26.432  1.00  0.00     0.009 A 
ATOM     86  C   UNL A   1      48.088  27.427  23.792  1.00  0.00     0.001 A 
ATOM     87  C   UNL A   1      48.807  26.192  25.740  1.00  0.00     0.001 A 
ATOM     88  C   UNL A   1      49.006  26.585  24.417  1.00  0.00     0.000 A 
ENDBRANCH  70  83
ENDBRANCH  44  45
ENDBRANCH  37  39
ENDBRANCH  36  37
ENDBRANCH  35  36
ENDBRANCH  34  35
ENDBRANCH  33  34
ENDBRANCH  32  33
ENDBRANCH  31  32
ENDBRANCH  30  31
ENDBRANCH   1  30
TORSDOF 23
ENDMDL
MODEL 2
REMARK VINA RESULT:     -10.2      5.020     10.941
REMARK SMILES Cc1ccnc(C(=O)c2[nH]c3cc(F)ccc3c2CC(=O)OCCOCCOCCOCCOC(=O)c2ccc(-c3c4nc(c(-c5ccccc5)c5ccc([nH]5)c(-c5ccccc5)c5nc(c(-c6ccccc6)c6ccc3[nH]6)C=C5)C=C4)cc2)c1
REMARK SMILES IDX 27 1 26 2 25 3 24 4 23 5 22 6 20 7 21 8 19 9 18 10 9 11
REMARK SMILES IDX 10 12 11 13 17 15 12 16 16 17 13 18 15 19 14 20 7 21 8 22
REMARK SMILES IDX 6 23 1 24 2 25 3 26 85 27 4 28 5 29 28 30 29 31 30 32 31 33
REMARK SMILES IDX 32 34 33 35 34 36 35 37 36 38 37 39 38 40 84 41 39 42 83 43
REMARK SMILES IDX 40 44 41 45 42 46 77 47 43 48 82 49 76 50 78 51 44 52 81 53
REMARK SMILES IDX 75 54 74 55 45 57 67 58 52 59 66 60 53 61 56 62 65 63 79 64
REMARK SMILES IDX 54 65 55 66 64 68 80 69 57 70 46 71 47 72 51 73 48 74 50 75
REMARK SMILES IDX 49 76 68 77 69 78 73 79 70 80 72 81 71 82 58 83 59 84 63 85
REMARK SMILES IDX 60 86 62 87 61 88
REMARK H PARENT 10 14 78 56 56 67
REMARK Flexibility Score: inf
ROOT
ATOM      1  C   UNL A   1      41.432  19.929  27.234  1.00  0.00     0.188 C 
ENDROOT
BRANCH   1   2
ATOM      2  C   UNL A   1      41.106  21.369  26.840  1.00  0.00     0.188 C 
BRANCH   2   3
ATOM      3  O   UNL A   1      39.773  21.806  27.020  1.00  0.00    -0.376 OA
BRANCH   3   4
ATOM      4  C   UNL A   1      39.304  22.839  26.155  1.00  0.00     0.202 C 
BRANCH   4   5
ATOM      5  C   UNL A   1      38.211  23.818  26.633  1.00  0.00     0.261 C 
BRANCH   5   6
ATOM      6  O   UNL A   1      36.843  23.329  26.538  1.00  0.00    -0.463 OA
BRANCH   6   7
ATOM      7  C   UNL A   1      36.262  23.422  25.316  1.00  0.00     0.310 C 
ATOM      8  O   UNL A   1      36.293  22.501  24.497  1.00  0.00    -0.252 OA
BRANCH   7   9
ATOM      9  C   UNL A   1      35.529  24.704  24.961  1.00  0.00     0.161 C 
BRANCH   9  10
ATOM     10  C   UNL A   1      34.199  25.094  25.572  1.00  0.00     0.000 A 
ATOM     11  C   UNL A   1      33.199  24.244  26.081  1.00  0.00     0.093 A 
ATOM     12  N   UNL A   1      32.206  25.068  26.572  1.00  0.00    -0.351 N 
ATOM     13  C   UNL A   1      32.318  26.321  26.019  1.00  0.00     0.049 A 
ATOM     14  H   UNL A   1      31.519  24.798  27.224  1.00  0.00     0.167 HD
ATOM     15  C   UNL A   1      33.570  26.379  25.409  1.00  0.00     0.004 A 
ATOM     16  C   UNL A   1      31.404  27.384  25.987  1.00  0.00     0.066 A 
ATOM     17  C   UNL A   1      33.921  27.556  24.711  1.00  0.00     0.013 A 
ATOM     18  C   UNL A   1      31.768  28.510  25.250  1.00  0.00     0.125 A 
ATOM     19  C   UNL A   1      32.997  28.605  24.616  1.00  0.00     0.040 A 
ATOM     20  F   UNL A   1      30.891  29.518  25.131  1.00  0.00    -0.207 F 
BRANCH  11  21
ATOM     21  C   UNL A   1      33.176  22.780  26.100  1.00  0.00     0.227 C 
ATOM     22  O   UNL A   1      33.367  22.128  27.128  1.00  0.00    -0.285 OA
BRANCH  21  23
ATOM     23  C   UNL A   1      32.978  21.981  24.856  1.00  0.00     0.113 A 
ATOM     24  C   UNL A   1      32.373  18.396  23.813  1.00  0.00     0.044 C 
ATOM     25  C   UNL A   1      32.517  19.889  23.784  1.00  0.00    -0.047 A 
ATOM     26  C   UNL A   1      32.064  20.609  22.674  1.00  0.00     0.023 A 
ATOM     27  C   UNL A   1      32.983  20.591  24.901  1.00  0.00     0.036 A 
ATOM     28  C   UNL A   1      32.126  21.993  22.708  1.00  0.00     0.112 A 
ATOM     29  N   UNL A   1      32.584  22.691  23.766  1.00  0.00    -0.253 NA
ENDBRANCH  21  23
ENDBRANCH  11  21
ENDBRANCH   9  10
ENDBRANCH   7   9
ENDBRANCH   6   7
ENDBRANCH   5   6
ENDBRANCH   4   5
ENDBRANCH   3   4
ENDBRANCH   2   3
ENDBRANCH   1   2
BRANCH   1  30
ATOM     30  O   UNL A   1      42.720  19.417  26.937  1.00  0.00    -0.377 OA
BRANCH  30  31
ATOM     31  C   UNL A   1      42.960  18.785  25.688  1.00  0.00     0.188 C 
BRANCH  31  32
ATOM     32  C   UNL A   1      44.280  19.073  24.974  1.00  0.00     0.188 C 
BRANCH  32  33
ATOM     33  O   UNL A   1      44.323  20.158  24.047  1.00  0.00    -0.376 OA
BRANCH  33  34
ATOM     34  C   UNL A   1      45.097  21.313  24.360  1.00  0.00     0.202 C 
BRANCH  34  35
ATOM     35  C   UNL A   1      44.588  22.112  25.555  1.00  0.00     0.261 C 
BRANCH  35  36
ATOM     36  O   UNL A   1      43.817  23.244  25.129  1.00  0.00    -0.460 OA
BRANCH  36  37
ATOM     37  C   UNL A   1      44.424  24.446  25.289  1.00  0.00     0.338 C 
ATOM     38  O   UNL A   1      45.322  24.922  24.630  1.00  0.00    -0.246 OA
BRANCH  37  39
ATOM     39  C   UNL A   1      43.685  25.197  26.321  1.00  0.00     0.060 A 
ATOM     40  C   UNL A   1      44.064  26.521  26.573  1.00  0.00     0.016 A 
ATOM     41  C   UNL A   1      42.646  24.600  27.038  1.00  0.00     0.016 A 
ATOM     42  C   UNL A   1      43.410  27.256  27.556  1.00  0.00     0.010 A 
ATOM     43  C   UNL A   1      42.007  25.328  28.040  1.00  0.00     0.010 A 
ATOM     44  C   UNL A   1      42.401  26.650  28.313  1.00  0.00    -0.014 A 
BRANCH  44  45
ATOM     45  C   UNL A   1      41.851  27.340  29.497  1.00  0.00     0.031 A 
ATOM     46  C   UNL A   1      40.545  28.065  29.358  1.00  0.00     0.074 A 
ATOM     47  C   UNL A   1      42.521  27.329  30.662  1.00  0.00     0.049 A 
ATOM     48  N   UNL A   1      39.927  28.826  30.220  1.00  0.00    -0.248 NA
ATOM     49  C   UNL A   1      39.843  27.913  28.072  1.00  0.00     0.031 C 
ATOM     50  C   UNL A   1      43.767  26.607  30.918  1.00  0.00     0.029 A 
ATOM     51  N   UNL A   1      42.247  27.963  31.846  1.00  0.00    -0.354 N 
ATOM     52  C   UNL A   1      38.775  29.259  29.577  1.00  0.00     0.074 A 
ATOM     53  C   UNL A   1      38.784  28.687  28.249  1.00  0.00     0.031 C 
ATOM     54  C   UNL A   1      44.159  26.854  32.179  1.00  0.00     0.029 A 
ATOM     55  C   UNL A   1      43.219  27.785  32.798  1.00  0.00     0.049 A 
ATOM     56  H   UNL A   1      41.431  28.494  31.999  1.00  0.00     0.167 HD
ATOM     57  C   UNL A   1      37.800  30.066  30.056  1.00  0.00     0.031 A 
ATOM     58  C   UNL A   1      43.349  28.346  34.015  1.00  0.00     0.031 A 
ATOM     59  C   UNL A   1      37.812  30.640  31.374  1.00  0.00     0.049 A 
ATOM     60  C   UNL A   1      42.300  29.323  34.480  1.00  0.00     0.074 A 
ATOM     61  C   UNL A   1      36.864  31.453  31.968  1.00  0.00     0.029 A 
ATOM     62  N   UNL A   1      38.835  30.473  32.295  1.00  0.00    -0.354 N 
ATOM     63  N   UNL A   1      41.194  29.699  33.881  1.00  0.00    -0.248 NA
ATOM     64  C   UNL A   1      42.521  29.957  35.787  1.00  0.00     0.031 C 
ATOM     65  C   UNL A   1      37.347  31.837  33.222  1.00  0.00     0.029 A 
ATOM     66  C   UNL A   1      38.563  31.206  33.436  1.00  0.00     0.049 A 
ATOM     67  H   UNL A   1      39.635  29.916  32.157  1.00  0.00     0.167 HD
ATOM     68  C   UNL A   1      40.577  30.591  34.751  1.00  0.00     0.074 A 
ATOM     69  C   UNL A   1      41.420  30.681  35.925  1.00  0.00     0.031 C 
ATOM     70  C   UNL A   1      39.420  31.279  34.592  1.00  0.00     0.031 A 
BRANCH  57  71
ATOM     71  C   UNL A   1      36.665  30.416  29.135  1.00  0.00    -0.014 A 
ATOM     72  C   UNL A   1      36.536  31.698  28.581  1.00  0.00     0.009 A 
ATOM     73  C   UNL A   1      35.738  29.424  28.777  1.00  0.00     0.009 A 
ATOM     74  C   UNL A   1      35.488  31.986  27.703  1.00  0.00     0.001 A 
ATOM     75  C   UNL A   1      34.709  29.706  27.877  1.00  0.00     0.001 A 
ATOM     76  C   UNL A   1      34.582  30.988  27.346  1.00  0.00     0.000 A 
ENDBRANCH  57  71
BRANCH  58  77
ATOM     77  C   UNL A   1      44.531  28.044  34.866  1.00  0.00    -0.014 A 
ATOM     78  C   UNL A   1      44.467  27.045  35.850  1.00  0.00     0.009 A 
ATOM     79  C   UNL A   1      45.717  28.783  34.730  1.00  0.00     0.009 A 
ATOM     80  C   UNL A   1      45.552  26.818  36.702  1.00  0.00     0.001 A 
ATOM     81  C   UNL A   1      46.811  28.531  35.560  1.00  0.00     0.001 A 
ATOM     82  C   UNL A   1      46.723  27.558  36.553  1.00  0.00     0.000 A 
ENDBRANCH  58  77
BRANCH  70  83
ATOM     83  C   UNL A   1      38.986  32.166  35.726  1.00  0.00    -0.014 A 
ATOM     84  C   UNL A   1      39.355  33.519  35.775  1.00  0.00     0.009 A 
ATOM     85  C   UNL A   1      38.153  31.652  36.731  1.00  0.00     0.009 A 
ATOM     86  C   UNL A   1      38.926  34.330  36.826  1.00  0.00     0.001 A 
ATOM     87  C   UNL A   1      37.697  32.472  37.763  1.00  0.00     0.001 A 
ATOM     88  C   UNL A   1      38.092  33.809  37.815  1.00  0.00     0.000 A 
ENDBRANCH  70  83
ENDBRANCH  44  45
ENDBRANCH  37  39
ENDBRANCH  36  37
ENDBRANCH  35  36
ENDBRANCH  34  35
ENDBRANCH  33  34
ENDBRANCH  32  33
ENDBRANCH  31  32
ENDBRANCH  30  31
ENDBRANCH   1  30
TORSDOF 23
ENDMDL
MODEL 3
REMARK VINA RESULT:     -10.1      4.415      7.972
REMARK SMILES Cc1ccnc(C(=O)c2[nH]c3cc(F)ccc3c2CC(=O)OCCOCCOCCOCCOC(=O)c2ccc(-c3c4nc(c(-c5ccccc5)c5ccc([nH]5)c(-c5ccccc5)c5nc(c(-c6ccccc6)c6ccc3[nH]6)C=C5)C=C4)cc2)c1
REMARK SMILES IDX 27 1 26 2 25 3 24 4 23 5 22 6 20 7 21 8 19 9 18 10 9 11
REMARK SMILES IDX 10 12 11 13 17 15 12 16 16 17 13 18 15 19 14 20 7 21 8 22
REMARK SMILES IDX 6 23 1 24 2 25 3 26 85 27 4 28 5 29 28 30 29 31 30 32 31 33
REMARK SMILES IDX 32 34 33 35 34 36 35 37 36 38 37 39 38 40 84 41 39 42 83 43
REMARK SMILES IDX 40 44 41 45 42 46 77 47 43 48 82 49 76 50 78 51 44 52 81 53
REMARK SMILES IDX 75 54 74 55 45 57 67 58 52 59 66 60 53 61 56 62 65 63 79 64
REMARK SMILES IDX 54 65 55 66 64 68 80 69 57 70 46 71 47 72 51 73 48 74 50 75
REMARK SMILES IDX 49 76 68 77 69 78 73 79 70 80 72 81 71 82 58 83 59 84 63 85
REMARK SMILES IDX 60 86 62 87 61 88
REMARK H PARENT 10 14 78 56 56 67
REMARK Flexibility Score: inf
ROOT
ATOM      1  C   UNL A   1      31.149  28.721  22.986  1.00  0.00     0.188 C 
ENDROOT
BRANCH   1   2
ATOM      2  C   UNL A   1      30.331  27.431  22.958  1.00  0.00     0.188 C 
BRANCH   2   3
ATOM      3  O   UNL A   1      30.997  26.246  22.571  1.00  0.00    -0.376 OA
BRANCH   3   4
ATOM      4  C   UNL A   1      31.783  26.300  21.382  1.00  0.00     0.202 C 
BRANCH   4   5
ATOM      5  C   UNL A   1      33.230  25.760  21.380  1.00  0.00     0.261 C 
BRANCH   5   6
ATOM      6  O   UNL A   1      33.601  24.953  22.534  1.00  0.00    -0.463 OA
BRANCH   6   7
ATOM      7  C   UNL A   1      33.575  23.610  22.352  1.00  0.00     0.310 C 
ATOM      8  O   UNL A   1      33.339  23.094  21.257  1.00  0.00    -0.252 OA
BRANCH   7   9
ATOM      9  C   UNL A   1      33.872  22.714  23.542  1.00  0.00     0.161 C 
BRANCH   9  10
ATOM     10  C   UNL A   1      32.813  22.274  24.532  1.00  0.00     0.000 A 
ATOM     11  C   UNL A   1      32.262  20.989  24.695  1.00  0.00     0.093 A 
ATOM     12  N   UNL A   1      31.378  21.080  25.752  1.00  0.00    -0.351 N 
ATOM     13  C   UNL A   1      31.027  22.393  25.961  1.00  0.00     0.049 A 
ATOM     14  H   UNL A   1      31.049  20.317  26.279  1.00  0.00     0.167 HD
ATOM     15  C   UNL A   1      31.928  23.169  25.232  1.00  0.00     0.004 A 
ATOM     16  C   UNL A   1      29.976  22.943  26.706  1.00  0.00     0.066 A 
ATOM     17  C   UNL A   1      31.755  24.571  25.231  1.00  0.00     0.013 A 
ATOM     18  C   UNL A   1      29.811  24.325  26.644  1.00  0.00     0.125 A 
ATOM     19  C   UNL A   1      30.674  25.134  25.920  1.00  0.00     0.040 A 
ATOM     20  F   UNL A   1      28.771  24.885  27.281  1.00  0.00    -0.207 F 
BRANCH  11  21
ATOM     21  C   UNL A   1      32.538  19.779  23.918  1.00  0.00     0.227 C 
ATOM     22  O   UNL A   1      32.194  19.656  22.741  1.00  0.00    -0.285 OA
BRANCH  21  23
ATOM     23  C   UNL A   1      33.205  18.591  24.524  1.00  0.00     0.113 A 
ATOM     24  C   UNL A   1      32.330  15.120  25.747  1.00  0.00     0.044 C 
ATOM     25  C   UNL A   1      33.102  16.335  25.324  1.00  0.00    -0.047 A 
ATOM     26  C   UNL A   1      34.479  16.240  25.098  1.00  0.00     0.023 A 
ATOM     27  C   UNL A   1      32.450  17.538  25.028  1.00  0.00     0.036 A 
ATOM     28  C   UNL A   1      35.154  17.352  24.623  1.00  0.00     0.112 A 
ATOM     29  N   UNL A   1      34.551  18.526  24.345  1.00  0.00    -0.253 NA
ENDBRANCH  21  23
ENDBRANCH  11  21
ENDBRANCH   9  10
ENDBRANCH   7   9
ENDBRANCH   6   7
ENDBRANCH   5   6
ENDBRANCH   4   5
ENDBRANCH   3   4
ENDBRANCH   2   3
ENDBRANCH   1   2
BRANCH   1  30
ATOM     30  O   UNL A   1      31.245  29.442  24.203  1.00  0.00    -0.377 OA
BRANCH  30  31
ATOM     31  C   UNL A   1      32.437  29.375  24.973  1.00  0.00     0.188 C 
BRANCH  31  32
ATOM     32  C   UNL A   1      32.351  29.691  26.465  1.00  0.00     0.188 C 
BRANCH  32  33
ATOM     33  O   UNL A   1      32.591  31.035  26.886  1.00  0.00    -0.376 OA
BRANCH  33  34
ATOM     34  C   UNL A   1      31.558  32.005  26.747  1.00  0.00     0.202 C 
BRANCH  34  35
ATOM     35  C   UNL A   1      32.036  33.453  26.803  1.00  0.00     0.261 C 
BRANCH  35  36
ATOM     36  O   UNL A   1      32.215  33.885  28.159  1.00  0.00    -0.460 OA
BRANCH  36  37
ATOM     37  C   UNL A   1      33.309  34.656  28.377  1.00  0.00     0.338 C 
ATOM     38  O   UNL A   1      33.381  35.865  28.382  1.00  0.00    -0.246 OA
BRANCH  37  39
ATOM     39  C   UNL A   1      34.413  33.773  28.798  1.00  0.00     0.060 A 
ATOM     40  C   UNL A   1      34.089  32.526  29.347  1.00  0.00     0.016 A 
ATOM     41  C   UNL A   1      35.744  34.174  28.667  1.00  0.00     0.016 A 
ATOM     42  C   UNL A   1      35.100  31.674  29.780  1.00  0.00     0.010 A 
ATOM     43  C   UNL A   1      36.755  33.331  29.123  1.00  0.00     0.010 A 
ATOM     44  C   UNL A   1      36.433  32.089  29.698  1.00  0.00    -0.014 A 
BRANCH  44  45
ATOM     45  C   UNL A   1      37.495  31.295  30.348  1.00  0.00     0.031 A 
ATOM     46  C   UNL A   1      37.792  31.551  31.797  1.00  0.00     0.074 A 
ATOM     47  C   UNL A   1      38.185  30.380  29.648  1.00  0.00     0.049 A 
ATOM     48  N   UNL A   1      38.743  31.060  32.545  1.00  0.00    -0.248 NA
ATOM     49  C   UNL A   1      36.897  32.491  32.494  1.00  0.00     0.031 C 
ATOM     50  C   UNL A   1      37.937  30.013  28.254  1.00  0.00     0.029 A 
ATOM     51  N   UNL A   1      39.252  29.603  30.018  1.00  0.00    -0.354 N 
ATOM     52  C   UNL A   1      38.574  31.642  33.794  1.00  0.00     0.074 A 
ATOM     53  C   UNL A   1      37.438  32.533  33.702  1.00  0.00     0.031 C 
ATOM     54  C   UNL A   1      38.840  29.092  27.880  1.00  0.00     0.029 A 
ATOM     55  C   UNL A   1      39.755  28.842  28.992  1.00  0.00     0.049 A 
ATOM     56  H   UNL A   1      39.622  29.591  30.930  1.00  0.00     0.167 HD
ATOM     57  C   UNL A   1      39.307  31.451  34.914  1.00  0.00     0.031 A 
ATOM     58  C   UNL A   1      40.853  28.065  28.951  1.00  0.00     0.031 A 
ATOM     59  C   UNL A   1      40.444  30.573  34.986  1.00  0.00     0.049 A 
ATOM     60  C   UNL A   1      41.710  27.953  30.186  1.00  0.00     0.074 A 
ATOM     61  C   UNL A   1      41.243  30.288  36.078  1.00  0.00     0.029 A 
ATOM     62  N   UNL A   1      40.950  29.853  33.916  1.00  0.00    -0.354 N 
ATOM     63  N   UNL A   1      41.524  28.478  31.374  1.00  0.00    -0.248 NA
ATOM     64  C   UNL A   1      42.932  27.145  30.071  1.00  0.00     0.031 C 
ATOM     65  C   UNL A   1      42.277  29.451  35.650  1.00  0.00     0.029 A 
ATOM     66  C   UNL A   1      42.080  29.159  34.309  1.00  0.00     0.049 A 
ATOM     67  H   UNL A   1      40.563  29.837  33.011  1.00  0.00     0.167 HD
ATOM     68  C   UNL A   1      42.589  28.041  32.153  1.00  0.00     0.074 A 
ATOM     69  C   UNL A   1      43.404  27.192  31.308  1.00  0.00     0.031 C 
ATOM     70  C   UNL A   1      42.874  28.321  33.448  1.00  0.00     0.031 A 
BRANCH  57  71
ATOM     71  C   UNL A   1      38.934  32.239  36.138  1.00  0.00    -0.014 A 
ATOM     72  C   UNL A   1      38.106  31.702  37.135  1.00  0.00     0.009 A 
ATOM     73  C   UNL A   1      39.468  33.525  36.319  1.00  0.00     0.009 A 
ATOM     74  C   UNL A   1      37.802  32.446  38.278  1.00  0.00     0.001 A 
ATOM     75  C   UNL A   1      39.188  34.255  37.475  1.00  0.00     0.001 A 
ATOM     76  C   UNL A   1      38.350  33.717  38.450  1.00  0.00     0.000 A 
ENDBRANCH  57  71
BRANCH  58  77
ATOM     77  C   UNL A   1      41.241  27.367  27.696  1.00  0.00    -0.014 A 
ATOM     78  C   UNL A   1      40.853  26.037  27.468  1.00  0.00     0.009 A 
ATOM     79  C   UNL A   1      42.040  28.011  26.738  1.00  0.00     0.009 A 
ATOM     80  C   UNL A   1      41.286  25.358  26.325  1.00  0.00     0.001 A 
ATOM     81  C   UNL A   1      42.443  27.341  25.581  1.00  0.00     0.001 A 
ATOM     82  C   UNL A   1      42.077  26.011  25.382  1.00  0.00     0.000 A 
ENDBRANCH  58  77
BRANCH  70  83
ATOM     83  C   UNL A   1      44.100  27.680  34.037  1.00  0.00    -0.014 A 
ATOM     84  C   UNL A   1      45.341  28.336  34.026  1.00  0.00     0.009 A 
ATOM     85  C   UNL A   1      44.000  26.425  34.656  1.00  0.00     0.009 A 
ATOM     86  C   UNL A   1      46.463  27.732  34.595  1.00  0.00     0.001 A 
ATOM     87  C   UNL A   1      45.115  25.838  35.254  1.00  0.00     0.001 A 
ATOM     88  C   UNL A   1      46.348  26.488  35.214  1.00  0.00     0.000 A 
ENDBRANCH  70  83
ENDBRANCH  44  45
ENDBRANCH  37  39
ENDBRANCH  36  37
ENDBRANCH  35  36
ENDBRANCH  34  35
ENDBRANCH  33  34
ENDBRANCH  32  33
ENDBRANCH  31  32
ENDBRANCH  30  31
ENDBRANCH   1  30
TORSDOF 23
ENDMDL
