MODEL 1
REMARK VINA RESULT:      -7.2      0.000      0.000
REMARK SMILES COCCC(=O)N[C@H](C)CC(=O)OCCOCCOCCOCCOC(=O)c1ccc(-c2c3nc(c(-c4ccccc4)c4ccc([nH]4)c(-c4ccccc4)c4nc(c(-c5ccccc5)c5ccc2[nH]5)C=C4)C=C3)cc1
REMARK SMILES IDX 17 1 16 2 15 3 14 4 13 5 11 6 12 7 10 8 8 9 9 10 7 11 5 12
REMARK SMILES IDX 6 13 4 15 3 16 2 17 1 18 18 19 19 20 20 21 21 22 22 23 23 24
REMARK SMILES IDX 24 25 25 26 26 27 27 28 28 29 29 30 75 31 30 32 74 33 31 34
REMARK SMILES IDX 32 35 33 36 68 37 34 38 73 39 67 40 69 41 35 42 72 43 66 44
REMARK SMILES IDX 65 45 36 47 58 48 43 49 57 50 44 51 47 52 56 53 70 54 45 55
REMARK SMILES IDX 46 56 55 58 71 59 48 60 37 61 38 62 42 63 39 64 41 65 40 66
REMARK SMILES IDX 59 67 60 68 64 69 61 70 63 71 62 72 49 73 50 74 54 75 51 76
REMARK SMILES IDX 53 77 52 78
REMARK H PARENT 7 14 69 46 47 57
REMARK Flexibility Score: inf
ROOT
ATOM      1  C   UNL A   1      35.970  22.987  24.549  1.00  0.00     0.188 C 
ENDROOT
BRANCH   1   2
ATOM      2  O   UNL A   1      35.442  23.349  25.809  1.00  0.00    -0.376 OA
BRANCH   2   3
ATOM      3  C   UNL A   1      34.637  24.513  25.937  1.00  0.00     0.202 C 
BRANCH   3   4
ATOM      4  C   UNL A   1      33.991  25.233  24.737  1.00  0.00     0.261 C 
BRANCH   4   5
ATOM      5  O   UNL A   1      32.600  25.613  24.840  1.00  0.00    -0.463 OA
BRANCH   5   6
ATOM      6  C   UNL A   1      31.721  24.602  25.052  1.00  0.00     0.307 C 
ATOM      7  O   UNL A   1      31.339  24.250  26.165  1.00  0.00    -0.252 OA
BRANCH   6   8
ATOM      8  C   UNL A   1      31.300  23.838  23.810  1.00  0.00     0.147 C 
BRANCH   8   9
ATOM      9  C   UNL A   1      31.965  22.487  23.516  1.00  0.00     0.090 C 
ATOM     10  C   UNL A   1      32.972  22.574  22.371  1.00  0.00     0.031 C 
BRANCH   9  11
ATOM     11  N   UNL A   1      32.632  21.977  24.727  1.00  0.00    -0.353 N 
ATOM     12  C   UNL A   1      32.877  20.712  25.167  1.00  0.00     0.222 C 
ATOM     13  O   UNL A   1      33.392  20.579  26.279  1.00  0.00    -0.275 OA
ATOM     14  H   UNL A   1      32.961  22.683  25.331  1.00  0.00     0.163 HD
BRANCH  12  15
ATOM     15  C   UNL A   1      32.536  19.500  24.333  1.00  0.00     0.128 C 
BRANCH  15  16
ATOM     16  C   UNL A   1      33.604  18.415  24.436  1.00  0.00     0.169 C 
BRANCH  16  17
ATOM     17  O   UNL A   1      33.266  17.373  25.352  1.00  0.00    -0.384 OA
ATOM     18  C   UNL A   1      34.042  16.191  25.202  1.00  0.00     0.194 C 
ENDBRANCH  16  17
ENDBRANCH  15  16
ENDBRANCH  12  15
ENDBRANCH   9  11
ENDBRANCH   8   9
ENDBRANCH   6   8
ENDBRANCH   5   6
ENDBRANCH   4   5
ENDBRANCH   3   4
ENDBRANCH   2   3
ENDBRANCH   1   2
BRANCH   1  19
ATOM     19  C   UNL A   1      37.298  22.236  24.487  1.00  0.00     0.188 C 
BRANCH  19  20
ATOM     20  O   UNL A   1      37.801  21.775  25.726  1.00  0.00    -0.377 OA
BRANCH  20  21
ATOM     21  C   UNL A   1      39.094  22.200  26.142  1.00  0.00     0.188 C 
BRANCH  21  22
ATOM     22  C   UNL A   1      39.262  23.501  26.952  1.00  0.00     0.188 C 
BRANCH  22  23
ATOM     23  O   UNL A   1      40.589  23.786  27.358  1.00  0.00    -0.376 OA
BRANCH  23  24
ATOM     24  C   UNL A   1      41.302  22.823  28.118  1.00  0.00     0.202 C 
BRANCH  24  25
ATOM     25  C   UNL A   1      42.678  23.217  28.684  1.00  0.00     0.261 C 
BRANCH  25  26
ATOM     26  O   UNL A   1      43.823  22.897  27.875  1.00  0.00    -0.460 OA
BRANCH  26  27
ATOM     27  C   UNL A   1      43.842  23.336  26.597  1.00  0.00     0.338 C 
ATOM     28  O   UNL A   1      43.304  22.833  25.635  1.00  0.00    -0.246 OA
BRANCH  27  29
ATOM     29  C   UNL A   1      44.484  24.671  26.593  1.00  0.00     0.060 A 
ATOM     30  C   UNL A   1      44.591  25.364  25.381  1.00  0.00     0.016 A 
ATOM     31  C   UNL A   1      44.994  25.224  27.770  1.00  0.00     0.016 A 
ATOM     32  C   UNL A   1      45.245  26.595  25.333  1.00  0.00     0.010 A 
ATOM     33  C   UNL A   1      45.670  26.447  27.717  1.00  0.00     0.010 A 
ATOM     34  C   UNL A   1      45.832  27.120  26.491  1.00  0.00    -0.014 A 
BRANCH  34  35
ATOM     35  C   UNL A   1      46.780  28.256  26.386  1.00  0.00     0.031 A 
ATOM     36  C   UNL A   1      46.234  29.655  26.490  1.00  0.00     0.074 A 
ATOM     37  C   UNL A   1      48.101  28.061  26.235  1.00  0.00     0.049 A 
ATOM     38  N   UNL A   1      46.856  30.802  26.387  1.00  0.00    -0.248 NA
ATOM     39  C   UNL A   1      44.788  29.774  26.742  1.00  0.00     0.031 C 
ATOM     40  C   UNL A   1      48.768  26.761  26.183  1.00  0.00     0.029 A 
ATOM     41  N   UNL A   1      49.122  28.969  26.095  1.00  0.00    -0.354 N 
ATOM     42  C   UNL A   1      45.879  31.776  26.554  1.00  0.00     0.074 A 
ATOM     43  C   UNL A   1      44.619  31.088  26.731  1.00  0.00     0.031 C 
ATOM     44  C   UNL A   1      50.088  26.955  26.016  1.00  0.00     0.029 A 
ATOM     45  C   UNL A   1      50.354  28.390  25.911  1.00  0.00     0.049 A 
ATOM     46  H   UNL A   1      48.984  29.944  26.124  1.00  0.00     0.167 HD
ATOM     47  C   UNL A   1      46.017  33.123  26.566  1.00  0.00     0.031 A 
ATOM     48  C   UNL A   1      51.553  28.953  25.663  1.00  0.00     0.031 A 
ATOM     49  C   UNL A   1      47.265  33.810  26.370  1.00  0.00     0.049 A 
ATOM     50  C   UNL A   1      51.664  30.454  25.577  1.00  0.00     0.074 A 
ATOM     51  C   UNL A   1      47.507  35.172  26.365  1.00  0.00     0.029 A 
ATOM     52  N   UNL A   1      48.479  33.186  26.131  1.00  0.00    -0.354 N 
ATOM     53  N   UNL A   1      50.737  31.365  25.751  1.00  0.00    -0.248 NA
ATOM     54  C   UNL A   1      52.992  31.002  25.267  1.00  0.00     0.031 C 
ATOM     55  C   UNL A   1      48.856  35.374  26.058  1.00  0.00     0.029 A 
ATOM     56  C   UNL A   1      49.469  34.136  25.948  1.00  0.00     0.049 A 
ATOM     57  H   UNL A   1      48.617  32.212  26.097  1.00  0.00     0.167 HD
ATOM     58  C   UNL A   1      51.376  32.592  25.608  1.00  0.00     0.074 A 
ATOM     59  C   UNL A   1      52.772  32.307  25.346  1.00  0.00     0.031 C 
ATOM     60  C   UNL A   1      50.856  33.841  25.688  1.00  0.00     0.031 A 
BRANCH  47  61
ATOM     61  C   UNL A   1      44.770  33.943  26.759  1.00  0.00    -0.014 A 
ATOM     62  C   UNL A   1      44.322  34.306  28.039  1.00  0.00     0.009 A 
ATOM     63  C   UNL A   1      44.046  34.381  25.639  1.00  0.00     0.009 A 
ATOM     64  C   UNL A   1      43.155  35.059  28.194  1.00  0.00     0.001 A 
ATOM     65  C   UNL A   1      42.899  35.160  25.795  1.00  0.00     0.001 A 
ATOM     66  C   UNL A   1      42.449  35.489  27.072  1.00  0.00     0.000 A 
ENDBRANCH  47  61
BRANCH  48  67
ATOM     67  C   UNL A   1      52.752  28.097  25.452  1.00  0.00    -0.014 A 
ATOM     68  C   UNL A   1      53.075  27.616  24.174  1.00  0.00     0.009 A 
ATOM     69  C   UNL A   1      53.565  27.731  26.537  1.00  0.00     0.009 A 
ATOM     70  C   UNL A   1      54.167  26.765  23.991  1.00  0.00     0.001 A 
ATOM     71  C   UNL A   1      54.677  26.907  26.346  1.00  0.00     0.001 A 
ATOM     72  C   UNL A   1      54.971  26.416  25.076  1.00  0.00     0.000 A 
ENDBRANCH  48  67
BRANCH  60  73
ATOM     73  C   UNL A   1      51.805  35.001  25.542  1.00  0.00    -0.014 A 
ATOM     74  C   UNL A   1      52.039  35.607  24.298  1.00  0.00     0.009 A 
ATOM     75  C   UNL A   1      52.439  35.524  26.681  1.00  0.00     0.009 A 
ATOM     76  C   UNL A   1      52.918  36.688  24.193  1.00  0.00     0.001 A 
ATOM     77  C   UNL A   1      53.289  36.626  26.578  1.00  0.00     0.001 A 
ATOM     78  C   UNL A   1      53.537  37.200  25.334  1.00  0.00     0.000 A 
ENDBRANCH  60  73
ENDBRANCH  34  35
ENDBRANCH  27  29
ENDBRANCH  26  27
ENDBRANCH  25  26
ENDBRANCH  24  25
ENDBRANCH  23  24
ENDBRANCH  22  23
ENDBRANCH  21  22
ENDBRANCH  20  21
ENDBRANCH  19  20
ENDBRANCH   1  19
TORSDOF 25
ENDMDL
MODEL 2
REMARK VINA RESULT:      -6.5      4.469      8.967
REMARK SMILES COCCC(=O)N[C@H](C)CC(=O)OCCOCCOCCOCCOC(=O)c1ccc(-c2c3nc(c(-c4ccccc4)c4ccc([nH]4)c(-c4ccccc4)c4nc(c(-c5ccccc5)c5ccc2[nH]5)C=C4)C=C3)cc1
REMARK SMILES IDX 17 1 16 2 15 3 14 4 13 5 11 6 12 7 10 8 8 9 9 10 7 11 5 12
REMARK SMILES IDX 6 13 4 15 3 16 2 17 1 18 18 19 19 20 20 21 21 22 22 23 23 24
REMARK SMILES IDX 24 25 25 26 26 27 27 28 28 29 29 30 75 31 30 32 74 33 31 34
REMARK SMILES IDX 32 35 33 36 68 37 34 38 73 39 67 40 69 41 35 42 72 43 66 44
REMARK SMILES IDX 65 45 36 47 58 48 43 49 57 50 44 51 47 52 56 53 70 54 45 55
REMARK SMILES IDX 46 56 55 58 71 59 48 60 37 61 38 62 42 63 39 64 41 65 40 66
REMARK SMILES IDX 59 67 60 68 64 69 61 70 63 71 62 72 49 73 50 74 54 75 51 76
REMARK SMILES IDX 53 77 52 78
REMARK H PARENT 7 14 69 46 47 57
REMARK Flexibility Score: inf
ROOT
ATOM      1  C   UNL A   1      40.340  27.631  28.189  1.00  0.00     0.188 C 
ENDROOT
BRANCH   1   2
ATOM      2  O   UNL A   1      40.449  26.555  27.279  1.00  0.00    -0.376 OA
BRANCH   2   3
ATOM      3  C   UNL A   1      40.680  25.237  27.758  1.00  0.00     0.202 C 
BRANCH   3   4
ATOM      4  C   UNL A   1      39.846  24.017  27.323  1.00  0.00     0.261 C 
BRANCH   4   5
ATOM      5  O   UNL A   1      40.278  22.707  27.756  1.00  0.00    -0.463 OA
BRANCH   5   6
ATOM      6  C   UNL A   1      40.849  21.926  26.806  1.00  0.00     0.307 C 
ATOM      7  O   UNL A   1      40.229  21.411  25.880  1.00  0.00    -0.252 OA
BRANCH   6   8
ATOM      8  C   UNL A   1      42.323  21.626  27.013  1.00  0.00     0.147 C 
BRANCH   8   9
ATOM      9  C   UNL A   1      43.353  22.365  26.147  1.00  0.00     0.090 C 
ATOM     10  C   UNL A   1      43.979  21.457  25.092  1.00  0.00     0.031 C 
BRANCH   9  11
ATOM     11  N   UNL A   1      42.724  23.527  25.494  1.00  0.00    -0.353 N 
ATOM     12  C   UNL A   1      43.191  24.775  25.212  1.00  0.00     0.222 C 
ATOM     13  O   UNL A   1      42.402  25.587  24.722  1.00  0.00    -0.275 OA
ATOM     14  H   UNL A   1      41.794  23.372  25.210  1.00  0.00     0.163 HD
BRANCH  12  15
ATOM     15  C   UNL A   1      44.624  25.168  25.483  1.00  0.00     0.128 C 
BRANCH  15  16
ATOM     16  C   UNL A   1      44.743  26.097  26.688  1.00  0.00     0.169 C 
BRANCH  16  17
ATOM     17  O   UNL A   1      44.834  27.477  26.331  1.00  0.00    -0.384 OA
ATOM     18  C   UNL A   1      43.660  28.229  26.610  1.00  0.00     0.194 C 
ENDBRANCH  16  17
ENDBRANCH  15  16
ENDBRANCH  12  15
ENDBRANCH   9  11
ENDBRANCH   8   9
ENDBRANCH   6   8
ENDBRANCH   5   6
ENDBRANCH   4   5
ENDBRANCH   3   4
ENDBRANCH   2   3
ENDBRANCH   1   2
BRANCH   1  19
ATOM     19  C   UNL A   1      39.489  27.458  29.445  1.00  0.00     0.188 C 
BRANCH  19  20
ATOM     20  O   UNL A   1      39.210  28.643  30.166  1.00  0.00    -0.377 OA
BRANCH  20  21
ATOM     21  C   UNL A   1      38.027  28.702  30.955  1.00  0.00     0.188 C 
BRANCH  21  22
ATOM     22  C   UNL A   1      38.114  28.654  32.493  1.00  0.00     0.188 C 
BRANCH  22  23
ATOM     23  O   UNL A   1      38.983  29.611  33.073  1.00  0.00    -0.376 OA
BRANCH  23  24
ATOM     24  C   UNL A   1      38.489  30.466  34.093  1.00  0.00     0.202 C 
BRANCH  24  25
ATOM     25  C   UNL A   1      37.681  31.706  33.674  1.00  0.00     0.261 C 
BRANCH  25  26
ATOM     26  O   UNL A   1      37.877  32.180  32.331  1.00  0.00    -0.460 OA
BRANCH  26  27
ATOM     27  C   UNL A   1      38.619  33.296  32.152  1.00  0.00     0.338 C 
ATOM     28  O   UNL A   1      38.361  34.420  32.523  1.00  0.00    -0.246 OA
BRANCH  27  29
ATOM     29  C   UNL A   1      39.920  32.880  31.581  1.00  0.00     0.060 A 
ATOM     30  C   UNL A   1      39.934  32.206  30.353  1.00  0.00     0.016 A 
ATOM     31  C   UNL A   1      41.114  33.136  32.259  1.00  0.00     0.016 A 
ATOM     32  C   UNL A   1      41.138  31.747  29.819  1.00  0.00     0.010 A 
ATOM     33  C   UNL A   1      42.318  32.656  31.735  1.00  0.00     0.010 A 
ATOM     34  C   UNL A   1      42.331  31.926  30.531  1.00  0.00    -0.014 A 
BRANCH  34  35
ATOM     35  C   UNL A   1      43.549  31.182  30.126  1.00  0.00     0.031 A 
ATOM     36  C   UNL A   1      44.644  31.934  29.417  1.00  0.00     0.074 A 
ATOM     37  C   UNL A   1      43.703  29.876  30.405  1.00  0.00     0.049 A 
ATOM     38  N   UNL A   1      45.777  31.493  28.932  1.00  0.00    -0.248 NA
ATOM     39  C   UNL A   1      44.429  33.378  29.231  1.00  0.00     0.031 C 
ATOM     40  C   UNL A   1      42.750  29.046  31.138  1.00  0.00     0.029 A 
ATOM     41  N   UNL A   1      44.730  29.018  30.096  1.00  0.00    -0.354 N 
ATOM     42  C   UNL A   1      46.404  32.603  28.377  1.00  0.00     0.074 A 
ATOM     43  C   UNL A   1      45.513  33.728  28.555  1.00  0.00     0.031 C 
ATOM     44  C   UNL A   1      43.235  27.794  31.218  1.00  0.00     0.029 A 
ATOM     45  C   UNL A   1      44.512  27.726  30.509  1.00  0.00     0.049 A 
ATOM     46  H   UNL A   1      45.546  29.302  29.623  1.00  0.00     0.167 HD
ATOM     47  C   UNL A   1      47.616  32.681  27.778  1.00  0.00     0.031 A 
ATOM     48  C   UNL A   1      45.248  26.614  30.315  1.00  0.00     0.031 A 
ATOM     49  C   UNL A   1      48.494  31.560  27.580  1.00  0.00     0.049 A 
ATOM     50  C   UNL A   1      46.546  26.707  29.553  1.00  0.00     0.074 A 
ATOM     51  C   UNL A   1      49.743  31.538  26.985  1.00  0.00     0.029 A 
ATOM     52  N   UNL A   1      48.210  30.259  27.964  1.00  0.00    -0.354 N 
ATOM     53  N   UNL A   1      47.136  27.763  29.046  1.00  0.00    -0.248 NA
ATOM     54  C   UNL A   1      47.281  25.451  29.345  1.00  0.00     0.031 C 
ATOM     55  C   UNL A   1      50.186  30.212  26.949  1.00  0.00     0.029 A 
ATOM     56  C   UNL A   1      49.247  29.421  27.591  1.00  0.00     0.049 A 
ATOM     57  H   UNL A   1      47.393  29.973  28.432  1.00  0.00     0.167 HD
ATOM     58  C   UNL A   1      48.326  27.304  28.492  1.00  0.00     0.074 A 
ATOM     59  C   UNL A   1      48.380  25.878  28.738  1.00  0.00     0.031 C 
ATOM     60  C   UNL A   1      49.290  28.002  27.841  1.00  0.00     0.031 A 
BRANCH  47  61
ATOM     61  C   UNL A   1      48.042  34.026  27.254  1.00  0.00    -0.014 A 
ATOM     62  C   UNL A   1      47.734  34.434  25.946  1.00  0.00     0.009 A 
ATOM     63  C   UNL A   1      48.740  34.908  28.092  1.00  0.00     0.009 A 
ATOM     64  C   UNL A   1      48.149  35.683  25.479  1.00  0.00     0.001 A 
ATOM     65  C   UNL A   1      49.126  36.168  27.633  1.00  0.00     0.001 A 
ATOM     66  C   UNL A   1      48.840  36.550  26.324  1.00  0.00     0.000 A 
ENDBRANCH  47  61
BRANCH  48  67
ATOM     67  C   UNL A   1      44.770  25.301  30.829  1.00  0.00    -0.014 A 
ATOM     68  C   UNL A   1      44.077  24.412  29.992  1.00  0.00     0.009 A 
ATOM     69  C   UNL A   1      44.978  24.944  32.171  1.00  0.00     0.009 A 
ATOM     70  C   UNL A   1      43.579  23.208  30.496  1.00  0.00     0.001 A 
ATOM     71  C   UNL A   1      44.509  23.724  32.663  1.00  0.00     0.001 A 
ATOM     72  C   UNL A   1      43.800  22.862  31.828  1.00  0.00     0.000 A 
ENDBRANCH  48  67
BRANCH  60  73
ATOM     73  C   UNL A   1      50.511  27.246  27.390  1.00  0.00    -0.014 A 
ATOM     74  C   UNL A   1      51.614  27.057  28.237  1.00  0.00     0.009 A 
ATOM     75  C   UNL A   1      50.535  26.672  26.108  1.00  0.00     0.009 A 
ATOM     76  C   UNL A   1      52.730  26.342  27.795  1.00  0.00     0.001 A 
ATOM     77  C   UNL A   1      51.637  25.929  25.682  1.00  0.00     0.001 A 
ATOM     78  C   UNL A   1      52.738  25.775  26.521  1.00  0.00     0.000 A 
ENDBRANCH  60  73
ENDBRANCH  34  35
ENDBRANCH  27  29
ENDBRANCH  26  27
ENDBRANCH  25  26
ENDBRANCH  24  25
ENDBRANCH  23  24
ENDBRANCH  22  23
ENDBRANCH  21  22
ENDBRANCH  20  21
ENDBRANCH  19  20
ENDBRANCH   1  19
TORSDOF 25
ENDMDL
MODEL 3
REMARK VINA RESULT:      -6.3     10.836     14.959
REMARK SMILES COCCC(=O)N[C@H](C)CC(=O)OCCOCCOCCOCCOC(=O)c1ccc(-c2c3nc(c(-c4ccccc4)c4ccc([nH]4)c(-c4ccccc4)c4nc(c(-c5ccccc5)c5ccc2[nH]5)C=C4)C=C3)cc1
REMARK SMILES IDX 17 1 16 2 15 3 14 4 13 5 11 6 12 7 10 8 8 9 9 10 7 11 5 12
REMARK SMILES IDX 6 13 4 15 3 16 2 17 1 18 18 19 19 20 20 21 21 22 22 23 23 24
REMARK SMILES IDX 24 25 25 26 26 27 27 28 28 29 29 30 75 31 30 32 74 33 31 34
REMARK SMILES IDX 32 35 33 36 68 37 34 38 73 39 67 40 69 41 35 42 72 43 66 44
REMARK SMILES IDX 65 45 36 47 58 48 43 49 57 50 44 51 47 52 56 53 70 54 45 55
REMARK SMILES IDX 46 56 55 58 71 59 48 60 37 61 38 62 42 63 39 64 41 65 40 66
REMARK SMILES IDX 59 67 60 68 64 69 61 70 63 71 62 72 49 73 50 74 54 75 51 76
REMARK SMILES IDX 53 77 52 78
REMARK H PARENT 7 14 69 46 47 57
REMARK Flexibility Score: inf
ROOT
ATOM      1  C   UNL A   1      44.162  18.316  43.151  1.00  0.00     0.188 C 
ENDROOT
BRANCH   1   2
ATOM      2  O   UNL A   1      44.359  16.968  42.771  1.00  0.00    -0.376 OA
BRANCH   2   3
ATOM      3  C   UNL A   1      43.274  16.207  42.259  1.00  0.00     0.202 C 
BRANCH   3   4
ATOM      4  C   UNL A   1      42.588  15.073  43.044  1.00  0.00     0.261 C 
BRANCH   4   5
ATOM      5  O   UNL A   1      41.511  14.355  42.401  1.00  0.00    -0.463 OA
BRANCH   5   6
ATOM      6  C   UNL A   1      41.709  13.026  42.214  1.00  0.00     0.307 C 
ATOM      7  O   UNL A   1      42.149  12.539  41.176  1.00  0.00    -0.252 OA
BRANCH   6   8
ATOM      8  C   UNL A   1      41.249  12.136  43.354  1.00  0.00     0.147 C 
BRANCH   8   9
ATOM      9  C   UNL A   1      42.268  11.198  44.014  1.00  0.00     0.090 C 
ATOM     10  C   UNL A   1      42.283   9.813  43.372  1.00  0.00     0.031 C 
BRANCH   9  11
ATOM     11  N   UNL A   1      43.616  11.791  43.949  1.00  0.00    -0.353 N 
ATOM     12  C   UNL A   1      44.315  12.563  44.827  1.00  0.00     0.222 C 
ATOM     13  O   UNL A   1      45.413  12.992  44.469  1.00  0.00    -0.275 OA
ATOM     14  H   UNL A   1      44.102  11.593  43.115  1.00  0.00     0.163 HD
BRANCH  12  15
ATOM     15  C   UNL A   1      43.776  12.891  46.200  1.00  0.00     0.128 C 
BRANCH  15  16
ATOM     16  C   UNL A   1      44.641  12.300  47.310  1.00  0.00     0.169 C 
BRANCH  16  17
ATOM     17  O   UNL A   1      44.916  10.910  47.134  1.00  0.00    -0.384 OA
ATOM     18  C   UNL A   1      46.220  10.518  47.543  1.00  0.00     0.194 C 
ENDBRANCH  16  17
ENDBRANCH  15  16
ENDBRANCH  12  15
ENDBRANCH   9  11
ENDBRANCH   8   9
ENDBRANCH   6   8
ENDBRANCH   5   6
ENDBRANCH   4   5
ENDBRANCH   3   4
ENDBRANCH   2   3
ENDBRANCH   1   2
BRANCH   1  19
ATOM     19  C   UNL A   1      44.818  19.423  42.329  1.00  0.00     0.188 C 
BRANCH  19  20
ATOM     20  O   UNL A   1      46.217  19.309  42.151  1.00  0.00    -0.377 OA
BRANCH  20  21
ATOM     21  C   UNL A   1      46.711  18.781  40.925  1.00  0.00     0.188 C 
BRANCH  21  22
ATOM     22  C   UNL A   1      46.403  19.491  39.592  1.00  0.00     0.188 C 
BRANCH  22  23
ATOM     23  O   UNL A   1      46.600  18.700  38.433  1.00  0.00    -0.376 OA
BRANCH  23  24
ATOM     24  C   UNL A   1      45.674  18.797  37.362  1.00  0.00     0.202 C 
BRANCH  24  25
ATOM     25  C   UNL A   1      46.036  19.698  36.168  1.00  0.00     0.261 C 
BRANCH  25  26
ATOM     26  O   UNL A   1      45.290  20.920  36.034  1.00  0.00    -0.460 OA
BRANCH  26  27
ATOM     27  C   UNL A   1      45.793  22.038  36.604  1.00  0.00     0.338 C 
ATOM     28  O   UNL A   1      46.592  22.107  37.512  1.00  0.00    -0.246 OA
BRANCH  27  29
ATOM     29  C   UNL A   1      45.345  23.193  35.794  1.00  0.00     0.060 A 
ATOM     30  C   UNL A   1      44.663  22.952  34.594  1.00  0.00     0.016 A 
ATOM     31  C   UNL A   1      45.611  24.501  36.204  1.00  0.00     0.016 A 
ATOM     32  C   UNL A   1      44.282  24.018  33.778  1.00  0.00     0.010 A 
ATOM     33  C   UNL A   1      45.249  25.567  35.375  1.00  0.00     0.010 A 
ATOM     34  C   UNL A   1      44.617  25.329  34.140  1.00  0.00    -0.014 A 
BRANCH  34  35
ATOM     35  C   UNL A   1      44.492  26.422  33.144  1.00  0.00     0.031 A 
ATOM     36  C   UNL A   1      45.556  26.550  32.086  1.00  0.00     0.074 A 
ATOM     37  C   UNL A   1      43.446  27.265  33.150  1.00  0.00     0.049 A 
ATOM     38  N   UNL A   1      45.684  27.444  31.139  1.00  0.00    -0.248 NA
ATOM     39  C   UNL A   1      46.618  25.530  32.101  1.00  0.00     0.031 C 
ATOM     40  C   UNL A   1      42.318  27.213  34.078  1.00  0.00     0.029 A 
ATOM     41  N   UNL A   1      43.167  28.339  32.341  1.00  0.00    -0.354 N 
ATOM     42  C   UNL A   1      46.843  27.100  30.453  1.00  0.00     0.074 A 
ATOM     43  C   UNL A   1      47.397  25.938  31.111  1.00  0.00     0.031 C 
ATOM     44  C   UNL A   1      41.470  28.216  33.789  1.00  0.00     0.029 A 
ATOM     45  C   UNL A   1      42.014  29.002  32.683  1.00  0.00     0.049 A 
ATOM     46  H   UNL A   1      43.740  28.608  31.586  1.00  0.00     0.167 HD
ATOM     47  C   UNL A   1      47.394  27.694  29.368  1.00  0.00     0.031 A 
ATOM     48  C   UNL A   1      41.474  30.128  32.176  1.00  0.00     0.031 A 
ATOM     49  C   UNL A   1      46.856  28.862  28.724  1.00  0.00     0.049 A 
ATOM     50  C   UNL A   1      42.162  30.831  31.033  1.00  0.00     0.074 A 
ATOM     51  C   UNL A   1      47.341  29.537  27.618  1.00  0.00     0.029 A 
ATOM     52  N   UNL A   1      45.717  29.535  29.137  1.00  0.00    -0.354 N 
ATOM     53  N   UNL A   1      43.249  30.490  30.383  1.00  0.00    -0.248 NA
ATOM     54  C   UNL A   1      41.541  32.074  30.551  1.00  0.00     0.031 C 
ATOM     55  C   UNL A   1      46.533  30.657  27.402  1.00  0.00     0.029 A 
ATOM     56  C   UNL A   1      45.500  30.636  28.326  1.00  0.00     0.049 A 
ATOM     57  H   UNL A   1      45.146  29.270  29.894  1.00  0.00     0.167 HD
ATOM     58  C   UNL A   1      43.420  31.453  29.395  1.00  0.00     0.074 A 
ATOM     59  C   UNL A   1      42.318  32.384  29.523  1.00  0.00     0.031 C 
ATOM     60  C   UNL A   1      44.400  31.556  28.463  1.00  0.00     0.031 A 
BRANCH  47  61
ATOM     61  C   UNL A   1      48.673  27.107  28.835  1.00  0.00    -0.014 A 
ATOM     62  C   UNL A   1      48.664  26.053  27.907  1.00  0.00     0.009 A 
ATOM     63  C   UNL A   1      49.905  27.635  29.248  1.00  0.00     0.009 A 
ATOM     64  C   UNL A   1      49.865  25.517  27.435  1.00  0.00     0.001 A 
ATOM     65  C   UNL A   1      51.102  27.120  28.750  1.00  0.00     0.001 A 
ATOM     66  C   UNL A   1      51.081  26.054  27.853  1.00  0.00     0.000 A 
ENDBRANCH  47  61
BRANCH  48  67
ATOM     67  C   UNL A   1      40.221  30.684  32.756  1.00  0.00    -0.014 A 
ATOM     68  C   UNL A   1      40.266  31.577  33.838  1.00  0.00     0.009 A 
ATOM     69  C   UNL A   1      38.970  30.300  32.248  1.00  0.00     0.009 A 
ATOM     70  C   UNL A   1      39.086  32.049  34.417  1.00  0.00     0.001 A 
ATOM     71  C   UNL A   1      37.792  30.801  32.807  1.00  0.00     0.001 A 
ATOM     72  C   UNL A   1      37.850  31.666  33.898  1.00  0.00     0.000 A 
ENDBRANCH  48  67
BRANCH  60  73
ATOM     73  C   UNL A   1      44.302  32.687  27.473  1.00  0.00    -0.014 A 
ATOM     74  C   UNL A   1      43.885  32.473  26.151  1.00  0.00     0.009 A 
ATOM     75  C   UNL A   1      44.588  33.997  27.890  1.00  0.00     0.009 A 
ATOM     76  C   UNL A   1      43.795  33.543  25.257  1.00  0.00     0.001 A 
ATOM     77  C   UNL A   1      44.463  35.068  27.004  1.00  0.00     0.001 A 
ATOM     78  C   UNL A   1      44.078  34.839  25.685  1.00  0.00     0.000 A 
ENDBRANCH  60  73
ENDBRANCH  34  35
ENDBRANCH  27  29
ENDBRANCH  26  27
ENDBRANCH  25  26
ENDBRANCH  24  25
ENDBRANCH  23  24
ENDBRANCH  22  23
ENDBRANCH  21  22
ENDBRANCH  20  21
ENDBRANCH  19  20
ENDBRANCH   1  19
TORSDOF 25
ENDMDL
