MODEL 1
REMARK VINA RESULT:      -8.5      0.000      0.000
REMARK SMILES O=C(OCCOCCOCCOCCOC(=O)[C@H]1CC=CC[C@H]1C(=O)Nc1ccc(S(=O)(=O)N2CCCC2)cc1)c1ccc(-c2c3nc(c(-c4ccccc4)c4ccc([nH]4)c(-c4ccccc4)c4nc(c(-c5ccccc5)c5ccc2[nH]5)C=C4)C=C3)cc1
REMARK SMILES IDX 10 1 9 2 8 3 7 4 6 5 5 6 4 7 3 8 2 9 1 10 41 11 42 12 88 13
REMARK SMILES IDX 43 14 87 15 44 16 45 17 46 18 81 19 47 20 86 21 80 22 82 23
REMARK SMILES IDX 48 24 85 25 79 26 78 27 49 29 71 30 56 31 70 32 57 33 60 34
REMARK SMILES IDX 69 35 83 36 58 37 59 38 68 40 84 41 61 42 50 43 51 44 55 45
REMARK SMILES IDX 52 46 54 47 53 48 72 49 73 50 77 51 74 52 76 53 75 54 62 55
REMARK SMILES IDX 63 56 67 57 64 58 66 59 65 60 11 61 12 62 13 63 14 64 15 65
REMARK SMILES IDX 16 66 17 67 18 68 19 69 23 70 20 71 22 72 21 73 24 74 25 75
REMARK SMILES IDX 26 76 27 78 28 79 40 80 29 81 39 82 30 83 31 84 32 85 33 86
REMARK SMILES IDX 34 87 35 88 38 89 36 90 37 91
REMARK H PARENT 82 28 60 39 26 77
REMARK Flexibility Score: inf
ROOT
ATOM      1  C   UNL A   1      39.138  33.324  34.111  1.00  0.00     0.188 C 
ENDROOT
BRANCH   1   2
ATOM      2  O   UNL A   1      38.418  33.578  35.332  1.00  0.00    -0.377 OA
BRANCH   2   3
ATOM      3  C   UNL A   1      38.339  32.538  36.329  1.00  0.00     0.188 C 
BRANCH   3   4
ATOM      4  C   UNL A   1      39.129  32.707  37.597  1.00  0.00     0.188 C 
BRANCH   4   5
ATOM      5  O   UNL A   1      38.508  33.703  38.355  1.00  0.00    -0.376 OA
BRANCH   5   6
ATOM      6  C   UNL A   1      39.066  34.996  38.286  1.00  0.00     0.202 C 
BRANCH   6   7
ATOM      7  C   UNL A   1      40.046  35.152  39.444  1.00  0.00     0.261 C 
BRANCH   7   8
ATOM      8  O   UNL A   1      41.383  35.050  38.902  1.00  0.00    -0.460 OA
BRANCH   8   9
ATOM      9  C   UNL A   1      41.819  36.162  38.249  1.00  0.00     0.338 C 
ATOM     10  O   UNL A   1      41.677  37.322  38.600  1.00  0.00    -0.246 OA
BRANCH   9  11
ATOM     11  C   UNL A   1      42.378  35.777  36.933  1.00  0.00     0.060 A 
ATOM     12  C   UNL A   1      41.533  35.696  35.814  1.00  0.00     0.016 A 
ATOM     13  C   UNL A   1      43.744  35.536  36.791  1.00  0.00     0.016 A 
ATOM     14  C   UNL A   1      42.016  35.383  34.564  1.00  0.00     0.010 A 
ATOM     15  C   UNL A   1      44.220  35.077  35.562  1.00  0.00     0.010 A 
ATOM     16  C   UNL A   1      43.331  34.953  34.476  1.00  0.00    -0.014 A 
BRANCH  16  17
ATOM     17  C   UNL A   1      43.579  33.973  33.415  1.00  0.00     0.031 A 
ATOM     18  C   UNL A   1      43.981  34.533  32.082  1.00  0.00     0.074 A 
ATOM     19  C   UNL A   1      43.628  32.663  33.688  1.00  0.00     0.049 A 
ATOM     20  N   UNL A   1      44.076  33.942  30.926  1.00  0.00    -0.248 NA
ATOM     21  C   UNL A   1      44.333  35.966  32.052  1.00  0.00     0.031 C 
ATOM     22  C   UNL A   1      43.500  32.071  35.019  1.00  0.00     0.029 A 
ATOM     23  N   UNL A   1      43.813  31.602  32.853  1.00  0.00    -0.354 N 
ATOM     24  C   UNL A   1      44.418  34.946  30.027  1.00  0.00     0.074 A 
ATOM     25  C   UNL A   1      44.564  36.172  30.770  1.00  0.00     0.031 C 
ATOM     26  C   UNL A   1      43.576  30.734  34.905  1.00  0.00     0.029 A 
ATOM     27  C   UNL A   1      43.659  30.395  33.487  1.00  0.00     0.049 A 
ATOM     28  H   UNL A   1      44.032  31.691  31.898  1.00  0.00     0.167 HD
ATOM     29  C   UNL A   1      44.536  34.846  28.686  1.00  0.00     0.031 A 
ATOM     30  C   UNL A   1      43.505  29.174  32.947  1.00  0.00     0.031 A 
ATOM     31  C   UNL A   1      44.337  33.599  28.008  1.00  0.00     0.049 A 
ATOM     32  C   UNL A   1      43.504  29.085  31.443  1.00  0.00     0.074 A 
ATOM     33  C   UNL A   1      44.315  33.332  26.656  1.00  0.00     0.029 A 
ATOM     34  N   UNL A   1      44.111  32.395  28.669  1.00  0.00    -0.354 N 
ATOM     35  N   UNL A   1      43.683  30.044  30.559  1.00  0.00    -0.248 NA
ATOM     36  C   UNL A   1      43.252  27.765  30.856  1.00  0.00     0.031 C 
ATOM     37  C   UNL A   1      44.009  31.974  26.500  1.00  0.00     0.029 A 
ATOM     38  C   UNL A   1      43.922  31.382  27.756  1.00  0.00     0.049 A 
ATOM     39  H   UNL A   1      44.091  32.285  29.648  1.00  0.00     0.167 HD
ATOM     40  C   UNL A   1      43.584  29.443  29.312  1.00  0.00     0.074 A 
ATOM     41  C   UNL A   1      43.335  28.033  29.558  1.00  0.00     0.031 C 
ATOM     42  C   UNL A   1      43.687  29.994  28.076  1.00  0.00     0.031 A 
BRANCH  29  43
ATOM     43  C   UNL A   1      44.709  36.131  27.925  1.00  0.00    -0.014 A 
ATOM     44  C   UNL A   1      45.972  36.672  27.634  1.00  0.00     0.009 A 
ATOM     45  C   UNL A   1      43.566  36.880  27.600  1.00  0.00     0.009 A 
ATOM     46  C   UNL A   1      46.086  37.960  27.100  1.00  0.00     0.001 A 
ATOM     47  C   UNL A   1      43.681  38.151  27.034  1.00  0.00     0.001 A 
ATOM     48  C   UNL A   1      44.941  38.699  26.802  1.00  0.00     0.000 A 
ENDBRANCH  29  43
BRANCH  30  49
ATOM     49  C   UNL A   1      43.219  28.009  33.823  1.00  0.00    -0.014 A 
ATOM     50  C   UNL A   1      41.908  27.687  34.199  1.00  0.00     0.009 A 
ATOM     51  C   UNL A   1      44.266  27.171  34.250  1.00  0.00     0.009 A 
ATOM     52  C   UNL A   1      41.654  26.558  34.985  1.00  0.00     0.001 A 
ATOM     53  C   UNL A   1      44.006  26.028  35.008  1.00  0.00     0.001 A 
ATOM     54  C   UNL A   1      42.700  25.725  35.380  1.00  0.00     0.000 A 
ENDBRANCH  30  49
BRANCH  42  55
ATOM     55  C   UNL A   1      43.593  29.063  26.906  1.00  0.00    -0.014 A 
ATOM     56  C   UNL A   1      44.710  28.351  26.448  1.00  0.00     0.009 A 
ATOM     57  C   UNL A   1      42.332  28.809  26.344  1.00  0.00     0.009 A 
ATOM     58  C   UNL A   1      44.564  27.403  25.435  1.00  0.00     0.001 A 
ATOM     59  C   UNL A   1      42.186  27.838  25.355  1.00  0.00     0.001 A 
ATOM     60  C   UNL A   1      43.302  27.140  24.900  1.00  0.00     0.000 A 
ENDBRANCH  42  55
ENDBRANCH  16  17
ENDBRANCH   9  11
ENDBRANCH   8   9
ENDBRANCH   7   8
ENDBRANCH   6   7
ENDBRANCH   5   6
ENDBRANCH   4   5
ENDBRANCH   3   4
ENDBRANCH   2   3
ENDBRANCH   1   2
BRANCH   1  61
ATOM     61  C   UNL A   1      39.961  31.992  34.014  1.00  0.00     0.188 C 
BRANCH  61  62
ATOM     62  O   UNL A   1      39.723  30.905  32.944  1.00  0.00    -0.376 OA
BRANCH  62  63
ATOM     63  C   UNL A   1      40.169  30.058  31.193  1.00  0.00     0.202 C 
BRANCH  63  64
ATOM     64  C   UNL A   1      39.563  30.133  29.605  1.00  0.00     0.261 C 
BRANCH  64  65
ATOM     65  O   UNL A   1      38.181  30.354  29.272  1.00  0.00    -0.463 OA
BRANCH  65  66
ATOM     66  C   UNL A   1      37.559  31.437  29.782  1.00  0.00     0.310 C 
ATOM     67  O   UNL A   1      38.024  32.566  29.703  1.00  0.00    -0.252 OA
BRANCH  66  68
ATOM     68  C   UNL A   1      36.178  31.093  30.399  1.00  0.00     0.116 C 
ATOM     69  C   UNL A   1      36.384  30.582  31.848  1.00  0.00     0.043 C 
ATOM     70  C   UNL A   1      34.987  32.114  30.344  1.00  0.00     0.097 C 
ATOM     71  C   UNL A   1      36.314  31.636  32.918  1.00  0.00    -0.030 C 
ATOM     72  C   UNL A   1      34.634  32.938  31.616  1.00  0.00     0.041 C 
ATOM     73  C   UNL A   1      35.498  32.694  32.823  1.00  0.00    -0.030 C 
BRANCH  70  74
ATOM     74  C   UNL A   1      34.827  32.899  29.036  1.00  0.00     0.228 C 
ATOM     75  O   UNL A   1      35.197  34.085  29.020  1.00  0.00    -0.274 OA
ATOM     76  N   UNL A   1      34.297  32.442  27.869  1.00  0.00    -0.326 N 
ATOM     77  H   UNL A   1      34.223  33.140  27.179  1.00  0.00     0.169 HD
BRANCH  76  78
ATOM     78  C   UNL A   1      33.833  31.188  27.436  1.00  0.00     0.041 A 
ATOM     79  C   UNL A   1      34.899  29.697  27.402  1.00  0.00     0.027 A 
ATOM     80  C   UNL A   1      32.157  31.059  26.765  1.00  0.00     0.027 A 
ATOM     81  C   UNL A   1      34.247  28.153  26.668  1.00  0.00     0.024 A 
ATOM     82  C   UNL A   1      31.547  29.564  26.065  1.00  0.00     0.024 A 
ATOM     83  C   UNL A   1      32.575  28.123  25.997  1.00  0.00     0.082 A 
BRANCH  83  84
ATOM     84  S   UNL A   1      31.971  26.843  24.924  1.00  0.00     0.243 S 
ATOM     85  O   UNL A   1      30.563  27.165  24.688  1.00  0.00    -0.207 OA
ATOM     86  O   UNL A   1      32.909  26.699  23.856  1.00  0.00    -0.207 OA
BRANCH  84  87
ATOM     87  N   UNL A   1      31.989  25.416  25.854  1.00  0.00    -0.198 NA
ATOM     88  C   UNL A   1      33.213  24.640  26.086  1.00  0.00     0.102 C 
ATOM     89  C   UNL A   1      30.820  24.518  25.962  1.00  0.00     0.102 C 
ATOM     90  C   UNL A   1      32.867  23.229  25.634  1.00  0.00     0.018 C 
ATOM     91  C   UNL A   1      31.372  23.088  25.861  1.00  0.00     0.018 C 
ENDBRANCH  84  87
ENDBRANCH  83  84
ENDBRANCH  76  78
ENDBRANCH  70  74
ENDBRANCH  66  68
ENDBRANCH  65  66
ENDBRANCH  64  65
ENDBRANCH  63  64
ENDBRANCH  62  63
ENDBRANCH  61  62
ENDBRANCH   1  61
TORSDOF 24
ENDMDL
MODEL 2
REMARK VINA RESULT:      -8.2      4.016      8.821
REMARK SMILES O=C(OCCOCCOCCOCCOC(=O)[C@H]1CC=CC[C@H]1C(=O)Nc1ccc(S(=O)(=O)N2CCCC2)cc1)c1ccc(-c2c3nc(c(-c4ccccc4)c4ccc([nH]4)c(-c4ccccc4)c4nc(c(-c5ccccc5)c5ccc2[nH]5)C=C4)C=C3)cc1
REMARK SMILES IDX 10 1 9 2 8 3 7 4 6 5 5 6 4 7 3 8 2 9 1 10 41 11 42 12 88 13
REMARK SMILES IDX 43 14 87 15 44 16 45 17 46 18 81 19 47 20 86 21 80 22 82 23
REMARK SMILES IDX 48 24 85 25 79 26 78 27 49 29 71 30 56 31 70 32 57 33 60 34
REMARK SMILES IDX 69 35 83 36 58 37 59 38 68 40 84 41 61 42 50 43 51 44 55 45
REMARK SMILES IDX 52 46 54 47 53 48 72 49 73 50 77 51 74 52 76 53 75 54 62 55
REMARK SMILES IDX 63 56 67 57 64 58 66 59 65 60 11 61 12 62 13 63 14 64 15 65
REMARK SMILES IDX 16 66 17 67 18 68 19 69 23 70 20 71 22 72 21 73 24 74 25 75
REMARK SMILES IDX 26 76 27 78 28 79 40 80 29 81 39 82 30 83 31 84 32 85 33 86
REMARK SMILES IDX 34 87 35 88 38 89 36 90 37 91
REMARK H PARENT 82 28 60 39 26 77
REMARK Flexibility Score: inf
ROOT
ATOM      1  C   UNL A   1      37.728  30.193  28.358  1.00  0.00     0.188 C 
ENDROOT
BRANCH   1   2
ATOM      2  O   UNL A   1      37.929  31.410  29.100  1.00  0.00    -0.377 OA
BRANCH   2   3
ATOM      3  C   UNL A   1      37.699  31.409  30.525  1.00  0.00     0.188 C 
BRANCH   3   4
ATOM      4  C   UNL A   1      38.887  31.272  31.437  1.00  0.00     0.188 C 
BRANCH   4   5
ATOM      5  O   UNL A   1      38.433  30.743  32.648  1.00  0.00    -0.376 OA
BRANCH   5   6
ATOM      6  C   UNL A   1      38.476  31.595  33.770  1.00  0.00     0.202 C 
BRANCH   6   7
ATOM      7  C   UNL A   1      39.137  30.837  34.917  1.00  0.00     0.261 C 
BRANCH   7   8
ATOM      8  O   UNL A   1      40.488  30.520  34.510  1.00  0.00    -0.460 OA
BRANCH   8   9
ATOM      9  C   UNL A   1      40.872  29.239  34.760  1.00  0.00     0.338 C 
ATOM     10  O   UNL A   1      40.818  28.652  35.829  1.00  0.00    -0.246 OA
BRANCH   9  11
ATOM     11  C   UNL A   1      41.526  28.673  33.558  1.00  0.00     0.060 A 
ATOM     12  C   UNL A   1      42.804  28.101  33.664  1.00  0.00     0.016 A 
ATOM     13  C   UNL A   1      40.863  28.668  32.332  1.00  0.00     0.016 A 
ATOM     14  C   UNL A   1      43.432  27.526  32.584  1.00  0.00     0.010 A 
ATOM     15  C   UNL A   1      41.547  28.220  31.200  1.00  0.00     0.010 A 
ATOM     16  C   UNL A   1      42.850  27.706  31.337  1.00  0.00    -0.014 A 
BRANCH  16  17
ATOM     17  C   UNL A   1      43.807  27.786  30.228  1.00  0.00     0.031 A 
ATOM     18  C   UNL A   1      43.665  26.741  29.161  1.00  0.00     0.074 A 
ATOM     19  C   UNL A   1      44.617  28.843  30.096  1.00  0.00     0.049 A 
ATOM     20  N   UNL A   1      44.466  26.442  28.178  1.00  0.00    -0.248 NA
ATOM     21  C   UNL A   1      42.439  25.920  29.204  1.00  0.00     0.031 C 
ATOM     22  C   UNL A   1      44.622  30.019  30.965  1.00  0.00     0.029 A 
ATOM     23  N   UNL A   1      45.584  29.093  29.168  1.00  0.00    -0.354 N 
ATOM     24  C   UNL A   1      43.878  25.353  27.545  1.00  0.00     0.074 A 
ATOM     25  C   UNL A   1      42.635  25.071  28.214  1.00  0.00     0.031 C 
ATOM     26  C   UNL A   1      45.581  30.861  30.544  1.00  0.00     0.029 A 
ATOM     27  C   UNL A   1      46.306  30.226  29.446  1.00  0.00     0.049 A 
ATOM     28  H   UNL A   1      45.748  28.522  28.384  1.00  0.00     0.167 HD
ATOM     29  C   UNL A   1      44.381  24.622  26.527  1.00  0.00     0.031 A 
ATOM     30  C   UNL A   1      47.475  30.629  28.921  1.00  0.00     0.031 A 
ATOM     31  C   UNL A   1      45.648  24.938  25.934  1.00  0.00     0.049 A 
ATOM     32  C   UNL A   1      48.102  29.740  27.878  1.00  0.00     0.074 A 
ATOM     33  C   UNL A   1      46.357  24.253  24.970  1.00  0.00     0.029 A 
ATOM     34  N   UNL A   1      46.399  26.056  26.282  1.00  0.00    -0.354 N 
ATOM     35  N   UNL A   1      47.636  28.624  27.359  1.00  0.00    -0.248 NA
ATOM     36  C   UNL A   1      49.417  30.139  27.369  1.00  0.00     0.031 C 
ATOM     37  C   UNL A   1      47.571  24.927  24.784  1.00  0.00     0.029 A 
ATOM     38  C   UNL A   1      47.579  26.072  25.572  1.00  0.00     0.049 A 
ATOM     39  H   UNL A   1      46.126  26.737  26.938  1.00  0.00     0.167 HD
ATOM     40  C   UNL A   1      48.591  28.194  26.449  1.00  0.00     0.074 A 
ATOM     41  C   UNL A   1      49.660  29.179  26.485  1.00  0.00     0.031 C 
ATOM     42  C   UNL A   1      48.596  27.095  25.653  1.00  0.00     0.031 A 
BRANCH  29  43
ATOM     43  C   UNL A   1      43.640  23.365  26.166  1.00  0.00    -0.014 A 
ATOM     44  C   UNL A   1      42.252  23.344  25.949  1.00  0.00     0.009 A 
ATOM     45  C   UNL A   1      44.339  22.148  26.165  1.00  0.00     0.009 A 
ATOM     46  C   UNL A   1      41.575  22.128  25.809  1.00  0.00     0.001 A 
ATOM     47  C   UNL A   1      43.666  20.937  25.990  1.00  0.00     0.001 A 
ATOM     48  C   UNL A   1      42.282  20.925  25.832  1.00  0.00     0.000 A 
ENDBRANCH  29  43
BRANCH  30  49
ATOM     49  C   UNL A   1      48.155  31.833  29.466  1.00  0.00    -0.014 A 
ATOM     50  C   UNL A   1      49.074  31.735  30.519  1.00  0.00     0.009 A 
ATOM     51  C   UNL A   1      47.921  33.097  28.893  1.00  0.00     0.009 A 
ATOM     52  C   UNL A   1      49.739  32.874  30.986  1.00  0.00     0.001 A 
ATOM     53  C   UNL A   1      48.610  34.226  29.340  1.00  0.00     0.001 A 
ATOM     54  C   UNL A   1      49.514  34.114  30.391  1.00  0.00     0.000 A 
ENDBRANCH  30  49
BRANCH  42  55
ATOM     55  C   UNL A   1      49.757  26.934  24.721  1.00  0.00    -0.014 A 
ATOM     56  C   UNL A   1      49.730  27.463  23.424  1.00  0.00     0.009 A 
ATOM     57  C   UNL A   1      50.938  26.350  25.205  1.00  0.00     0.009 A 
ATOM     58  C   UNL A   1      50.870  27.402  22.623  1.00  0.00     0.001 A 
ATOM     59  C   UNL A   1      52.084  26.320  24.414  1.00  0.00     0.001 A 
ATOM     60  C   UNL A   1      52.048  26.843  23.123  1.00  0.00     0.000 A 
ENDBRANCH  42  55
ENDBRANCH  16  17
ENDBRANCH   9  11
ENDBRANCH   8   9
ENDBRANCH   7   8
ENDBRANCH   6   7
ENDBRANCH   5   6
ENDBRANCH   4   5
ENDBRANCH   3   4
ENDBRANCH   2   3
ENDBRANCH   1   2
BRANCH   1  61
ATOM     61  C   UNL A   1      36.251  29.765  28.047  1.00  0.00     0.188 C 
BRANCH  61  62
ATOM     62  O   UNL A   1      35.083  30.759  27.867  1.00  0.00    -0.376 OA
BRANCH  62  63
ATOM     63  C   UNL A   1      33.186  31.147  27.387  1.00  0.00     0.202 C 
BRANCH  63  64
ATOM     64  C   UNL A   1      31.865  30.258  26.787  1.00  0.00     0.261 C 
BRANCH  64  65
ATOM     65  O   UNL A   1      31.606  30.033  25.390  1.00  0.00    -0.463 OA
BRANCH  65  66
ATOM     66  C   UNL A   1      31.550  28.763  24.939  1.00  0.00     0.310 C 
ATOM     67  O   UNL A   1      31.615  27.793  25.683  1.00  0.00    -0.252 OA
BRANCH  66  68
ATOM     68  C   UNL A   1      31.323  28.684  23.407  1.00  0.00     0.116 C 
ATOM     69  C   UNL A   1      32.625  29.108  22.680  1.00  0.00     0.043 C 
ATOM     70  C   UNL A   1      30.719  27.399  22.740  1.00  0.00     0.097 C 
ATOM     71  C   UNL A   1      33.566  27.985  22.340  1.00  0.00    -0.030 C 
ATOM     72  C   UNL A   1      31.667  26.408  22.005  1.00  0.00     0.041 C 
ATOM     73  C   UNL A   1      33.128  26.765  22.007  1.00  0.00    -0.030 C 
BRANCH  70  74
ATOM     74  C   UNL A   1      29.579  26.712  23.502  1.00  0.00     0.228 C 
ATOM     75  O   UNL A   1      28.475  27.280  23.533  1.00  0.00    -0.274 OA
ATOM     76  N   UNL A   1      29.643  25.533  24.179  1.00  0.00    -0.326 N 
ATOM     77  H   UNL A   1      28.811  25.317  24.658  1.00  0.00     0.169 HD
BRANCH  76  78
ATOM     78  C   UNL A   1      30.642  24.556  24.342  1.00  0.00     0.041 A 
ATOM     79  C   UNL A   1      31.056  23.341  23.034  1.00  0.00     0.027 A 
ATOM     80  C   UNL A   1      31.466  24.406  25.946  1.00  0.00     0.027 A 
ATOM     81  C   UNL A   1      32.256  22.010  23.406  1.00  0.00     0.024 A 
ATOM     82  C   UNL A   1      32.618  23.120  26.283  1.00  0.00     0.024 A 
ATOM     83  C   UNL A   1      33.007  21.919  25.041  1.00  0.00     0.082 A 
BRANCH  83  84
ATOM     84  S   UNL A   1      33.861  20.486  25.650  1.00  0.00     0.243 S 
ATOM     85  O   UNL A   1      35.194  20.541  25.047  1.00  0.00    -0.207 OA
ATOM     86  O   UNL A   1      33.667  20.438  27.064  1.00  0.00    -0.207 OA
BRANCH  84  87
ATOM     87  N   UNL A   1      33.072  19.147  24.951  1.00  0.00    -0.198 NA
ATOM     88  C   UNL A   1      32.528  18.045  25.752  1.00  0.00     0.102 C 
ATOM     89  C   UNL A   1      33.392  18.649  23.597  1.00  0.00     0.102 C 
ATOM     90  C   UNL A   1      33.161  16.792  25.165  1.00  0.00     0.018 C 
ATOM     91  C   UNL A   1      33.416  17.117  23.704  1.00  0.00     0.018 C 
ENDBRANCH  84  87
ENDBRANCH  83  84
ENDBRANCH  76  78
ENDBRANCH  70  74
ENDBRANCH  66  68
ENDBRANCH  65  66
ENDBRANCH  64  65
ENDBRANCH  63  64
ENDBRANCH  62  63
ENDBRANCH  61  62
ENDBRANCH   1  61
TORSDOF 24
ENDMDL
MODEL 3
REMARK VINA RESULT:      -8.2      4.585      8.149
REMARK SMILES O=C(OCCOCCOCCOCCOC(=O)[C@H]1CC=CC[C@H]1C(=O)Nc1ccc(S(=O)(=O)N2CCCC2)cc1)c1ccc(-c2c3nc(c(-c4ccccc4)c4ccc([nH]4)c(-c4ccccc4)c4nc(c(-c5ccccc5)c5ccc2[nH]5)C=C4)C=C3)cc1
REMARK SMILES IDX 10 1 9 2 8 3 7 4 6 5 5 6 4 7 3 8 2 9 1 10 41 11 42 12 88 13
REMARK SMILES IDX 43 14 87 15 44 16 45 17 46 18 81 19 47 20 86 21 80 22 82 23
REMARK SMILES IDX 48 24 85 25 79 26 78 27 49 29 71 30 56 31 70 32 57 33 60 34
REMARK SMILES IDX 69 35 83 36 58 37 59 38 68 40 84 41 61 42 50 43 51 44 55 45
REMARK SMILES IDX 52 46 54 47 53 48 72 49 73 50 77 51 74 52 76 53 75 54 62 55
REMARK SMILES IDX 63 56 67 57 64 58 66 59 65 60 11 61 12 62 13 63 14 64 15 65
REMARK SMILES IDX 16 66 17 67 18 68 19 69 23 70 20 71 22 72 21 73 24 74 25 75
REMARK SMILES IDX 26 76 27 78 28 79 40 80 29 81 39 82 30 83 31 84 32 85 33 86
REMARK SMILES IDX 34 87 35 88 38 89 36 90 37 91
REMARK H PARENT 82 28 60 39 26 77
REMARK Flexibility Score: inf
ROOT
ATOM      1  C   UNL A   1      47.343  32.128  36.669  1.00  0.00     0.188 C 
ENDROOT
BRANCH   1   2
ATOM      2  O   UNL A   1      46.499  32.989  37.456  1.00  0.00    -0.377 OA
BRANCH   2   3
ATOM      3  C   UNL A   1      46.348  32.727  38.866  1.00  0.00     0.188 C 
BRANCH   3   4
ATOM      4  C   UNL A   1      45.006  32.977  39.497  1.00  0.00     0.188 C 
BRANCH   4   5
ATOM      5  O   UNL A   1      44.574  34.242  39.090  1.00  0.00    -0.376 OA
BRANCH   5   6
ATOM      6  C   UNL A   1      43.422  34.754  39.722  1.00  0.00     0.202 C 
BRANCH   6   7
ATOM      7  C   UNL A   1      42.235  34.539  38.789  1.00  0.00     0.261 C 
BRANCH   7   8
ATOM      8  O   UNL A   1      41.072  35.125  39.419  1.00  0.00    -0.460 OA
BRANCH   8   9
ATOM      9  C   UNL A   1      40.407  36.032  38.653  1.00  0.00     0.338 C 
ATOM     10  O   UNL A   1      39.974  37.116  39.009  1.00  0.00    -0.246 OA
BRANCH   9  11
ATOM     11  C   UNL A   1      40.133  35.449  37.320  1.00  0.00     0.060 A 
ATOM     12  C   UNL A   1      39.358  34.281  37.216  1.00  0.00     0.016 A 
ATOM     13  C   UNL A   1      40.603  36.075  36.167  1.00  0.00     0.016 A 
ATOM     14  C   UNL A   1      39.043  33.729  35.996  1.00  0.00     0.010 A 
ATOM     15  C   UNL A   1      40.414  35.445  34.936  1.00  0.00     0.010 A 
ATOM     16  C   UNL A   1      39.681  34.244  34.877  1.00  0.00    -0.014 A 
BRANCH  16  17
ATOM     17  C   UNL A   1      39.937  33.262  33.819  1.00  0.00     0.031 A 
ATOM     18  C   UNL A   1      39.006  33.303  32.643  1.00  0.00     0.074 A 
ATOM     19  C   UNL A   1      41.049  32.517  33.829  1.00  0.00     0.049 A 
ATOM     20  N   UNL A   1      38.863  32.455  31.666  1.00  0.00    -0.248 NA
ATOM     21  C   UNL A   1      38.112  34.474  32.555  1.00  0.00     0.031 C 
ATOM     22  C   UNL A   1      42.124  32.615  34.815  1.00  0.00     0.029 A 
ATOM     23  N   UNL A   1      41.456  31.541  32.969  1.00  0.00    -0.354 N 
ATOM     24  C   UNL A   1      37.814  32.951  30.900  1.00  0.00     0.074 A 
ATOM     25  C   UNL A   1      37.387  34.194  31.489  1.00  0.00     0.031 C 
ATOM     26  C   UNL A   1      43.063  31.700  34.521  1.00  0.00     0.029 A 
ATOM     27  C   UNL A   1      42.595  30.903  33.391  1.00  0.00     0.049 A 
ATOM     28  H   UNL A   1      40.983  31.317  32.136  1.00  0.00     0.167 HD
ATOM     29  C   UNL A   1      37.228  32.371  29.831  1.00  0.00     0.031 A 
ATOM     30  C   UNL A   1      43.122  29.746  32.955  1.00  0.00     0.031 A 
ATOM     31  C   UNL A   1      37.682  31.110  29.322  1.00  0.00     0.049 A 
ATOM     32  C   UNL A   1      42.389  29.032  31.849  1.00  0.00     0.074 A 
ATOM     33  C   UNL A   1      37.149  30.329  28.318  1.00  0.00     0.029 A 
ATOM     34  N   UNL A   1      38.801  30.443  29.812  1.00  0.00    -0.354 N 
ATOM     35  N   UNL A   1      41.309  29.408  31.198  1.00  0.00    -0.248 NA
ATOM     36  C   UNL A   1      42.920  27.730  31.433  1.00  0.00     0.031 C 
ATOM     37  C   UNL A   1      37.911  29.156  28.249  1.00  0.00     0.029 A 
ATOM     38  C   UNL A   1      38.964  29.246  29.153  1.00  0.00     0.049 A 
ATOM     39  H   UNL A   1      39.389  30.780  30.526  1.00  0.00     0.167 HD
ATOM     40  C   UNL A   1      41.038  28.400  30.284  1.00  0.00     0.074 A 
ATOM     41  C   UNL A   1      42.076  27.399  30.463  1.00  0.00     0.031 C 
ATOM     42  C   UNL A   1      40.032  28.300  29.379  1.00  0.00     0.031 A 
BRANCH  29  43
ATOM     43  C   UNL A   1      35.974  33.019  29.313  1.00  0.00    -0.014 A 
ATOM     44  C   UNL A   1      34.694  32.501  29.573  1.00  0.00     0.009 A 
ATOM     45  C   UNL A   1      36.092  34.110  28.437  1.00  0.00     0.009 A 
ATOM     46  C   UNL A   1      33.574  33.017  28.915  1.00  0.00     0.001 A 
ATOM     47  C   UNL A   1      34.967  34.647  27.808  1.00  0.00     0.001 A 
ATOM     48  C   UNL A   1      33.711  34.088  28.031  1.00  0.00     0.000 A 
ENDBRANCH  29  43
BRANCH  30  49
ATOM     49  C   UNL A   1      44.300  29.163  33.648  1.00  0.00    -0.014 A 
ATOM     50  C   UNL A   1      45.589  29.278  33.113  1.00  0.00     0.009 A 
ATOM     51  C   UNL A   1      44.143  28.524  34.892  1.00  0.00     0.009 A 
ATOM     52  C   UNL A   1      46.692  28.764  33.804  1.00  0.00     0.001 A 
ATOM     53  C   UNL A   1      45.248  28.040  35.595  1.00  0.00     0.001 A 
ATOM     54  C   UNL A   1      46.522  28.155  35.047  1.00  0.00     0.000 A 
ENDBRANCH  30  49
BRANCH  42  55
ATOM     55  C   UNL A   1      40.043  27.103  28.478  1.00  0.00    -0.014 A 
ATOM     56  C   UNL A   1      39.323  25.943  28.798  1.00  0.00     0.009 A 
ATOM     57  C   UNL A   1      40.685  27.198  27.234  1.00  0.00     0.009 A 
ATOM     58  C   UNL A   1      39.255  24.892  27.884  1.00  0.00     0.001 A 
ATOM     59  C   UNL A   1      40.588  26.159  26.311  1.00  0.00     0.001 A 
ATOM     60  C   UNL A   1      39.877  25.006  26.638  1.00  0.00     0.000 A 
ENDBRANCH  42  55
ENDBRANCH  16  17
ENDBRANCH   9  11
ENDBRANCH   8   9
ENDBRANCH   7   8
ENDBRANCH   6   7
ENDBRANCH   5   6
ENDBRANCH   4   5
ENDBRANCH   3   4
ENDBRANCH   2   3
ENDBRANCH   1   2
BRANCH   1  61
ATOM     61  C   UNL A   1      48.106  32.766  35.456  1.00  0.00     0.188 C 
BRANCH  61  62
ATOM     62  O   UNL A   1      47.501  32.931  34.045  1.00  0.00    -0.376 OA
BRANCH  62  63
ATOM     63  C   UNL A   1      47.630  32.741  32.063  1.00  0.00     0.202 C 
BRANCH  63  64
ATOM     64  C   UNL A   1      47.940  31.475  30.969  1.00  0.00     0.261 C 
BRANCH  64  65
ATOM     65  O   UNL A   1      47.269  31.309  29.708  1.00  0.00    -0.463 OA
BRANCH  65  66
ATOM     66  C   UNL A   1      47.193  30.072  29.175  1.00  0.00     0.310 C 
ATOM     67  O   UNL A   1      48.141  29.298  29.160  1.00  0.00    -0.252 OA
BRANCH  66  68
ATOM     68  C   UNL A   1      45.769  29.730  28.665  1.00  0.00     0.116 C 
ATOM     69  C   UNL A   1      44.740  30.069  29.774  1.00  0.00     0.043 C 
ATOM     70  C   UNL A   1      45.259  30.243  27.272  1.00  0.00     0.097 C 
ATOM     71  C   UNL A   1      44.154  31.452  29.708  1.00  0.00    -0.030 C 
ATOM     72  C   UNL A   1      44.292  31.461  27.220  1.00  0.00     0.041 C 
ATOM     73  C   UNL A   1      43.927  32.074  28.544  1.00  0.00    -0.030 C 
BRANCH  70  74
ATOM     74  C   UNL A   1      46.277  30.214  26.125  1.00  0.00     0.228 C 
ATOM     75  O   UNL A   1      46.946  31.238  25.915  1.00  0.00    -0.274 OA
ATOM     76  N   UNL A   1      46.525  29.176  25.280  1.00  0.00    -0.326 N 
ATOM     77  H   UNL A   1      47.166  29.402  24.570  1.00  0.00     0.169 HD
BRANCH  76  78
ATOM     78  C   UNL A   1      46.061  27.851  25.203  1.00  0.00     0.041 A 
ATOM     79  C   UNL A   1      44.284  27.417  25.319  1.00  0.00     0.027 A 
ATOM     80  C   UNL A   1      47.268  26.506  25.112  1.00  0.00     0.027 A 
ATOM     81  C   UNL A   1      43.801  25.653  25.370  1.00  0.00     0.024 A 
ATOM     82  C   UNL A   1      46.783  24.815  25.162  1.00  0.00     0.024 A 
ATOM     83  C   UNL A   1      45.073  24.379  25.304  1.00  0.00     0.082 A 
BRANCH  83  84
ATOM     84  S   UNL A   1      44.784  22.680  25.736  1.00  0.00     0.243 S 
ATOM     85  O   UNL A   1      43.603  22.279  24.970  1.00  0.00    -0.207 OA
ATOM     86  O   UNL A   1      46.031  21.992  25.631  1.00  0.00    -0.207 OA
BRANCH  84  87
ATOM     87  N   UNL A   1      44.312  22.695  27.374  1.00  0.00    -0.198 NA
ATOM     88  C   UNL A   1      42.930  22.445  27.800  1.00  0.00     0.102 C 
ATOM     89  C   UNL A   1      44.989  23.526  28.392  1.00  0.00     0.102 C 
ATOM     90  C   UNL A   1      42.565  23.652  28.652  1.00  0.00     0.018 C 
ATOM     91  C   UNL A   1      43.873  24.126  29.260  1.00  0.00     0.018 C 
ENDBRANCH  84  87
ENDBRANCH  83  84
ENDBRANCH  76  78
ENDBRANCH  70  74
ENDBRANCH  66  68
ENDBRANCH  65  66
ENDBRANCH  64  65
ENDBRANCH  63  64
ENDBRANCH  62  63
ENDBRANCH  61  62
ENDBRANCH   1  61
TORSDOF 24
ENDMDL
