MODEL 1
REMARK VINA RESULT:     -10.2      0.000      0.000
REMARK SMILES NC(=O)c1ccccc1NC(=O)[C@@H]1CC=CC[C@@H]1C(=O)OCCOCCOCCOCCOC(=O)c1ccc(-c2c3nc(c(-c4ccccc4)c4ccc([nH]4)c(-c4ccccc4)c4nc(c(-c5ccccc5)c5ccc2[nH]5)C=C4)C=C3)cc1
REMARK SMILES IDX 26 1 25 2 24 3 23 4 22 5 21 6 19 7 20 8 18 9 13 10 14 11
REMARK SMILES IDX 15 12 17 13 16 14 11 15 10 16 12 18 9 19 4 20 5 21 6 22 8 23
REMARK SMILES IDX 7 24 2 25 1 26 3 29 27 30 28 31 29 32 30 33 31 34 32 35
REMARK SMILES IDX 33 36 34 37 35 38 36 39 37 40 83 41 38 42 82 43 39 44 40 45
REMARK SMILES IDX 41 46 76 47 42 48 81 49 75 50 77 51 43 52 80 53 74 54 73 55
REMARK SMILES IDX 44 57 66 58 51 59 65 60 52 61 55 62 64 63 78 64 53 65 54 66
REMARK SMILES IDX 63 68 79 69 56 70 45 71 46 72 50 73 47 74 49 75 48 76 67 77
REMARK SMILES IDX 68 78 72 79 69 80 71 81 70 82 57 83 58 84 62 85 59 86 61 87
REMARK SMILES IDX 60 88
REMARK H PARENT 10 17 1 27 1 28 77 56 55 67
REMARK Flexibility Score: inf
ROOT
ATOM      1  C   UNL A   1      40.531  21.840  26.901  1.00  0.00     0.188 C 
ENDROOT
BRANCH   1   2
ATOM      2  C   UNL A   1      39.222  22.438  26.372  1.00  0.00     0.188 C 
BRANCH   2   3
ATOM      3  O   UNL A   1      38.345  21.528  25.715  1.00  0.00    -0.376 OA
BRANCH   3   4
ATOM      4  C   UNL A   1      37.134  22.054  25.196  1.00  0.00     0.202 C 
BRANCH   4   5
ATOM      5  C   UNL A   1      36.472  23.159  26.031  1.00  0.00     0.261 C 
BRANCH   5   6
ATOM      6  O   UNL A   1      35.404  23.851  25.360  1.00  0.00    -0.463 OA
BRANCH   6   7
ATOM      7  C   UNL A   1      34.165  23.620  25.864  1.00  0.00     0.310 C 
ATOM      8  O   UNL A   1      33.962  23.356  27.029  1.00  0.00    -0.252 OA
BRANCH   7   9
ATOM      9  C   UNL A   1      33.121  23.569  24.775  1.00  0.00     0.116 C 
ATOM     10  C   UNL A   1      31.676  23.229  25.223  1.00  0.00     0.097 C 
ATOM     11  C   UNL A   1      31.306  21.749  25.358  1.00  0.00     0.041 C 
ATOM     12  C   UNL A   1      32.403  20.790  25.002  1.00  0.00    -0.030 C 
ATOM     13  C   UNL A   1      33.670  22.540  23.773  1.00  0.00     0.043 C 
ATOM     14  C   UNL A   1      33.465  21.136  24.262  1.00  0.00    -0.030 C 
BRANCH  10  15
ATOM     15  C   UNL A   1      30.993  24.157  26.235  1.00  0.00     0.228 C 
ATOM     16  N   UNL A   1      30.631  25.459  26.145  1.00  0.00    -0.325 N 
ATOM     17  H   UNL A   1      30.255  25.769  27.002  1.00  0.00     0.169 HD
ATOM     18  O   UNL A   1      30.648  23.639  27.315  1.00  0.00    -0.274 OA
BRANCH  16  19
ATOM     19  C   UNL A   1      30.625  26.512  25.199  1.00  0.00     0.053 A 
ATOM     20  C   UNL A   1      31.387  27.674  25.483  1.00  0.00     0.063 A 
ATOM     21  C   UNL A   1      31.138  28.881  24.807  1.00  0.00     0.016 A 
ATOM     22  C   UNL A   1      30.215  28.923  23.770  1.00  0.00     0.001 A 
ATOM     23  C   UNL A   1      29.825  26.545  24.063  1.00  0.00     0.027 A 
ATOM     24  C   UNL A   1      29.602  27.744  23.367  1.00  0.00     0.002 A 
BRANCH  20  25
ATOM     25  C   UNL A   1      32.377  27.753  26.589  1.00  0.00     0.250 C 
ATOM     26  N   UNL A   1      33.622  27.246  26.340  1.00  0.00    -0.366 N 
ATOM     27  H   UNL A   1      34.314  27.274  27.039  1.00  0.00     0.159 HD
ATOM     28  H   UNL A   1      33.826  26.852  25.460  1.00  0.00     0.159 HD
ATOM     29  O   UNL A   1      32.113  28.280  27.660  1.00  0.00    -0.269 OA
ENDBRANCH  20  25
ENDBRANCH  16  19
ENDBRANCH  10  15
ENDBRANCH   7   9
ENDBRANCH   6   7
ENDBRANCH   5   6
ENDBRANCH   4   5
ENDBRANCH   3   4
ENDBRANCH   2   3
ENDBRANCH   1   2
BRANCH   1  30
ATOM     30  O   UNL A   1      41.459  21.341  25.951  1.00  0.00    -0.377 OA
BRANCH  30  31
ATOM     31  C   UNL A   1      41.945  20.015  26.134  1.00  0.00     0.188 C 
BRANCH  31  32
ATOM     32  C   UNL A   1      43.229  19.596  25.391  1.00  0.00     0.188 C 
BRANCH  32  33
ATOM     33  O   UNL A   1      44.290  20.528  25.525  1.00  0.00    -0.376 OA
BRANCH  33  34
ATOM     34  C   UNL A   1      44.639  21.291  24.383  1.00  0.00     0.202 C 
BRANCH  34  35
ATOM     35  C   UNL A   1      44.099  22.726  24.307  1.00  0.00     0.261 C 
BRANCH  35  36
ATOM     36  O   UNL A   1      44.970  23.777  24.758  1.00  0.00    -0.460 OA
BRANCH  36  37
ATOM     37  C   UNL A   1      45.395  23.790  26.040  1.00  0.00     0.338 C 
ATOM     38  O   UNL A   1      46.408  23.292  26.490  1.00  0.00    -0.246 OA
BRANCH  37  39
ATOM     39  C   UNL A   1      44.508  24.730  26.773  1.00  0.00     0.060 A 
ATOM     40  C   UNL A   1      44.635  26.111  26.549  1.00  0.00     0.016 A 
ATOM     41  C   UNL A   1      43.489  24.245  27.598  1.00  0.00     0.016 A 
ATOM     42  C   UNL A   1      43.769  27.009  27.181  1.00  0.00     0.010 A 
ATOM     43  C   UNL A   1      42.648  25.141  28.257  1.00  0.00     0.010 A 
ATOM     44  C   UNL A   1      42.813  26.528  28.086  1.00  0.00    -0.014 A 
BRANCH  44  45
ATOM     45  C   UNL A   1      42.236  27.438  29.105  1.00  0.00     0.031 A 
ATOM     46  C   UNL A   1      42.933  27.479  30.440  1.00  0.00     0.074 A 
ATOM     47  C   UNL A   1      41.131  28.172  28.894  1.00  0.00     0.049 A 
ATOM     48  N   UNL A   1      42.580  28.075  31.549  1.00  0.00    -0.248 NA
ATOM     49  C   UNL A   1      44.200  26.731  30.535  1.00  0.00     0.031 C 
ATOM     50  C   UNL A   1      40.395  28.269  27.636  1.00  0.00     0.029 A 
ATOM     51  N   UNL A   1      40.425  28.969  29.762  1.00  0.00    -0.354 N 
ATOM     52  C   UNL A   1      43.570  27.759  32.470  1.00  0.00     0.074 A 
ATOM     53  C   UNL A   1      44.526  26.906  31.804  1.00  0.00     0.031 C 
ATOM     54  C   UNL A   1      39.327  29.069  27.819  1.00  0.00     0.029 A 
ATOM     55  C   UNL A   1      39.283  29.503  29.216  1.00  0.00     0.049 A 
ATOM     56  H   UNL A   1      40.711  29.143  30.688  1.00  0.00     0.167 HD
ATOM     57  C   UNL A   1      43.676  28.137  33.764  1.00  0.00     0.031 A 
ATOM     58  C   UNL A   1      38.304  30.230  29.791  1.00  0.00     0.031 A 
ATOM     59  C   UNL A   1      42.715  28.960  34.440  1.00  0.00     0.049 A 
ATOM     60  C   UNL A   1      38.394  30.565  31.260  1.00  0.00     0.074 A 
ATOM     61  C   UNL A   1      42.728  29.401  35.749  1.00  0.00     0.029 A 
ATOM     62  N   UNL A   1      41.560  29.454  33.855  1.00  0.00    -0.354 N 
ATOM     63  N   UNL A   1      39.341  30.275  32.121  1.00  0.00    -0.248 NA
ATOM     64  C   UNL A   1      37.277  31.330  31.838  1.00  0.00     0.031 C 
ATOM     65  C   UNL A   1      41.551  30.119  35.974  1.00  0.00     0.029 A 
ATOM     66  C   UNL A   1      40.840  30.179  34.786  1.00  0.00     0.049 A 
ATOM     67  H   UNL A   1      41.293  29.312  32.919  1.00  0.00     0.167 HD
ATOM     68  C   UNL A   1      38.953  30.853  33.325  1.00  0.00     0.074 A 
ATOM     69  C   UNL A   1      37.687  31.513  33.085  1.00  0.00     0.031 C 
ATOM     70  C   UNL A   1      39.590  30.843  34.522  1.00  0.00     0.031 A 
BRANCH  57  71
ATOM     71  C   UNL A   1      44.852  27.613  34.537  1.00  0.00    -0.014 A 
ATOM     72  C   UNL A   1      44.789  26.393  35.228  1.00  0.00     0.009 A 
ATOM     73  C   UNL A   1      46.042  28.356  34.573  1.00  0.00     0.009 A 
ATOM     74  C   UNL A   1      45.885  25.943  35.967  1.00  0.00     0.001 A 
ATOM     75  C   UNL A   1      47.145  27.890  35.288  1.00  0.00     0.001 A 
ATOM     76  C   UNL A   1      47.063  26.690  35.992  1.00  0.00     0.000 A 
ENDBRANCH  57  71
BRANCH  58  77
ATOM     77  C   UNL A   1      37.126  30.673  28.995  1.00  0.00    -0.014 A 
ATOM     78  C   UNL A   1      36.975  32.020  28.628  1.00  0.00     0.009 A 
ATOM     79  C   UNL A   1      36.122  29.759  28.636  1.00  0.00     0.009 A 
ATOM     80  C   UNL A   1      35.834  32.445  27.943  1.00  0.00     0.001 A 
ATOM     81  C   UNL A   1      34.997  30.182  27.925  1.00  0.00     0.001 A 
ATOM     82  C   UNL A   1      34.848  31.526  27.588  1.00  0.00     0.000 A 
ENDBRANCH  58  77
BRANCH  70  83
ATOM     83  C   UNL A   1      38.970  31.617  35.653  1.00  0.00    -0.014 A 
ATOM     84  C   UNL A   1      38.130  31.000  36.592  1.00  0.00     0.009 A 
ATOM     85  C   UNL A   1      39.301  32.971  35.820  1.00  0.00     0.009 A 
ATOM     86  C   UNL A   1      37.616  31.734  37.663  1.00  0.00     0.001 A 
ATOM     87  C   UNL A   1      38.809  33.693  36.908  1.00  0.00     0.001 A 
ATOM     88  C   UNL A   1      37.961  33.076  37.824  1.00  0.00     0.000 A 
ENDBRANCH  70  83
ENDBRANCH  44  45
ENDBRANCH  37  39
ENDBRANCH  36  37
ENDBRANCH  35  36
ENDBRANCH  34  35
ENDBRANCH  33  34
ENDBRANCH  32  33
ENDBRANCH  31  32
ENDBRANCH  30  31
ENDBRANCH   1  30
TORSDOF 23
ENDMDL
MODEL 2
REMARK VINA RESULT:      -9.2      4.325     10.191
REMARK SMILES NC(=O)c1ccccc1NC(=O)[C@@H]1CC=CC[C@@H]1C(=O)OCCOCCOCCOCCOC(=O)c1ccc(-c2c3nc(c(-c4ccccc4)c4ccc([nH]4)c(-c4ccccc4)c4nc(c(-c5ccccc5)c5ccc2[nH]5)C=C4)C=C3)cc1
REMARK SMILES IDX 26 1 25 2 24 3 23 4 22 5 21 6 19 7 20 8 18 9 13 10 14 11
REMARK SMILES IDX 15 12 17 13 16 14 11 15 10 16 12 18 9 19 4 20 5 21 6 22 8 23
REMARK SMILES IDX 7 24 2 25 1 26 3 29 27 30 28 31 29 32 30 33 31 34 32 35
REMARK SMILES IDX 33 36 34 37 35 38 36 39 37 40 83 41 38 42 82 43 39 44 40 45
REMARK SMILES IDX 41 46 76 47 42 48 81 49 75 50 77 51 43 52 80 53 74 54 73 55
REMARK SMILES IDX 44 57 66 58 51 59 65 60 52 61 55 62 64 63 78 64 53 65 54 66
REMARK SMILES IDX 63 68 79 69 56 70 45 71 46 72 50 73 47 74 49 75 48 76 67 77
REMARK SMILES IDX 68 78 72 79 69 80 71 81 70 82 57 83 58 84 62 85 59 86 61 87
REMARK SMILES IDX 60 88
REMARK H PARENT 10 17 1 27 1 28 77 56 55 67
REMARK Flexibility Score: inf
ROOT
ATOM      1  C   UNL A   1      33.773  32.059  28.241  1.00  0.00     0.188 C 
ENDROOT
BRANCH   1   2
ATOM      2  C   UNL A   1      33.492  30.850  27.339  1.00  0.00     0.188 C 
BRANCH   2   3
ATOM      3  O   UNL A   1      34.514  29.858  27.296  1.00  0.00    -0.376 OA
BRANCH   3   4
ATOM      4  C   UNL A   1      34.152  28.575  26.811  1.00  0.00     0.202 C 
BRANCH   4   5
ATOM      5  C   UNL A   1      32.658  28.229  26.882  1.00  0.00     0.261 C 
BRANCH   5   6
ATOM      6  O   UNL A   1      31.995  28.193  25.607  1.00  0.00    -0.463 OA
BRANCH   6   7
ATOM      7  C   UNL A   1      31.602  26.958  25.200  1.00  0.00     0.310 C 
ATOM      8  O   UNL A   1      31.759  25.960  25.867  1.00  0.00    -0.252 OA
BRANCH   7   9
ATOM      9  C   UNL A   1      31.112  26.972  23.772  1.00  0.00     0.116 C 
ATOM     10  C   UNL A   1      31.622  25.826  22.859  1.00  0.00     0.097 C 
ATOM     11  C   UNL A   1      32.979  26.017  22.175  1.00  0.00     0.041 C 
ATOM     12  C   UNL A   1      33.648  27.330  22.456  1.00  0.00    -0.030 C 
ATOM     13  C   UNL A   1      31.525  28.356  23.245  1.00  0.00     0.043 C 
ATOM     14  C   UNL A   1      32.989  28.402  22.916  1.00  0.00    -0.030 C 
BRANCH  10  15
ATOM     15  C   UNL A   1      31.302  24.381  23.261  1.00  0.00     0.228 C 
ATOM     16  N   UNL A   1      32.068  23.430  23.848  1.00  0.00    -0.325 N 
ATOM     17  H   UNL A   1      31.566  22.585  23.921  1.00  0.00     0.169 HD
ATOM     18  O   UNL A   1      30.127  24.005  23.081  1.00  0.00    -0.274 OA
BRANCH  16  19
ATOM     19  C   UNL A   1      33.366  23.277  24.388  1.00  0.00     0.053 A 
ATOM     20  C   UNL A   1      33.706  22.032  24.976  1.00  0.00     0.063 A 
ATOM     21  C   UNL A   1      34.801  21.924  25.851  1.00  0.00     0.016 A 
ATOM     22  C   UNL A   1      35.633  23.014  26.066  1.00  0.00     0.001 A 
ATOM     23  C   UNL A   1      34.299  24.301  24.500  1.00  0.00     0.027 A 
ATOM     24  C   UNL A   1      35.411  24.181  25.349  1.00  0.00     0.002 A 
BRANCH  20  25
ATOM     25  C   UNL A   1      32.872  20.809  24.842  1.00  0.00     0.250 C 
ATOM     26  N   UNL A   1      33.405  19.775  24.123  1.00  0.00    -0.366 N 
ATOM     27  H   UNL A   1      32.893  18.943  24.004  1.00  0.00     0.159 HD
ATOM     28  H   UNL A   1      34.301  19.863  23.724  1.00  0.00     0.159 HD
ATOM     29  O   UNL A   1      31.778  20.707  25.377  1.00  0.00    -0.269 OA
ENDBRANCH  20  25
ENDBRANCH  16  19
ENDBRANCH  10  15
ENDBRANCH   7   9
ENDBRANCH   6   7
ENDBRANCH   5   6
ENDBRANCH   4   5
ENDBRANCH   3   4
ENDBRANCH   2   3
ENDBRANCH   1   2
BRANCH   1  30
ATOM     30  O   UNL A   1      35.039  32.689  28.123  1.00  0.00    -0.377 OA
BRANCH  30  31
ATOM     31  C   UNL A   1      35.169  34.013  28.630  1.00  0.00     0.188 C 
BRANCH  31  32
ATOM     32  C   UNL A   1      33.927  34.687  29.246  1.00  0.00     0.188 C 
BRANCH  32  33
ATOM     33  O   UNL A   1      34.061  34.959  30.632  1.00  0.00    -0.376 OA
BRANCH  33  34
ATOM     34  C   UNL A   1      34.590  33.931  31.452  1.00  0.00     0.202 C 
BRANCH  34  35
ATOM     35  C   UNL A   1      35.426  34.362  32.666  1.00  0.00     0.261 C 
BRANCH  35  36
ATOM     36  O   UNL A   1      36.789  33.909  32.715  1.00  0.00    -0.460 OA
BRANCH  36  37
ATOM     37  C   UNL A   1      37.075  32.709  33.267  1.00  0.00     0.338 C 
ATOM     38  O   UNL A   1      36.551  32.196  34.236  1.00  0.00    -0.246 OA
BRANCH  37  39
ATOM     39  C   UNL A   1      37.998  32.018  32.329  1.00  0.00     0.060 A 
ATOM     40  C   UNL A   1      39.013  31.196  32.846  1.00  0.00     0.016 A 
ATOM     41  C   UNL A   1      37.795  32.098  30.949  1.00  0.00     0.016 A 
ATOM     42  C   UNL A   1      39.852  30.488  31.981  1.00  0.00     0.010 A 
ATOM     43  C   UNL A   1      38.654  31.420  30.084  1.00  0.00     0.010 A 
ATOM     44  C   UNL A   1      39.714  30.648  30.596  1.00  0.00    -0.014 A 
BRANCH  44  45
ATOM     45  C   UNL A   1      40.846  30.321  29.697  1.00  0.00     0.031 A 
ATOM     46  C   UNL A   1      40.823  28.958  29.055  1.00  0.00     0.074 A 
ATOM     47  C   UNL A   1      41.873  31.159  29.473  1.00  0.00     0.049 A 
ATOM     48  N   UNL A   1      41.736  28.357  28.337  1.00  0.00    -0.248 NA
ATOM     49  C   UNL A   1      39.601  28.161  29.268  1.00  0.00     0.031 C 
ATOM     50  C   UNL A   1      41.993  32.522  29.982  1.00  0.00     0.029 A 
ATOM     51  N   UNL A   1      43.031  30.961  28.760  1.00  0.00    -0.354 N 
ATOM     52  C   UNL A   1      41.203  27.111  28.030  1.00  0.00     0.074 A 
ATOM     53  C   UNL A   1      39.902  27.031  28.651  1.00  0.00     0.031 C 
ATOM     54  C   UNL A   1      43.171  33.035  29.579  1.00  0.00     0.029 A 
ATOM     55  C   UNL A   1      43.904  32.020  28.821  1.00  0.00     0.049 A 
ATOM     56  H   UNL A   1      43.218  30.138  28.253  1.00  0.00     0.167 HD
ATOM     57  C   UNL A   1      41.748  26.113  27.299  1.00  0.00     0.031 A 
ATOM     58  C   UNL A   1      45.161  32.137  28.345  1.00  0.00     0.031 A 
ATOM     59  C   UNL A   1      43.051  26.176  26.704  1.00  0.00     0.049 A 
ATOM     60  C   UNL A   1      45.787  30.976  27.611  1.00  0.00     0.074 A 
ATOM     61  C   UNL A   1      43.697  25.219  25.944  1.00  0.00     0.029 A 
ATOM     62  N   UNL A   1      43.911  27.257  26.814  1.00  0.00    -0.354 N 
ATOM     63  N   UNL A   1      45.272  29.807  27.312  1.00  0.00    -0.248 NA
ATOM     64  C   UNL A   1      47.173  31.153  27.148  1.00  0.00     0.031 C 
ATOM     65  C   UNL A   1      44.974  25.701  25.639  1.00  0.00     0.029 A 
ATOM     66  C   UNL A   1      45.094  26.981  26.154  1.00  0.00     0.049 A 
ATOM     67  H   UNL A   1      43.709  28.094  27.290  1.00  0.00     0.167 HD
ATOM     68  C   UNL A   1      46.252  29.130  26.595  1.00  0.00     0.074 A 
ATOM     69  C   UNL A   1      47.392  30.016  26.501  1.00  0.00     0.031 C 
ATOM     70  C   UNL A   1      46.211  27.885  26.058  1.00  0.00     0.031 A 
BRANCH  57  71
ATOM     71  C   UNL A   1      40.946  24.852  27.155  1.00  0.00    -0.014 A 
ATOM     72  C   UNL A   1      39.736  24.832  26.442  1.00  0.00     0.009 A 
ATOM     73  C   UNL A   1      41.410  23.666  27.743  1.00  0.00     0.009 A 
ATOM     74  C   UNL A   1      38.991  23.655  26.350  1.00  0.00     0.001 A 
ATOM     75  C   UNL A   1      40.678  22.484  27.624  1.00  0.00     0.001 A 
ATOM     76  C   UNL A   1      39.466  22.482  26.936  1.00  0.00     0.000 A 
ENDBRANCH  57  71
BRANCH  58  77
ATOM     77  C   UNL A   1      45.938  33.387  28.569  1.00  0.00    -0.014 A 
ATOM     78  C   UNL A   1      46.710  33.552  29.730  1.00  0.00     0.009 A 
ATOM     79  C   UNL A   1      45.878  34.441  27.642  1.00  0.00     0.009 A 
ATOM     80  C   UNL A   1      47.381  34.755  29.970  1.00  0.00     0.001 A 
ATOM     81  C   UNL A   1      46.574  35.629  27.871  1.00  0.00     0.001 A 
ATOM     82  C   UNL A   1      47.316  35.790  29.040  1.00  0.00     0.000 A 
ENDBRANCH  58  77
BRANCH  70  83
ATOM     83  C   UNL A   1      47.402  27.424  25.265  1.00  0.00    -0.014 A 
ATOM     84  C   UNL A   1      47.465  27.584  23.873  1.00  0.00     0.009 A 
ATOM     85  C   UNL A   1      48.512  26.893  25.941  1.00  0.00     0.009 A 
ATOM     86  C   UNL A   1      48.610  27.198  23.173  1.00  0.00     0.001 A 
ATOM     87  C   UNL A   1      49.665  26.535  25.241  1.00  0.00     0.001 A 
ATOM     88  C   UNL A   1      49.710  26.681  23.857  1.00  0.00     0.000 A 
ENDBRANCH  70  83
ENDBRANCH  44  45
ENDBRANCH  37  39
ENDBRANCH  36  37
ENDBRANCH  35  36
ENDBRANCH  34  35
ENDBRANCH  33  34
ENDBRANCH  32  33
ENDBRANCH  31  32
ENDBRANCH  30  31
ENDBRANCH   1  30
TORSDOF 23
ENDMDL
MODEL 3
REMARK VINA RESULT:      -8.9      4.419      9.780
REMARK SMILES NC(=O)c1ccccc1NC(=O)[C@@H]1CC=CC[C@@H]1C(=O)OCCOCCOCCOCCOC(=O)c1ccc(-c2c3nc(c(-c4ccccc4)c4ccc([nH]4)c(-c4ccccc4)c4nc(c(-c5ccccc5)c5ccc2[nH]5)C=C4)C=C3)cc1
REMARK SMILES IDX 26 1 25 2 24 3 23 4 22 5 21 6 19 7 20 8 18 9 13 10 14 11
REMARK SMILES IDX 15 12 17 13 16 14 11 15 10 16 12 18 9 19 4 20 5 21 6 22 8 23
REMARK SMILES IDX 7 24 2 25 1 26 3 29 27 30 28 31 29 32 30 33 31 34 32 35
REMARK SMILES IDX 33 36 34 37 35 38 36 39 37 40 83 41 38 42 82 43 39 44 40 45
REMARK SMILES IDX 41 46 76 47 42 48 81 49 75 50 77 51 43 52 80 53 74 54 73 55
REMARK SMILES IDX 44 57 66 58 51 59 65 60 52 61 55 62 64 63 78 64 53 65 54 66
REMARK SMILES IDX 63 68 79 69 56 70 45 71 46 72 50 73 47 74 49 75 48 76 67 77
REMARK SMILES IDX 68 78 72 79 69 80 71 81 70 82 57 83 58 84 62 85 59 86 61 87
REMARK SMILES IDX 60 88
REMARK H PARENT 10 17 1 27 1 28 77 56 55 67
REMARK Flexibility Score: inf
ROOT
ATOM      1  C   UNL A   1      33.558  31.703  27.697  1.00  0.00     0.188 C 
ENDROOT
BRANCH   1   2
ATOM      2  C   UNL A   1      33.098  30.492  26.874  1.00  0.00     0.188 C 
BRANCH   2   3
ATOM      3  O   UNL A   1      33.908  29.325  26.982  1.00  0.00    -0.376 OA
BRANCH   3   4
ATOM      4  C   UNL A   1      33.292  28.080  26.698  1.00  0.00     0.202 C 
BRANCH   4   5
ATOM      5  C   UNL A   1      31.770  28.115  26.498  1.00  0.00     0.261 C 
BRANCH   5   6
ATOM      6  O   UNL A   1      31.353  28.167  25.123  1.00  0.00    -0.463 OA
BRANCH   6   7
ATOM      7  C   UNL A   1      30.703  27.060  24.678  1.00  0.00     0.310 C 
ATOM      8  O   UNL A   1      30.173  26.262  25.418  1.00  0.00    -0.252 OA
BRANCH   7   9
ATOM      9  C   UNL A   1      30.874  26.875  23.189  1.00  0.00     0.116 C 
ATOM     10  C   UNL A   1      31.833  25.740  22.744  1.00  0.00     0.097 C 
ATOM     11  C   UNL A   1      33.327  26.067  22.663  1.00  0.00     0.041 C 
ATOM     12  C   UNL A   1      33.682  27.484  23.004  1.00  0.00    -0.030 C 
ATOM     13  C   UNL A   1      31.338  28.252  22.688  1.00  0.00     0.043 C 
ATOM     14  C   UNL A   1      32.790  28.484  22.992  1.00  0.00    -0.030 C 
BRANCH  10  15
ATOM     15  C   UNL A   1      31.511  24.305  23.179  1.00  0.00     0.228 C 
ATOM     16  N   UNL A   1      32.305  23.329  23.681  1.00  0.00    -0.325 N 
ATOM     17  H   UNL A   1      31.787  22.500  23.809  1.00  0.00     0.169 HD
ATOM     18  O   UNL A   1      30.313  23.967  23.128  1.00  0.00    -0.274 OA
BRANCH  16  19
ATOM     19  C   UNL A   1      33.649  23.132  24.077  1.00  0.00     0.053 A 
ATOM     20  C   UNL A   1      33.958  23.207  25.459  1.00  0.00     0.063 A 
ATOM     21  C   UNL A   1      35.282  23.403  25.891  1.00  0.00     0.016 A 
ATOM     22  C   UNL A   1      36.321  23.416  24.971  1.00  0.00     0.001 A 
ATOM     23  C   UNL A   1      34.717  22.995  23.199  1.00  0.00     0.027 A 
ATOM     24  C   UNL A   1      36.042  23.158  23.636  1.00  0.00     0.002 A 
BRANCH  20  25
ATOM     25  C   UNL A   1      32.927  23.236  26.529  1.00  0.00     0.250 C 
ATOM     26  N   UNL A   1      32.873  22.154  27.362  1.00  0.00    -0.366 N 
ATOM     27  H   UNL A   1      32.208  22.123  28.087  1.00  0.00     0.159 HD
ATOM     28  H   UNL A   1      33.500  21.404  27.238  1.00  0.00     0.159 HD
ATOM     29  O   UNL A   1      32.183  24.193  26.689  1.00  0.00    -0.269 OA
ENDBRANCH  20  25
ENDBRANCH  16  19
ENDBRANCH  10  15
ENDBRANCH   7   9
ENDBRANCH   6   7
ENDBRANCH   5   6
ENDBRANCH   4   5
ENDBRANCH   3   4
ENDBRANCH   2   3
ENDBRANCH   1   2
BRANCH   1  30
ATOM     30  O   UNL A   1      34.951  31.965  27.759  1.00  0.00    -0.377 OA
BRANCH  30  31
ATOM     31  C   UNL A   1      35.361  33.312  27.969  1.00  0.00     0.188 C 
BRANCH  31  32
ATOM     32  C   UNL A   1      34.275  34.387  28.169  1.00  0.00     0.188 C 
BRANCH  32  33
ATOM     33  O   UNL A   1      34.226  34.903  29.490  1.00  0.00    -0.376 OA
BRANCH  33  34
ATOM     34  C   UNL A   1      34.244  33.970  30.557  1.00  0.00     0.202 C 
BRANCH  34  35
ATOM     35  C   UNL A   1      34.842  34.441  31.890  1.00  0.00     0.261 C 
BRANCH  35  36
ATOM     36  O   UNL A   1      36.013  33.755  32.361  1.00  0.00    -0.460 OA
BRANCH  36  37
ATOM     37  C   UNL A   1      36.070  32.406  32.296  1.00  0.00     0.338 C 
ATOM     38  O   UNL A   1      35.168  31.617  32.500  1.00  0.00    -0.246 OA
BRANCH  37  39
ATOM     39  C   UNL A   1      37.387  32.062  31.701  1.00  0.00     0.060 A 
ATOM     40  C   UNL A   1      37.604  32.291  30.333  1.00  0.00     0.016 A 
ATOM     41  C   UNL A   1      38.433  31.613  32.511  1.00  0.00     0.016 A 
ATOM     42  C   UNL A   1      38.855  32.033  29.766  1.00  0.00     0.010 A 
ATOM     43  C   UNL A   1      39.673  31.321  31.940  1.00  0.00     0.010 A 
ATOM     44  C   UNL A   1      39.874  31.488  30.558  1.00  0.00    -0.014 A 
BRANCH  44  45
ATOM     45  C   UNL A   1      41.002  30.768  29.918  1.00  0.00     0.031 A 
ATOM     46  C   UNL A   1      42.246  31.574  29.647  1.00  0.00     0.074 A 
ATOM     47  C   UNL A   1      40.939  29.476  29.553  1.00  0.00     0.049 A 
ATOM     48  N   UNL A   1      43.327  31.248  28.988  1.00  0.00    -0.248 NA
ATOM     49  C   UNL A   1      42.262  32.946  30.188  1.00  0.00     0.031 C 
ATOM     50  C   UNL A   1      39.822  28.569  29.806  1.00  0.00     0.029 A 
ATOM     51  N   UNL A   1      41.849  28.710  28.865  1.00  0.00    -0.354 N 
ATOM     52  C   UNL A   1      44.137  32.376  29.023  1.00  0.00     0.074 A 
ATOM     53  C   UNL A   1      43.422  33.400  29.747  1.00  0.00     0.031 C 
ATOM     54  C   UNL A   1      40.106  27.370  29.264  1.00  0.00     0.029 A 
ATOM     55  C   UNL A   1      41.404  27.440  28.591  1.00  0.00     0.049 A 
ATOM     56  H   UNL A   1      42.737  29.040  28.596  1.00  0.00     0.167 HD
ATOM     57  C   UNL A   1      45.368  32.552  28.494  1.00  0.00     0.031 A 
ATOM     58  C   UNL A   1      41.970  26.463  27.853  1.00  0.00     0.031 A 
ATOM     59  C   UNL A   1      46.071  31.548  27.748  1.00  0.00     0.049 A 
ATOM     60  C   UNL A   1      43.305  26.711  27.192  1.00  0.00     0.074 A 
ATOM     61  C   UNL A   1      47.323  31.624  27.170  1.00  0.00     0.029 A 
ATOM     62  N   UNL A   1      45.571  30.286  27.471  1.00  0.00    -0.354 N 
ATOM     63  N   UNL A   1      44.071  27.775  27.243  1.00  0.00    -0.248 NA
ATOM     64  C   UNL A   1      43.853  25.620  26.370  1.00  0.00     0.031 C 
ATOM     65  C   UNL A   1      47.560  30.424  26.492  1.00  0.00     0.029 A 
ATOM     66  C   UNL A   1      46.482  29.580  26.708  1.00  0.00     0.049 A 
ATOM     67  H   UNL A   1      44.699  29.943  27.773  1.00  0.00     0.167 HD
ATOM     68  C   UNL A   1      45.204  27.466  26.497  1.00  0.00     0.074 A 
ATOM     69  C   UNL A   1      45.027  26.116  26.006  1.00  0.00     0.031 C 
ATOM     70  C   UNL A   1      46.295  28.230  26.244  1.00  0.00     0.031 A 
BRANCH  57  71
ATOM     71  C   UNL A   1      46.001  33.903  28.665  1.00  0.00    -0.014 A 
ATOM     72  C   UNL A   1      47.010  34.123  29.617  1.00  0.00     0.009 A 
ATOM     73  C   UNL A   1      45.580  34.971  27.859  1.00  0.00     0.009 A 
ATOM     74  C   UNL A   1      47.560  35.396  29.781  1.00  0.00     0.001 A 
ATOM     75  C   UNL A   1      46.152  36.235  28.004  1.00  0.00     0.001 A 
ATOM     76  C   UNL A   1      47.134  36.448  28.970  1.00  0.00     0.000 A 
ENDBRANCH  57  71
BRANCH  58  77
ATOM     77  C   UNL A   1      41.273  25.162  27.662  1.00  0.00    -0.014 A 
ATOM     78  C   UNL A   1      41.730  24.003  28.309  1.00  0.00     0.009 A 
ATOM     79  C   UNL A   1      40.171  25.062  26.796  1.00  0.00     0.009 A 
ATOM     80  C   UNL A   1      41.117  22.769  28.072  1.00  0.00     0.001 A 
ATOM     81  C   UNL A   1      39.542  23.833  26.585  1.00  0.00     0.001 A 
ATOM     82  C   UNL A   1      40.021  22.685  27.214  1.00  0.00     0.000 A 
ENDBRANCH  58  77
BRANCH  70  83
ATOM     83  C   UNL A   1      47.415  27.612  25.454  1.00  0.00    -0.014 A 
ATOM     84  C   UNL A   1      48.442  26.889  26.078  1.00  0.00     0.009 A 
ATOM     85  C   UNL A   1      47.393  27.693  24.052  1.00  0.00     0.009 A 
ATOM     86  C   UNL A   1      49.438  26.279  25.312  1.00  0.00     0.001 A 
ATOM     87  C   UNL A   1      48.373  27.057  23.290  1.00  0.00     0.001 A 
ATOM     88  C   UNL A   1      49.398  26.357  23.920  1.00  0.00     0.000 A 
ENDBRANCH  70  83
ENDBRANCH  44  45
ENDBRANCH  37  39
ENDBRANCH  36  37
ENDBRANCH  35  36
ENDBRANCH  34  35
ENDBRANCH  33  34
ENDBRANCH  32  33
ENDBRANCH  31  32
ENDBRANCH  30  31
ENDBRANCH   1  30
TORSDOF 23
ENDMDL
