MODEL 1
REMARK VINA RESULT:      -9.7      0.000      0.000
REMARK SMILES C[C@]1(c2ccccc2C(=O)OCCOCCOCCOCCOC(=O)c2ccc(-c3c4nc(c(-c5ccccc5)c5ccc([nH]5)c(-c5ccccc5)c5nc(c(-c6ccccc6)c6ccc3[nH]6)C=C5)C=C4)cc2)NN=C(c2ccccc2)S1
REMARK SMILES IDX 17 1 16 2 15 3 14 4 13 5 12 6 11 7 9 8 10 9 8 10 3 11 4 12
REMARK SMILES IDX 5 13 7 14 6 15 2 16 1 17 74 18 83 19 75 20 76 22 77 23 78 24
REMARK SMILES IDX 82 25 79 26 81 27 80 28 18 29 19 30 20 31 21 32 22 33 23 34
REMARK SMILES IDX 24 35 25 36 26 37 27 38 73 39 28 40 72 41 29 42 30 43 31 44
REMARK SMILES IDX 66 45 32 46 71 47 65 48 67 49 33 50 70 51 64 52 63 53 34 55
REMARK SMILES IDX 56 56 41 57 55 58 42 59 45 60 54 61 68 62 43 63 44 64 53 66
REMARK SMILES IDX 69 67 46 68 35 69 36 70 40 71 37 72 39 73 38 74 57 75 58 76
REMARK SMILES IDX 62 77 59 78 61 79 60 80 47 81 48 82 52 83 49 84 51 85 50 86
REMARK H PARENT 74 21 67 54 45 65
REMARK Flexibility Score: inf
ROOT
ATOM      1  O   UNL A   1      32.704  27.644  25.910  1.00  0.00    -0.377 OA
ENDROOT
BRANCH   1   2
ATOM      2  C   UNL A   1      31.638  27.995  25.035  1.00  0.00     0.188 C 
BRANCH   2   3
ATOM      3  C   UNL A   1      31.968  28.906  23.838  1.00  0.00     0.188 C 
BRANCH   3   4
ATOM      4  O   UNL A   1      31.883  28.205  22.607  1.00  0.00    -0.376 OA
BRANCH   4   5
ATOM      5  C   UNL A   1      31.014  27.073  22.498  1.00  0.00     0.202 C 
BRANCH   5   6
ATOM      6  C   UNL A   1      31.582  25.653  22.354  1.00  0.00     0.261 C 
BRANCH   6   7
ATOM      7  O   UNL A   1      32.917  25.564  22.869  1.00  0.00    -0.460 OA
BRANCH   7   8
ATOM      8  C   UNL A   1      33.535  24.377  22.653  1.00  0.00     0.338 C 
ATOM      9  O   UNL A   1      33.739  23.842  21.580  1.00  0.00    -0.246 OA
BRANCH   8  10
ATOM     10  C   UNL A   1      34.160  23.908  23.904  1.00  0.00     0.066 A 
ATOM     11  C   UNL A   1      33.622  22.944  24.778  1.00  0.00     0.004 A 
ATOM     12  C   UNL A   1      34.477  22.542  25.846  1.00  0.00     0.008 A 
ATOM     13  C   UNL A   1      35.755  23.074  26.049  1.00  0.00     0.000 A 
ATOM     14  C   UNL A   1      35.452  24.449  24.118  1.00  0.00     0.016 A 
ATOM     15  C   UNL A   1      36.241  24.042  25.189  1.00  0.00     0.001 A 
BRANCH  11  16
ATOM     16  C   UNL A   1      32.291  22.177  24.633  1.00  0.00     0.129 C 
ATOM     17  C   UNL A   1      31.142  23.110  25.046  1.00  0.00     0.054 C 
ATOM     18  N   UNL A   1      32.131  21.702  23.238  1.00  0.00    -0.288 NA
ATOM     19  S   UNL A   1      32.032  20.651  25.581  1.00  0.00    -0.070 SA
ATOM     20  N   UNL A   1      32.278  20.357  23.018  1.00  0.00    -0.171 NA
ATOM     21  H   UNL A   1      31.929  22.324  22.503  1.00  0.00     0.185 HD
ATOM     22  C   UNL A   1      32.317  19.708  24.144  1.00  0.00     0.126 C 
BRANCH  22  23
ATOM     23  C   UNL A   1      32.701  18.287  24.292  1.00  0.00     0.009 A 
ATOM     24  C   UNL A   1      33.381  17.702  23.232  1.00  0.00     0.011 A 
ATOM     25  C   UNL A   1      32.606  17.582  25.499  1.00  0.00     0.011 A 
ATOM     26  C   UNL A   1      34.091  16.516  23.432  1.00  0.00     0.001 A 
ATOM     27  C   UNL A   1      33.258  16.353  25.662  1.00  0.00     0.001 A 
ATOM     28  C   UNL A   1      34.038  15.839  24.639  1.00  0.00     0.000 A 
ENDBRANCH  22  23
ENDBRANCH  11  16
ENDBRANCH   8  10
ENDBRANCH   7   8
ENDBRANCH   6   7
ENDBRANCH   5   6
ENDBRANCH   4   5
ENDBRANCH   3   4
ENDBRANCH   2   3
ENDBRANCH   1   2
BRANCH   1  29
ATOM     29  C   UNL A   1      33.810  28.540  25.992  1.00  0.00     0.188 C 
BRANCH  29  30
ATOM     30  C   UNL A   1      33.806  29.523  27.174  1.00  0.00     0.188 C 
BRANCH  30  31
ATOM     31  O   UNL A   1      33.286  30.831  26.893  1.00  0.00    -0.376 OA
BRANCH  31  32
ATOM     32  C   UNL A   1      31.872  30.995  26.993  1.00  0.00     0.202 C 
BRANCH  32  33
ATOM     33  C   UNL A   1      31.539  32.501  27.016  1.00  0.00     0.261 C 
BRANCH  33  34
ATOM     34  O   UNL A   1      32.749  33.312  26.953  1.00  0.00    -0.460 OA
BRANCH  34  35
ATOM     35  C   UNL A   1      33.118  33.975  28.084  1.00  0.00     0.338 C 
ATOM     36  O   UNL A   1      32.463  34.816  28.676  1.00  0.00    -0.246 OA
BRANCH  35  37
ATOM     37  C   UNL A   1      34.371  33.395  28.657  1.00  0.00     0.060 A 
ATOM     38  C   UNL A   1      35.567  33.633  27.963  1.00  0.00     0.016 A 
ATOM     39  C   UNL A   1      34.419  32.698  29.870  1.00  0.00     0.016 A 
ATOM     40  C   UNL A   1      36.802  33.255  28.505  1.00  0.00     0.010 A 
ATOM     41  C   UNL A   1      35.658  32.245  30.375  1.00  0.00     0.010 A 
ATOM     42  C   UNL A   1      36.860  32.522  29.698  1.00  0.00    -0.014 A 
BRANCH  42  43
ATOM     43  C   UNL A   1      38.138  31.824  30.035  1.00  0.00     0.031 A 
ATOM     44  C   UNL A   1      39.049  32.508  31.025  1.00  0.00     0.074 A 
ATOM     45  C   UNL A   1      38.484  30.609  29.568  1.00  0.00     0.049 A 
ATOM     46  N   UNL A   1      40.187  32.110  31.535  1.00  0.00    -0.248 NA
ATOM     47  C   UNL A   1      38.595  33.820  31.514  1.00  0.00     0.031 C 
ATOM     48  C   UNL A   1      37.684  29.780  28.672  1.00  0.00     0.029 A 
ATOM     49  N   UNL A   1      39.614  29.851  29.800  1.00  0.00    -0.354 N 
ATOM     50  C   UNL A   1      40.575  33.116  32.411  1.00  0.00     0.074 A 
ATOM     51  C   UNL A   1      39.560  34.144  32.356  1.00  0.00     0.031 C 
ATOM     52  C   UNL A   1      38.349  28.636  28.421  1.00  0.00     0.029 A 
ATOM     53  C   UNL A   1      39.642  28.661  29.109  1.00  0.00     0.049 A 
ATOM     54  H   UNL A   1      40.336  30.137  30.405  1.00  0.00     0.167 HD
ATOM     55  C   UNL A   1      41.685  33.201  33.182  1.00  0.00     0.031 A 
ATOM     56  C   UNL A   1      40.604  27.717  29.021  1.00  0.00     0.031 A 
ATOM     57  C   UNL A   1      42.744  32.230  33.189  1.00  0.00     0.049 A 
ATOM     58  C   UNL A   1      41.892  27.886  29.796  1.00  0.00     0.074 A 
ATOM     59  C   UNL A   1      43.924  32.249  33.910  1.00  0.00     0.029 A 
ATOM     60  N   UNL A   1      42.766  31.083  32.411  1.00  0.00    -0.354 N 
ATOM     61  N   UNL A   1      42.238  28.834  30.633  1.00  0.00    -0.248 NA
ATOM     62  C   UNL A   1      42.922  26.850  29.611  1.00  0.00     0.031 C 
ATOM     63  C   UNL A   1      44.695  31.152  33.510  1.00  0.00     0.029 A 
ATOM     64  C   UNL A   1      43.960  30.408  32.601  1.00  0.00     0.049 A 
ATOM     65  H   UNL A   1      42.040  30.792  31.812  1.00  0.00     0.167 HD
ATOM     66  C   UNL A   1      43.512  28.502  31.085  1.00  0.00     0.074 A 
ATOM     67  C   UNL A   1      43.868  27.250  30.449  1.00  0.00     0.031 C 
ATOM     68  C   UNL A   1      44.316  29.173  31.948  1.00  0.00     0.031 A 
BRANCH  55  69
ATOM     69  C   UNL A   1      41.838  34.452  34.000  1.00  0.00    -0.014 A 
ATOM     70  C   UNL A   1      42.494  35.589  33.497  1.00  0.00     0.009 A 
ATOM     71  C   UNL A   1      41.358  34.474  35.319  1.00  0.00     0.009 A 
ATOM     72  C   UNL A   1      42.711  36.698  34.316  1.00  0.00     0.001 A 
ATOM     73  C   UNL A   1      41.547  35.596  36.124  1.00  0.00     0.001 A 
ATOM     74  C   UNL A   1      42.237  36.701  35.628  1.00  0.00     0.000 A 
ENDBRANCH  55  69
BRANCH  56  75
ATOM     75  C   UNL A   1      40.428  26.542  28.116  1.00  0.00    -0.014 A 
ATOM     76  C   UNL A   1      40.933  26.542  26.806  1.00  0.00     0.009 A 
ATOM     77  C   UNL A   1      39.701  25.423  28.554  1.00  0.00     0.009 A 
ATOM     78  C   UNL A   1      40.702  25.456  25.954  1.00  0.00     0.001 A 
ATOM     79  C   UNL A   1      39.499  24.326  27.711  1.00  0.00     0.001 A 
ATOM     80  C   UNL A   1      39.992  24.346  26.409  1.00  0.00     0.000 A 
ENDBRANCH  56  75
BRANCH  68  81
ATOM     81  C   UNL A   1      45.653  28.562  32.275  1.00  0.00    -0.014 A 
ATOM     82  C   UNL A   1      45.778  27.523  33.211  1.00  0.00     0.009 A 
ATOM     83  C   UNL A   1      46.805  29.006  31.603  1.00  0.00     0.009 A 
ATOM     84  C   UNL A   1      47.030  26.973  33.498  1.00  0.00     0.001 A 
ATOM     85  C   UNL A   1      48.049  28.430  31.865  1.00  0.00     0.001 A 
ATOM     86  C   UNL A   1      48.164  27.423  32.820  1.00  0.00     0.000 A 
ENDBRANCH  68  81
ENDBRANCH  42  43
ENDBRANCH  35  37
ENDBRANCH  34  35
ENDBRANCH  33  34
ENDBRANCH  32  33
ENDBRANCH  31  32
ENDBRANCH  30  31
ENDBRANCH  29  30
ENDBRANCH   1  29
TORSDOF 22
ENDMDL
MODEL 2
REMARK VINA RESULT:      -9.5      3.571      7.734
REMARK SMILES C[C@]1(c2ccccc2C(=O)OCCOCCOCCOCCOC(=O)c2ccc(-c3c4nc(c(-c5ccccc5)c5ccc([nH]5)c(-c5ccccc5)c5nc(c(-c6ccccc6)c6ccc3[nH]6)C=C5)C=C4)cc2)NN=C(c2ccccc2)S1
REMARK SMILES IDX 17 1 16 2 15 3 14 4 13 5 12 6 11 7 9 8 10 9 8 10 3 11 4 12
REMARK SMILES IDX 5 13 7 14 6 15 2 16 1 17 74 18 83 19 75 20 76 22 77 23 78 24
REMARK SMILES IDX 82 25 79 26 81 27 80 28 18 29 19 30 20 31 21 32 22 33 23 34
REMARK SMILES IDX 24 35 25 36 26 37 27 38 73 39 28 40 72 41 29 42 30 43 31 44
REMARK SMILES IDX 66 45 32 46 71 47 65 48 67 49 33 50 70 51 64 52 63 53 34 55
REMARK SMILES IDX 56 56 41 57 55 58 42 59 45 60 54 61 68 62 43 63 44 64 53 66
REMARK SMILES IDX 69 67 46 68 35 69 36 70 40 71 37 72 39 73 38 74 57 75 58 76
REMARK SMILES IDX 62 77 59 78 61 79 60 80 47 81 48 82 52 83 49 84 51 85 50 86
REMARK H PARENT 74 21 67 54 45 65
REMARK Flexibility Score: inf
ROOT
ATOM      1  O   UNL A   1      34.572  33.917  27.663  1.00  0.00    -0.377 OA
ENDROOT
BRANCH   1   2
ATOM      2  C   UNL A   1      35.517  33.010  28.221  1.00  0.00     0.188 C 
BRANCH   2   3
ATOM      3  C   UNL A   1      35.031  31.588  28.554  1.00  0.00     0.188 C 
BRANCH   3   4
ATOM      4  O   UNL A   1      34.547  30.915  27.402  1.00  0.00    -0.376 OA
BRANCH   4   5
ATOM      5  C   UNL A   1      35.134  29.668  27.016  1.00  0.00     0.202 C 
BRANCH   5   6
ATOM      6  C   UNL A   1      34.263  28.419  26.804  1.00  0.00     0.261 C 
BRANCH   6   7
ATOM      7  O   UNL A   1      33.283  28.625  25.778  1.00  0.00    -0.460 OA
BRANCH   7   8
ATOM      8  C   UNL A   1      32.002  28.396  26.156  1.00  0.00     0.338 C 
ATOM      9  O   UNL A   1      31.534  28.520  27.272  1.00  0.00    -0.246 OA
BRANCH   8  10
ATOM     10  C   UNL A   1      31.161  28.194  24.962  1.00  0.00     0.066 A 
ATOM     11  C   UNL A   1      30.645  26.959  24.522  1.00  0.00     0.004 A 
ATOM     12  C   UNL A   1      29.734  27.033  23.427  1.00  0.00     0.008 A 
ATOM     13  C   UNL A   1      29.382  28.233  22.800  1.00  0.00     0.000 A 
ATOM     14  C   UNL A   1      30.807  29.406  24.318  1.00  0.00     0.016 A 
ATOM     15  C   UNL A   1      29.931  29.425  23.238  1.00  0.00     0.001 A 
BRANCH  11  16
ATOM     16  C   UNL A   1      30.837  25.572  25.168  1.00  0.00     0.129 C 
ATOM     17  C   UNL A   1      29.733  25.365  26.218  1.00  0.00     0.054 C 
ATOM     18  N   UNL A   1      30.799  24.519  24.125  1.00  0.00    -0.288 NA
ATOM     19  S   UNL A   1      32.391  25.193  26.027  1.00  0.00    -0.070 SA
ATOM     20  N   UNL A   1      31.987  23.912  23.811  1.00  0.00    -0.171 NA
ATOM     21  H   UNL A   1      29.959  24.269  23.678  1.00  0.00     0.185 HD
ATOM     22  C   UNL A   1      32.910  24.234  24.668  1.00  0.00     0.126 C 
BRANCH  22  23
ATOM     23  C   UNL A   1      34.354  23.956  24.505  1.00  0.00     0.009 A 
ATOM     24  C   UNL A   1      35.120  23.898  25.661  1.00  0.00     0.011 A 
ATOM     25  C   UNL A   1      34.930  23.548  23.295  1.00  0.00     0.011 A 
ATOM     26  C   UNL A   1      36.376  23.287  25.631  1.00  0.00     0.001 A 
ATOM     27  C   UNL A   1      36.223  23.009  23.267  1.00  0.00     0.001 A 
ATOM     28  C   UNL A   1      36.931  22.839  24.445  1.00  0.00     0.000 A 
ENDBRANCH  22  23
ENDBRANCH  11  16
ENDBRANCH   8  10
ENDBRANCH   7   8
ENDBRANCH   6   7
ENDBRANCH   5   6
ENDBRANCH   4   5
ENDBRANCH   3   4
ENDBRANCH   2   3
ENDBRANCH   1   2
BRANCH   1  29
ATOM     29  C   UNL A   1      34.327  35.129  28.372  1.00  0.00     0.188 C 
BRANCH  29  30
ATOM     30  C   UNL A   1      33.260  35.069  29.478  1.00  0.00     0.188 C 
BRANCH  30  31
ATOM     31  O   UNL A   1      33.561  34.208  30.586  1.00  0.00    -0.376 OA
BRANCH  31  32
ATOM     32  C   UNL A   1      33.971  34.841  31.797  1.00  0.00     0.202 C 
BRANCH  32  33
ATOM     33  C   UNL A   1      34.677  33.804  32.695  1.00  0.00     0.261 C 
BRANCH  33  34
ATOM     34  O   UNL A   1      36.042  33.557  32.245  1.00  0.00    -0.460 OA
BRANCH  34  35
ATOM     35  C   UNL A   1      36.788  32.673  32.964  1.00  0.00     0.338 C 
ATOM     36  O   UNL A   1      36.532  32.251  34.080  1.00  0.00    -0.246 OA
BRANCH  35  37
ATOM     37  C   UNL A   1      37.889  32.100  32.131  1.00  0.00     0.060 A 
ATOM     38  C   UNL A   1      39.008  31.589  32.806  1.00  0.00     0.016 A 
ATOM     39  C   UNL A   1      37.827  31.986  30.738  1.00  0.00     0.016 A 
ATOM     40  C   UNL A   1      40.014  30.903  32.115  1.00  0.00     0.010 A 
ATOM     41  C   UNL A   1      38.883  31.366  30.034  1.00  0.00     0.010 A 
ATOM     42  C   UNL A   1      39.985  30.817  30.717  1.00  0.00    -0.014 A 
BRANCH  42  43
ATOM     43  C   UNL A   1      41.239  30.420  30.007  1.00  0.00     0.031 A 
ATOM     44  C   UNL A   1      41.294  29.020  29.449  1.00  0.00     0.074 A 
ATOM     45  C   UNL A   1      42.276  31.251  29.781  1.00  0.00     0.049 A 
ATOM     46  N   UNL A   1      42.230  28.430  28.749  1.00  0.00    -0.248 NA
ATOM     47  C   UNL A   1      40.116  28.178  29.711  1.00  0.00     0.031 C 
ATOM     48  C   UNL A   1      42.349  32.653  30.180  1.00  0.00     0.029 A 
ATOM     49  N   UNL A   1      43.477  31.025  29.141  1.00  0.00    -0.354 N 
ATOM     50  C   UNL A   1      41.746  27.156  28.479  1.00  0.00     0.074 A 
ATOM     51  C   UNL A   1      40.443  27.056  29.096  1.00  0.00     0.031 C 
ATOM     52  C   UNL A   1      43.534  33.160  29.786  1.00  0.00     0.029 A 
ATOM     53  C   UNL A   1      44.323  32.110  29.137  1.00  0.00     0.049 A 
ATOM     54  H   UNL A   1      43.709  30.163  28.725  1.00  0.00     0.167 HD
ATOM     55  C   UNL A   1      42.332  26.143  27.798  1.00  0.00     0.031 A 
ATOM     56  C   UNL A   1      45.590  32.237  28.688  1.00  0.00     0.031 A 
ATOM     57  C   UNL A   1      43.658  26.195  27.248  1.00  0.00     0.049 A 
ATOM     58  C   UNL A   1      46.276  31.057  28.037  1.00  0.00     0.074 A 
ATOM     59  C   UNL A   1      44.350  25.206  26.573  1.00  0.00     0.029 A 
ATOM     60  N   UNL A   1      44.507  27.286  27.341  1.00  0.00    -0.354 N 
ATOM     61  N   UNL A   1      45.801  29.864  27.773  1.00  0.00    -0.248 NA
ATOM     62  C   UNL A   1      47.676  31.245  27.621  1.00  0.00     0.031 C 
ATOM     63  C   UNL A   1      45.646  25.672  26.327  1.00  0.00     0.029 A 
ATOM     64  C   UNL A   1      45.733  26.980  26.775  1.00  0.00     0.049 A 
ATOM     65  H   UNL A   1      44.273  28.152  27.750  1.00  0.00     0.167 HD
ATOM     66  C   UNL A   1      46.832  29.168  27.149  1.00  0.00     0.074 A 
ATOM     67  C   UNL A   1      47.951  30.081  27.050  1.00  0.00     0.031 C 
ATOM     68  C   UNL A   1      46.851  27.887  26.700  1.00  0.00     0.031 A 
BRANCH  55  69
ATOM     69  C   UNL A   1      41.558  24.857  27.713  1.00  0.00    -0.014 A 
ATOM     70  C   UNL A   1      41.913  23.730  28.472  1.00  0.00     0.009 A 
ATOM     71  C   UNL A   1      40.482  24.762  26.817  1.00  0.00     0.009 A 
ATOM     72  C   UNL A   1      41.239  22.520  28.295  1.00  0.00     0.001 A 
ATOM     73  C   UNL A   1      39.789  23.561  26.667  1.00  0.00     0.001 A 
ATOM     74  C   UNL A   1      40.178  22.437  27.393  1.00  0.00     0.000 A 
ENDBRANCH  55  69
BRANCH  56  75
ATOM     75  C   UNL A   1      46.338  33.515  28.887  1.00  0.00    -0.014 A 
ATOM     76  C   UNL A   1      46.845  33.881  30.145  1.00  0.00     0.009 A 
ATOM     77  C   UNL A   1      46.504  34.405  27.813  1.00  0.00     0.009 A 
ATOM     78  C   UNL A   1      47.486  35.112  30.323  1.00  0.00     0.001 A 
ATOM     79  C   UNL A   1      47.173  35.620  27.987  1.00  0.00     0.001 A 
ATOM     80  C   UNL A   1      47.657  35.977  29.243  1.00  0.00     0.000 A 
ENDBRANCH  56  75
BRANCH  68  81
ATOM     81  C   UNL A   1      48.113  27.398  26.040  1.00  0.00    -0.014 A 
ATOM     82  C   UNL A   1      49.121  26.748  26.770  1.00  0.00     0.009 A 
ATOM     83  C   UNL A   1      48.278  27.551  24.653  1.00  0.00     0.009 A 
ATOM     84  C   UNL A   1      50.283  26.303  26.134  1.00  0.00     0.001 A 
ATOM     85  C   UNL A   1      49.425  27.074  24.014  1.00  0.00     0.001 A 
ATOM     86  C   UNL A   1      50.431  26.461  24.756  1.00  0.00     0.000 A 
ENDBRANCH  68  81
ENDBRANCH  42  43
ENDBRANCH  35  37
ENDBRANCH  34  35
ENDBRANCH  33  34
ENDBRANCH  32  33
ENDBRANCH  31  32
ENDBRANCH  30  31
ENDBRANCH  29  30
ENDBRANCH   1  29
TORSDOF 22
ENDMDL
MODEL 3
REMARK VINA RESULT:      -9.5      1.548      5.681
REMARK SMILES C[C@]1(c2ccccc2C(=O)OCCOCCOCCOCCOC(=O)c2ccc(-c3c4nc(c(-c5ccccc5)c5ccc([nH]5)c(-c5ccccc5)c5nc(c(-c6ccccc6)c6ccc3[nH]6)C=C5)C=C4)cc2)NN=C(c2ccccc2)S1
REMARK SMILES IDX 17 1 16 2 15 3 14 4 13 5 12 6 11 7 9 8 10 9 8 10 3 11 4 12
REMARK SMILES IDX 5 13 7 14 6 15 2 16 1 17 74 18 83 19 75 20 76 22 77 23 78 24
REMARK SMILES IDX 82 25 79 26 81 27 80 28 18 29 19 30 20 31 21 32 22 33 23 34
REMARK SMILES IDX 24 35 25 36 26 37 27 38 73 39 28 40 72 41 29 42 30 43 31 44
REMARK SMILES IDX 66 45 32 46 71 47 65 48 67 49 33 50 70 51 64 52 63 53 34 55
REMARK SMILES IDX 56 56 41 57 55 58 42 59 45 60 54 61 68 62 43 63 44 64 53 66
REMARK SMILES IDX 69 67 46 68 35 69 36 70 40 71 37 72 39 73 38 74 57 75 58 76
REMARK SMILES IDX 62 77 59 78 61 79 60 80 47 81 48 82 52 83 49 84 51 85 50 86
REMARK H PARENT 74 21 67 54 45 65
REMARK Flexibility Score: inf
ROOT
ATOM      1  O   UNL A   1      32.745  27.600  26.071  1.00  0.00    -0.377 OA
ENDROOT
BRANCH   1   2
ATOM      2  C   UNL A   1      31.808  27.840  25.027  1.00  0.00     0.188 C 
BRANCH   2   3
ATOM      3  C   UNL A   1      32.334  28.473  23.727  1.00  0.00     0.188 C 
BRANCH   3   4
ATOM      4  O   UNL A   1      32.220  27.584  22.626  1.00  0.00    -0.376 OA
BRANCH   4   5
ATOM      5  C   UNL A   1      31.297  26.493  22.695  1.00  0.00     0.202 C 
BRANCH   5   6
ATOM      6  C   UNL A   1      31.793  25.039  22.690  1.00  0.00     0.261 C 
BRANCH   6   7
ATOM      7  O   UNL A   1      33.211  24.963  22.887  1.00  0.00    -0.460 OA
BRANCH   7   8
ATOM      8  C   UNL A   1      33.782  23.798  22.498  1.00  0.00     0.338 C 
ATOM      9  O   UNL A   1      33.715  23.281  21.398  1.00  0.00    -0.246 OA
BRANCH   8  10
ATOM     10  C   UNL A   1      34.719  23.331  23.536  1.00  0.00     0.066 A 
ATOM     11  C   UNL A   1      34.387  22.509  24.631  1.00  0.00     0.004 A 
ATOM     12  C   UNL A   1      35.489  22.066  25.419  1.00  0.00     0.008 A 
ATOM     13  C   UNL A   1      36.815  22.431  25.159  1.00  0.00     0.000 A 
ATOM     14  C   UNL A   1      36.062  23.704  23.282  1.00  0.00     0.016 A 
ATOM     15  C   UNL A   1      37.103  23.265  24.094  1.00  0.00     0.001 A 
BRANCH  11  16
ATOM     16  C   UNL A   1      33.004  21.924  24.987  1.00  0.00     0.129 C 
ATOM     17  C   UNL A   1      32.213  22.980  25.773  1.00  0.00     0.054 C 
ATOM     18  N   UNL A   1      32.293  21.522  23.750  1.00  0.00    -0.288 NA
ATOM     19  S   UNL A   1      32.906  20.411  25.985  1.00  0.00    -0.070 SA
ATOM     20  N   UNL A   1      32.174  20.177  23.510  1.00  0.00    -0.171 NA
ATOM     21  H   UNL A   1      31.924  22.190  23.129  1.00  0.00     0.185 HD
ATOM     22  C   UNL A   1      32.529  19.490  24.554  1.00  0.00     0.126 C 
BRANCH  22  23
ATOM     23  C   UNL A   1      32.751  18.027  24.573  1.00  0.00     0.009 A 
ATOM     24  C   UNL A   1      33.500  17.488  23.537  1.00  0.00     0.011 A 
ATOM     25  C   UNL A   1      32.434  17.212  25.668  1.00  0.00     0.011 A 
ATOM     26  C   UNL A   1      34.059  16.215  23.673  1.00  0.00     0.001 A 
ATOM     27  C   UNL A   1      32.937  15.908  25.756  1.00  0.00     0.001 A 
ATOM     28  C   UNL A   1      33.787  15.423  24.775  1.00  0.00     0.000 A 
ENDBRANCH  22  23
ENDBRANCH  11  16
ENDBRANCH   8  10
ENDBRANCH   7   8
ENDBRANCH   6   7
ENDBRANCH   5   6
ENDBRANCH   4   5
ENDBRANCH   3   4
ENDBRANCH   2   3
ENDBRANCH   1   2
BRANCH   1  29
ATOM     29  C   UNL A   1      33.863  28.480  26.166  1.00  0.00     0.188 C 
BRANCH  29  30
ATOM     30  C   UNL A   1      33.713  29.672  27.127  1.00  0.00     0.188 C 
BRANCH  30  31
ATOM     31  O   UNL A   1      33.140  30.859  26.559  1.00  0.00    -0.376 OA
BRANCH  31  32
ATOM     32  C   UNL A   1      31.754  31.086  26.810  1.00  0.00     0.202 C 
BRANCH  32  33
ATOM     33  C   UNL A   1      31.513  32.600  26.982  1.00  0.00     0.261 C 
BRANCH  33  34
ATOM     34  O   UNL A   1      32.760  33.349  26.883  1.00  0.00    -0.460 OA
BRANCH  34  35
ATOM     35  C   UNL A   1      33.162  34.043  27.984  1.00  0.00     0.338 C 
ATOM     36  O   UNL A   1      32.541  34.930  28.547  1.00  0.00    -0.246 OA
BRANCH  35  37
ATOM     37  C   UNL A   1      34.399  33.443  28.571  1.00  0.00     0.060 A 
ATOM     38  C   UNL A   1      34.232  32.412  29.508  1.00  0.00     0.016 A 
ATOM     39  C   UNL A   1      35.694  33.806  28.185  1.00  0.00     0.016 A 
ATOM     40  C   UNL A   1      35.334  31.697  29.995  1.00  0.00     0.010 A 
ATOM     41  C   UNL A   1      36.808  33.138  28.740  1.00  0.00     0.010 A 
ATOM     42  C   UNL A   1      36.637  32.076  29.648  1.00  0.00    -0.014 A 
BRANCH  42  43
ATOM     43  C   UNL A   1      37.768  31.545  30.468  1.00  0.00     0.031 A 
ATOM     44  C   UNL A   1      38.622  30.471  29.840  1.00  0.00     0.074 A 
ATOM     45  C   UNL A   1      38.105  32.011  31.687  1.00  0.00     0.049 A 
ATOM     46  N   UNL A   1      39.692  29.872  30.299  1.00  0.00    -0.248 NA
ATOM     47  C   UNL A   1      38.212  30.030  28.497  1.00  0.00     0.031 C 
ATOM     48  C   UNL A   1      37.436  33.096  32.400  1.00  0.00     0.029 A 
ATOM     49  N   UNL A   1      39.116  31.626  32.542  1.00  0.00    -0.354 N 
ATOM     50  C   UNL A   1      40.085  28.994  29.296  1.00  0.00     0.074 A 
ATOM     51  C   UNL A   1      39.138  29.132  28.213  1.00  0.00     0.031 C 
ATOM     52  C   UNL A   1      38.047  33.283  33.586  1.00  0.00     0.029 A 
ATOM     53  C   UNL A   1      39.130  32.308  33.737  1.00  0.00     0.049 A 
ATOM     54  H   UNL A   1      39.770  30.924  32.318  1.00  0.00     0.167 HD
ATOM     55  C   UNL A   1      41.127  28.128  29.275  1.00  0.00     0.031 A 
ATOM     56  C   UNL A   1      39.904  32.150  34.832  1.00  0.00     0.031 A 
ATOM     57  C   UNL A   1      42.029  27.918  30.372  1.00  0.00     0.049 A 
ATOM     58  C   UNL A   1      40.987  31.094  34.838  1.00  0.00     0.074 A 
ATOM     59  C   UNL A   1      43.092  27.037  30.456  1.00  0.00     0.029 A 
ATOM     60  N   UNL A   1      41.953  28.572  31.592  1.00  0.00    -0.354 N 
ATOM     61  N   UNL A   1      41.359  30.283  33.878  1.00  0.00    -0.248 NA
ATOM     62  C   UNL A   1      41.757  30.935  36.082  1.00  0.00     0.031 C 
ATOM     63  C   UNL A   1      43.610  27.103  31.754  1.00  0.00     0.029 A 
ATOM     64  C   UNL A   1      42.922  28.083  32.451  1.00  0.00     0.049 A 
ATOM     65  H   UNL A   1      41.304  29.280  31.814  1.00  0.00     0.167 HD
ATOM     66  C   UNL A   1      42.412  29.532  34.393  1.00  0.00     0.074 A 
ATOM     67  C   UNL A   1      42.637  30.003  35.744  1.00  0.00     0.031 C 
ATOM     68  C   UNL A   1      43.126  28.542  33.802  1.00  0.00     0.031 A 
BRANCH  55  69
ATOM     69  C   UNL A   1      41.263  27.275  28.045  1.00  0.00    -0.014 A 
ATOM     70  C   UNL A   1      40.945  25.906  28.057  1.00  0.00     0.009 A 
ATOM     71  C   UNL A   1      41.766  27.845  26.866  1.00  0.00     0.009 A 
ATOM     72  C   UNL A   1      41.180  25.118  26.928  1.00  0.00     0.001 A 
ATOM     73  C   UNL A   1      41.969  27.063  25.730  1.00  0.00     0.001 A 
ATOM     74  C   UNL A   1      41.690  25.697  25.766  1.00  0.00     0.000 A 
ENDBRANCH  55  69
BRANCH  56  75
ATOM     75  C   UNL A   1      39.656  32.968  36.057  1.00  0.00    -0.014 A 
ATOM     76  C   UNL A   1      38.726  32.569  37.031  1.00  0.00     0.009 A 
ATOM     77  C   UNL A   1      40.325  34.191  36.232  1.00  0.00     0.009 A 
ATOM     78  C   UNL A   1      38.462  33.381  38.139  1.00  0.00     0.001 A 
ATOM     79  C   UNL A   1      40.083  34.985  37.356  1.00  0.00     0.001 A 
ATOM     80  C   UNL A   1      39.146  34.585  38.305  1.00  0.00     0.000 A 
ENDBRANCH  56  75
BRANCH  68  81
ATOM     81  C   UNL A   1      44.236  27.909  34.602  1.00  0.00    -0.014 A 
ATOM     82  C   UNL A   1      44.024  26.752  35.368  1.00  0.00     0.009 A 
ATOM     83  C   UNL A   1      45.529  28.457  34.552  1.00  0.00     0.009 A 
ATOM     84  C   UNL A   1      45.069  26.185  36.101  1.00  0.00     0.001 A 
ATOM     85  C   UNL A   1      46.580  27.868  35.257  1.00  0.00     0.001 A 
ATOM     86  C   UNL A   1      46.348  26.740  36.040  1.00  0.00     0.000 A 
ENDBRANCH  68  81
ENDBRANCH  42  43
ENDBRANCH  35  37
ENDBRANCH  34  35
ENDBRANCH  33  34
ENDBRANCH  32  33
ENDBRANCH  31  32
ENDBRANCH  30  31
ENDBRANCH  29  30
ENDBRANCH   1  29
TORSDOF 22
ENDMDL
