MODEL 1
REMARK VINA RESULT:     -10.0      0.000      0.000
REMARK SMILES C[C@@H]1[C@@H](C(=O)OCCOCCOCCOCCOC(=O)c2ccc(-c3c4nc(c(-c5ccccc5)c5ccc([nH]5)c(-c5ccccc5)c5nc(c(-c6ccccc6)c6ccc3[nH]6)C=C5)C=C4)cc2)CCN1C(=O)N1CCCCC1
REMARK SMILES IDX 13 1 12 2 11 3 10 4 9 5 8 6 7 7 6 8 4 9 5 10 3 11 1 12 2 13
REMARK SMILES IDX 71 14 69 15 70 16 72 17 73 18 74 19 75 20 79 21 76 22 78 23
REMARK SMILES IDX 77 24 14 25 15 26 16 27 17 28 18 29 19 30 20 31 21 32 22 33
REMARK SMILES IDX 68 34 23 35 67 36 24 37 25 38 26 39 61 40 27 41 66 42 60 43
REMARK SMILES IDX 62 44 28 45 65 46 59 47 58 48 29 50 51 51 36 52 50 53 37 54
REMARK SMILES IDX 40 55 49 56 63 57 38 58 39 59 48 61 64 62 41 63 30 64 31 65
REMARK SMILES IDX 35 66 32 67 34 68 33 69 52 70 53 71 57 72 54 73 56 74 55 75
REMARK SMILES IDX 42 76 43 77 47 78 44 79 46 80 45 81
REMARK H PARENT 62 49 40 60
REMARK Flexibility Score: inf
ROOT
ATOM      1  C   UNL A   1      35.006  34.299  28.748  1.00  0.00     0.188 C 
ENDROOT
BRANCH   1   2
ATOM      2  O   UNL A   1      35.163  33.066  28.055  1.00  0.00    -0.377 OA
BRANCH   2   3
ATOM      3  C   UNL A   1      34.117  32.126  28.196  1.00  0.00     0.188 C 
BRANCH   3   4
ATOM      4  C   UNL A   1      34.298  30.893  27.296  1.00  0.00     0.188 C 
BRANCH   4   5
ATOM      5  O   UNL A   1      33.305  29.887  27.334  1.00  0.00    -0.376 OA
BRANCH   5   6
ATOM      6  C   UNL A   1      33.553  28.494  27.208  1.00  0.00     0.202 C 
BRANCH   6   7
ATOM      7  C   UNL A   1      32.593  27.393  26.715  1.00  0.00     0.261 C 
BRANCH   7   8
ATOM      8  O   UNL A   1      33.128  26.341  25.927  1.00  0.00    -0.463 OA
BRANCH   8   9
ATOM      9  C   UNL A   1      32.402  26.022  24.831  1.00  0.00     0.311 C 
ATOM     10  O   UNL A   1      31.348  25.408  24.853  1.00  0.00    -0.252 OA
BRANCH   9  11
ATOM     11  C   UNL A   1      33.049  26.660  23.616  1.00  0.00     0.123 C 
ATOM     12  C   UNL A   1      33.670  28.939  22.763  1.00  0.00     0.032 C 
ATOM     13  C   UNL A   1      32.601  28.116  23.491  1.00  0.00     0.098 C 
ATOM     14  N   UNL A   1      31.336  27.985  22.756  1.00  0.00    -0.321 N 
ATOM     15  C   UNL A   1      32.602  26.020  22.317  1.00  0.00     0.039 C 
ATOM     16  C   UNL A   1      31.267  26.699  22.065  1.00  0.00     0.122 C 
BRANCH  14  17
ATOM     17  C   UNL A   1      30.139  28.515  23.229  1.00  0.00     0.320 C 
ATOM     18  O   UNL A   1      29.371  27.868  23.941  1.00  0.00    -0.248 OA
ATOM     19  N   UNL A   1      29.904  29.839  22.924  1.00  0.00    -0.325 N 
ATOM     20  C   UNL A   1      29.233  30.685  23.898  1.00  0.00     0.121 C 
ATOM     21  C   UNL A   1      29.893  30.304  21.547  1.00  0.00     0.121 C 
ATOM     22  C   UNL A   1      27.796  30.976  23.483  1.00  0.00     0.022 C 
ATOM     23  C   UNL A   1      28.469  30.613  21.086  1.00  0.00     0.022 C 
ATOM     24  C   UNL A   1      27.750  31.541  22.063  1.00  0.00     0.004 C 
ENDBRANCH  14  17
ENDBRANCH   9  11
ENDBRANCH   8   9
ENDBRANCH   7   8
ENDBRANCH   6   7
ENDBRANCH   5   6
ENDBRANCH   4   5
ENDBRANCH   3   4
ENDBRANCH   2   3
ENDBRANCH   1   2
BRANCH   1  25
ATOM     25  C   UNL A   1      33.598  34.792  29.161  1.00  0.00     0.188 C 
BRANCH  25  26
ATOM     26  O   UNL A   1      33.293  34.638  30.541  1.00  0.00    -0.376 OA
BRANCH  26  27
ATOM     27  C   UNL A   1      34.349  34.671  31.486  1.00  0.00     0.202 C 
BRANCH  27  28
ATOM     28  C   UNL A   1      34.217  33.744  32.703  1.00  0.00     0.261 C 
BRANCH  28  29
ATOM     29  O   UNL A   1      34.923  32.499  32.618  1.00  0.00    -0.460 OA
BRANCH  29  30
ATOM     30  C   UNL A   1      36.091  32.409  33.285  1.00  0.00     0.338 C 
ATOM     31  O   UNL A   1      36.311  32.750  34.436  1.00  0.00    -0.246 OA
BRANCH  30  32
ATOM     32  C   UNL A   1      37.032  31.638  32.449  1.00  0.00     0.060 A 
ATOM     33  C   UNL A   1      38.008  30.853  33.077  1.00  0.00     0.016 A 
ATOM     34  C   UNL A   1      36.947  31.682  31.055  1.00  0.00     0.016 A 
ATOM     35  C   UNL A   1      38.930  30.141  32.311  1.00  0.00     0.010 A 
ATOM     36  C   UNL A   1      37.886  30.987  30.290  1.00  0.00     0.010 A 
ATOM     37  C   UNL A   1      38.904  30.245  30.915  1.00  0.00    -0.014 A 
BRANCH  37  38
ATOM     38  C   UNL A   1      40.060  29.761  30.123  1.00  0.00     0.031 A 
ATOM     39  C   UNL A   1      41.205  30.708  29.889  1.00  0.00     0.074 A 
ATOM     40  C   UNL A   1      40.109  28.507  29.641  1.00  0.00     0.049 A 
ATOM     41  N   UNL A   1      42.301  30.532  29.196  1.00  0.00    -0.248 NA
ATOM     42  C   UNL A   1      41.099  32.033  30.524  1.00  0.00     0.031 C 
ATOM     43  C   UNL A   1      39.092  27.479  29.844  1.00  0.00     0.029 A 
ATOM     44  N   UNL A   1      41.065  27.891  28.873  1.00  0.00    -0.354 N 
ATOM     45  C   UNL A   1      43.006  31.725  29.303  1.00  0.00     0.074 A 
ATOM     46  C   UNL A   1      42.203  32.626  30.099  1.00  0.00     0.031 C 
ATOM     47  C   UNL A   1      39.475  26.358  29.207  1.00  0.00     0.029 A 
ATOM     48  C   UNL A   1      40.744  26.603  28.522  1.00  0.00     0.049 A 
ATOM     49  H   UNL A   1      41.903  28.331  28.598  1.00  0.00     0.167 HD
ATOM     50  C   UNL A   1      44.217  32.042  28.788  1.00  0.00     0.031 A 
ATOM     51  C   UNL A   1      41.389  25.734  27.721  1.00  0.00     0.031 A 
ATOM     52  C   UNL A   1      45.008  31.154  27.981  1.00  0.00     0.049 A 
ATOM     53  C   UNL A   1      42.691  26.144  27.081  1.00  0.00     0.074 A 
ATOM     54  C   UNL A   1      46.253  31.377  27.419  1.00  0.00     0.029 A 
ATOM     55  N   UNL A   1      44.625  29.875  27.611  1.00  0.00    -0.354 N 
ATOM     56  N   UNL A   1      43.360  27.265  27.207  1.00  0.00    -0.248 NA
ATOM     57  C   UNL A   1      43.329  25.161  26.193  1.00  0.00     0.031 C 
ATOM     58  C   UNL A   1      46.592  30.258  26.653  1.00  0.00     0.029 A 
ATOM     59  C   UNL A   1      45.594  29.308  26.800  1.00  0.00     0.049 A 
ATOM     60  H   UNL A   1      43.788  29.434  27.883  1.00  0.00     0.167 HD
ATOM     61  C   UNL A   1      44.513  27.107  26.444  1.00  0.00     0.074 A 
ATOM     62  C   UNL A   1      44.457  25.779  25.872  1.00  0.00     0.031 C 
ATOM     63  C   UNL A   1      45.527  27.983  26.238  1.00  0.00     0.031 A 
BRANCH  50  64
ATOM     64  C   UNL A   1      44.739  33.428  29.050  1.00  0.00    -0.014 A 
ATOM     65  C   UNL A   1      45.552  33.710  30.159  1.00  0.00     0.009 A 
ATOM     66  C   UNL A   1      44.432  34.465  28.155  1.00  0.00     0.009 A 
ATOM     67  C   UNL A   1      46.016  35.007  30.385  1.00  0.00     0.001 A 
ATOM     68  C   UNL A   1      44.924  35.753  28.364  1.00  0.00     0.001 A 
ATOM     69  C   UNL A   1      45.708  36.027  29.484  1.00  0.00     0.000 A 
ENDBRANCH  50  64
BRANCH  51  70
ATOM     70  C   UNL A   1      40.807  24.390  27.450  1.00  0.00    -0.014 A 
ATOM     71  C   UNL A   1      41.399  23.231  27.975  1.00  0.00     0.009 A 
ATOM     72  C   UNL A   1      39.672  24.259  26.634  1.00  0.00     0.009 A 
ATOM     73  C   UNL A   1      40.887  21.970  27.663  1.00  0.00     0.001 A 
ATOM     74  C   UNL A   1      39.141  22.998  26.350  1.00  0.00     0.001 A 
ATOM     75  C   UNL A   1      39.756  21.855  26.855  1.00  0.00     0.000 A 
ENDBRANCH  51  70
BRANCH  63  76
ATOM     76  C   UNL A   1      46.686  27.518  25.398  1.00  0.00    -0.014 A 
ATOM     77  C   UNL A   1      46.827  27.910  24.058  1.00  0.00     0.009 A 
ATOM     78  C   UNL A   1      47.679  26.710  25.976  1.00  0.00     0.009 A 
ATOM     79  C   UNL A   1      47.919  27.470  23.305  1.00  0.00     0.001 A 
ATOM     80  C   UNL A   1      48.785  26.301  25.231  1.00  0.00     0.001 A 
ATOM     81  C   UNL A   1      48.899  26.672  23.894  1.00  0.00     0.000 A 
ENDBRANCH  63  76
ENDBRANCH  37  38
ENDBRANCH  30  32
ENDBRANCH  29  30
ENDBRANCH  28  29
ENDBRANCH  27  28
ENDBRANCH  26  27
ENDBRANCH  25  26
ENDBRANCH   1  25
TORSDOF 21
ENDMDL
MODEL 2
REMARK VINA RESULT:      -9.4      2.232      7.149
REMARK SMILES C[C@@H]1[C@@H](C(=O)OCCOCCOCCOCCOC(=O)c2ccc(-c3c4nc(c(-c5ccccc5)c5ccc([nH]5)c(-c5ccccc5)c5nc(c(-c6ccccc6)c6ccc3[nH]6)C=C5)C=C4)cc2)CCN1C(=O)N1CCCCC1
REMARK SMILES IDX 13 1 12 2 11 3 10 4 9 5 8 6 7 7 6 8 4 9 5 10 3 11 1 12 2 13
REMARK SMILES IDX 71 14 69 15 70 16 72 17 73 18 74 19 75 20 79 21 76 22 78 23
REMARK SMILES IDX 77 24 14 25 15 26 16 27 17 28 18 29 19 30 20 31 21 32 22 33
REMARK SMILES IDX 68 34 23 35 67 36 24 37 25 38 26 39 61 40 27 41 66 42 60 43
REMARK SMILES IDX 62 44 28 45 65 46 59 47 58 48 29 50 51 51 36 52 50 53 37 54
REMARK SMILES IDX 40 55 49 56 63 57 38 58 39 59 48 61 64 62 41 63 30 64 31 65
REMARK SMILES IDX 35 66 32 67 34 68 33 69 52 70 53 71 57 72 54 73 56 74 55 75
REMARK SMILES IDX 42 76 43 77 47 78 44 79 46 80 45 81
REMARK H PARENT 62 49 40 60
REMARK Flexibility Score: inf
ROOT
ATOM      1  C   UNL A   1      34.183  31.857  28.176  1.00  0.00     0.188 C 
ENDROOT
BRANCH   1   2
ATOM      2  O   UNL A   1      33.990  31.137  26.964  1.00  0.00    -0.377 OA
BRANCH   2   3
ATOM      3  C   UNL A   1      32.824  30.343  26.880  1.00  0.00     0.188 C 
BRANCH   3   4
ATOM      4  C   UNL A   1      32.515  29.884  25.446  1.00  0.00     0.188 C 
BRANCH   4   5
ATOM      5  O   UNL A   1      31.175  29.949  24.998  1.00  0.00    -0.376 OA
BRANCH   5   6
ATOM      6  C   UNL A   1      30.652  29.226  23.893  1.00  0.00     0.202 C 
BRANCH   6   7
ATOM      7  C   UNL A   1      31.412  28.356  22.872  1.00  0.00     0.261 C 
BRANCH   7   8
ATOM      8  O   UNL A   1      31.317  26.945  22.990  1.00  0.00    -0.463 OA
BRANCH   8   9
ATOM      9  C   UNL A   1      32.183  26.385  23.866  1.00  0.00     0.311 C 
ATOM     10  O   UNL A   1      33.323  26.778  24.059  1.00  0.00    -0.252 OA
BRANCH   9  11
ATOM     11  C   UNL A   1      31.461  25.296  24.637  1.00  0.00     0.123 C 
ATOM     12  C   UNL A   1      31.859  23.746  26.572  1.00  0.00     0.032 C 
ATOM     13  C   UNL A   1      32.476  24.381  25.320  1.00  0.00     0.098 C 
ATOM     14  N   UNL A   1      32.793  23.424  24.252  1.00  0.00    -0.321 N 
ATOM     15  C   UNL A   1      30.674  24.369  23.732  1.00  0.00     0.039 C 
ATOM     16  C   UNL A   1      31.747  23.419  23.231  1.00  0.00     0.122 C 
BRANCH  14  17
ATOM     17  C   UNL A   1      34.096  23.185  23.824  1.00  0.00     0.320 C 
ATOM     18  O   UNL A   1      34.478  23.474  22.691  1.00  0.00    -0.248 OA
ATOM     19  N   UNL A   1      34.960  22.684  24.776  1.00  0.00    -0.325 N 
ATOM     20  C   UNL A   1      36.350  23.112  24.769  1.00  0.00     0.121 C 
ATOM     21  C   UNL A   1      34.667  21.450  25.484  1.00  0.00     0.121 C 
ATOM     22  C   UNL A   1      37.266  22.011  24.251  1.00  0.00     0.022 C 
ATOM     23  C   UNL A   1      35.566  20.314  24.999  1.00  0.00     0.022 C 
ATOM     24  C   UNL A   1      37.041  20.713  25.025  1.00  0.00     0.004 C 
ENDBRANCH  14  17
ENDBRANCH   9  11
ENDBRANCH   8   9
ENDBRANCH   7   8
ENDBRANCH   6   7
ENDBRANCH   5   6
ENDBRANCH   4   5
ENDBRANCH   3   4
ENDBRANCH   2   3
ENDBRANCH   1   2
BRANCH   1  25
ATOM     25  C   UNL A   1      33.902  33.379  28.235  1.00  0.00     0.188 C 
BRANCH  25  26
ATOM     26  O   UNL A   1      34.784  34.117  29.070  1.00  0.00    -0.376 OA
BRANCH  26  27
ATOM     27  C   UNL A   1      34.630  34.035  30.477  1.00  0.00     0.202 C 
BRANCH  27  28
ATOM     28  C   UNL A   1      35.743  33.315  31.253  1.00  0.00     0.261 C 
BRANCH  28  29
ATOM     29  O   UNL A   1      36.394  32.243  30.557  1.00  0.00    -0.460 OA
BRANCH  29  30
ATOM     30  C   UNL A   1      36.615  31.107  31.249  1.00  0.00     0.338 C 
ATOM     31  O   UNL A   1      35.900  30.615  32.107  1.00  0.00    -0.246 OA
BRANCH  30  32
ATOM     32  C   UNL A   1      37.788  30.435  30.654  1.00  0.00     0.060 A 
ATOM     33  C   UNL A   1      38.661  29.730  31.493  1.00  0.00     0.016 A 
ATOM     34  C   UNL A   1      38.019  30.494  29.278  1.00  0.00     0.016 A 
ATOM     35  C   UNL A   1      39.794  29.114  30.962  1.00  0.00     0.010 A 
ATOM     36  C   UNL A   1      39.168  29.897  28.751  1.00  0.00     0.010 A 
ATOM     37  C   UNL A   1      40.078  29.238  29.597  1.00  0.00    -0.014 A 
BRANCH  37  38
ATOM     38  C   UNL A   1      41.423  28.871  29.093  1.00  0.00     0.031 A 
ATOM     39  C   UNL A   1      41.642  27.459  28.620  1.00  0.00     0.074 A 
ATOM     40  C   UNL A   1      42.422  29.768  29.030  1.00  0.00     0.049 A 
ATOM     41  N   UNL A   1      42.734  26.890  28.179  1.00  0.00    -0.248 NA
ATOM     42  C   UNL A   1      40.468  26.570  28.649  1.00  0.00     0.031 C 
ATOM     43  C   UNL A   1      42.323  31.177  29.404  1.00  0.00     0.029 A 
ATOM     44  N   UNL A   1      43.725  29.615  28.627  1.00  0.00    -0.354 N 
ATOM     45  C   UNL A   1      42.381  25.577  27.890  1.00  0.00     0.074 A 
ATOM     46  C   UNL A   1      40.986  25.425  28.235  1.00  0.00     0.031 C 
ATOM     47  C   UNL A   1      43.521  31.760  29.221  1.00  0.00     0.029 A 
ATOM     48  C   UNL A   1      44.477  30.757  28.753  1.00  0.00     0.049 A 
ATOM     49  H   UNL A   1      44.086  28.767  28.280  1.00  0.00     0.167 HD
ATOM     50  C   UNL A   1      43.149  24.587  27.380  1.00  0.00     0.031 A 
ATOM     51  C   UNL A   1      45.791  30.960  28.537  1.00  0.00     0.031 A 
ATOM     52  C   UNL A   1      44.542  24.732  27.055  1.00  0.00     0.049 A 
ATOM     53  C   UNL A   1      46.648  29.815  28.059  1.00  0.00     0.074 A 
ATOM     54  C   UNL A   1      45.406  23.790  26.524  1.00  0.00     0.029 A 
ATOM     55  N   UNL A   1      45.277  25.891  27.241  1.00  0.00    -0.354 N 
ATOM     56  N   UNL A   1      46.300  28.584  27.767  1.00  0.00    -0.248 NA
ATOM     57  C   UNL A   1      48.080  30.093  27.873  1.00  0.00     0.031 C 
ATOM     58  C   UNL A   1      46.680  24.360  26.452  1.00  0.00     0.029 A 
ATOM     59  C   UNL A   1      46.594  25.680  26.866  1.00  0.00     0.049 A 
ATOM     60  H   UNL A   1      44.918  26.739  27.588  1.00  0.00     0.167 HD
ATOM     61  C   UNL A   1      47.461  27.954  27.331  1.00  0.00     0.074 A 
ATOM     62  C   UNL A   1      48.518  28.942  27.383  1.00  0.00     0.031 C 
ATOM     63  C   UNL A   1      47.636  26.673  26.921  1.00  0.00     0.031 A 
BRANCH  50  64
ATOM     64  C   UNL A   1      42.503  23.242  27.183  1.00  0.00    -0.014 A 
ATOM     65  C   UNL A   1      42.468  22.287  28.210  1.00  0.00     0.009 A 
ATOM     66  C   UNL A   1      41.898  22.939  25.954  1.00  0.00     0.009 A 
ATOM     67  C   UNL A   1      41.871  21.042  27.999  1.00  0.00     0.001 A 
ATOM     68  C   UNL A   1      41.272  21.707  25.756  1.00  0.00     0.001 A 
ATOM     69  C   UNL A   1      41.268  20.756  26.774  1.00  0.00     0.000 A 
ENDBRANCH  50  64
BRANCH  51  70
ATOM     70  C   UNL A   1      46.396  32.295  28.796  1.00  0.00    -0.014 A 
ATOM     71  C   UNL A   1      46.792  32.667  30.090  1.00  0.00     0.009 A 
ATOM     72  C   UNL A   1      46.550  33.219  27.750  1.00  0.00     0.009 A 
ATOM     73  C   UNL A   1      47.298  33.945  30.336  1.00  0.00     0.001 A 
ATOM     74  C   UNL A   1      47.087  34.486  27.993  1.00  0.00     0.001 A 
ATOM     75  C   UNL A   1      47.450  34.852  29.288  1.00  0.00     0.000 A 
ENDBRANCH  51  70
BRANCH  63  76
ATOM     76  C   UNL A   1      49.009  26.276  26.449  1.00  0.00    -0.014 A 
ATOM     77  C   UNL A   1      49.464  26.594  25.161  1.00  0.00     0.009 A 
ATOM     78  C   UNL A   1      49.877  25.612  27.332  1.00  0.00     0.009 A 
ATOM     79  C   UNL A   1      50.748  26.220  24.754  1.00  0.00     0.001 A 
ATOM     80  C   UNL A   1      51.171  25.271  26.933  1.00  0.00     0.001 A 
ATOM     81  C   UNL A   1      51.601  25.566  25.642  1.00  0.00     0.000 A 
ENDBRANCH  63  76
ENDBRANCH  37  38
ENDBRANCH  30  32
ENDBRANCH  29  30
ENDBRANCH  28  29
ENDBRANCH  27  28
ENDBRANCH  26  27
ENDBRANCH  25  26
ENDBRANCH   1  25
TORSDOF 21
ENDMDL
MODEL 3
REMARK VINA RESULT:      -9.4      1.976      3.621
REMARK SMILES C[C@@H]1[C@@H](C(=O)OCCOCCOCCOCCOC(=O)c2ccc(-c3c4nc(c(-c5ccccc5)c5ccc([nH]5)c(-c5ccccc5)c5nc(c(-c6ccccc6)c6ccc3[nH]6)C=C5)C=C4)cc2)CCN1C(=O)N1CCCCC1
REMARK SMILES IDX 13 1 12 2 11 3 10 4 9 5 8 6 7 7 6 8 4 9 5 10 3 11 1 12 2 13
REMARK SMILES IDX 71 14 69 15 70 16 72 17 73 18 74 19 75 20 79 21 76 22 78 23
REMARK SMILES IDX 77 24 14 25 15 26 16 27 17 28 18 29 19 30 20 31 21 32 22 33
REMARK SMILES IDX 68 34 23 35 67 36 24 37 25 38 26 39 61 40 27 41 66 42 60 43
REMARK SMILES IDX 62 44 28 45 65 46 59 47 58 48 29 50 51 51 36 52 50 53 37 54
REMARK SMILES IDX 40 55 49 56 63 57 38 58 39 59 48 61 64 62 41 63 30 64 31 65
REMARK SMILES IDX 35 66 32 67 34 68 33 69 52 70 53 71 57 72 54 73 56 74 55 75
REMARK SMILES IDX 42 76 43 77 47 78 44 79 46 80 45 81
REMARK H PARENT 62 49 40 60
REMARK Flexibility Score: inf
ROOT
ATOM      1  C   UNL A   1      33.388  35.156  28.830  1.00  0.00     0.188 C 
ENDROOT
BRANCH   1   2
ATOM      2  O   UNL A   1      32.506  34.300  28.112  1.00  0.00    -0.377 OA
BRANCH   2   3
ATOM      3  C   UNL A   1      32.991  33.008  27.807  1.00  0.00     0.188 C 
BRANCH   3   4
ATOM      4  C   UNL A   1      31.929  32.111  27.150  1.00  0.00     0.188 C 
BRANCH   4   5
ATOM      5  O   UNL A   1      32.363  30.948  26.474  1.00  0.00    -0.376 OA
BRANCH   5   6
ATOM      6  C   UNL A   1      31.793  29.656  26.632  1.00  0.00     0.202 C 
BRANCH   6   7
ATOM      7  C   UNL A   1      32.255  28.514  27.561  1.00  0.00     0.261 C 
BRANCH   7   8
ATOM      8  O   UNL A   1      32.682  27.299  26.968  1.00  0.00    -0.463 OA
BRANCH   8   9
ATOM      9  C   UNL A   1      31.760  26.688  26.189  1.00  0.00     0.311 C 
ATOM     10  O   UNL A   1      30.682  26.274  26.587  1.00  0.00    -0.252 OA
BRANCH   9  11
ATOM     11  C   UNL A   1      32.235  26.726  24.748  1.00  0.00     0.123 C 
ATOM     12  C   UNL A   1      31.629  25.753  22.514  1.00  0.00     0.032 C 
ATOM     13  C   UNL A   1      31.774  25.468  24.013  1.00  0.00     0.098 C 
ATOM     14  N   UNL A   1      32.839  24.512  24.346  1.00  0.00    -0.321 N 
ATOM     15  C   UNL A   1      33.746  26.692  24.635  1.00  0.00     0.039 C 
ATOM     16  C   UNL A   1      34.047  25.210  24.782  1.00  0.00     0.122 C 
BRANCH  14  17
ATOM     17  C   UNL A   1      32.578  23.276  24.928  1.00  0.00     0.320 C 
ATOM     18  O   UNL A   1      31.875  23.157  25.932  1.00  0.00    -0.248 OA
ATOM     19  N   UNL A   1      33.082  22.177  24.263  1.00  0.00    -0.325 N 
ATOM     20  C   UNL A   1      32.310  20.945  24.239  1.00  0.00     0.121 C 
ATOM     21  C   UNL A   1      34.501  22.058  23.975  1.00  0.00     0.121 C 
ATOM     22  C   UNL A   1      32.918  19.893  25.157  1.00  0.00     0.022 C 
ATOM     23  C   UNL A   1      35.155  21.009  24.872  1.00  0.00     0.022 C 
ATOM     24  C   UNL A   1      34.397  19.683  24.833  1.00  0.00     0.004 C 
ENDBRANCH  14  17
ENDBRANCH   9  11
ENDBRANCH   8   9
ENDBRANCH   7   8
ENDBRANCH   6   7
ENDBRANCH   5   6
ENDBRANCH   4   5
ENDBRANCH   3   4
ENDBRANCH   2   3
ENDBRANCH   1   2
BRANCH   1  25
ATOM     25  C   UNL A   1      32.901  35.891  30.103  1.00  0.00     0.188 C 
BRANCH  25  26
ATOM     26  O   UNL A   1      33.121  35.188  31.318  1.00  0.00    -0.376 OA
BRANCH  26  27
ATOM     27  C   UNL A   1      34.252  34.340  31.427  1.00  0.00     0.202 C 
BRANCH  27  28
ATOM     28  C   UNL A   1      34.150  33.177  32.425  1.00  0.00     0.261 C 
BRANCH  28  29
ATOM     29  O   UNL A   1      35.194  32.197  32.348  1.00  0.00    -0.460 OA
BRANCH  29  30
ATOM     30  C   UNL A   1      36.237  32.343  33.190  1.00  0.00     0.338 C 
ATOM     31  O   UNL A   1      36.190  32.541  34.393  1.00  0.00    -0.246 OA
BRANCH  30  32
ATOM     32  C   UNL A   1      37.470  32.024  32.443  1.00  0.00     0.060 A 
ATOM     33  C   UNL A   1      37.510  32.276  31.065  1.00  0.00     0.016 A 
ATOM     34  C   UNL A   1      38.581  31.489  33.099  1.00  0.00     0.016 A 
ATOM     35  C   UNL A   1      38.649  31.953  30.330  1.00  0.00     0.010 A 
ATOM     36  C   UNL A   1      39.713  31.143  32.356  1.00  0.00     0.010 A 
ATOM     37  C   UNL A   1      39.737  31.339  30.964  1.00  0.00    -0.014 A 
BRANCH  37  38
ATOM     38  C   UNL A   1      40.800  30.708  30.147  1.00  0.00     0.031 A 
ATOM     39  C   UNL A   1      42.053  31.500  29.880  1.00  0.00     0.074 A 
ATOM     40  C   UNL A   1      40.676  29.458  29.671  1.00  0.00     0.049 A 
ATOM     41  N   UNL A   1      43.099  31.182  29.162  1.00  0.00    -0.248 NA
ATOM     42  C   UNL A   1      42.134  32.828  30.511  1.00  0.00     0.031 C 
ATOM     43  C   UNL A   1      39.541  28.569  29.904  1.00  0.00     0.029 A 
ATOM     44  N   UNL A   1      41.526  28.722  28.883  1.00  0.00    -0.354 N 
ATOM     45  C   UNL A   1      43.955  32.275  29.246  1.00  0.00     0.074 A 
ATOM     46  C   UNL A   1      43.294  33.274  30.055  1.00  0.00     0.031 C 
ATOM     47  C   UNL A   1      39.760  27.407  29.264  1.00  0.00     0.029 A 
ATOM     48  C   UNL A   1      41.033  27.486  28.547  1.00  0.00     0.049 A 
ATOM     49  H   UNL A   1      42.406  29.050  28.586  1.00  0.00     0.167 HD
ATOM     50  C   UNL A   1      45.183  32.432  28.700  1.00  0.00     0.031 A 
ATOM     51  C   UNL A   1      41.541  26.538  27.736  1.00  0.00     0.031 A 
ATOM     52  C   UNL A   1      45.833  31.448  27.878  1.00  0.00     0.049 A 
ATOM     53  C   UNL A   1      42.869  26.776  27.061  1.00  0.00     0.074 A 
ATOM     54  C   UNL A   1      47.082  31.508  27.286  1.00  0.00     0.029 A 
ATOM     55  N   UNL A   1      45.280  30.228  27.525  1.00  0.00    -0.354 N 
ATOM     56  N   UNL A   1      43.680  27.801  27.166  1.00  0.00    -0.248 NA
ATOM     57  C   UNL A   1      43.353  25.717  26.164  1.00  0.00     0.031 C 
ATOM     58  C   UNL A   1      47.255  30.353  26.518  1.00  0.00     0.029 A 
ATOM     59  C   UNL A   1      46.148  29.539  26.694  1.00  0.00     0.049 A 
ATOM     60  H   UNL A   1      44.400  29.899  27.819  1.00  0.00     0.167 HD
ATOM     61  C   UNL A   1      44.783  27.495  26.376  1.00  0.00     0.074 A 
ATOM     62  C   UNL A   1      44.543  26.184  25.813  1.00  0.00     0.031 C 
ATOM     63  C   UNL A   1      45.897  28.233  26.141  1.00  0.00     0.031 A 
BRANCH  50  64
ATOM     64  C   UNL A   1      45.886  33.740  28.942  1.00  0.00    -0.014 A 
ATOM     65  C   UNL A   1      45.738  34.826  28.065  1.00  0.00     0.009 A 
ATOM     66  C   UNL A   1      46.689  33.894  30.082  1.00  0.00     0.009 A 
ATOM     67  C   UNL A   1      46.409  36.027  28.308  1.00  0.00     0.001 A 
ATOM     68  C   UNL A   1      47.332  35.105  30.340  1.00  0.00     0.001 A 
ATOM     69  C   UNL A   1      47.200  36.168  29.448  1.00  0.00     0.000 A 
ENDBRANCH  50  64
BRANCH  51  70
ATOM     70  C   UNL A   1      40.784  25.280  27.485  1.00  0.00    -0.014 A 
ATOM     71  C   UNL A   1      41.206  24.065  28.046  1.00  0.00     0.009 A 
ATOM     72  C   UNL A   1      39.653  25.285  26.654  1.00  0.00     0.009 A 
ATOM     73  C   UNL A   1      40.530  22.878  27.755  1.00  0.00     0.001 A 
ATOM     74  C   UNL A   1      38.959  24.102  26.391  1.00  0.00     0.001 A 
ATOM     75  C   UNL A   1      39.404  22.898  26.932  1.00  0.00     0.000 A 
ENDBRANCH  51  70
BRANCH  63  76
ATOM     76  C   UNL A   1      46.965  27.620  25.275  1.00  0.00    -0.014 A 
ATOM     77  C   UNL A   1      47.076  27.933  23.912  1.00  0.00     0.009 A 
ATOM     78  C   UNL A   1      47.906  26.750  25.851  1.00  0.00     0.009 A 
ATOM     79  C   UNL A   1      48.084  27.356  23.135  1.00  0.00     0.001 A 
ATOM     80  C   UNL A   1      48.932  26.203  25.080  1.00  0.00     0.001 A 
ATOM     81  C   UNL A   1      49.014  26.497  23.721  1.00  0.00     0.000 A 
ENDBRANCH  63  76
ENDBRANCH  37  38
ENDBRANCH  30  32
ENDBRANCH  29  30
ENDBRANCH  28  29
ENDBRANCH  27  28
ENDBRANCH  26  27
ENDBRANCH  25  26
ENDBRANCH   1  25
TORSDOF 21
ENDMDL
