MODEL 1
REMARK VINA RESULT:     -10.6      0.000      0.000
REMARK SMILES O=C(OCCOCCOCCOCCOC(=O)[C@H]1CC2=c3ccccc3=N[C@H]2[C@@H](c2ccccc2)[NH2+]1)c1ccc(-c2c3nc(c(-c4ccccc4)c4ccc([nH]4)c(-c4ccccc4)c4nc(c(-c5ccccc5)c5ccc2[nH]5)C=C4)C=C3)cc1
REMARK SMILES IDX 8 1 7 2 6 3 5 4 4 5 3 6 2 7 1 8 37 9 38 10 84 11 39 12 83 13
REMARK SMILES IDX 40 14 41 15 42 16 77 17 43 18 82 19 76 20 78 21 44 22 81 23
REMARK SMILES IDX 75 24 74 25 45 27 67 28 52 29 66 30 53 31 56 32 65 33 79 34
REMARK SMILES IDX 54 35 55 36 64 38 80 39 57 40 46 41 47 42 51 43 48 44 50 45
REMARK SMILES IDX 49 46 68 47 69 48 73 49 70 50 72 51 71 52 58 53 59 54 63 55
REMARK SMILES IDX 60 56 62 57 61 58 9 59 10 60 11 61 12 62 13 63 14 64 15 65
REMARK SMILES IDX 16 66 17 67 18 68 19 69 36 70 20 71 29 72 21 75 28 76 22 77
REMARK SMILES IDX 26 78 27 79 23 80 25 81 24 82 30 83 31 84 35 85 32 86 34 87
REMARK SMILES IDX 33 88
REMARK H PARENT 78 26 56 37 36 73 36 74
REMARK Flexibility Score: inf
ROOT
ATOM      1  C   UNL A   1      44.086  20.924  25.725  1.00  0.00     0.188 C 
ENDROOT
BRANCH   1   2
ATOM      2  C   UNL A   1      45.356  20.462  25.011  1.00  0.00     0.188 C 
BRANCH   2   3
ATOM      3  O   UNL A   1      46.414  21.406  25.171  1.00  0.00    -0.376 OA
BRANCH   3   4
ATOM      4  C   UNL A   1      46.419  22.512  24.279  1.00  0.00     0.202 C 
BRANCH   4   5
ATOM      5  C   UNL A   1      46.346  23.889  24.920  1.00  0.00     0.261 C 
BRANCH   5   6
ATOM      6  O   UNL A   1      45.141  24.637  24.706  1.00  0.00    -0.460 OA
BRANCH   6   7
ATOM      7  C   UNL A   1      43.886  24.549  25.188  1.00  0.00     0.338 C 
ATOM      8  O   UNL A   1      43.095  23.857  24.543  1.00  0.00    -0.246 OA
BRANCH   7   9
ATOM      9  C   UNL A   1      43.345  25.230  26.408  1.00  0.00     0.060 A 
ATOM     10  C   UNL A   1      43.769  26.561  26.610  1.00  0.00     0.016 A 
ATOM     11  C   UNL A   1      42.525  24.664  27.382  1.00  0.00     0.016 A 
ATOM     12  C   UNL A   1      43.400  27.287  27.744  1.00  0.00     0.010 A 
ATOM     13  C   UNL A   1      42.203  25.352  28.550  1.00  0.00     0.010 A 
ATOM     14  C   UNL A   1      42.609  26.676  28.720  1.00  0.00    -0.014 A 
BRANCH  14  15
ATOM     15  C   UNL A   1      41.941  27.450  29.778  1.00  0.00     0.031 A 
ATOM     16  C   UNL A   1      40.699  28.232  29.516  1.00  0.00     0.074 A 
ATOM     17  C   UNL A   1      42.638  27.585  30.922  1.00  0.00     0.049 A 
ATOM     18  N   UNL A   1      40.035  28.999  30.339  1.00  0.00    -0.248 NA
ATOM     19  C   UNL A   1      40.143  28.178  28.155  1.00  0.00     0.031 C 
ATOM     20  C   UNL A   1      43.932  26.941  31.182  1.00  0.00     0.029 A 
ATOM     21  N   UNL A   1      42.407  28.333  32.041  1.00  0.00    -0.354 N 
ATOM     22  C   UNL A   1      38.976  29.514  29.603  1.00  0.00     0.074 A 
ATOM     23  C   UNL A   1      39.110  29.008  28.254  1.00  0.00     0.031 C 
ATOM     24  C   UNL A   1      44.387  27.337  32.376  1.00  0.00     0.029 A 
ATOM     25  C   UNL A   1      43.423  28.260  32.961  1.00  0.00     0.049 A 
ATOM     26  H   UNL A   1      41.593  28.871  32.175  1.00  0.00     0.167 HD
ATOM     27  C   UNL A   1      37.989  30.329  30.042  1.00  0.00     0.031 A 
ATOM     28  C   UNL A   1      43.565  28.864  34.153  1.00  0.00     0.031 A 
ATOM     29  C   UNL A   1      37.931  30.832  31.392  1.00  0.00     0.049 A 
ATOM     30  C   UNL A   1      42.443  29.730  34.634  1.00  0.00     0.074 A 
ATOM     31  C   UNL A   1      36.919  31.554  31.997  1.00  0.00     0.029 A 
ATOM     32  N   UNL A   1      38.943  30.687  32.334  1.00  0.00    -0.354 N 
ATOM     33  N   UNL A   1      41.343  30.061  33.999  1.00  0.00    -0.248 NA
ATOM     34  C   UNL A   1      42.552  30.279  35.988  1.00  0.00     0.031 C 
ATOM     35  C   UNL A   1      37.358  31.924  33.270  1.00  0.00     0.029 A 
ATOM     36  C   UNL A   1      38.604  31.357  33.497  1.00  0.00     0.049 A 
ATOM     37  H   UNL A   1      39.777  30.184  32.195  1.00  0.00     0.167 HD
ATOM     38  C   UNL A   1      40.616  30.845  34.879  1.00  0.00     0.074 A 
ATOM     39  C   UNL A   1      41.396  30.926  36.100  1.00  0.00     0.031 C 
ATOM     40  C   UNL A   1      39.413  31.440  34.690  1.00  0.00     0.031 A 
BRANCH  27  41
ATOM     41  C   UNL A   1      36.888  30.724  29.090  1.00  0.00    -0.014 A 
ATOM     42  C   UNL A   1      36.769  32.060  28.669  1.00  0.00     0.009 A 
ATOM     43  C   UNL A   1      35.889  29.812  28.717  1.00  0.00     0.009 A 
ATOM     44  C   UNL A   1      35.666  32.476  27.918  1.00  0.00     0.001 A 
ATOM     45  C   UNL A   1      34.803  30.223  27.938  1.00  0.00     0.001 A 
ATOM     46  C   UNL A   1      34.686  31.557  27.550  1.00  0.00     0.000 A 
ENDBRANCH  27  41
BRANCH  28  47
ATOM     47  C   UNL A   1      44.767  28.543  34.963  1.00  0.00    -0.014 A 
ATOM     48  C   UNL A   1      44.829  27.359  35.719  1.00  0.00     0.009 A 
ATOM     49  C   UNL A   1      45.762  29.515  35.144  1.00  0.00     0.009 A 
ATOM     50  C   UNL A   1      45.833  27.179  36.674  1.00  0.00     0.001 A 
ATOM     51  C   UNL A   1      46.780  29.319  36.080  1.00  0.00     0.001 A 
ATOM     52  C   UNL A   1      46.804  28.161  36.857  1.00  0.00     0.000 A 
ENDBRANCH  28  47
BRANCH  40  53
ATOM     53  C   UNL A   1      38.862  32.265  35.818  1.00  0.00    -0.014 A 
ATOM     54  C   UNL A   1      39.261  33.603  35.962  1.00  0.00     0.009 A 
ATOM     55  C   UNL A   1      38.078  31.672  36.818  1.00  0.00     0.009 A 
ATOM     56  C   UNL A   1      38.919  34.321  37.108  1.00  0.00     0.001 A 
ATOM     57  C   UNL A   1      37.708  32.404  37.946  1.00  0.00     0.001 A 
ATOM     58  C   UNL A   1      38.142  33.721  38.098  1.00  0.00     0.000 A 
ENDBRANCH  40  53
ENDBRANCH  14  15
ENDBRANCH   7   9
ENDBRANCH   6   7
ENDBRANCH   5   6
ENDBRANCH   4   5
ENDBRANCH   3   4
ENDBRANCH   2   3
ENDBRANCH   1   2
BRANCH   1  59
ATOM     59  O   UNL A   1      42.879  20.312  25.289  1.00  0.00    -0.377 OA
BRANCH  59  60
ATOM     60  C   UNL A   1      42.032  19.748  26.279  1.00  0.00     0.188 C 
BRANCH  60  61
ATOM     61  C   UNL A   1      40.533  20.116  26.322  1.00  0.00     0.188 C 
BRANCH  61  62
ATOM     62  O   UNL A   1      39.689  19.220  25.638  1.00  0.00    -0.376 OA
BRANCH  62  63
ATOM     63  C   UNL A   1      38.566  19.723  24.938  1.00  0.00     0.202 C 
BRANCH  63  64
ATOM     64  C   UNL A   1      37.573  20.759  25.496  1.00  0.00     0.261 C 
BRANCH  64  65
ATOM     65  O   UNL A   1      37.724  22.136  25.154  1.00  0.00    -0.459 OA
BRANCH  65  66
ATOM     66  C   UNL A   1      36.852  23.062  25.646  1.00  0.00     0.365 C 
ATOM     67  O   UNL A   1      37.165  24.208  25.977  1.00  0.00    -0.245 OA
BRANCH  66  68
ATOM     68  C   UNL A   1      35.433  22.471  25.797  1.00  0.00     0.298 C 
ATOM     69  C   UNL A   1      34.324  23.242  26.626  1.00  0.00     0.111 C 
ATOM     70  N   UNL A   1      34.989  22.048  24.452  1.00  0.00    -0.326 N 
ATOM     71  C   UNL A   1      32.803  23.148  26.168  1.00  0.00    -0.024 C 
ATOM     72  C   UNL A   1      33.683  21.439  24.644  1.00  0.00     0.243 C 
ATOM     73  H   UNL A   1      35.643  21.371  24.058  1.00  0.00     0.347 HD
ATOM     74  H   UNL A   1      34.946  22.834  23.804  1.00  0.00     0.347 HD
ATOM     75  C   UNL A   1      32.066  24.268  26.178  1.00  0.00     0.002 A 
ATOM     76  C   UNL A   1      32.630  22.552  24.766  1.00  0.00     0.196 C 
ATOM     77  C   UNL A   1      30.654  24.436  26.483  1.00  0.00     0.010 A 
ATOM     78  C   UNL A   1      32.328  24.696  24.762  1.00  0.00     0.066 A 
ATOM     79  N   UNL A   1      32.779  23.798  23.925  1.00  0.00    -0.270 NA
ATOM     80  C   UNL A   1      30.062  25.554  26.022  1.00  0.00     0.001 A 
ATOM     81  C   UNL A   1      31.942  26.118  24.556  1.00  0.00     0.028 A 
ATOM     82  C   UNL A   1      30.842  26.510  25.233  1.00  0.00     0.002 A 
BRANCH  72  83
ATOM     83  C   UNL A   1      33.588  20.063  24.033  1.00  0.00     0.012 A 
ATOM     84  C   UNL A   1      34.500  19.106  24.555  1.00  0.00     0.010 A 
ATOM     85  C   UNL A   1      32.498  19.612  23.297  1.00  0.00     0.010 A 
ATOM     86  C   UNL A   1      34.269  17.743  24.448  1.00  0.00     0.001 A 
ATOM     87  C   UNL A   1      32.281  18.233  23.170  1.00  0.00     0.001 A 
ATOM     88  C   UNL A   1      33.143  17.306  23.770  1.00  0.00     0.000 A 
ENDBRANCH  72  83
ENDBRANCH  66  68
ENDBRANCH  65  66
ENDBRANCH  64  65
ENDBRANCH  63  64
ENDBRANCH  62  63
ENDBRANCH  61  62
ENDBRANCH  60  61
ENDBRANCH  59  60
ENDBRANCH   1  59
TORSDOF 21
ENDMDL
MODEL 2
REMARK VINA RESULT:     -10.5      4.392     10.534
REMARK SMILES O=C(OCCOCCOCCOCCOC(=O)[C@H]1CC2=c3ccccc3=N[C@H]2[C@@H](c2ccccc2)[NH2+]1)c1ccc(-c2c3nc(c(-c4ccccc4)c4ccc([nH]4)c(-c4ccccc4)c4nc(c(-c5ccccc5)c5ccc2[nH]5)C=C4)C=C3)cc1
REMARK SMILES IDX 8 1 7 2 6 3 5 4 4 5 3 6 2 7 1 8 37 9 38 10 84 11 39 12 83 13
REMARK SMILES IDX 40 14 41 15 42 16 77 17 43 18 82 19 76 20 78 21 44 22 81 23
REMARK SMILES IDX 75 24 74 25 45 27 67 28 52 29 66 30 53 31 56 32 65 33 79 34
REMARK SMILES IDX 54 35 55 36 64 38 80 39 57 40 46 41 47 42 51 43 48 44 50 45
REMARK SMILES IDX 49 46 68 47 69 48 73 49 70 50 72 51 71 52 58 53 59 54 63 55
REMARK SMILES IDX 60 56 62 57 61 58 9 59 10 60 11 61 12 62 13 63 14 64 15 65
REMARK SMILES IDX 16 66 17 67 18 68 19 69 36 70 20 71 29 72 21 75 28 76 22 77
REMARK SMILES IDX 26 78 27 79 23 80 25 81 24 82 30 83 31 84 35 85 32 86 34 87
REMARK SMILES IDX 33 88
REMARK H PARENT 78 26 56 37 36 73 36 74
REMARK Flexibility Score: inf
ROOT
ATOM      1  C   UNL A   1      43.646  19.878  25.464  1.00  0.00     0.188 C 
ENDROOT
BRANCH   1   2
ATOM      2  C   UNL A   1      42.582  18.859  25.867  1.00  0.00     0.188 C 
BRANCH   2   3
ATOM      3  O   UNL A   1      41.286  19.453  25.913  1.00  0.00    -0.376 OA
BRANCH   3   4
ATOM      4  C   UNL A   1      41.239  20.862  26.091  1.00  0.00     0.202 C 
BRANCH   4   5
ATOM      5  C   UNL A   1      40.027  21.402  26.833  1.00  0.00     0.261 C 
BRANCH   5   6
ATOM      6  O   UNL A   1      39.065  22.129  26.055  1.00  0.00    -0.460 OA
BRANCH   6   7
ATOM      7  C   UNL A   1      38.595  23.390  26.087  1.00  0.00     0.338 C 
ATOM      8  O   UNL A   1      37.584  23.619  25.419  1.00  0.00    -0.246 OA
BRANCH   7   9
ATOM      9  C   UNL A   1      39.190  24.550  26.826  1.00  0.00     0.060 A 
ATOM     10  C   UNL A   1      40.090  25.352  26.092  1.00  0.00     0.016 A 
ATOM     11  C   UNL A   1      38.993  24.871  28.167  1.00  0.00     0.016 A 
ATOM     12  C   UNL A   1      40.771  26.420  26.680  1.00  0.00     0.010 A 
ATOM     13  C   UNL A   1      39.716  25.891  28.784  1.00  0.00     0.010 A 
ATOM     14  C   UNL A   1      40.580  26.690  28.036  1.00  0.00    -0.014 A 
BRANCH  14  15
ATOM     15  C   UNL A   1      41.020  27.954  28.649  1.00  0.00     0.031 A 
ATOM     16  C   UNL A   1      42.362  28.095  29.284  1.00  0.00     0.074 A 
ATOM     17  C   UNL A   1      40.062  28.888  28.797  1.00  0.00     0.049 A 
ATOM     18  N   UNL A   1      42.860  29.130  29.905  1.00  0.00    -0.248 NA
ATOM     19  C   UNL A   1      43.251  26.924  29.248  1.00  0.00     0.031 C 
ATOM     20  C   UNL A   1      38.685  28.744  28.305  1.00  0.00     0.029 A 
ATOM     21  N   UNL A   1      40.064  30.096  29.436  1.00  0.00    -0.354 N 
ATOM     22  C   UNL A   1      44.124  28.743  30.330  1.00  0.00     0.074 A 
ATOM     23  C   UNL A   1      44.301  27.363  29.933  1.00  0.00     0.031 C 
ATOM     24  C   UNL A   1      37.974  29.814  28.678  1.00  0.00     0.029 A 
ATOM     25  C   UNL A   1      38.838  30.712  29.431  1.00  0.00     0.049 A 
ATOM     26  H   UNL A   1      40.865  30.484  29.856  1.00  0.00     0.167 HD
ATOM     27  C   UNL A   1      45.039  29.496  30.984  1.00  0.00     0.031 A 
ATOM     28  C   UNL A   1      38.449  31.881  29.971  1.00  0.00     0.031 A 
ATOM     29  C   UNL A   1      44.788  30.858  31.386  1.00  0.00     0.049 A 
ATOM     30  C   UNL A   1      39.487  32.713  30.655  1.00  0.00     0.074 A 
ATOM     31  C   UNL A   1      45.672  31.769  31.934  1.00  0.00     0.029 A 
ATOM     32  N   UNL A   1      43.553  31.491  31.310  1.00  0.00    -0.354 N 
ATOM     33  N   UNL A   1      40.744  32.416  30.885  1.00  0.00    -0.248 NA
ATOM     34  C   UNL A   1      39.080  34.041  31.124  1.00  0.00     0.031 C 
ATOM     35  C   UNL A   1      44.952  32.916  32.273  1.00  0.00     0.029 A 
ATOM     36  C   UNL A   1      43.638  32.760  31.855  1.00  0.00     0.049 A 
ATOM     37  H   UNL A   1      42.737  31.094  30.926  1.00  0.00     0.167 HD
ATOM     38  C   UNL A   1      41.289  33.524  31.512  1.00  0.00     0.074 A 
ATOM     39  C   UNL A   1      40.225  34.507  31.612  1.00  0.00     0.031 C 
ATOM     40  C   UNL A   1      42.554  33.708  31.962  1.00  0.00     0.031 A 
BRANCH  27  41
ATOM     41  C   UNL A   1      46.388  28.901  31.297  1.00  0.00    -0.014 A 
ATOM     42  C   UNL A   1      47.447  29.040  30.383  1.00  0.00     0.009 A 
ATOM     43  C   UNL A   1      46.579  28.089  32.426  1.00  0.00     0.009 A 
ATOM     44  C   UNL A   1      48.654  28.363  30.581  1.00  0.00     0.001 A 
ATOM     45  C   UNL A   1      47.798  27.438  32.638  1.00  0.00     0.001 A 
ATOM     46  C   UNL A   1      48.830  27.565  31.709  1.00  0.00     0.000 A 
ENDBRANCH  27  41
BRANCH  28  47
ATOM     47  C   UNL A   1      37.048  32.320  29.752  1.00  0.00    -0.014 A 
ATOM     48  C   UNL A   1      36.717  33.153  28.669  1.00  0.00     0.009 A 
ATOM     49  C   UNL A   1      36.082  32.078  30.740  1.00  0.00     0.009 A 
ATOM     50  C   UNL A   1      35.466  33.774  28.607  1.00  0.00     0.001 A 
ATOM     51  C   UNL A   1      34.823  32.679  30.661  1.00  0.00     0.001 A 
ATOM     52  C   UNL A   1      34.523  33.540  29.606  1.00  0.00     0.000 A 
ENDBRANCH  28  47
BRANCH  40  53
ATOM     53  C   UNL A   1      42.868  35.013  32.636  1.00  0.00    -0.014 A 
ATOM     54  C   UNL A   1      42.368  35.272  33.922  1.00  0.00     0.009 A 
ATOM     55  C   UNL A   1      43.523  36.037  31.936  1.00  0.00     0.009 A 
ATOM     56  C   UNL A   1      42.481  36.546  34.479  1.00  0.00     0.001 A 
ATOM     57  C   UNL A   1      43.665  37.300  32.511  1.00  0.00     0.001 A 
ATOM     58  C   UNL A   1      43.129  37.558  33.773  1.00  0.00     0.000 A 
ENDBRANCH  40  53
ENDBRANCH  14  15
ENDBRANCH   7   9
ENDBRANCH   6   7
ENDBRANCH   5   6
ENDBRANCH   4   5
ENDBRANCH   3   4
ENDBRANCH   2   3
ENDBRANCH   1   2
BRANCH   1  59
ATOM     59  O   UNL A   1      44.774  19.351  24.776  1.00  0.00    -0.377 OA
BRANCH  59  60
ATOM     60  C   UNL A   1      46.006  20.044  24.905  1.00  0.00     0.188 C 
BRANCH  60  61
ATOM     61  C   UNL A   1      46.063  21.574  24.706  1.00  0.00     0.188 C 
BRANCH  61  62
ATOM     62  O   UNL A   1      46.114  22.320  25.899  1.00  0.00    -0.376 OA
BRANCH  62  63
ATOM     63  C   UNL A   1      44.944  22.967  26.363  1.00  0.00     0.202 C 
BRANCH  63  64
ATOM     64  C   UNL A   1      44.120  23.982  25.550  1.00  0.00     0.261 C 
BRANCH  64  65
ATOM     65  O   UNL A   1      44.763  25.127  24.993  1.00  0.00    -0.459 OA
BRANCH  65  66
ATOM     66  C   UNL A   1      44.313  26.379  25.296  1.00  0.00     0.365 C 
ATOM     67  O   UNL A   1      43.314  26.901  24.796  1.00  0.00    -0.245 OA
BRANCH  66  68
ATOM     68  C   UNL A   1      45.252  27.084  26.299  1.00  0.00     0.298 C 
ATOM     69  C   UNL A   1      46.458  26.299  26.963  1.00  0.00     0.111 C 
ATOM     70  N   UNL A   1      45.638  28.380  25.701  1.00  0.00    -0.326 N 
ATOM     71  C   UNL A   1      47.807  27.076  27.292  1.00  0.00    -0.024 C 
ATOM     72  C   UNL A   1      46.464  29.041  26.698  1.00  0.00     0.243 C 
ATOM     73  H   UNL A   1      44.810  28.940  25.497  1.00  0.00     0.347 HD
ATOM     74  H   UNL A   1      46.139  28.255  24.821  1.00  0.00     0.347 HD
ATOM     75  C   UNL A   1      48.971  26.476  27.010  1.00  0.00     0.002 A 
ATOM     76  C   UNL A   1      47.885  28.458  26.633  1.00  0.00     0.196 C 
ATOM     77  C   UNL A   1      50.236  26.540  27.725  1.00  0.00     0.010 A 
ATOM     78  C   UNL A   1      49.151  27.021  25.623  1.00  0.00     0.066 A 
ATOM     79  N   UNL A   1      48.460  28.081  25.288  1.00  0.00    -0.270 NA
ATOM     80  C   UNL A   1      51.343  26.208  27.033  1.00  0.00     0.001 A 
ATOM     81  C   UNL A   1      50.182  26.252  24.876  1.00  0.00     0.028 A 
ATOM     82  C   UNL A   1      51.226  25.831  25.624  1.00  0.00     0.002 A 
BRANCH  72  83
ATOM     83  C   UNL A   1      45.993  30.441  27.007  1.00  0.00     0.012 A 
ATOM     84  C   UNL A   1      44.583  30.617  27.010  1.00  0.00     0.010 A 
ATOM     85  C   UNL A   1      46.787  31.416  27.601  1.00  0.00     0.010 A 
ATOM     86  C   UNL A   1      43.979  31.667  27.684  1.00  0.00     0.001 A 
ATOM     87  C   UNL A   1      46.174  32.489  28.261  1.00  0.00     0.001 A 
ATOM     88  C   UNL A   1      44.779  32.596  28.329  1.00  0.00     0.000 A 
ENDBRANCH  72  83
ENDBRANCH  66  68
ENDBRANCH  65  66
ENDBRANCH  64  65
ENDBRANCH  63  64
ENDBRANCH  62  63
ENDBRANCH  61  62
ENDBRANCH  60  61
ENDBRANCH  59  60
ENDBRANCH   1  59
TORSDOF 21
ENDMDL
MODEL 3
REMARK VINA RESULT:     -10.5      2.565      5.059
REMARK SMILES O=C(OCCOCCOCCOCCOC(=O)[C@H]1CC2=c3ccccc3=N[C@H]2[C@@H](c2ccccc2)[NH2+]1)c1ccc(-c2c3nc(c(-c4ccccc4)c4ccc([nH]4)c(-c4ccccc4)c4nc(c(-c5ccccc5)c5ccc2[nH]5)C=C4)C=C3)cc1
REMARK SMILES IDX 8 1 7 2 6 3 5 4 4 5 3 6 2 7 1 8 37 9 38 10 84 11 39 12 83 13
REMARK SMILES IDX 40 14 41 15 42 16 77 17 43 18 82 19 76 20 78 21 44 22 81 23
REMARK SMILES IDX 75 24 74 25 45 27 67 28 52 29 66 30 53 31 56 32 65 33 79 34
REMARK SMILES IDX 54 35 55 36 64 38 80 39 57 40 46 41 47 42 51 43 48 44 50 45
REMARK SMILES IDX 49 46 68 47 69 48 73 49 70 50 72 51 71 52 58 53 59 54 63 55
REMARK SMILES IDX 60 56 62 57 61 58 9 59 10 60 11 61 12 62 13 63 14 64 15 65
REMARK SMILES IDX 16 66 17 67 18 68 19 69 36 70 20 71 29 72 21 75 28 76 22 77
REMARK SMILES IDX 26 78 27 79 23 80 25 81 24 82 30 83 31 84 35 85 32 86 34 87
REMARK SMILES IDX 33 88
REMARK H PARENT 78 26 56 37 36 73 36 74
REMARK Flexibility Score: inf
ROOT
ATOM      1  C   UNL A   1      37.216  21.338  24.882  1.00  0.00     0.188 C 
ENDROOT
BRANCH   1   2
ATOM      2  C   UNL A   1      38.134  22.113  25.826  1.00  0.00     0.188 C 
BRANCH   2   3
ATOM      3  O   UNL A   1      39.502  21.766  25.621  1.00  0.00    -0.376 OA
BRANCH   3   4
ATOM      4  C   UNL A   1      40.309  21.651  26.785  1.00  0.00     0.202 C 
BRANCH   4   5
ATOM      5  C   UNL A   1      40.794  22.957  27.394  1.00  0.00     0.261 C 
BRANCH   5   6
ATOM      6  O   UNL A   1      41.073  24.030  26.483  1.00  0.00    -0.460 OA
BRANCH   6   7
ATOM      7  C   UNL A   1      40.863  25.360  26.510  1.00  0.00     0.338 C 
ATOM      8  O   UNL A   1      40.887  25.944  25.425  1.00  0.00    -0.246 OA
BRANCH   7   9
ATOM      9  C   UNL A   1      40.634  26.207  27.725  1.00  0.00     0.060 A 
ATOM     10  C   UNL A   1      41.659  27.125  28.038  1.00  0.00     0.016 A 
ATOM     11  C   UNL A   1      39.552  26.132  28.599  1.00  0.00     0.016 A 
ATOM     12  C   UNL A   1      41.608  27.923  29.183  1.00  0.00     0.010 A 
ATOM     13  C   UNL A   1      39.518  26.873  29.779  1.00  0.00     0.010 A 
ATOM     14  C   UNL A   1      40.528  27.795  30.058  1.00  0.00    -0.014 A 
BRANCH  14  15
ATOM     15  C   UNL A   1      40.253  28.789  31.108  1.00  0.00     0.031 A 
ATOM     16  C   UNL A   1      39.286  29.906  30.901  1.00  0.00     0.074 A 
ATOM     17  C   UNL A   1      41.085  28.756  32.166  1.00  0.00     0.049 A 
ATOM     18  N   UNL A   1      38.986  30.880  31.718  1.00  0.00    -0.248 NA
ATOM     19  C   UNL A   1      38.588  29.961  29.608  1.00  0.00     0.031 C 
ATOM     20  C   UNL A   1      42.143  27.754  32.354  1.00  0.00     0.029 A 
ATOM     21  N   UNL A   1      41.223  29.593  33.237  1.00  0.00    -0.354 N 
ATOM     22  C   UNL A   1      38.058  31.663  31.045  1.00  0.00     0.074 A 
ATOM     23  C   UNL A   1      37.875  31.075  29.736  1.00  0.00     0.031 C 
ATOM     24  C   UNL A   1      42.831  28.047  33.463  1.00  0.00     0.029 A 
ATOM     25  C   UNL A   1      42.268  29.251  34.059  1.00  0.00     0.049 A 
ATOM     26  H   UNL A   1      40.633  30.362  33.402  1.00  0.00     0.167 HD
ATOM     27  C   UNL A   1      37.423  32.765  31.507  1.00  0.00     0.031 A 
ATOM     28  C   UNL A   1      42.723  29.839  35.179  1.00  0.00     0.031 A 
ATOM     29  C   UNL A   1      37.676  33.326  32.812  1.00  0.00     0.049 A 
ATOM     30  C   UNL A   1      41.981  31.033  35.691  1.00  0.00     0.074 A 
ATOM     31  C   UNL A   1      37.009  34.355  33.449  1.00  0.00     0.029 A 
ATOM     32  N   UNL A   1      38.698  32.919  33.662  1.00  0.00    -0.354 N 
ATOM     33  N   UNL A   1      40.969  31.659  35.138  1.00  0.00    -0.248 NA
ATOM     34  C   UNL A   1      42.407  31.586  36.980  1.00  0.00     0.031 C 
ATOM     35  C   UNL A   1      37.683  34.632  34.640  1.00  0.00     0.029 A 
ATOM     36  C   UNL A   1      38.715  33.717  34.793  1.00  0.00     0.049 A 
ATOM     37  H   UNL A   1      39.318  32.175  33.486  1.00  0.00     0.167 HD
ATOM     38  C   UNL A   1      40.621  32.672  36.016  1.00  0.00     0.074 A 
ATOM     39  C   UNL A   1      41.525  32.565  37.147  1.00  0.00     0.031 C 
ATOM     40  C   UNL A   1      39.643  33.602  35.893  1.00  0.00     0.031 A 
BRANCH  27  41
ATOM     41  C   UNL A   1      36.393  33.436  30.635  1.00  0.00    -0.014 A 
ATOM     42  C   UNL A   1      35.030  33.356  30.968  1.00  0.00     0.009 A 
ATOM     43  C   UNL A   1      36.750  34.030  29.414  1.00  0.00     0.009 A 
ATOM     44  C   UNL A   1      34.050  33.833  30.092  1.00  0.00     0.001 A 
ATOM     45  C   UNL A   1      35.771  34.534  28.553  1.00  0.00     0.001 A 
ATOM     46  C   UNL A   1      34.422  34.424  28.887  1.00  0.00     0.000 A 
ENDBRANCH  27  41
BRANCH  28  47
ATOM     47  C   UNL A   1      43.855  29.199  35.895  1.00  0.00    -0.014 A 
ATOM     48  C   UNL A   1      43.638  28.108  36.756  1.00  0.00     0.009 A 
ATOM     49  C   UNL A   1      45.119  29.808  35.880  1.00  0.00     0.009 A 
ATOM     50  C   UNL A   1      44.646  27.674  37.621  1.00  0.00     0.001 A 
ATOM     51  C   UNL A   1      46.133  29.354  36.728  1.00  0.00     0.001 A 
ATOM     52  C   UNL A   1      45.890  28.301  37.609  1.00  0.00     0.000 A 
ENDBRANCH  28  47
BRANCH  40  53
ATOM     53  C   UNL A   1      39.504  34.612  36.997  1.00  0.00    -0.014 A 
ATOM     54  C   UNL A   1      40.185  35.836  36.912  1.00  0.00     0.009 A 
ATOM     55  C   UNL A   1      38.828  34.284  38.181  1.00  0.00     0.009 A 
ATOM     56  C   UNL A   1      40.227  36.696  38.009  1.00  0.00     0.001 A 
ATOM     57  C   UNL A   1      38.843  35.163  39.264  1.00  0.00     0.001 A 
ATOM     58  C   UNL A   1      39.556  36.359  39.184  1.00  0.00     0.000 A 
ENDBRANCH  40  53
ENDBRANCH  14  15
ENDBRANCH   7   9
ENDBRANCH   6   7
ENDBRANCH   5   6
ENDBRANCH   4   5
ENDBRANCH   3   4
ENDBRANCH   2   3
ENDBRANCH   1   2
BRANCH   1  59
ATOM     59  O   UNL A   1      36.877  22.002  23.671  1.00  0.00    -0.377 OA
BRANCH  59  60
ATOM     60  C   UNL A   1      36.595  23.392  23.740  1.00  0.00     0.188 C 
BRANCH  60  61
ATOM     61  C   UNL A   1      35.406  23.903  24.583  1.00  0.00     0.188 C 
BRANCH  61  62
ATOM     62  O   UNL A   1      34.564  24.814  23.919  1.00  0.00    -0.376 OA
BRANCH  62  63
ATOM     63  C   UNL A   1      33.771  24.363  22.837  1.00  0.00     0.202 C 
BRANCH  63  64
ATOM     64  C   UNL A   1      33.371  25.221  21.623  1.00  0.00     0.261 C 
BRANCH  64  65
ATOM     65  O   UNL A   1      32.486  26.327  21.801  1.00  0.00    -0.459 OA
BRANCH  65  66
ATOM     66  C   UNL A   1      32.914  27.446  22.454  1.00  0.00     0.365 C 
ATOM     67  O   UNL A   1      33.790  28.207  22.034  1.00  0.00    -0.245 OA
BRANCH  66  68
ATOM     68  C   UNL A   1      32.207  27.605  23.817  1.00  0.00     0.298 C 
ATOM     69  C   UNL A   1      30.908  26.761  24.154  1.00  0.00     0.111 C 
ATOM     70  N   UNL A   1      33.251  27.541  24.863  1.00  0.00    -0.326 N 
ATOM     71  C   UNL A   1      30.655  26.284  25.651  1.00  0.00    -0.024 C 
ATOM     72  C   UNL A   1      32.558  27.759  26.122  1.00  0.00     0.243 C 
ATOM     73  H   UNL A   1      33.951  28.266  24.711  1.00  0.00     0.347 HD
ATOM     74  H   UNL A   1      33.739  26.646  24.853  1.00  0.00     0.347 HD
ATOM     75  C   UNL A   1      30.221  25.033  25.855  1.00  0.00     0.002 A 
ATOM     76  C   UNL A   1      31.884  26.447  26.553  1.00  0.00     0.196 C 
ATOM     77  C   UNL A   1      29.310  24.530  26.871  1.00  0.00     0.010 A 
ATOM     78  C   UNL A   1      31.562  24.376  26.013  1.00  0.00     0.066 A 
ATOM     79  N   UNL A   1      32.589  25.139  26.283  1.00  0.00    -0.270 NA
ATOM     80  C   UNL A   1      29.361  23.210  27.132  1.00  0.00     0.001 A 
ATOM     81  C   UNL A   1      31.449  22.898  25.889  1.00  0.00     0.028 A 
ATOM     82  C   UNL A   1      30.323  22.370  26.416  1.00  0.00     0.002 A 
BRANCH  72  83
ATOM     83  C   UNL A   1      33.185  28.856  26.947  1.00  0.00     0.012 A 
ATOM     84  C   UNL A   1      34.582  28.721  27.170  1.00  0.00     0.010 A 
ATOM     85  C   UNL A   1      32.590  30.091  27.182  1.00  0.00     0.010 A 
ATOM     86  C   UNL A   1      35.378  29.807  27.501  1.00  0.00     0.001 A 
ATOM     87  C   UNL A   1      33.394  31.181  27.540  1.00  0.00     0.001 A 
ATOM     88  C   UNL A   1      34.782  31.047  27.666  1.00  0.00     0.000 A 
ENDBRANCH  72  83
ENDBRANCH  66  68
ENDBRANCH  65  66
ENDBRANCH  64  65
ENDBRANCH  63  64
ENDBRANCH  62  63
ENDBRANCH  61  62
ENDBRANCH  60  61
ENDBRANCH  59  60
ENDBRANCH   1  59
TORSDOF 21
ENDMDL
