MODEL 1
REMARK VINA RESULT:      -7.1      0.000      0.000
REMARK SMILES C[C@@H](Cc1cccs1)[NH2+][C@H](C)[C@@H](C)C(=O)OCCOCCOCCOCCOC(=O)c1ccc(-c2c3nc(c(-c4ccccc4)c4ccc([nH]4)c(-c4ccccc4)c4nc(c(-c5ccccc5)c5ccc2[nH]5)C=C4)C=C3)cc1
REMARK SMILES IDX 20 1 19 2 18 3 17 4 16 5 14 6 15 7 12 8 13 9 10 10 11 11
REMARK SMILES IDX 9 12 2 15 1 16 3 17 4 18 5 19 8 20 6 21 7 22 21 23 22 24
REMARK SMILES IDX 23 25 24 26 25 27 26 28 27 29 28 30 29 31 30 32 31 33 32 34
REMARK SMILES IDX 78 35 33 36 77 37 34 38 35 39 36 40 71 41 37 42 76 43 70 44
REMARK SMILES IDX 72 45 38 46 75 47 69 48 68 49 39 51 61 52 46 53 60 54 47 55
REMARK SMILES IDX 50 56 59 57 73 58 48 59 49 60 58 62 74 63 51 64 40 65 41 66
REMARK SMILES IDX 45 67 42 68 44 69 43 70 62 71 63 72 67 73 64 74 66 75 65 76
REMARK SMILES IDX 52 77 53 78 57 79 54 80 56 81 55 82
REMARK H PARENT 9 13 9 14 72 50 50 61
REMARK Flexibility Score: inf
ROOT
ATOM      1  C   UNL A   1      40.273  21.740  26.300  1.00  0.00     0.188 C 
ENDROOT
BRANCH   1   2
ATOM      2  O   UNL A   1      38.941  22.205  26.298  1.00  0.00    -0.376 OA
BRANCH   2   3
ATOM      3  C   UNL A   1      38.648  23.585  26.309  1.00  0.00     0.202 C 
BRANCH   3   4
ATOM      4  C   UNL A   1      39.251  24.609  27.291  1.00  0.00     0.261 C 
BRANCH   4   5
ATOM      5  O   UNL A   1      40.523  25.222  27.022  1.00  0.00    -0.463 OA
BRANCH   5   6
ATOM      6  C   UNL A   1      40.854  26.338  27.715  1.00  0.00     0.314 C 
ATOM      7  O   UNL A   1      41.221  26.326  28.885  1.00  0.00    -0.252 OA
BRANCH   6   8
ATOM      8  C   UNL A   1      40.577  27.632  26.945  1.00  0.00     0.154 C 
ATOM      9  C   UNL A   1      41.739  27.740  25.946  1.00  0.00     0.026 C 
BRANCH   8  10
ATOM     10  C   UNL A   1      40.371  28.957  27.746  1.00  0.00     0.193 C 
ATOM     11  C   UNL A   1      38.897  29.407  27.784  1.00  0.00     0.076 C 
BRANCH  10  12
ATOM     12  N   UNL A   1      40.891  29.086  29.118  1.00  0.00    -0.341 N 
ATOM     13  H   UNL A   1      41.249  28.166  29.371  1.00  0.00     0.346 HD
ATOM     14  H   UNL A   1      41.533  29.873  29.019  1.00  0.00     0.346 HD
BRANCH  12  15
ATOM     15  C   UNL A   1      40.067  29.523  30.246  1.00  0.00     0.184 C 
ATOM     16  C   UNL A   1      40.248  28.527  31.421  1.00  0.00     0.075 C 
BRANCH  15  17
ATOM     17  C   UNL A   1      40.261  30.983  30.699  1.00  0.00     0.111 C 
BRANCH  17  18
ATOM     18  C   UNL A   1      39.023  31.808  30.960  1.00  0.00     0.010 A 
ATOM     19  C   UNL A   1      38.350  31.903  32.164  1.00  0.00     0.015 A 
ATOM     20  S   UNL A   1      38.249  32.745  29.751  1.00  0.00    -0.149 S 
ATOM     21  C   UNL A   1      37.244  32.797  32.107  1.00  0.00     0.012 A 
ATOM     22  C   UNL A   1      37.096  33.349  30.857  1.00  0.00     0.065 A 
ENDBRANCH  17  18
ENDBRANCH  15  17
ENDBRANCH  12  15
ENDBRANCH  10  12
ENDBRANCH   8  10
ENDBRANCH   6   8
ENDBRANCH   5   6
ENDBRANCH   4   5
ENDBRANCH   3   4
ENDBRANCH   2   3
ENDBRANCH   1   2
BRANCH   1  23
ATOM     23  C   UNL A   1      40.399  20.206  26.422  1.00  0.00     0.188 C 
BRANCH  23  24
ATOM     24  O   UNL A   1      41.299  19.425  25.653  1.00  0.00    -0.377 OA
BRANCH  24  25
ATOM     25  C   UNL A   1      42.668  19.563  25.940  1.00  0.00     0.188 C 
BRANCH  25  26
ATOM     26  C   UNL A   1      43.438  18.261  25.686  1.00  0.00     0.188 C 
BRANCH  26  27
ATOM     27  O   UNL A   1      44.689  18.458  25.053  1.00  0.00    -0.376 OA
BRANCH  27  28
ATOM     28  C   UNL A   1      45.049  19.712  24.493  1.00  0.00     0.202 C 
BRANCH  28  29
ATOM     29  C   UNL A   1      46.305  20.533  24.857  1.00  0.00     0.261 C 
BRANCH  29  30
ATOM     30  O   UNL A   1      46.155  21.714  25.640  1.00  0.00    -0.460 OA
BRANCH  30  31
ATOM     31  C   UNL A   1      46.114  22.900  25.015  1.00  0.00     0.338 C 
ATOM     32  O   UNL A   1      46.152  23.117  23.815  1.00  0.00    -0.246 OA
BRANCH  31  33
ATOM     33  C   UNL A   1      45.788  23.892  26.057  1.00  0.00     0.060 A 
ATOM     34  C   UNL A   1      44.454  24.290  26.208  1.00  0.00     0.016 A 
ATOM     35  C   UNL A   1      46.778  24.366  26.925  1.00  0.00     0.016 A 
ATOM     36  C   UNL A   1      44.101  25.161  27.231  1.00  0.00     0.010 A 
ATOM     37  C   UNL A   1      46.435  25.286  27.914  1.00  0.00     0.010 A 
ATOM     38  C   UNL A   1      45.101  25.706  28.045  1.00  0.00    -0.014 A 
BRANCH  38  39
ATOM     39  C   UNL A   1      44.788  26.933  28.801  1.00  0.00     0.031 A 
ATOM     40  C   UNL A   1      44.404  26.758  30.244  1.00  0.00     0.074 A 
ATOM     41  C   UNL A   1      44.896  28.151  28.248  1.00  0.00     0.049 A 
ATOM     42  N   UNL A   1      44.053  27.655  31.125  1.00  0.00    -0.248 NA
ATOM     43  C   UNL A   1      44.427  25.377  30.763  1.00  0.00     0.031 C 
ATOM     44  C   UNL A   1      45.337  28.431  26.883  1.00  0.00     0.029 A 
ATOM     45  N   UNL A   1      44.641  29.387  28.782  1.00  0.00    -0.354 N 
ATOM     46  C   UNL A   1      43.813  26.946  32.296  1.00  0.00     0.074 A 
ATOM     47  C   UNL A   1      44.028  25.548  32.011  1.00  0.00     0.031 C 
ATOM     48  C   UNL A   1      45.311  29.762  26.683  1.00  0.00     0.029 A 
ATOM     49  C   UNL A   1      44.816  30.417  27.892  1.00  0.00     0.049 A 
ATOM     50  H   UNL A   1      44.358  29.524  29.715  1.00  0.00     0.167 HD
ATOM     51  C   UNL A   1      43.449  27.425  33.507  1.00  0.00     0.031 A 
ATOM     52  C   UNL A   1      44.574  31.733  28.042  1.00  0.00     0.031 A 
ATOM     53  C   UNL A   1      43.207  28.815  33.768  1.00  0.00     0.049 A 
ATOM     54  C   UNL A   1      44.053  32.226  29.369  1.00  0.00     0.074 A 
ATOM     55  C   UNL A   1      42.807  29.413  34.947  1.00  0.00     0.029 A 
ATOM     56  N   UNL A   1      43.338  29.822  32.824  1.00  0.00    -0.354 N 
ATOM     57  N   UNL A   1      43.825  31.554  30.473  1.00  0.00    -0.248 NA
ATOM     58  C   UNL A   1      43.759  33.663  29.472  1.00  0.00     0.031 C 
ATOM     59  C   UNL A   1      42.638  30.779  34.701  1.00  0.00     0.029 A 
ATOM     60  C   UNL A   1      43.006  31.038  33.389  1.00  0.00     0.049 A 
ATOM     61  H   UNL A   1      43.624  29.689  31.891  1.00  0.00     0.167 HD
ATOM     62  C   UNL A   1      43.406  32.489  31.411  1.00  0.00     0.074 A 
ATOM     63  C   UNL A   1      43.419  33.778  30.748  1.00  0.00     0.031 C 
ATOM     64  C   UNL A   1      43.046  32.306  32.706  1.00  0.00     0.031 A 
BRANCH  51  65
ATOM     65  C   UNL A   1      43.249  26.428  34.611  1.00  0.00    -0.014 A 
ATOM     66  C   UNL A   1      41.989  25.860  34.864  1.00  0.00     0.009 A 
ATOM     67  C   UNL A   1      44.339  26.040  35.404  1.00  0.00     0.009 A 
ATOM     68  C   UNL A   1      41.821  24.946  35.906  1.00  0.00     0.001 A 
ATOM     69  C   UNL A   1      44.175  25.103  36.425  1.00  0.00     0.001 A 
ATOM     70  C   UNL A   1      42.917  24.562  36.680  1.00  0.00     0.000 A 
ENDBRANCH  51  65
BRANCH  52  71
ATOM     71  C   UNL A   1      44.783  32.678  26.912  1.00  0.00    -0.014 A 
ATOM     72  C   UNL A   1      43.824  32.808  25.895  1.00  0.00     0.009 A 
ATOM     73  C   UNL A   1      45.969  33.424  26.818  1.00  0.00     0.009 A 
ATOM     74  C   UNL A   1      44.065  33.632  24.792  1.00  0.00     0.001 A 
ATOM     75  C   UNL A   1      46.193  34.272  25.732  1.00  0.00     0.001 A 
ATOM     76  C   UNL A   1      45.248  34.365  24.713  1.00  0.00     0.000 A 
ENDBRANCH  52  71
BRANCH  64  77
ATOM     77  C   UNL A   1      42.705  33.530  33.509  1.00  0.00    -0.014 A 
ATOM     78  C   UNL A   1      43.696  34.301  34.133  1.00  0.00     0.009 A 
ATOM     79  C   UNL A   1      41.366  33.948  33.585  1.00  0.00     0.009 A 
ATOM     80  C   UNL A   1      43.348  35.448  34.848  1.00  0.00     0.001 A 
ATOM     81  C   UNL A   1      41.025  35.114  34.269  1.00  0.00     0.001 A 
ATOM     82  C   UNL A   1      42.015  35.857  34.909  1.00  0.00     0.000 A 
ENDBRANCH  64  77
ENDBRANCH  38  39
ENDBRANCH  31  33
ENDBRANCH  30  31
ENDBRANCH  29  30
ENDBRANCH  28  29
ENDBRANCH  27  28
ENDBRANCH  26  27
ENDBRANCH  25  26
ENDBRANCH  24  25
ENDBRANCH  23  24
ENDBRANCH   1  23
TORSDOF 25
ENDMDL
MODEL 2
REMARK VINA RESULT:      -6.8      4.045      6.226
REMARK SMILES C[C@@H](Cc1cccs1)[NH2+][C@H](C)[C@@H](C)C(=O)OCCOCCOCCOCCOC(=O)c1ccc(-c2c3nc(c(-c4ccccc4)c4ccc([nH]4)c(-c4ccccc4)c4nc(c(-c5ccccc5)c5ccc2[nH]5)C=C4)C=C3)cc1
REMARK SMILES IDX 20 1 19 2 18 3 17 4 16 5 14 6 15 7 12 8 13 9 10 10 11 11
REMARK SMILES IDX 9 12 2 15 1 16 3 17 4 18 5 19 8 20 6 21 7 22 21 23 22 24
REMARK SMILES IDX 23 25 24 26 25 27 26 28 27 29 28 30 29 31 30 32 31 33 32 34
REMARK SMILES IDX 78 35 33 36 77 37 34 38 35 39 36 40 71 41 37 42 76 43 70 44
REMARK SMILES IDX 72 45 38 46 75 47 69 48 68 49 39 51 61 52 46 53 60 54 47 55
REMARK SMILES IDX 50 56 59 57 73 58 48 59 49 60 58 62 74 63 51 64 40 65 41 66
REMARK SMILES IDX 45 67 42 68 44 69 43 70 62 71 63 72 67 73 64 74 66 75 65 76
REMARK SMILES IDX 52 77 53 78 57 79 54 80 56 81 55 82
REMARK H PARENT 9 13 9 14 72 50 50 61
REMARK Flexibility Score: inf
ROOT
ATOM      1  C   UNL A   1      40.270  21.462  26.533  1.00  0.00     0.188 C 
ENDROOT
BRANCH   1   2
ATOM      2  O   UNL A   1      39.212  22.280  26.081  1.00  0.00    -0.376 OA
BRANCH   2   3
ATOM      3  C   UNL A   1      38.057  21.722  25.494  1.00  0.00     0.202 C 
BRANCH   3   4
ATOM      4  C   UNL A   1      36.661  22.376  25.493  1.00  0.00     0.261 C 
BRANCH   4   5
ATOM      5  O   UNL A   1      35.474  21.571  25.405  1.00  0.00    -0.463 OA
BRANCH   5   6
ATOM      6  C   UNL A   1      34.445  22.029  24.652  1.00  0.00     0.314 C 
ATOM      7  O   UNL A   1      34.595  22.709  23.643  1.00  0.00    -0.252 OA
BRANCH   6   8
ATOM      8  C   UNL A   1      33.072  21.747  25.267  1.00  0.00     0.154 C 
ATOM      9  C   UNL A   1      32.147  21.532  24.060  1.00  0.00     0.026 C 
BRANCH   8  10
ATOM     10  C   UNL A   1      32.476  22.773  26.283  1.00  0.00     0.193 C 
ATOM     11  C   UNL A   1      32.875  22.468  27.741  1.00  0.00     0.076 C 
BRANCH  10  12
ATOM     12  N   UNL A   1      32.672  24.219  26.083  1.00  0.00    -0.341 N 
ATOM     13  H   UNL A   1      32.762  24.623  27.014  1.00  0.00     0.346 HD
ATOM     14  H   UNL A   1      33.466  24.230  25.443  1.00  0.00     0.346 HD
BRANCH  12  15
ATOM     15  C   UNL A   1      31.713  25.063  25.369  1.00  0.00     0.184 C 
ATOM     16  C   UNL A   1      30.294  24.817  25.946  1.00  0.00     0.075 C 
BRANCH  15  17
ATOM     17  C   UNL A   1      32.051  26.565  25.304  1.00  0.00     0.111 C 
BRANCH  17  18
ATOM     18  C   UNL A   1      31.363  27.395  24.246  1.00  0.00     0.010 A 
ATOM     19  C   UNL A   1      30.022  27.335  23.912  1.00  0.00     0.015 A 
ATOM     20  S   UNL A   1      32.186  28.539  23.271  1.00  0.00    -0.149 S 
ATOM     21  C   UNL A   1      29.664  28.275  22.906  1.00  0.00     0.012 A 
ATOM     22  C   UNL A   1      30.744  29.019  22.491  1.00  0.00     0.065 A 
ENDBRANCH  17  18
ENDBRANCH  15  17
ENDBRANCH  12  15
ENDBRANCH  10  12
ENDBRANCH   8  10
ENDBRANCH   6   8
ENDBRANCH   5   6
ENDBRANCH   4   5
ENDBRANCH   3   4
ENDBRANCH   2   3
ENDBRANCH   1   2
BRANCH   1  23
ATOM     23  C   UNL A   1      40.202  20.010  26.012  1.00  0.00     0.188 C 
BRANCH  23  24
ATOM     24  O   UNL A   1      41.346  19.217  25.735  1.00  0.00    -0.377 OA
BRANCH  24  25
ATOM     25  C   UNL A   1      42.549  19.596  26.356  1.00  0.00     0.188 C 
BRANCH  25  26
ATOM     26  C   UNL A   1      43.670  18.584  26.090  1.00  0.00     0.188 C 
BRANCH  26  27
ATOM     27  O   UNL A   1      44.628  19.036  25.150  1.00  0.00    -0.376 OA
BRANCH  27  28
ATOM     28  C   UNL A   1      44.619  20.369  24.661  1.00  0.00     0.202 C 
BRANCH  28  29
ATOM     29  C   UNL A   1      45.341  21.570  25.309  1.00  0.00     0.261 C 
BRANCH  29  30
ATOM     30  O   UNL A   1      44.604  22.442  26.162  1.00  0.00    -0.460 OA
BRANCH  30  31
ATOM     31  C   UNL A   1      43.949  23.477  25.614  1.00  0.00     0.338 C 
ATOM     32  O   UNL A   1      43.514  23.571  24.478  1.00  0.00    -0.246 OA
BRANCH  31  33
ATOM     33  C   UNL A   1      43.659  24.402  26.724  1.00  0.00     0.060 A 
ATOM     34  C   UNL A   1      42.959  23.914  27.835  1.00  0.00     0.016 A 
ATOM     35  C   UNL A   1      44.140  25.716  26.702  1.00  0.00     0.016 A 
ATOM     36  C   UNL A   1      42.740  24.737  28.933  1.00  0.00     0.010 A 
ATOM     37  C   UNL A   1      43.868  26.560  27.777  1.00  0.00     0.010 A 
ATOM     38  C   UNL A   1      43.141  26.077  28.879  1.00  0.00    -0.014 A 
BRANCH  38  39
ATOM     39  C   UNL A   1      42.521  27.026  29.822  1.00  0.00     0.031 A 
ATOM     40  C   UNL A   1      43.215  27.216  31.142  1.00  0.00     0.074 A 
ATOM     41  C   UNL A   1      41.425  27.731  29.500  1.00  0.00     0.049 A 
ATOM     42  N   UNL A   1      42.875  27.959  32.160  1.00  0.00    -0.248 NA
ATOM     43  C   UNL A   1      44.471  26.466  31.334  1.00  0.00     0.031 C 
ATOM     44  C   UNL A   1      40.726  27.679  28.217  1.00  0.00     0.029 A 
ATOM     45  N   UNL A   1      40.711  28.637  30.238  1.00  0.00    -0.354 N 
ATOM     46  C   UNL A   1      43.872  27.763  33.109  1.00  0.00     0.074 A 
ATOM     47  C   UNL A   1      44.811  26.813  32.563  1.00  0.00     0.031 C 
ATOM     48  C   UNL A   1      39.671  28.513  28.265  1.00  0.00     0.029 A 
ATOM     49  C   UNL A   1      39.604  29.124  29.590  1.00  0.00     0.049 A 
ATOM     50  H   UNL A   1      40.967  28.912  31.149  1.00  0.00     0.167 HD
ATOM     51  C   UNL A   1      43.993  28.332  34.329  1.00  0.00     0.031 A 
ATOM     52  C   UNL A   1      38.639  29.949  30.039  1.00  0.00     0.031 A 
ATOM     53  C   UNL A   1      43.033  29.250  34.873  1.00  0.00     0.049 A 
ATOM     54  C   UNL A   1      38.735  30.476  31.449  1.00  0.00     0.074 A 
ATOM     55  C   UNL A   1      43.036  29.868  36.108  1.00  0.00     0.029 A 
ATOM     56  N   UNL A   1      41.893  29.673  34.208  1.00  0.00    -0.354 N 
ATOM     57  N   UNL A   1      39.677  30.287  32.343  1.00  0.00    -0.248 NA
ATOM     58  C   UNL A   1      37.636  31.335  31.911  1.00  0.00     0.031 C 
ATOM     59  C   UNL A   1      41.864  30.622  36.214  1.00  0.00     0.029 A 
ATOM     60  C   UNL A   1      41.172  30.531  35.016  1.00  0.00     0.049 A 
ATOM     61  H   UNL A   1      41.636  29.403  33.297  1.00  0.00     0.167 HD
ATOM     62  C   UNL A   1      39.307  31.037  33.452  1.00  0.00     0.074 A 
ATOM     63  C   UNL A   1      38.059  31.691  33.115  1.00  0.00     0.031 C 
ATOM     64  C   UNL A   1      39.940  31.179  34.643  1.00  0.00     0.031 A 
BRANCH  51  65
ATOM     65  C   UNL A   1      45.177  27.933  35.162  1.00  0.00    -0.014 A 
ATOM     66  C   UNL A   1      45.209  26.709  35.848  1.00  0.00     0.009 A 
ATOM     67  C   UNL A   1      46.284  28.791  35.252  1.00  0.00     0.009 A 
ATOM     68  C   UNL A   1      46.314  26.364  36.630  1.00  0.00     0.001 A 
ATOM     69  C   UNL A   1      47.400  28.430  36.008  1.00  0.00     0.001 A 
ATOM     70  C   UNL A   1      47.412  27.222  36.702  1.00  0.00     0.000 A 
ENDBRANCH  51  65
BRANCH  52  71
ATOM     71  C   UNL A   1      37.482  30.306  29.174  1.00  0.00    -0.014 A 
ATOM     72  C   UNL A   1      37.285  31.629  28.744  1.00  0.00     0.009 A 
ATOM     73  C   UNL A   1      36.537  29.333  28.810  1.00  0.00     0.009 A 
ATOM     74  C   UNL A   1      36.151  31.974  28.004  1.00  0.00     0.001 A 
ATOM     75  C   UNL A   1      35.422  29.674  28.042  1.00  0.00     0.001 A 
ATOM     76  C   UNL A   1      35.222  30.996  27.652  1.00  0.00     0.000 A 
ENDBRANCH  52  71
BRANCH  64  77
ATOM     77  C   UNL A   1      39.334  32.126  35.641  1.00  0.00    -0.014 A 
ATOM     78  C   UNL A   1      38.408  31.692  36.601  1.00  0.00     0.009 A 
ATOM     79  C   UNL A   1      39.751  33.467  35.654  1.00  0.00     0.009 A 
ATOM     80  C   UNL A   1      37.885  32.591  37.530  1.00  0.00     0.001 A 
ATOM     81  C   UNL A   1      39.255  34.355  36.606  1.00  0.00     0.001 A 
ATOM     82  C   UNL A   1      38.314  33.919  37.537  1.00  0.00     0.000 A 
ENDBRANCH  64  77
ENDBRANCH  38  39
ENDBRANCH  31  33
ENDBRANCH  30  31
ENDBRANCH  29  30
ENDBRANCH  28  29
ENDBRANCH  27  28
ENDBRANCH  26  27
ENDBRANCH  25  26
ENDBRANCH  24  25
ENDBRANCH  23  24
ENDBRANCH   1  23
TORSDOF 25
ENDMDL
MODEL 3
REMARK VINA RESULT:      -6.7      3.947      6.857
REMARK SMILES C[C@@H](Cc1cccs1)[NH2+][C@H](C)[C@@H](C)C(=O)OCCOCCOCCOCCOC(=O)c1ccc(-c2c3nc(c(-c4ccccc4)c4ccc([nH]4)c(-c4ccccc4)c4nc(c(-c5ccccc5)c5ccc2[nH]5)C=C4)C=C3)cc1
REMARK SMILES IDX 20 1 19 2 18 3 17 4 16 5 14 6 15 7 12 8 13 9 10 10 11 11
REMARK SMILES IDX 9 12 2 15 1 16 3 17 4 18 5 19 8 20 6 21 7 22 21 23 22 24
REMARK SMILES IDX 23 25 24 26 25 27 26 28 27 29 28 30 29 31 30 32 31 33 32 34
REMARK SMILES IDX 78 35 33 36 77 37 34 38 35 39 36 40 71 41 37 42 76 43 70 44
REMARK SMILES IDX 72 45 38 46 75 47 69 48 68 49 39 51 61 52 46 53 60 54 47 55
REMARK SMILES IDX 50 56 59 57 73 58 48 59 49 60 58 62 74 63 51 64 40 65 41 66
REMARK SMILES IDX 45 67 42 68 44 69 43 70 62 71 63 72 67 73 64 74 66 75 65 76
REMARK SMILES IDX 52 77 53 78 57 79 54 80 56 81 55 82
REMARK H PARENT 9 13 9 14 72 50 50 61
REMARK Flexibility Score: inf
ROOT
ATOM      1  C   UNL A   1      39.987  21.495  26.198  1.00  0.00     0.188 C 
ENDROOT
BRANCH   1   2
ATOM      2  O   UNL A   1      38.854  22.098  25.611  1.00  0.00    -0.376 OA
BRANCH   2   3
ATOM      3  C   UNL A   1      37.801  21.318  25.088  1.00  0.00     0.202 C 
BRANCH   3   4
ATOM      4  C   UNL A   1      36.315  21.730  25.080  1.00  0.00     0.261 C 
BRANCH   4   5
ATOM      5  O   UNL A   1      35.856  22.804  24.242  1.00  0.00    -0.463 OA
BRANCH   5   6
ATOM      6  C   UNL A   1      35.539  23.983  24.830  1.00  0.00     0.314 C 
ATOM      7  O   UNL A   1      36.159  24.456  25.776  1.00  0.00    -0.252 OA
BRANCH   6   8
ATOM      8  C   UNL A   1      34.239  24.592  24.300  1.00  0.00     0.154 C 
ATOM      9  C   UNL A   1      33.761  25.518  25.428  1.00  0.00     0.026 C 
BRANCH   8  10
ATOM     10  C   UNL A   1      33.104  23.636  23.808  1.00  0.00     0.193 C 
ATOM     11  C   UNL A   1      33.541  22.754  22.622  1.00  0.00     0.076 C 
BRANCH  10  12
ATOM     12  N   UNL A   1      32.408  22.755  24.761  1.00  0.00    -0.341 N 
ATOM     13  H   UNL A   1      32.246  23.316  25.597  1.00  0.00     0.346 HD
ATOM     14  H   UNL A   1      31.620  22.432  24.201  1.00  0.00     0.346 HD
BRANCH  12  15
ATOM     15  C   UNL A   1      32.969  21.487  25.231  1.00  0.00     0.184 C 
ATOM     16  C   UNL A   1      33.271  21.598  26.748  1.00  0.00     0.075 C 
BRANCH  15  17
ATOM     17  C   UNL A   1      32.152  20.223  24.901  1.00  0.00     0.111 C 
BRANCH  17  18
ATOM     18  C   UNL A   1      32.880  19.060  24.271  1.00  0.00     0.010 A 
ATOM     19  C   UNL A   1      33.980  18.407  24.800  1.00  0.00     0.015 A 
ATOM     20  S   UNL A   1      32.444  18.390  22.755  1.00  0.00    -0.149 S 
ATOM     21  C   UNL A   1      34.414  17.319  23.994  1.00  0.00     0.012 A 
ATOM     22  C   UNL A   1      33.643  17.179  22.864  1.00  0.00     0.065 A 
ENDBRANCH  17  18
ENDBRANCH  15  17
ENDBRANCH  12  15
ENDBRANCH  10  12
ENDBRANCH   8  10
ENDBRANCH   6   8
ENDBRANCH   5   6
ENDBRANCH   4   5
ENDBRANCH   3   4
ENDBRANCH   2   3
ENDBRANCH   1   2
BRANCH   1  23
ATOM     23  C   UNL A   1      39.988  19.953  26.115  1.00  0.00     0.188 C 
BRANCH  23  24
ATOM     24  O   UNL A   1      41.118  19.184  25.735  1.00  0.00    -0.377 OA
BRANCH  24  25
ATOM     25  C   UNL A   1      42.361  19.577  26.259  1.00  0.00     0.188 C 
BRANCH  25  26
ATOM     26  C   UNL A   1      43.405  18.459  26.147  1.00  0.00     0.188 C 
BRANCH  26  27
ATOM     27  O   UNL A   1      44.158  18.507  24.949  1.00  0.00    -0.376 OA
BRANCH  27  28
ATOM     28  C   UNL A   1      44.452  19.737  24.304  1.00  0.00     0.202 C 
BRANCH  28  29
ATOM     29  C   UNL A   1      45.311  20.877  24.891  1.00  0.00     0.261 C 
BRANCH  29  30
ATOM     30  O   UNL A   1      44.718  21.787  25.813  1.00  0.00    -0.460 OA
BRANCH  30  31
ATOM     31  C   UNL A   1      43.944  22.774  25.337  1.00  0.00     0.338 C 
ATOM     32  O   UNL A   1      43.397  22.838  24.248  1.00  0.00    -0.246 OA
BRANCH  31  33
ATOM     33  C   UNL A   1      43.700  23.678  26.476  1.00  0.00     0.060 A 
ATOM     34  C   UNL A   1      42.890  23.226  27.526  1.00  0.00     0.016 A 
ATOM     35  C   UNL A   1      44.324  24.928  26.541  1.00  0.00     0.016 A 
ATOM     36  C   UNL A   1      42.705  24.021  28.650  1.00  0.00     0.010 A 
ATOM     37  C   UNL A   1      44.091  25.751  27.642  1.00  0.00     0.010 A 
ATOM     38  C   UNL A   1      43.256  25.307  28.681  1.00  0.00    -0.014 A 
BRANCH  38  39
ATOM     39  C   UNL A   1      42.696  26.279  29.639  1.00  0.00     0.031 A 
ATOM     40  C   UNL A   1      43.399  26.405  30.962  1.00  0.00     0.074 A 
ATOM     41  C   UNL A   1      41.647  27.057  29.326  1.00  0.00     0.049 A 
ATOM     42  N   UNL A   1      43.104  27.153  31.990  1.00  0.00    -0.248 NA
ATOM     43  C   UNL A   1      44.604  25.574  31.143  1.00  0.00     0.031 C 
ATOM     44  C   UNL A   1      40.948  27.068  28.042  1.00  0.00     0.029 A 
ATOM     45  N   UNL A   1      40.990  27.994  30.078  1.00  0.00    -0.354 N 
ATOM     46  C   UNL A   1      44.085  26.880  32.936  1.00  0.00     0.074 A 
ATOM     47  C   UNL A   1      44.964  25.881  32.377  1.00  0.00     0.031 C 
ATOM     48  C   UNL A   1      39.948  27.966  28.101  1.00  0.00     0.029 A 
ATOM     49  C   UNL A   1      39.917  28.560  29.435  1.00  0.00     0.049 A 
ATOM     50  H   UNL A   1      41.262  28.240  30.992  1.00  0.00     0.167 HD
ATOM     51  C   UNL A   1      44.240  27.422  34.165  1.00  0.00     0.031 A 
ATOM     52  C   UNL A   1      39.005  29.437  29.896  1.00  0.00     0.031 A 
ATOM     53  C   UNL A   1      43.340  28.391  34.722  1.00  0.00     0.049 A 
ATOM     54  C   UNL A   1      39.132  29.936  31.314  1.00  0.00     0.074 A 
ATOM     55  C   UNL A   1      43.380  28.989  35.967  1.00  0.00     0.029 A 
ATOM     56  N   UNL A   1      42.230  28.895  34.062  1.00  0.00    -0.354 N 
ATOM     57  N   UNL A   1      40.059  29.675  32.206  1.00  0.00    -0.248 NA
ATOM     58  C   UNL A   1      38.088  30.856  31.788  1.00  0.00     0.031 C 
ATOM     59  C   UNL A   1      42.257  29.814  36.083  1.00  0.00     0.029 A 
ATOM     60  C   UNL A   1      41.562  29.785  34.883  1.00  0.00     0.049 A 
ATOM     61  H   UNL A   1      41.957  28.655  33.147  1.00  0.00     0.167 HD
ATOM     62  C   UNL A   1      39.735  30.430  33.326  1.00  0.00     0.074 A 
ATOM     63  C   UNL A   1      38.532  31.166  32.998  1.00  0.00     0.031 C 
ATOM     64  C   UNL A   1      40.375  30.515  34.519  1.00  0.00     0.031 A 
BRANCH  51  65
ATOM     65  C   UNL A   1      45.395  26.938  34.992  1.00  0.00    -0.014 A 
ATOM     66  C   UNL A   1      46.628  27.609  34.991  1.00  0.00     0.009 A 
ATOM     67  C   UNL A   1      45.244  25.798  35.797  1.00  0.00     0.009 A 
ATOM     68  C   UNL A   1      47.695  27.133  35.757  1.00  0.00     0.001 A 
ATOM     69  C   UNL A   1      46.301  25.342  36.586  1.00  0.00     0.001 A 
ATOM     70  C   UNL A   1      47.527  26.004  36.560  1.00  0.00     0.000 A 
ENDBRANCH  51  65
BRANCH  52  71
ATOM     71  C   UNL A   1      37.875  29.880  29.036  1.00  0.00    -0.014 A 
ATOM     72  C   UNL A   1      37.687  31.238  28.735  1.00  0.00     0.009 A 
ATOM     73  C   UNL A   1      36.944  28.947  28.547  1.00  0.00     0.009 A 
ATOM     74  C   UNL A   1      36.575  31.656  27.999  1.00  0.00     0.001 A 
ATOM     75  C   UNL A   1      35.852  29.364  27.784  1.00  0.00     0.001 A 
ATOM     76  C   UNL A   1      35.660  30.719  27.522  1.00  0.00     0.000 A 
ENDBRANCH  52  71
BRANCH  64  77
ATOM     77  C   UNL A   1      39.828  31.483  35.530  1.00  0.00    -0.014 A 
ATOM     78  C   UNL A   1      40.376  32.764  35.696  1.00  0.00     0.009 A 
ATOM     79  C   UNL A   1      38.700  31.122  36.286  1.00  0.00     0.009 A 
ATOM     80  C   UNL A   1      39.827  33.649  36.624  1.00  0.00     0.001 A 
ATOM     81  C   UNL A   1      38.131  32.021  37.186  1.00  0.00     0.001 A 
ATOM     82  C   UNL A   1      38.701  33.280  37.362  1.00  0.00     0.000 A 
ENDBRANCH  64  77
ENDBRANCH  38  39
ENDBRANCH  31  33
ENDBRANCH  30  31
ENDBRANCH  29  30
ENDBRANCH  28  29
ENDBRANCH  27  28
ENDBRANCH  26  27
ENDBRANCH  25  26
ENDBRANCH  24  25
ENDBRANCH  23  24
ENDBRANCH   1  23
TORSDOF 25
ENDMDL
