MODEL 1
REMARK VINA RESULT:     -10.4      0.000      0.000
REMARK SMILES O=C(OCCOCCOCCOCCOC(=O)[C@@H]1CCCC[C@H]1C(=O)Nc1ccc(NC(=O)c2ccco2)cc1)c1ccc(-c2c3nc(c(-c4ccccc4)c4ccc([nH]4)c(-c4ccccc4)c4nc(c(-c5ccccc5)c5ccc2[nH]5)C=C4)C=C3)cc1
REMARK SMILES IDX 10 1 9 2 8 3 7 4 6 5 5 6 4 7 3 8 2 9 1 10 41 11 42 12 88 13
REMARK SMILES IDX 43 14 87 15 44 16 45 17 46 18 81 19 47 20 86 21 80 22 82 23
REMARK SMILES IDX 48 24 85 25 79 26 78 27 49 29 71 30 56 31 70 32 57 33 60 34
REMARK SMILES IDX 69 35 83 36 58 37 59 38 68 40 84 41 61 42 50 43 51 44 55 45
REMARK SMILES IDX 52 46 54 47 53 48 72 49 73 50 77 51 74 52 76 53 75 54 62 55
REMARK SMILES IDX 63 56 67 57 64 58 66 59 65 60 11 61 12 62 13 63 14 64 15 65
REMARK SMILES IDX 16 66 17 67 18 68 19 69 23 70 20 71 22 72 21 73 24 74 25 75
REMARK SMILES IDX 26 76 27 78 28 79 40 80 29 81 39 82 30 83 31 84 32 85 33 87
REMARK SMILES IDX 34 88 35 89 38 90 36 91 37 92
REMARK H PARENT 82 28 60 39 26 77 31 86
REMARK Flexibility Score: inf
ROOT
ATOM      1  C   UNL A   1      40.739  20.095  26.496  1.00  0.00     0.188 C 
ENDROOT
BRANCH   1   2
ATOM      2  O   UNL A   1      41.819  19.662  27.319  1.00  0.00    -0.377 OA
BRANCH   2   3
ATOM      3  C   UNL A   1      42.885  18.985  26.651  1.00  0.00     0.188 C 
BRANCH   3   4
ATOM      4  C   UNL A   1      43.198  19.627  25.305  1.00  0.00     0.188 C 
BRANCH   4   5
ATOM      5  O   UNL A   1      44.238  20.584  25.510  1.00  0.00    -0.376 OA
BRANCH   5   6
ATOM      6  C   UNL A   1      43.818  21.939  25.399  1.00  0.00     0.202 C 
BRANCH   6   7
ATOM      7  C   UNL A   1      44.505  22.646  24.230  1.00  0.00     0.261 C 
BRANCH   7   8
ATOM      8  O   UNL A   1      44.440  24.075  24.375  1.00  0.00    -0.460 OA
BRANCH   8   9
ATOM      9  C   UNL A   1      45.026  24.859  25.312  1.00  0.00     0.338 C 
ATOM     10  O   UNL A   1      46.253  24.954  25.295  1.00  0.00    -0.246 OA
BRANCH   9  11
ATOM     11  C   UNL A   1      44.292  25.663  26.348  1.00  0.00     0.060 A 
ATOM     12  C   UNL A   1      44.367  27.047  26.532  1.00  0.00     0.016 A 
ATOM     13  C   UNL A   1      43.406  24.949  27.179  1.00  0.00     0.016 A 
ATOM     14  C   UNL A   1      43.639  27.696  27.524  1.00  0.00     0.010 A 
ATOM     15  C   UNL A   1      42.668  25.589  28.179  1.00  0.00     0.010 A 
ATOM     16  C   UNL A   1      42.810  26.966  28.368  1.00  0.00    -0.014 A 
BRANCH  16  17
ATOM     17  C   UNL A   1      42.267  27.638  29.559  1.00  0.00     0.031 A 
ATOM     18  C   UNL A   1      40.936  28.312  29.428  1.00  0.00     0.074 A 
ATOM     19  C   UNL A   1      42.892  27.537  30.744  1.00  0.00     0.049 A 
ATOM     20  N   UNL A   1      40.274  29.017  30.305  1.00  0.00    -0.248 NA
ATOM     21  C   UNL A   1      40.247  28.150  28.135  1.00  0.00     0.031 C 
ATOM     22  C   UNL A   1      44.116  26.775  30.994  1.00  0.00     0.029 A 
ATOM     23  N   UNL A   1      42.566  28.064  31.965  1.00  0.00    -0.354 N 
ATOM     24  C   UNL A   1      39.107  29.406  29.660  1.00  0.00     0.074 A 
ATOM     25  C   UNL A   1      39.140  28.850  28.328  1.00  0.00     0.031 C 
ATOM     26  C   UNL A   1      44.437  26.881  32.295  1.00  0.00     0.029 A 
ATOM     27  C   UNL A   1      43.478  27.767  32.949  1.00  0.00     0.049 A 
ATOM     28  H   UNL A   1      41.758  28.602  32.123  1.00  0.00     0.167 HD
ATOM     29  C   UNL A   1      38.109  30.184  30.137  1.00  0.00     0.031 A 
ATOM     30  C   UNL A   1      43.543  28.207  34.220  1.00  0.00     0.031 A 
ATOM     31  C   UNL A   1      38.114  30.748  31.455  1.00  0.00     0.049 A 
ATOM     32  C   UNL A   1      42.483  29.168  34.690  1.00  0.00     0.074 A 
ATOM     33  C   UNL A   1      37.205  31.613  32.034  1.00  0.00     0.029 A 
ATOM     34  N   UNL A   1      39.098  30.498  32.401  1.00  0.00    -0.354 N 
ATOM     35  N   UNL A   1      41.413  29.592  34.058  1.00  0.00    -0.248 NA
ATOM     36  C   UNL A   1      42.651  29.733  36.036  1.00  0.00     0.031 C 
ATOM     37  C   UNL A   1      37.666  31.922  33.318  1.00  0.00     0.029 A 
ATOM     38  C   UNL A   1      38.837  31.214  33.552  1.00  0.00     0.049 A 
ATOM     39  H   UNL A   1      39.867  29.897  32.272  1.00  0.00     0.167 HD
ATOM     40  C   UNL A   1      40.782  30.473  34.924  1.00  0.00     0.074 A 
ATOM     41  C   UNL A   1      41.574  30.500  36.139  1.00  0.00     0.031 C 
ATOM     42  C   UNL A   1      39.658  31.207  34.736  1.00  0.00     0.031 A 
BRANCH  29  43
ATOM     43  C   UNL A   1      37.010  30.533  29.178  1.00  0.00    -0.014 A 
ATOM     44  C   UNL A   1      36.896  31.818  28.626  1.00  0.00     0.009 A 
ATOM     45  C   UNL A   1      36.038  29.568  28.871  1.00  0.00     0.009 A 
ATOM     46  C   UNL A   1      35.806  32.139  27.811  1.00  0.00     0.001 A 
ATOM     47  C   UNL A   1      34.961  29.887  28.041  1.00  0.00     0.001 A 
ATOM     48  C   UNL A   1      34.840  31.174  27.521  1.00  0.00     0.000 A 
ENDBRANCH  29  43
BRANCH  30  49
ATOM     49  C   UNL A   1      44.683  27.825  35.093  1.00  0.00    -0.014 A 
ATOM     50  C   UNL A   1      45.795  28.667  35.247  1.00  0.00     0.009 A 
ATOM     51  C   UNL A   1      44.674  26.593  35.772  1.00  0.00     0.009 A 
ATOM     52  C   UNL A   1      46.876  28.277  36.044  1.00  0.00     0.001 A 
ATOM     53  C   UNL A   1      45.741  26.218  36.590  1.00  0.00     0.001 A 
ATOM     54  C   UNL A   1      46.846  27.056  36.719  1.00  0.00     0.000 A 
ENDBRANCH  30  49
BRANCH  42  55
ATOM     55  C   UNL A   1      39.225  32.087  35.869  1.00  0.00    -0.014 A 
ATOM     56  C   UNL A   1      39.833  33.333  36.080  1.00  0.00     0.009 A 
ATOM     57  C   UNL A   1      38.154  31.695  36.685  1.00  0.00     0.009 A 
ATOM     58  C   UNL A   1      39.384  34.166  37.104  1.00  0.00     0.001 A 
ATOM     59  C   UNL A   1      37.693  32.540  37.693  1.00  0.00     0.001 A 
ATOM     60  C   UNL A   1      38.311  33.772  37.904  1.00  0.00     0.000 A 
ENDBRANCH  42  55
ENDBRANCH  16  17
ENDBRANCH   9  11
ENDBRANCH   8   9
ENDBRANCH   7   8
ENDBRANCH   6   7
ENDBRANCH   5   6
ENDBRANCH   4   5
ENDBRANCH   3   4
ENDBRANCH   2   3
ENDBRANCH   1   2
BRANCH   1  61
ATOM     61  C   UNL A   1      40.191  21.493  26.740  1.00  0.00     0.188 C 
BRANCH  61  62
ATOM     62  O   UNL A   1      39.337  22.061  25.752  1.00  0.00    -0.376 OA
BRANCH  62  63
ATOM     63  C   UNL A   1      38.050  21.486  25.550  1.00  0.00     0.202 C 
BRANCH  63  64
ATOM     64  C   UNL A   1      37.134  22.437  24.764  1.00  0.00     0.261 C 
BRANCH  64  65
ATOM     65  O   UNL A   1      36.094  21.789  23.988  1.00  0.00    -0.463 OA
BRANCH  65  66
ATOM     66  C   UNL A   1      35.172  21.084  24.696  1.00  0.00     0.309 C 
ATOM     67  O   UNL A   1      35.126  19.859  24.734  1.00  0.00    -0.252 OA
BRANCH  66  68
ATOM     68  C   UNL A   1      34.108  21.947  25.376  1.00  0.00     0.111 C 
ATOM     69  C   UNL A   1      34.213  21.731  26.897  1.00  0.00     0.016 C 
ATOM     70  C   UNL A   1      32.646  21.862  24.901  1.00  0.00     0.093 C 
ATOM     71  C   UNL A   1      33.378  22.770  27.638  1.00  0.00     0.001 C 
ATOM     72  C   UNL A   1      31.746  22.820  25.716  1.00  0.00     0.014 C 
ATOM     73  C   UNL A   1      31.917  22.675  27.224  1.00  0.00     0.001 C 
BRANCH  70  74
ATOM     74  C   UNL A   1      32.181  22.017  23.442  1.00  0.00     0.228 C 
ATOM     75  O   UNL A   1      31.917  20.970  22.818  1.00  0.00    -0.274 OA
ATOM     76  N   UNL A   1      31.797  23.132  22.775  1.00  0.00    -0.326 N 
ATOM     77  H   UNL A   1      31.498  22.933  21.858  1.00  0.00     0.169 HD
BRANCH  76  78
ATOM     78  C   UNL A   1      31.721  24.492  23.067  1.00  0.00     0.041 A 
ATOM     79  C   UNL A   1      30.495  24.985  23.506  1.00  0.00     0.028 A 
ATOM     80  C   UNL A   1      32.753  25.394  22.918  1.00  0.00     0.028 A 
ATOM     81  C   UNL A   1      30.400  26.281  24.023  1.00  0.00     0.028 A 
ATOM     82  C   UNL A   1      32.686  26.668  23.482  1.00  0.00     0.028 A 
ATOM     83  C   UNL A   1      31.533  27.081  24.141  1.00  0.00     0.041 A 
BRANCH  83  84
ATOM     84  N   UNL A   1      31.624  28.263  24.889  1.00  0.00    -0.319 N 
ATOM     85  C   UNL A   1      31.105  29.534  24.703  1.00  0.00     0.291 C 
ATOM     86  H   UNL A   1      32.162  28.172  25.709  1.00  0.00     0.170 HD
ATOM     87  O   UNL A   1      31.358  30.373  25.555  1.00  0.00    -0.265 OA
BRANCH  85  88
ATOM     88  C   UNL A   1      30.267  29.807  23.559  1.00  0.00     0.191 A 
ATOM     89  C   UNL A   1      30.384  29.499  22.215  1.00  0.00     0.056 A 
ATOM     90  O   UNL A   1      29.131  30.540  23.762  1.00  0.00    -0.459 OA
ATOM     91  C   UNL A   1      29.290  30.121  21.563  1.00  0.00     0.043 A 
ATOM     92  C   UNL A   1      28.554  30.733  22.549  1.00  0.00     0.196 A 
ENDBRANCH  85  88
ENDBRANCH  83  84
ENDBRANCH  76  78
ENDBRANCH  70  74
ENDBRANCH  66  68
ENDBRANCH  65  66
ENDBRANCH  64  65
ENDBRANCH  63  64
ENDBRANCH  62  63
ENDBRANCH  61  62
ENDBRANCH   1  61
TORSDOF 24
ENDMDL
MODEL 2
REMARK VINA RESULT:      -9.7      1.494      5.670
REMARK SMILES O=C(OCCOCCOCCOCCOC(=O)[C@@H]1CCCC[C@H]1C(=O)Nc1ccc(NC(=O)c2ccco2)cc1)c1ccc(-c2c3nc(c(-c4ccccc4)c4ccc([nH]4)c(-c4ccccc4)c4nc(c(-c5ccccc5)c5ccc2[nH]5)C=C4)C=C3)cc1
REMARK SMILES IDX 10 1 9 2 8 3 7 4 6 5 5 6 4 7 3 8 2 9 1 10 41 11 42 12 88 13
REMARK SMILES IDX 43 14 87 15 44 16 45 17 46 18 81 19 47 20 86 21 80 22 82 23
REMARK SMILES IDX 48 24 85 25 79 26 78 27 49 29 71 30 56 31 70 32 57 33 60 34
REMARK SMILES IDX 69 35 83 36 58 37 59 38 68 40 84 41 61 42 50 43 51 44 55 45
REMARK SMILES IDX 52 46 54 47 53 48 72 49 73 50 77 51 74 52 76 53 75 54 62 55
REMARK SMILES IDX 63 56 67 57 64 58 66 59 65 60 11 61 12 62 13 63 14 64 15 65
REMARK SMILES IDX 16 66 17 67 18 68 19 69 23 70 20 71 22 72 21 73 24 74 25 75
REMARK SMILES IDX 26 76 27 78 28 79 40 80 29 81 39 82 30 83 31 84 32 85 33 87
REMARK SMILES IDX 34 88 35 89 38 90 36 91 37 92
REMARK H PARENT 82 28 60 39 26 77 31 86
REMARK Flexibility Score: inf
ROOT
ATOM      1  C   UNL A   1      40.730  22.836  27.681  1.00  0.00     0.188 C 
ENDROOT
BRANCH   1   2
ATOM      2  O   UNL A   1      42.102  22.682  28.036  1.00  0.00    -0.377 OA
BRANCH   2   3
ATOM      3  C   UNL A   1      42.845  21.728  27.275  1.00  0.00     0.188 C 
BRANCH   3   4
ATOM      4  C   UNL A   1      42.450  21.759  25.803  1.00  0.00     0.188 C 
BRANCH   4   5
ATOM      5  O   UNL A   1      42.951  22.974  25.242  1.00  0.00    -0.376 OA
BRANCH   5   6
ATOM      6  C   UNL A   1      43.905  22.791  24.203  1.00  0.00     0.202 C 
BRANCH   6   7
ATOM      7  C   UNL A   1      45.307  23.208  24.649  1.00  0.00     0.261 C 
BRANCH   7   8
ATOM      8  O   UNL A   1      45.536  24.607  24.405  1.00  0.00    -0.460 OA
BRANCH   8   9
ATOM      9  C   UNL A   1      45.961  25.559  25.271  1.00  0.00     0.338 C 
ATOM     10  O   UNL A   1      47.169  25.791  25.321  1.00  0.00    -0.246 OA
BRANCH   9  11
ATOM     11  C   UNL A   1      45.069  26.392  26.146  1.00  0.00     0.060 A 
ATOM     12  C   UNL A   1      44.900  27.779  26.080  1.00  0.00     0.016 A 
ATOM     13  C   UNL A   1      44.291  25.692  27.090  1.00  0.00     0.016 A 
ATOM     14  C   UNL A   1      44.040  28.455  26.940  1.00  0.00     0.010 A 
ATOM     15  C   UNL A   1      43.424  26.359  27.959  1.00  0.00     0.010 A 
ATOM     16  C   UNL A   1      43.322  27.752  27.901  1.00  0.00    -0.014 A 
BRANCH  16  17
ATOM     17  C   UNL A   1      42.635  28.518  28.952  1.00  0.00     0.031 A 
ATOM     18  C   UNL A   1      43.425  28.884  30.172  1.00  0.00     0.074 A 
ATOM     19  C   UNL A   1      41.386  28.972  28.760  1.00  0.00     0.049 A 
ATOM     20  N   UNL A   1      43.038  29.499  31.256  1.00  0.00    -0.248 NA
ATOM     21  C   UNL A   1      44.854  28.523  30.156  1.00  0.00     0.031 C 
ATOM     22  C   UNL A   1      40.596  28.789  27.541  1.00  0.00     0.029 A 
ATOM     23  N   UNL A   1      40.571  29.702  29.584  1.00  0.00    -0.354 N 
ATOM     24  C   UNL A   1      44.167  29.572  32.061  1.00  0.00     0.074 A 
ATOM     25  C   UNL A   1      45.256  28.956  31.340  1.00  0.00     0.031 C 
ATOM     26  C   UNL A   1      39.408  29.397  27.697  1.00  0.00     0.029 A 
ATOM     27  C   UNL A   1      39.333  29.953  29.045  1.00  0.00     0.049 A 
ATOM     28  H   UNL A   1      40.846  30.016  30.475  1.00  0.00     0.167 HD
ATOM     29  C   UNL A   1      44.273  30.089  33.306  1.00  0.00     0.031 A 
ATOM     30  C   UNL A   1      38.253  30.528  29.608  1.00  0.00     0.031 A 
ATOM     31  C   UNL A   1      43.168  30.670  34.012  1.00  0.00     0.049 A 
ATOM     32  C   UNL A   1      38.361  30.987  31.038  1.00  0.00     0.074 A 
ATOM     33  C   UNL A   1      43.122  31.157  35.304  1.00  0.00     0.029 A 
ATOM     34  N   UNL A   1      41.901  30.832  33.470  1.00  0.00    -0.354 N 
ATOM     35  N   UNL A   1      39.412  30.995  31.826  1.00  0.00    -0.248 NA
ATOM     36  C   UNL A   1      37.133  31.490  31.667  1.00  0.00     0.031 C 
ATOM     37  C   UNL A   1      41.810  31.573  35.558  1.00  0.00     0.029 A 
ATOM     38  C   UNL A   1      41.054  31.385  34.409  1.00  0.00     0.049 A 
ATOM     39  H   UNL A   1      41.644  30.589  32.551  1.00  0.00     0.167 HD
ATOM     40  C   UNL A   1      38.973  31.499  33.042  1.00  0.00     0.074 A 
ATOM     41  C   UNL A   1      37.566  31.814  32.878  1.00  0.00     0.031 C 
ATOM     42  C   UNL A   1      39.660  31.679  34.196  1.00  0.00     0.031 A 
BRANCH  29  43
ATOM     43  C   UNL A   1      45.600  29.938  33.988  1.00  0.00    -0.014 A 
ATOM     44  C   UNL A   1      46.437  31.040  34.220  1.00  0.00     0.009 A 
ATOM     45  C   UNL A   1      46.041  28.656  34.351  1.00  0.00     0.009 A 
ATOM     46  C   UNL A   1      47.709  30.853  34.770  1.00  0.00     0.001 A 
ATOM     47  C   UNL A   1      47.304  28.476  34.918  1.00  0.00     0.001 A 
ATOM     48  C   UNL A   1      48.141  29.573  35.117  1.00  0.00     0.000 A 
ENDBRANCH  29  43
BRANCH  30  49
ATOM     49  C   UNL A   1      36.970  30.615  28.862  1.00  0.00    -0.014 A 
ATOM     50  C   UNL A   1      36.420  31.855  28.504  1.00  0.00     0.009 A 
ATOM     51  C   UNL A   1      36.273  29.445  28.515  1.00  0.00     0.009 A 
ATOM     52  C   UNL A   1      35.194  31.921  27.834  1.00  0.00     0.001 A 
ATOM     53  C   UNL A   1      35.063  29.511  27.821  1.00  0.00     0.001 A 
ATOM     54  C   UNL A   1      34.520  30.750  27.489  1.00  0.00     0.000 A 
ENDBRANCH  30  49
BRANCH  42  55
ATOM     55  C   UNL A   1      38.898  32.242  35.358  1.00  0.00    -0.014 A 
ATOM     56  C   UNL A   1      38.326  31.394  36.317  1.00  0.00     0.009 A 
ATOM     57  C   UNL A   1      38.817  33.631  35.529  1.00  0.00     0.009 A 
ATOM     58  C   UNL A   1      37.667  31.931  37.422  1.00  0.00     0.001 A 
ATOM     59  C   UNL A   1      38.177  34.165  36.646  1.00  0.00     0.001 A 
ATOM     60  C   UNL A   1      37.599  33.315  37.589  1.00  0.00     0.000 A 
ENDBRANCH  42  55
ENDBRANCH  16  17
ENDBRANCH   9  11
ENDBRANCH   8   9
ENDBRANCH   7   8
ENDBRANCH   6   7
ENDBRANCH   5   6
ENDBRANCH   4   5
ENDBRANCH   3   4
ENDBRANCH   2   3
ENDBRANCH   1   2
BRANCH   1  61
ATOM     61  C   UNL A   1      40.223  24.251  27.451  1.00  0.00     0.188 C 
BRANCH  61  62
ATOM     62  O   UNL A   1      39.257  24.459  26.426  1.00  0.00    -0.376 OA
BRANCH  62  63
ATOM     63  C   UNL A   1      37.980  23.840  26.553  1.00  0.00     0.202 C 
BRANCH  63  64
ATOM     64  C   UNL A   1      37.446  23.384  25.187  1.00  0.00     0.261 C 
BRANCH  64  65
ATOM     65  O   UNL A   1      36.135  23.896  24.836  1.00  0.00    -0.463 OA
BRANCH  65  66
ATOM     66  C   UNL A   1      35.397  23.123  23.997  1.00  0.00     0.309 C 
ATOM     67  O   UNL A   1      35.548  23.093  22.780  1.00  0.00    -0.252 OA
BRANCH  66  68
ATOM     68  C   UNL A   1      34.269  22.351  24.683  1.00  0.00     0.111 C 
ATOM     69  C   UNL A   1      34.901  21.294  25.607  1.00  0.00     0.016 C 
ATOM     70  C   UNL A   1      33.141  21.742  23.830  1.00  0.00     0.093 C 
ATOM     71  C   UNL A   1      33.842  20.691  26.524  1.00  0.00     0.001 C 
ATOM     72  C   UNL A   1      32.106  21.017  24.724  1.00  0.00     0.014 C 
ATOM     73  C   UNL A   1      32.738  20.037  25.707  1.00  0.00     0.001 C 
BRANCH  70  74
ATOM     74  C   UNL A   1      32.305  22.511  22.791  1.00  0.00     0.228 C 
ATOM     75  O   UNL A   1      31.810  21.846  21.860  1.00  0.00    -0.274 OA
ATOM     76  N   UNL A   1      31.829  23.779  22.837  1.00  0.00    -0.326 N 
ATOM     77  H   UNL A   1      31.277  23.998  22.051  1.00  0.00     0.169 HD
BRANCH  76  78
ATOM     78  C   UNL A   1      31.928  24.850  23.723  1.00  0.00     0.041 A 
ATOM     79  C   UNL A   1      33.125  25.560  23.737  1.00  0.00     0.028 A 
ATOM     80  C   UNL A   1      30.949  25.234  24.614  1.00  0.00     0.028 A 
ATOM     81  C   UNL A   1      33.219  26.768  24.435  1.00  0.00     0.028 A 
ATOM     82  C   UNL A   1      31.010  26.465  25.268  1.00  0.00     0.028 A 
ATOM     83  C   UNL A   1      32.110  27.296  25.091  1.00  0.00     0.041 A 
BRANCH  83  84
ATOM     84  N   UNL A   1      31.995  28.607  25.574  1.00  0.00    -0.319 N 
ATOM     85  C   UNL A   1      31.356  29.735  25.087  1.00  0.00     0.291 C 
ATOM     86  H   UNL A   1      32.460  28.755  26.430  1.00  0.00     0.170 HD
ATOM     87  O   UNL A   1      31.430  30.755  25.756  1.00  0.00    -0.265 OA
BRANCH  85  88
ATOM     88  C   UNL A   1      30.605  29.658  23.855  1.00  0.00     0.191 A 
ATOM     89  C   UNL A   1      30.863  29.062  22.633  1.00  0.00     0.056 A 
ATOM     90  O   UNL A   1      29.403  30.309  23.801  1.00  0.00    -0.459 OA
ATOM     91  C   UNL A   1      29.788  29.414  21.779  1.00  0.00     0.043 A 
ATOM     92  C   UNL A   1      28.923  30.164  22.540  1.00  0.00     0.196 A 
ENDBRANCH  85  88
ENDBRANCH  83  84
ENDBRANCH  76  78
ENDBRANCH  70  74
ENDBRANCH  66  68
ENDBRANCH  65  66
ENDBRANCH  64  65
ENDBRANCH  63  64
ENDBRANCH  62  63
ENDBRANCH  61  62
ENDBRANCH   1  61
TORSDOF 24
ENDMDL
MODEL 3
REMARK VINA RESULT:      -9.6      4.102      9.675
REMARK SMILES O=C(OCCOCCOCCOCCOC(=O)[C@@H]1CCCC[C@H]1C(=O)Nc1ccc(NC(=O)c2ccco2)cc1)c1ccc(-c2c3nc(c(-c4ccccc4)c4ccc([nH]4)c(-c4ccccc4)c4nc(c(-c5ccccc5)c5ccc2[nH]5)C=C4)C=C3)cc1
REMARK SMILES IDX 10 1 9 2 8 3 7 4 6 5 5 6 4 7 3 8 2 9 1 10 41 11 42 12 88 13
REMARK SMILES IDX 43 14 87 15 44 16 45 17 46 18 81 19 47 20 86 21 80 22 82 23
REMARK SMILES IDX 48 24 85 25 79 26 78 27 49 29 71 30 56 31 70 32 57 33 60 34
REMARK SMILES IDX 69 35 83 36 58 37 59 38 68 40 84 41 61 42 50 43 51 44 55 45
REMARK SMILES IDX 52 46 54 47 53 48 72 49 73 50 77 51 74 52 76 53 75 54 62 55
REMARK SMILES IDX 63 56 67 57 64 58 66 59 65 60 11 61 12 62 13 63 14 64 15 65
REMARK SMILES IDX 16 66 17 67 18 68 19 69 23 70 20 71 22 72 21 73 24 74 25 75
REMARK SMILES IDX 26 76 27 78 28 79 40 80 29 81 39 82 30 83 31 84 32 85 33 87
REMARK SMILES IDX 34 88 35 89 38 90 36 91 37 92
REMARK H PARENT 82 28 60 39 26 77 31 86
REMARK Flexibility Score: inf
ROOT
ATOM      1  C   UNL A   1      34.828  33.246  28.084  1.00  0.00     0.188 C 
ENDROOT
BRANCH   1   2
ATOM      2  O   UNL A   1      34.336  34.174  29.049  1.00  0.00    -0.377 OA
BRANCH   2   3
ATOM      3  C   UNL A   1      33.162  34.900  28.681  1.00  0.00     0.188 C 
BRANCH   3   4
ATOM      4  C   UNL A   1      33.330  36.395  28.921  1.00  0.00     0.188 C 
BRANCH   4   5
ATOM      5  O   UNL A   1      32.449  36.769  29.981  1.00  0.00    -0.376 OA
BRANCH   5   6
ATOM      6  C   UNL A   1      33.069  36.847  31.259  1.00  0.00     0.202 C 
BRANCH   6   7
ATOM      7  C   UNL A   1      32.684  35.659  32.142  1.00  0.00     0.261 C 
BRANCH   7   8
ATOM      8  O   UNL A   1      33.818  34.812  32.399  1.00  0.00    -0.460 OA
BRANCH   8   9
ATOM      9  C   UNL A   1      34.848  35.013  33.257  1.00  0.00     0.338 C 
ATOM     10  O   UNL A   1      34.679  35.810  34.180  1.00  0.00    -0.246 OA
BRANCH   9  11
ATOM     11  C   UNL A   1      36.171  34.304  33.198  1.00  0.00     0.060 A 
ATOM     12  C   UNL A   1      37.266  34.519  34.041  1.00  0.00     0.016 A 
ATOM     13  C   UNL A   1      36.293  33.290  32.228  1.00  0.00     0.016 A 
ATOM     14  C   UNL A   1      38.450  33.801  33.904  1.00  0.00     0.010 A 
ATOM     15  C   UNL A   1      37.477  32.561  32.079  1.00  0.00     0.010 A 
ATOM     16  C   UNL A   1      38.569  32.842  32.905  1.00  0.00    -0.014 A 
BRANCH  16  17
ATOM     17  C   UNL A   1      39.906  32.297  32.622  1.00  0.00     0.031 A 
ATOM     18  C   UNL A   1      40.766  33.040  31.644  1.00  0.00     0.074 A 
ATOM     19  C   UNL A   1      40.374  31.244  33.312  1.00  0.00     0.049 A 
ATOM     20  N   UNL A   1      41.949  32.739  31.185  1.00  0.00    -0.248 NA
ATOM     21  C   UNL A   1      40.221  34.311  31.132  1.00  0.00     0.031 C 
ATOM     22  C   UNL A   1      39.662  30.551  34.386  1.00  0.00     0.029 A 
ATOM     23  N   UNL A   1      41.574  30.589  33.224  1.00  0.00    -0.354 N 
ATOM     24  C   UNL A   1      42.276  33.765  30.308  1.00  0.00     0.074 A 
ATOM     25  C   UNL A   1      41.180  34.704  30.310  1.00  0.00     0.031 C 
ATOM     26  C   UNL A   1      40.443  29.566  34.862  1.00  0.00     0.029 A 
ATOM     27  C   UNL A   1      41.678  29.522  34.083  1.00  0.00     0.049 A 
ATOM     28  H   UNL A   1      42.290  30.855  32.605  1.00  0.00     0.167 HD
ATOM     29  C   UNL A   1      43.389  33.892  29.550  1.00  0.00     0.031 A 
ATOM     30  C   UNL A   1      42.649  28.595  34.186  1.00  0.00     0.031 A 
ATOM     31  C   UNL A   1      44.451  32.929  29.545  1.00  0.00     0.049 A 
ATOM     32  C   UNL A   1      43.822  28.692  33.247  1.00  0.00     0.074 A 
ATOM     33  C   UNL A   1      45.594  32.899  28.769  1.00  0.00     0.029 A 
ATOM     34  N   UNL A   1      44.487  31.811  30.367  1.00  0.00    -0.354 N 
ATOM     35  N   UNL A   1      44.100  29.626  32.367  1.00  0.00    -0.248 NA
ATOM     36  C   UNL A   1      44.799  27.596  33.291  1.00  0.00     0.031 C 
ATOM     37  C   UNL A   1      46.300  31.735  29.091  1.00  0.00     0.029 A 
ATOM     38  C   UNL A   1      45.617  31.066  30.098  1.00  0.00     0.049 A 
ATOM     39  H   UNL A   1      43.808  31.584  31.042  1.00  0.00     0.167 HD
ATOM     40  C   UNL A   1      45.280  29.233  31.753  1.00  0.00     0.074 A 
ATOM     41  C   UNL A   1      45.681  27.988  32.382  1.00  0.00     0.031 C 
ATOM     42  C   UNL A   1      45.971  29.832  30.752  1.00  0.00     0.031 A 
BRANCH  29  43
ATOM     43  C   UNL A   1      43.432  35.058  28.607  1.00  0.00    -0.014 A 
ATOM     44  C   UNL A   1      43.998  36.286  28.981  1.00  0.00     0.009 A 
ATOM     45  C   UNL A   1      42.840  34.936  27.341  1.00  0.00     0.009 A 
ATOM     46  C   UNL A   1      43.936  37.382  28.115  1.00  0.00     0.001 A 
ATOM     47  C   UNL A   1      42.797  36.026  26.471  1.00  0.00     0.001 A 
ATOM     48  C   UNL A   1      43.336  37.251  26.863  1.00  0.00     0.000 A 
ENDBRANCH  29  43
BRANCH  30  49
ATOM     49  C   UNL A   1      42.510  27.460  35.137  1.00  0.00    -0.014 A 
ATOM     50  C   UNL A   1      43.094  27.504  36.412  1.00  0.00     0.009 A 
ATOM     51  C   UNL A   1      41.799  26.307  34.762  1.00  0.00     0.009 A 
ATOM     52  C   UNL A   1      42.985  26.413  37.280  1.00  0.00     0.001 A 
ATOM     53  C   UNL A   1      41.666  25.230  35.641  1.00  0.00     0.001 A 
ATOM     54  C   UNL A   1      42.267  25.281  36.897  1.00  0.00     0.000 A 
ENDBRANCH  30  49
BRANCH  42  55
ATOM     55  C   UNL A   1      47.222  29.151  30.289  1.00  0.00    -0.014 A 
ATOM     56  C   UNL A   1      47.188  28.239  29.224  1.00  0.00     0.009 A 
ATOM     57  C   UNL A   1      48.452  29.479  30.877  1.00  0.00     0.009 A 
ATOM     58  C   UNL A   1      48.368  27.653  28.766  1.00  0.00     0.001 A 
ATOM     59  C   UNL A   1      49.632  28.908  30.403  1.00  0.00     0.001 A 
ATOM     60  C   UNL A   1      49.588  27.993  29.351  1.00  0.00     0.000 A 
ENDBRANCH  42  55
ENDBRANCH  16  17
ENDBRANCH   9  11
ENDBRANCH   8   9
ENDBRANCH   7   8
ENDBRANCH   6   7
ENDBRANCH   5   6
ENDBRANCH   4   5
ENDBRANCH   3   4
ENDBRANCH   2   3
ENDBRANCH   1   2
BRANCH   1  61
ATOM     61  C   UNL A   1      34.838  31.776  28.472  1.00  0.00     0.188 C 
BRANCH  61  62
ATOM     62  O   UNL A   1      33.775  30.951  28.004  1.00  0.00    -0.376 OA
BRANCH  62  63
ATOM     63  C   UNL A   1      34.093  29.814  27.207  1.00  0.00     0.202 C 
BRANCH  63  64
ATOM     64  C   UNL A   1      33.051  28.701  27.389  1.00  0.00     0.261 C 
BRANCH  64  65
ATOM     65  O   UNL A   1      31.749  28.974  26.811  1.00  0.00    -0.463 OA
BRANCH  65  66
ATOM     66  C   UNL A   1      31.750  29.521  25.567  1.00  0.00     0.309 C 
ATOM     67  O   UNL A   1      31.337  30.648  25.313  1.00  0.00    -0.252 OA
BRANCH  66  68
ATOM     68  C   UNL A   1      32.221  28.572  24.463  1.00  0.00     0.111 C 
ATOM     69  C   UNL A   1      33.629  29.009  24.021  1.00  0.00     0.016 C 
ATOM     70  C   UNL A   1      31.310  28.312  23.250  1.00  0.00     0.093 C 
ATOM     71  C   UNL A   1      34.260  27.941  23.134  1.00  0.00     0.001 C 
ATOM     72  C   UNL A   1      31.975  27.319  22.266  1.00  0.00     0.014 C 
ATOM     73  C   UNL A   1      33.406  27.699  21.898  1.00  0.00     0.001 C 
BRANCH  70  74
ATOM     74  C   UNL A   1      29.837  27.874  23.328  1.00  0.00     0.228 C 
ATOM     75  O   UNL A   1      29.024  28.496  22.616  1.00  0.00    -0.274 OA
ATOM     76  N   UNL A   1      29.297  26.765  23.889  1.00  0.00    -0.326 N 
ATOM     77  H   UNL A   1      28.324  26.712  23.747  1.00  0.00     0.169 HD
BRANCH  76  78
ATOM     78  C   UNL A   1      29.780  25.680  24.618  1.00  0.00     0.041 A 
ATOM     79  C   UNL A   1      30.291  24.603  23.899  1.00  0.00     0.028 A 
ATOM     80  C   UNL A   1      29.755  25.574  25.992  1.00  0.00     0.028 A 
ATOM     81  C   UNL A   1      30.987  23.584  24.556  1.00  0.00     0.028 A 
ATOM     82  C   UNL A   1      30.496  24.595  26.655  1.00  0.00     0.028 A 
ATOM     83  C   UNL A   1      31.212  23.651  25.928  1.00  0.00     0.041 A 
BRANCH  83  84
ATOM     84  N   UNL A   1      32.120  22.859  26.646  1.00  0.00    -0.319 N 
ATOM     85  C   UNL A   1      33.447  22.522  26.432  1.00  0.00     0.291 C 
ATOM     86  H   UNL A   1      31.739  22.465  27.465  1.00  0.00     0.170 HD
ATOM     87  O   UNL A   1      33.984  21.803  27.261  1.00  0.00    -0.265 OA
BRANCH  85  88
ATOM     88  C   UNL A   1      34.146  23.054  25.285  1.00  0.00     0.191 A 
ATOM     89  C   UNL A   1      34.710  24.289  25.020  1.00  0.00     0.056 A 
ATOM     90  O   UNL A   1      34.288  22.243  24.193  1.00  0.00    -0.459 OA
ATOM     91  C   UNL A   1      35.171  24.242  23.680  1.00  0.00     0.043 A 
ATOM     92  C   UNL A   1      34.899  22.973  23.227  1.00  0.00     0.196 A 
ENDBRANCH  85  88
ENDBRANCH  83  84
ENDBRANCH  76  78
ENDBRANCH  70  74
ENDBRANCH  66  68
ENDBRANCH  65  66
ENDBRANCH  64  65
ENDBRANCH  63  64
ENDBRANCH  62  63
ENDBRANCH  61  62
ENDBRANCH   1  61
TORSDOF 24
ENDMDL
