MODEL 1
REMARK VINA RESULT:     -11.0      0.000      0.000
REMARK SMILES Cc1ccc([C@@]23C[C@@H]4C[C@@H](C[C@@](C(=O)N5CCC(C(=O)OCCOCCOCCOCCOC(=O)c6ccc(-c7c8nc(c(-c9ccccc9)c9ccc([nH]9)c(-c9ccccc9)c9nc(c(-c%10ccccc%10)c%10ccc7[nH]%10)C=C9)C=C8)cc6)CC5)(C4)C2)C3)cc1
REMARK SMILES IDX 27 1 26 2 25 3 24 4 23 5 22 6 21 7 19 8 20 9 18 10 13 11
REMARK SMILES IDX 14 12 15 13 16 14 85 15 17 16 84 17 12 18 6 19 7 20 87 21
REMARK SMILES IDX 88 22 8 23 10 24 9 25 86 26 11 27 5 28 1 29 2 30 3 31 90 32
REMARK SMILES IDX 4 33 89 34 28 35 29 36 30 37 31 38 32 39 33 40 34 41 35 42
REMARK SMILES IDX 36 43 37 44 83 45 38 46 82 47 39 48 40 49 41 50 76 51 42 52
REMARK SMILES IDX 81 53 75 54 77 55 43 56 80 57 74 58 73 59 44 61 66 62 51 63
REMARK SMILES IDX 65 64 52 65 55 66 64 67 78 68 53 69 54 70 63 72 79 73 56 74
REMARK SMILES IDX 45 75 46 76 50 77 47 78 49 79 48 80 67 81 68 82 72 83 69 84
REMARK SMILES IDX 71 85 70 86 57 87 58 88 62 89 59 90 61 91 60 92
REMARK H PARENT 77 60 55 71
REMARK Flexibility Score: inf
ROOT
ATOM      1  O   UNL A   1      39.022  29.238  29.465  1.00  0.00    -0.377 OA
ENDROOT
BRANCH   1   2
ATOM      2  C   UNL A   1      37.738  29.825  29.591  1.00  0.00     0.188 C 
BRANCH   2   3
ATOM      3  C   UNL A   1      36.564  29.463  28.533  1.00  0.00     0.188 C 
BRANCH   3   4
ATOM      4  O   UNL A   1      35.652  30.435  27.754  1.00  0.00    -0.376 OA
BRANCH   4   5
ATOM      5  C   UNL A   1      34.062  30.553  27.487  1.00  0.00     0.202 C 
BRANCH   5   6
ATOM      6  C   UNL A   1      32.607  29.743  26.702  1.00  0.00     0.261 C 
BRANCH   6   7
ATOM      7  O   UNL A   1      31.558  30.027  25.278  1.00  0.00    -0.463 OA
BRANCH   7   8
ATOM      8  C   UNL A   1      30.856  29.432  24.075  1.00  0.00     0.309 C 
ATOM      9  O   UNL A   1      29.777  29.793  23.579  1.00  0.00    -0.252 OA
BRANCH   8  10
ATOM     10  C   UNL A   1      31.655  28.461  22.962  1.00  0.00     0.103 C 
ATOM     11  C   UNL A   1      32.708  24.304  23.534  1.00  0.00     0.228 C 
ATOM     12  O   UNL A   1      31.682  23.637  23.325  1.00  0.00    -0.274 OA
ATOM     13  N   UNL A   1      32.748  25.639  23.071  1.00  0.00    -0.342 N 
ATOM     14  C   UNL A   1      31.808  26.032  22.017  1.00  0.00     0.120 C 
ATOM     15  C   UNL A   1      33.721  26.683  23.367  1.00  0.00     0.120 C 
ATOM     16  C   UNL A   1      30.934  27.261  22.322  1.00  0.00     0.037 C 
ATOM     17  C   UNL A   1      33.162  28.146  23.416  1.00  0.00     0.037 C 
BRANCH  11  18
ATOM     18  C   UNL A   1      33.921  23.555  24.223  1.00  0.00     0.051 C 
ATOM     19  C   UNL A   1      34.616  21.206  25.078  1.00  0.00    -0.003 C 
ATOM     20  C   UNL A   1      35.981  21.420  24.361  1.00  0.00     0.015 C 
ATOM     21  C   UNL A   1      33.569  22.066  24.316  1.00  0.00     0.028 C 
ATOM     22  C   UNL A   1      34.734  21.760  26.523  1.00  0.00     0.015 C 
ATOM     23  C   UNL A   1      36.380  22.911  24.357  1.00  0.00    -0.009 C 
ATOM     24  C   UNL A   1      35.125  23.247  26.497  1.00  0.00    -0.009 C 
ATOM     25  C   UNL A   1      36.487  23.396  25.811  1.00  0.00     0.007 C 
ATOM     26  C   UNL A   1      35.318  23.745  23.597  1.00  0.00     0.020 C 
ATOM     27  C   UNL A   1      34.066  24.053  25.713  1.00  0.00     0.020 C 
BRANCH  19  28
ATOM     28  C   UNL A   1      34.212  19.720  25.093  1.00  0.00    -0.042 A 
ATOM     29  C   UNL A   1      32.942  15.569  24.970  1.00  0.00     0.044 C 
ATOM     30  C   UNL A   1      33.415  16.990  25.031  1.00  0.00    -0.051 A 
ATOM     31  C   UNL A   1      32.607  17.950  25.634  1.00  0.00     0.004 A 
ATOM     32  C   UNL A   1      34.638  17.389  24.484  1.00  0.00     0.004 A 
ATOM     33  C   UNL A   1      33.004  19.286  25.670  1.00  0.00     0.004 A 
ATOM     34  C   UNL A   1      35.033  18.734  24.519  1.00  0.00     0.004 A 
ENDBRANCH  19  28
ENDBRANCH  11  18
ENDBRANCH   8  10
ENDBRANCH   7   8
ENDBRANCH   6   7
ENDBRANCH   5   6
ENDBRANCH   4   5
ENDBRANCH   3   4
ENDBRANCH   2   3
ENDBRANCH   1   2
BRANCH   1  35
ATOM     35  C   UNL A   1      38.987  27.831  29.415  1.00  0.00     0.188 C 
BRANCH  35  36
ATOM     36  C   UNL A   1      39.896  27.184  28.352  1.00  0.00     0.188 C 
BRANCH  36  37
ATOM     37  O   UNL A   1      40.453  25.929  28.757  1.00  0.00    -0.376 OA
BRANCH  37  38
ATOM     38  C   UNL A   1      41.252  25.271  27.775  1.00  0.00     0.202 C 
BRANCH  38  39
ATOM     39  C   UNL A   1      42.756  25.312  28.078  1.00  0.00     0.261 C 
BRANCH  39  40
ATOM     40  O   UNL A   1      43.491  25.354  26.842  1.00  0.00    -0.460 OA
BRANCH  40  41
ATOM     41  C   UNL A   1      44.838  25.226  26.963  1.00  0.00     0.338 C 
ATOM     42  O   UNL A   1      45.463  24.184  26.907  1.00  0.00    -0.246 OA
BRANCH  41  43
ATOM     43  C   UNL A   1      45.392  26.525  27.451  1.00  0.00     0.060 A 
ATOM     44  C   UNL A   1      46.378  26.514  28.429  1.00  0.00     0.016 A 
ATOM     45  C   UNL A   1      44.736  27.728  27.166  1.00  0.00     0.016 A 
ATOM     46  C   UNL A   1      46.538  27.648  29.236  1.00  0.00     0.010 A 
ATOM     47  C   UNL A   1      44.779  28.782  28.081  1.00  0.00     0.010 A 
ATOM     48  C   UNL A   1      45.571  28.685  29.234  1.00  0.00    -0.014 A 
BRANCH  48  49
ATOM     49  C   UNL A   1      45.338  29.790  30.382  1.00  0.00     0.031 A 
ATOM     50  C   UNL A   1      44.300  28.687  31.273  1.00  0.00     0.074 A 
ATOM     51  C   UNL A   1      45.642  31.370  30.442  1.00  0.00     0.049 A 
ATOM     52  N   UNL A   1      43.128  28.946  31.805  1.00  0.00    -0.248 NA
ATOM     53  C   UNL A   1      44.474  27.203  31.318  1.00  0.00     0.031 C 
ATOM     54  C   UNL A   1      45.577  32.487  31.462  1.00  0.00     0.029 A 
ATOM     55  N   UNL A   1      45.652  32.491  29.437  1.00  0.00    -0.354 N 
ATOM     56  C   UNL A   1      42.778  27.941  32.653  1.00  0.00     0.074 A 
ATOM     57  C   UNL A   1      43.424  26.807  32.056  1.00  0.00     0.031 C 
ATOM     58  C   UNL A   1      45.317  33.755  31.148  1.00  0.00     0.029 A 
ATOM     59  C   UNL A   1      45.048  33.716  29.804  1.00  0.00     0.049 A 
ATOM     60  H   UNL A   1      46.066  32.375  28.551  1.00  0.00     0.167 HD
ATOM     61  C   UNL A   1      42.267  28.235  33.894  1.00  0.00     0.031 A 
ATOM     62  C   UNL A   1      43.975  34.357  29.261  1.00  0.00     0.031 A 
ATOM     63  C   UNL A   1      41.990  29.698  34.122  1.00  0.00     0.049 A 
ATOM     64  C   UNL A   1      42.682  34.303  30.169  1.00  0.00     0.074 A 
ATOM     65  C   UNL A   1      42.395  30.616  35.087  1.00  0.00     0.029 A 
ATOM     66  N   UNL A   1      41.348  30.488  33.154  1.00  0.00    -0.354 N 
ATOM     67  N   UNL A   1      42.542  33.738  31.360  1.00  0.00    -0.248 NA
ATOM     68  C   UNL A   1      41.395  34.780  29.660  1.00  0.00     0.031 C 
ATOM     69  C   UNL A   1      42.015  31.935  34.684  1.00  0.00     0.029 A 
ATOM     70  C   UNL A   1      41.385  31.861  33.455  1.00  0.00     0.049 A 
ATOM     71  H   UNL A   1      40.916  30.118  32.350  1.00  0.00     0.167 HD
ATOM     72  C   UNL A   1      41.182  33.600  31.668  1.00  0.00     0.074 A 
ATOM     73  C   UNL A   1      40.530  34.334  30.586  1.00  0.00     0.031 C 
ATOM     74  C   UNL A   1      40.598  32.821  32.657  1.00  0.00     0.031 A 
BRANCH  61  75
ATOM     75  C   UNL A   1      42.366  27.209  35.043  1.00  0.00    -0.014 A 
ATOM     76  C   UNL A   1      43.425  27.259  35.968  1.00  0.00     0.009 A 
ATOM     77  C   UNL A   1      41.494  26.116  35.224  1.00  0.00     0.009 A 
ATOM     78  C   UNL A   1      43.651  26.243  36.917  1.00  0.00     0.001 A 
ATOM     79  C   UNL A   1      41.706  25.095  36.164  1.00  0.00     0.001 A 
ATOM     80  C   UNL A   1      42.801  25.148  37.002  1.00  0.00     0.000 A 
ENDBRANCH  61  75
BRANCH  62  81
ATOM     81  C   UNL A   1      44.048  34.441  27.766  1.00  0.00    -0.014 A 
ATOM     82  C   UNL A   1      44.263  33.228  27.068  1.00  0.00     0.009 A 
ATOM     83  C   UNL A   1      43.647  35.553  27.015  1.00  0.00     0.009 A 
ATOM     84  C   UNL A   1      43.926  33.089  25.719  1.00  0.00     0.001 A 
ATOM     85  C   UNL A   1      43.284  35.406  25.668  1.00  0.00     0.001 A 
ATOM     86  C   UNL A   1      43.396  34.172  25.029  1.00  0.00     0.000 A 
ENDBRANCH  62  81
BRANCH  74  87
ATOM     87  C   UNL A   1      39.102  32.857  33.022  1.00  0.00    -0.014 A 
ATOM     88  C   UNL A   1      38.196  31.818  32.767  1.00  0.00     0.009 A 
ATOM     89  C   UNL A   1      38.522  34.060  33.504  1.00  0.00     0.009 A 
ATOM     90  C   UNL A   1      36.829  31.937  33.072  1.00  0.00     0.001 A 
ATOM     91  C   UNL A   1      37.157  34.200  33.772  1.00  0.00     0.001 A 
ATOM     92  C   UNL A   1      36.310  33.125  33.578  1.00  0.00     0.000 A 
ENDBRANCH  74  87
ENDBRANCH  48  49
ENDBRANCH  41  43
ENDBRANCH  40  41
ENDBRANCH  39  40
ENDBRANCH  38  39
ENDBRANCH  37  38
ENDBRANCH  36  37
ENDBRANCH  35  36
ENDBRANCH   1  35
TORSDOF 22
ENDMDL
MODEL 2
REMARK VINA RESULT:     -10.2      3.261      6.609
REMARK SMILES Cc1ccc([C@@]23C[C@@H]4C[C@@H](C[C@@](C(=O)N5CCC(C(=O)OCCOCCOCCOCCOC(=O)c6ccc(-c7c8nc(c(-c9ccccc9)c9ccc([nH]9)c(-c9ccccc9)c9nc(c(-c%10ccccc%10)c%10ccc7[nH]%10)C=C9)C=C8)cc6)CC5)(C4)C2)C3)cc1
REMARK SMILES IDX 27 1 26 2 25 3 24 4 23 5 22 6 21 7 19 8 20 9 18 10 13 11
REMARK SMILES IDX 14 12 15 13 16 14 85 15 17 16 84 17 12 18 6 19 7 20 87 21
REMARK SMILES IDX 88 22 8 23 10 24 9 25 86 26 11 27 5 28 1 29 2 30 3 31 90 32
REMARK SMILES IDX 4 33 89 34 28 35 29 36 30 37 31 38 32 39 33 40 34 41 35 42
REMARK SMILES IDX 36 43 37 44 83 45 38 46 82 47 39 48 40 49 41 50 76 51 42 52
REMARK SMILES IDX 81 53 75 54 77 55 43 56 80 57 74 58 73 59 44 61 66 62 51 63
REMARK SMILES IDX 65 64 52 65 55 66 64 67 78 68 53 69 54 70 63 72 79 73 56 74
REMARK SMILES IDX 45 75 46 76 50 77 47 78 49 79 48 80 67 81 68 82 72 83 69 84
REMARK SMILES IDX 71 85 70 86 57 87 58 88 62 89 59 90 61 91 60 92
REMARK H PARENT 77 60 55 71
REMARK Flexibility Score: inf
ROOT
ATOM      1  O   UNL A   1      35.505  31.002  28.958  1.00  0.00    -0.377 OA
ENDROOT
BRANCH   1   2
ATOM      2  C   UNL A   1      34.840  32.122  29.517  1.00  0.00     0.188 C 
BRANCH   2   3
ATOM      3  C   UNL A   1      34.427  33.380  28.583  1.00  0.00     0.188 C 
BRANCH   3   4
ATOM      4  O   UNL A   1      33.112  33.595  27.802  1.00  0.00    -0.376 OA
BRANCH   4   5
ATOM      5  C   UNL A   1      32.008  32.628  27.125  1.00  0.00     0.202 C 
BRANCH   5   6
ATOM      6  C   UNL A   1      31.670  30.917  26.535  1.00  0.00     0.261 C 
BRANCH   6   7
ATOM      7  O   UNL A   1      31.292  30.117  24.977  1.00  0.00    -0.463 OA
BRANCH   7   8
ATOM      8  C   UNL A   1      30.228  29.716  23.978  1.00  0.00     0.309 C 
ATOM      9  O   UNL A   1      29.428  30.461  23.389  1.00  0.00    -0.252 OA
BRANCH   8  10
ATOM     10  C   UNL A   1      30.259  28.237  23.182  1.00  0.00     0.103 C 
ATOM     11  C   UNL A   1      31.741  24.519  24.824  1.00  0.00     0.228 C 
ATOM     12  O   UNL A   1      30.849  24.064  25.557  1.00  0.00    -0.274 OA
ATOM     13  N   UNL A   1      31.397  25.520  23.888  1.00  0.00    -0.342 N 
ATOM     14  C   UNL A   1      29.986  25.663  23.517  1.00  0.00     0.120 C 
ATOM     15  C   UNL A   1      32.273  26.358  23.078  1.00  0.00     0.120 C 
ATOM     16  C   UNL A   1      29.387  27.070  23.680  1.00  0.00     0.037 C 
ATOM     17  C   UNL A   1      31.753  27.806  22.781  1.00  0.00     0.037 C 
BRANCH  11  18
ATOM     18  C   UNL A   1      33.175  23.857  24.944  1.00  0.00     0.051 C 
ATOM     19  C   UNL A   1      34.311  21.532  25.131  1.00  0.00    -0.003 C 
ATOM     20  C   UNL A   1      35.323  22.011  24.049  1.00  0.00     0.015 C 
ATOM     21  C   UNL A   1      32.999  22.334  24.906  1.00  0.00     0.028 C 
ATOM     22  C   UNL A   1      34.875  21.912  26.526  1.00  0.00     0.015 C 
ATOM     23  C   UNL A   1      35.573  23.530  24.156  1.00  0.00    -0.009 C 
ATOM     24  C   UNL A   1      35.110  23.429  26.613  1.00  0.00    -0.009 C 
ATOM     25  C   UNL A   1      36.135  23.840  25.550  1.00  0.00     0.007 C 
ATOM     26  C   UNL A   1      34.249  24.305  23.932  1.00  0.00     0.020 C 
ATOM     27  C   UNL A   1      33.784  24.180  26.363  1.00  0.00     0.020 C 
BRANCH  19  28
ATOM     28  C   UNL A   1      34.060  20.015  25.037  1.00  0.00    -0.042 A 
ATOM     29  C   UNL A   1      33.245  15.773  24.590  1.00  0.00     0.044 C 
ATOM     30  C   UNL A   1      33.559  17.228  24.768  1.00  0.00    -0.051 A 
ATOM     31  C   UNL A   1      32.572  18.081  25.254  1.00  0.00     0.004 A 
ATOM     32  C   UNL A   1      34.809  17.763  24.444  1.00  0.00     0.004 A 
ATOM     33  C   UNL A   1      32.823  19.445  25.392  1.00  0.00     0.004 A 
ATOM     34  C   UNL A   1      35.057  19.136  24.582  1.00  0.00     0.004 A 
ENDBRANCH  19  28
ENDBRANCH  11  18
ENDBRANCH   8  10
ENDBRANCH   7   8
ENDBRANCH   6   7
ENDBRANCH   5   6
ENDBRANCH   4   5
ENDBRANCH   3   4
ENDBRANCH   2   3
ENDBRANCH   1   2
BRANCH   1  35
ATOM     35  C   UNL A   1      36.700  30.675  29.627  1.00  0.00     0.188 C 
BRANCH  35  36
ATOM     36  C   UNL A   1      36.613  29.471  30.586  1.00  0.00     0.188 C 
BRANCH  36  37
ATOM     37  O   UNL A   1      36.213  29.821  31.915  1.00  0.00    -0.376 OA
BRANCH  37  38
ATOM     38  C   UNL A   1      36.902  30.931  32.487  1.00  0.00     0.202 C 
BRANCH  38  39
ATOM     39  C   UNL A   1      37.879  30.539  33.604  1.00  0.00     0.261 C 
BRANCH  39  40
ATOM     40  O   UNL A   1      38.068  31.659  34.487  1.00  0.00    -0.460 OA
BRANCH  40  41
ATOM     41  C   UNL A   1      37.401  32.790  34.140  1.00  0.00     0.338 C 
ATOM     42  O   UNL A   1      36.206  32.981  34.266  1.00  0.00    -0.246 OA
BRANCH  41  43
ATOM     43  C   UNL A   1      38.318  33.648  33.331  1.00  0.00     0.060 A 
ATOM     44  C   UNL A   1      37.847  34.221  32.157  1.00  0.00     0.016 A 
ATOM     45  C   UNL A   1      39.697  33.637  33.571  1.00  0.00     0.016 A 
ATOM     46  C   UNL A   1      38.769  34.577  31.164  1.00  0.00     0.010 A 
ATOM     47  C   UNL A   1      40.592  33.829  32.517  1.00  0.00     0.010 A 
ATOM     48  C   UNL A   1      40.119  34.148  31.236  1.00  0.00    -0.014 A 
BRANCH  48  49
ATOM     49  C   UNL A   1      41.168  34.052  30.019  1.00  0.00     0.031 A 
ATOM     50  C   UNL A   1      41.084  32.297  30.046  1.00  0.00     0.074 A 
ATOM     51  C   UNL A   1      42.151  35.137  29.349  1.00  0.00     0.049 A 
ATOM     52  N   UNL A   1      42.085  31.448  30.015  1.00  0.00    -0.248 NA
ATOM     53  C   UNL A   1      39.862  31.508  30.393  1.00  0.00     0.031 C 
ATOM     54  C   UNL A   1      43.090  35.219  28.164  1.00  0.00     0.029 A 
ATOM     55  N   UNL A   1      42.921  36.329  29.851  1.00  0.00    -0.354 N 
ATOM     56  C   UNL A   1      41.617  30.197  29.755  1.00  0.00     0.074 A 
ATOM     57  C   UNL A   1      40.306  30.242  30.337  1.00  0.00     0.031 C 
ATOM     58  C   UNL A   1      44.191  35.969  28.150  1.00  0.00     0.029 A 
ATOM     59  C   UNL A   1      44.258  36.485  29.418  1.00  0.00     0.049 A 
ATOM     60  H   UNL A   1      42.507  36.980  30.463  1.00  0.00     0.167 HD
ATOM     61  C   UNL A   1      42.250  29.405  28.828  1.00  0.00     0.031 A 
ATOM     62  C   UNL A   1      45.415  36.484  30.139  1.00  0.00     0.031 A 
ATOM     63  C   UNL A   1      43.540  29.975  28.300  1.00  0.00     0.049 A 
ATOM     64  C   UNL A   1      46.285  35.181  29.937  1.00  0.00     0.074 A 
ATOM     65  C   UNL A   1      44.016  30.259  27.023  1.00  0.00     0.029 A 
ATOM     66  N   UNL A   1      44.496  30.551  29.152  1.00  0.00    -0.354 N 
ATOM     67  N   UNL A   1      46.027  34.138  29.160  1.00  0.00    -0.248 NA
ATOM     68  C   UNL A   1      47.462  34.934  30.771  1.00  0.00     0.031 C 
ATOM     69  C   UNL A   1      45.229  31.011  27.119  1.00  0.00     0.029 A 
ATOM     70  C   UNL A   1      45.516  31.223  28.456  1.00  0.00     0.049 A 
ATOM     71  H   UNL A   1      44.458  30.489  30.134  1.00  0.00     0.167 HD
ATOM     72  C   UNL A   1      46.842  33.057  29.522  1.00  0.00     0.074 A 
ATOM     73  C   UNL A   1      47.757  33.654  30.493  1.00  0.00     0.031 C 
ATOM     74  C   UNL A   1      46.707  31.721  29.172  1.00  0.00     0.031 A 
BRANCH  61  75
ATOM     75  C   UNL A   1      41.487  28.261  28.127  1.00  0.00    -0.014 A 
ATOM     76  C   UNL A   1      40.782  27.299  28.872  1.00  0.00     0.009 A 
ATOM     77  C   UNL A   1      41.492  28.022  26.737  1.00  0.00     0.009 A 
ATOM     78  C   UNL A   1      40.226  26.144  28.288  1.00  0.00     0.001 A 
ATOM     79  C   UNL A   1      40.944  26.876  26.140  1.00  0.00     0.001 A 
ATOM     80  C   UNL A   1      40.324  25.922  26.921  1.00  0.00     0.000 A 
ENDBRANCH  61  75
BRANCH  62  81
ATOM     81  C   UNL A   1      45.340  37.362  31.352  1.00  0.00    -0.014 A 
ATOM     82  C   UNL A   1      45.580  38.744  31.156  1.00  0.00     0.009 A 
ATOM     83  C   UNL A   1      44.785  36.974  32.578  1.00  0.00     0.009 A 
ATOM     84  C   UNL A   1      45.129  39.703  32.066  1.00  0.00     0.001 A 
ATOM     85  C   UNL A   1      44.309  37.939  33.479  1.00  0.00     0.001 A 
ATOM     86  C   UNL A   1      44.455  39.299  33.211  1.00  0.00     0.000 A 
ENDBRANCH  62  81
BRANCH  74  87
ATOM     87  C   UNL A   1      47.745  30.629  29.490  1.00  0.00    -0.014 A 
ATOM     88  C   UNL A   1      48.315  29.772  28.539  1.00  0.00     0.009 A 
ATOM     89  C   UNL A   1      48.056  30.324  30.841  1.00  0.00     0.009 A 
ATOM     90  C   UNL A   1      49.215  28.756  28.904  1.00  0.00     0.001 A 
ATOM     91  C   UNL A   1      48.919  29.290  31.216  1.00  0.00     0.001 A 
ATOM     92  C   UNL A   1      49.520  28.517  30.241  1.00  0.00     0.000 A 
ENDBRANCH  74  87
ENDBRANCH  48  49
ENDBRANCH  41  43
ENDBRANCH  40  41
ENDBRANCH  39  40
ENDBRANCH  38  39
ENDBRANCH  37  38
ENDBRANCH  36  37
ENDBRANCH  35  36
ENDBRANCH   1  35
TORSDOF 22
ENDMDL
MODEL 3
REMARK VINA RESULT:     -10.2      3.601      5.758
REMARK SMILES Cc1ccc([C@@]23C[C@@H]4C[C@@H](C[C@@](C(=O)N5CCC(C(=O)OCCOCCOCCOCCOC(=O)c6ccc(-c7c8nc(c(-c9ccccc9)c9ccc([nH]9)c(-c9ccccc9)c9nc(c(-c%10ccccc%10)c%10ccc7[nH]%10)C=C9)C=C8)cc6)CC5)(C4)C2)C3)cc1
REMARK SMILES IDX 27 1 26 2 25 3 24 4 23 5 22 6 21 7 19 8 20 9 18 10 13 11
REMARK SMILES IDX 14 12 15 13 16 14 85 15 17 16 84 17 12 18 6 19 7 20 87 21
REMARK SMILES IDX 88 22 8 23 10 24 9 25 86 26 11 27 5 28 1 29 2 30 3 31 90 32
REMARK SMILES IDX 4 33 89 34 28 35 29 36 30 37 31 38 32 39 33 40 34 41 35 42
REMARK SMILES IDX 36 43 37 44 83 45 38 46 82 47 39 48 40 49 41 50 76 51 42 52
REMARK SMILES IDX 81 53 75 54 77 55 43 56 80 57 74 58 73 59 44 61 66 62 51 63
REMARK SMILES IDX 65 64 52 65 55 66 64 67 78 68 53 69 54 70 63 72 79 73 56 74
REMARK SMILES IDX 45 75 46 76 50 77 47 78 49 79 48 80 67 81 68 82 72 83 69 84
REMARK SMILES IDX 71 85 70 86 57 87 58 88 62 89 59 90 61 91 60 92
REMARK H PARENT 77 60 55 71
REMARK Flexibility Score: inf
ROOT
ATOM      1  O   UNL A   1      38.785  29.395  29.373  1.00  0.00    -0.377 OA
ENDROOT
BRANCH   1   2
ATOM      2  C   UNL A   1      37.534  30.049  29.491  1.00  0.00     0.188 C 
BRANCH   2   3
ATOM      3  C   UNL A   1      36.311  29.665  28.498  1.00  0.00     0.188 C 
BRANCH   3   4
ATOM      4  O   UNL A   1      35.458  30.613  27.628  1.00  0.00    -0.376 OA
BRANCH   4   5
ATOM      5  C   UNL A   1      33.880  30.776  27.316  1.00  0.00     0.202 C 
BRANCH   5   6
ATOM      6  C   UNL A   1      32.387  29.933  26.645  1.00  0.00     0.261 C 
BRANCH   6   7
ATOM      7  O   UNL A   1      31.311  30.106  25.223  1.00  0.00    -0.463 OA
BRANCH   7   8
ATOM      8  C   UNL A   1      30.651  29.436  24.037  1.00  0.00     0.309 C 
ATOM      9  O   UNL A   1      29.537  29.692  23.551  1.00  0.00    -0.252 OA
BRANCH   8  10
ATOM     10  C   UNL A   1      31.521  28.529  22.923  1.00  0.00     0.103 C 
ATOM     11  C   UNL A   1      32.684  24.389  23.395  1.00  0.00     0.228 C 
ATOM     12  O   UNL A   1      31.688  23.699  23.124  1.00  0.00    -0.274 OA
ATOM     13  N   UNL A   1      32.699  25.740  22.979  1.00  0.00    -0.342 N 
ATOM     14  C   UNL A   1      31.787  26.141  21.904  1.00  0.00     0.120 C 
ATOM     15  C   UNL A   1      33.627  26.802  23.348  1.00  0.00     0.120 C 
ATOM     16  C   UNL A   1      30.864  27.331  22.215  1.00  0.00     0.037 C 
ATOM     17  C   UNL A   1      33.020  28.245  23.425  1.00  0.00     0.037 C 
BRANCH  11  18
ATOM     18  C   UNL A   1      33.894  23.654  24.105  1.00  0.00     0.051 C 
ATOM     19  C   UNL A   1      34.596  21.315  24.981  1.00  0.00    -0.003 C 
ATOM     20  C   UNL A   1      35.970  21.538  24.282  1.00  0.00     0.015 C 
ATOM     21  C   UNL A   1      33.553  22.162  24.200  1.00  0.00     0.028 C 
ATOM     22  C   UNL A   1      34.688  21.875  26.424  1.00  0.00     0.015 C 
ATOM     23  C   UNL A   1      36.356  23.032  24.278  1.00  0.00    -0.009 C 
ATOM     24  C   UNL A   1      35.067  23.366  26.397  1.00  0.00    -0.009 C 
ATOM     25  C   UNL A   1      36.438  23.524  25.731  1.00  0.00     0.007 C 
ATOM     26  C   UNL A   1      35.298  23.854  23.498  1.00  0.00     0.020 C 
ATOM     27  C   UNL A   1      34.013  24.159  25.595  1.00  0.00     0.020 C 
BRANCH  19  28
ATOM     28  C   UNL A   1      34.206  19.825  24.995  1.00  0.00    -0.042 A 
ATOM     29  C   UNL A   1      33.003  15.655  24.851  1.00  0.00     0.044 C 
ATOM     30  C   UNL A   1      33.449  17.084  24.926  1.00  0.00    -0.051 A 
ATOM     31  C   UNL A   1      32.542  18.059  25.331  1.00  0.00     0.004 A 
ATOM     32  C   UNL A   1      34.747  17.475  24.584  1.00  0.00     0.004 A 
ATOM     33  C   UNL A   1      32.918  19.401  25.372  1.00  0.00     0.004 A 
ATOM     34  C   UNL A   1      35.121  18.826  24.623  1.00  0.00     0.004 A 
ENDBRANCH  19  28
ENDBRANCH  11  18
ENDBRANCH   8  10
ENDBRANCH   7   8
ENDBRANCH   6   7
ENDBRANCH   5   6
ENDBRANCH   4   5
ENDBRANCH   3   4
ENDBRANCH   2   3
ENDBRANCH   1   2
BRANCH   1  35
ATOM     35  C   UNL A   1      38.681  27.990  29.392  1.00  0.00     0.188 C 
BRANCH  35  36
ATOM     36  C   UNL A   1      39.478  27.253  28.298  1.00  0.00     0.188 C 
BRANCH  36  37
ATOM     37  O   UNL A   1      40.498  26.390  28.812  1.00  0.00    -0.376 OA
BRANCH  37  38
ATOM     38  C   UNL A   1      41.068  25.488  27.865  1.00  0.00     0.202 C 
BRANCH  38  39
ATOM     39  C   UNL A   1      42.587  25.641  27.707  1.00  0.00     0.261 C 
BRANCH  39  40
ATOM     40  O   UNL A   1      42.886  26.079  26.369  1.00  0.00    -0.460 OA
BRANCH  40  41
ATOM     41  C   UNL A   1      43.543  25.176  25.597  1.00  0.00     0.338 C 
ATOM     42  O   UNL A   1      43.026  24.369  24.847  1.00  0.00    -0.246 OA
BRANCH  41  43
ATOM     43  C   UNL A   1      44.974  25.144  26.022  1.00  0.00     0.060 A 
ATOM     44  C   UNL A   1      45.543  23.933  26.392  1.00  0.00     0.016 A 
ATOM     45  C   UNL A   1      45.648  26.331  26.336  1.00  0.00     0.016 A 
ATOM     46  C   UNL A   1      46.656  23.943  27.243  1.00  0.00     0.010 A 
ATOM     47  C   UNL A   1      46.640  26.333  27.318  1.00  0.00     0.010 A 
ATOM     48  C   UNL A   1      47.049  25.130  27.913  1.00  0.00    -0.014 A 
BRANCH  48  49
ATOM     49  C   UNL A   1      47.962  25.236  29.235  1.00  0.00     0.031 A 
ATOM     50  C   UNL A   1      46.548  25.583  30.218  1.00  0.00     0.074 A 
ATOM     51  C   UNL A   1      49.553  25.350  29.445  1.00  0.00     0.049 A 
ATOM     52  N   UNL A   1      46.413  26.528  31.120  1.00  0.00    -0.248 NA
ATOM     53  C   UNL A   1      45.182  25.026  29.973  1.00  0.00     0.031 C 
ATOM     54  C   UNL A   1      50.536  25.350  30.597  1.00  0.00     0.029 A 
ATOM     55  N   UNL A   1      50.687  25.975  28.676  1.00  0.00    -0.354 N 
ATOM     56  C   UNL A   1      45.299  26.294  31.865  1.00  0.00     0.074 A 
ATOM     57  C   UNL A   1      44.448  25.620  30.927  1.00  0.00     0.031 C 
ATOM     58  C   UNL A   1      51.686  26.022  30.582  1.00  0.00     0.029 A 
ATOM     59  C   UNL A   1      51.653  26.712  29.399  1.00  0.00     0.049 A 
ATOM     60  H   UNL A   1      50.754  25.873  27.699  1.00  0.00     0.167 HD
ATOM     61  C   UNL A   1      45.351  26.409  33.234  1.00  0.00     0.031 A 
ATOM     62  C   UNL A   1      51.978  28.034  29.322  1.00  0.00     0.031 A 
ATOM     63  C   UNL A   1      46.649  26.961  33.763  1.00  0.00     0.049 A 
ATOM     64  C   UNL A   1      51.487  28.879  30.565  1.00  0.00     0.074 A 
ATOM     65  C   UNL A   1      47.585  26.504  34.687  1.00  0.00     0.029 A 
ATOM     66  N   UNL A   1      47.271  28.075  33.177  1.00  0.00    -0.354 N 
ATOM     67  N   UNL A   1      50.834  28.452  31.637  1.00  0.00    -0.248 NA
ATOM     68  C   UNL A   1      51.591  30.339  30.561  1.00  0.00     0.031 C 
ATOM     69  C   UNL A   1      48.753  27.327  34.634  1.00  0.00     0.029 A 
ATOM     70  C   UNL A   1      48.571  28.296  33.664  1.00  0.00     0.049 A 
ATOM     71  H   UNL A   1      46.840  28.645  32.499  1.00  0.00     0.167 HD
ATOM     72  C   UNL A   1      50.279  29.540  32.324  1.00  0.00     0.074 A 
ATOM     73  C   UNL A   1      50.851  30.689  31.626  1.00  0.00     0.031 C 
ATOM     74  C   UNL A   1      49.302  29.528  33.310  1.00  0.00     0.031 A 
BRANCH  61  75
ATOM     75  C   UNL A   1      44.332  25.661  34.120  1.00  0.00    -0.014 A 
ATOM     76  C   UNL A   1      44.593  24.358  34.581  1.00  0.00     0.009 A 
ATOM     77  C   UNL A   1      43.056  26.151  34.469  1.00  0.00     0.009 A 
ATOM     78  C   UNL A   1      43.622  23.577  35.237  1.00  0.00     0.001 A 
ATOM     79  C   UNL A   1      42.078  25.385  35.121  1.00  0.00     0.001 A 
ATOM     80  C   UNL A   1      42.355  24.084  35.491  1.00  0.00     0.000 A 
ENDBRANCH  61  75
BRANCH  62  81
ATOM     81  C   UNL A   1      52.173  28.500  27.911  1.00  0.00    -0.014 A 
ATOM     82  C   UNL A   1      53.319  28.020  27.233  1.00  0.00     0.009 A 
ATOM     83  C   UNL A   1      51.186  29.128  27.141  1.00  0.00     0.009 A 
ATOM     84  C   UNL A   1      53.396  28.012  25.838  1.00  0.00     0.001 A 
ATOM     85  C   UNL A   1      51.252  29.095  25.739  1.00  0.00     0.001 A 
ATOM     86  C   UNL A   1      52.339  28.514  25.090  1.00  0.00     0.000 A 
ENDBRANCH  62  81
BRANCH  74  87
ATOM     87  C   UNL A   1      48.869  30.764  34.120  1.00  0.00    -0.014 A 
ATOM     88  C   UNL A   1      48.143  31.843  33.598  1.00  0.00     0.009 A 
ATOM     89  C   UNL A   1      49.351  30.945  35.444  1.00  0.00     0.009 A 
ATOM     90  C   UNL A   1      47.829  32.971  34.377  1.00  0.00     0.001 A 
ATOM     91  C   UNL A   1      49.077  32.080  36.212  1.00  0.00     0.001 A 
ATOM     92  C   UNL A   1      48.293  33.088  35.685  1.00  0.00     0.000 A 
ENDBRANCH  74  87
ENDBRANCH  48  49
ENDBRANCH  41  43
ENDBRANCH  40  41
ENDBRANCH  39  40
ENDBRANCH  38  39
ENDBRANCH  37  38
ENDBRANCH  36  37
ENDBRANCH  35  36
ENDBRANCH   1  35
TORSDOF 22
ENDMDL
