MODEL 1
REMARK VINA RESULT:      -9.6      0.000      0.000
REMARK SMILES Cc1cc(Br)cc2c1O[C@H](C(F)(F)F)C(C(=O)OCCOCCOCCOCCOC(=O)c1ccc(-c3c4nc(c(-c5ccccc5)c5ccc([nH]5)c(-c5ccccc5)c5nc(c(-c6ccccc6)c6ccc3[nH]6)C=C5)C=C4)cc1)=C2
REMARK SMILES IDX 25 1 24 2 23 3 22 4 21 5 20 6 19 7 18 8 16 9 17 10 15 11
REMARK SMILES IDX 1 12 2 13 3 14 8 15 4 16 7 17 9 18 5 19 6 20 81 21 10 22
REMARK SMILES IDX 11 23 12 24 13 25 14 26 26 27 27 28 28 29 29 30 30 31 31 32
REMARK SMILES IDX 32 33 33 34 34 35 80 36 35 37 79 38 36 39 37 40 38 41 73 42
REMARK SMILES IDX 39 43 78 44 72 45 74 46 40 47 77 48 71 49 70 50 41 52 63 53
REMARK SMILES IDX 48 54 62 55 49 56 52 57 61 58 75 59 50 60 51 61 60 63 76 64
REMARK SMILES IDX 53 65 42 66 43 67 47 68 44 69 46 70 45 71 64 72 65 73 69 74
REMARK SMILES IDX 66 75 68 76 67 77 54 78 55 79 59 80 56 81 58 82 57 83
REMARK H PARENT 74 51 52 62
REMARK Flexibility Score: inf
ROOT
ATOM      1  C   UNL A   1      33.541  22.002  26.804  1.00  0.00     0.188 C 
ENDROOT
BRANCH   1   2
ATOM      2  O   UNL A   1      32.374  21.789  26.005  1.00  0.00    -0.377 OA
BRANCH   2   3
ATOM      3  C   UNL A   1      31.205  22.529  26.323  1.00  0.00     0.188 C 
BRANCH   3   4
ATOM      4  C   UNL A   1      30.993  23.755  25.413  1.00  0.00     0.188 C 
BRANCH   4   5
ATOM      5  O   UNL A   1      30.653  23.404  24.082  1.00  0.00    -0.376 OA
BRANCH   5   6
ATOM      6  C   UNL A   1      31.213  24.098  22.980  1.00  0.00     0.202 C 
BRANCH   6   7
ATOM      7  C   UNL A   1      32.728  24.268  22.767  1.00  0.00     0.261 C 
BRANCH   7   8
ATOM      8  O   UNL A   1      33.347  25.414  23.353  1.00  0.00    -0.460 OA
BRANCH   8   9
ATOM      9  C   UNL A   1      33.311  26.569  22.664  1.00  0.00     0.338 C 
ATOM     10  O   UNL A   1      33.272  26.695  21.453  1.00  0.00    -0.246 OA
BRANCH   9  11
ATOM     11  C   UNL A   1      33.146  27.667  23.641  1.00  0.00     0.087 C 
ATOM     12  C   UNL A   1      31.393  31.529  26.498  1.00  0.00     0.048 C 
ATOM     13  C   UNL A   1      32.609  30.647  26.524  1.00  0.00    -0.007 A 
ATOM     14  C   UNL A   1      33.513  30.728  27.592  1.00  0.00     0.023 A 
ATOM     15  C   UNL A   1      32.834  29.703  25.506  1.00  0.00     0.130 A 
ATOM     16  C   UNL A   1      34.628  29.891  27.632  1.00  0.00     0.019 A 
ATOM     17  C   UNL A   1      33.926  28.832  25.579  1.00  0.00     0.019 A 
ATOM     18  O   UNL A   1      31.930  29.683  24.481  1.00  0.00    -0.475 OA
ATOM     19  Br  UNL A   1      35.834  30.005  29.082  1.00  0.00    -0.051 Br
ATOM     20  C   UNL A   1      34.842  28.949  26.630  1.00  0.00     0.027 A 
ATOM     21  C   UNL A   1      34.069  27.763  24.606  1.00  0.00     0.027 C 
ATOM     22  C   UNL A   1      32.021  28.655  23.459  1.00  0.00     0.316 C 
BRANCH  22  23
ATOM     23  C   UNL A   1      30.655  27.965  23.363  1.00  0.00     0.430 C 
ATOM     24  F   UNL A   1      30.520  27.003  24.309  1.00  0.00    -0.167 F 
ATOM     25  F   UNL A   1      29.631  28.830  23.545  1.00  0.00    -0.167 F 
ATOM     26  F   UNL A   1      30.475  27.375  22.158  1.00  0.00    -0.167 F 
ENDBRANCH  22  23
ENDBRANCH   9  11
ENDBRANCH   8   9
ENDBRANCH   7   8
ENDBRANCH   6   7
ENDBRANCH   5   6
ENDBRANCH   4   5
ENDBRANCH   3   4
ENDBRANCH   2   3
ENDBRANCH   1   2
BRANCH   1  27
ATOM     27  C   UNL A   1      34.548  23.143  26.513  1.00  0.00     0.188 C 
BRANCH  27  28
ATOM     28  O   UNL A   1      35.812  22.703  26.036  1.00  0.00    -0.376 OA
BRANCH  28  29
ATOM     29  C   UNL A   1      35.865  21.498  25.292  1.00  0.00     0.202 C 
BRANCH  29  30
ATOM     30  C   UNL A   1      37.229  20.796  25.252  1.00  0.00     0.261 C 
BRANCH  30  31
ATOM     31  O   UNL A   1      38.373  21.663  25.236  1.00  0.00    -0.460 OA
BRANCH  31  32
ATOM     32  C   UNL A   1      39.354  21.411  26.127  1.00  0.00     0.338 C 
ATOM     33  O   UNL A   1      39.904  20.345  26.340  1.00  0.00    -0.246 OA
BRANCH  32  34
ATOM     34  C   UNL A   1      39.790  22.707  26.682  1.00  0.00     0.060 A 
ATOM     35  C   UNL A   1      39.147  23.880  26.264  1.00  0.00     0.016 A 
ATOM     36  C   UNL A   1      40.821  22.761  27.624  1.00  0.00     0.016 A 
ATOM     37  C   UNL A   1      39.558  25.115  26.761  1.00  0.00     0.010 A 
ATOM     38  C   UNL A   1      41.249  24.001  28.101  1.00  0.00     0.010 A 
ATOM     39  C   UNL A   1      40.643  25.184  27.644  1.00  0.00    -0.014 A 
BRANCH  39  40
ATOM     40  C   UNL A   1      41.290  26.491  27.906  1.00  0.00     0.031 A 
ATOM     41  C   UNL A   1      42.644  26.741  27.301  1.00  0.00     0.074 A 
ATOM     42  C   UNL A   1      40.685  27.448  28.632  1.00  0.00     0.049 A 
ATOM     43  N   UNL A   1      43.424  27.784  27.413  1.00  0.00    -0.248 NA
ATOM     44  C   UNL A   1      43.189  25.669  26.449  1.00  0.00     0.031 C 
ATOM     45  C   UNL A   1      39.348  27.354  29.214  1.00  0.00     0.029 A 
ATOM     46  N   UNL A   1      41.127  28.695  28.997  1.00  0.00    -0.354 N 
ATOM     47  C   UNL A   1      44.547  27.495  26.648  1.00  0.00     0.074 A 
ATOM     48  C   UNL A   1      44.366  26.168  26.105  1.00  0.00     0.031 C 
ATOM     49  C   UNL A   1      39.077  28.500  29.865  1.00  0.00     0.029 A 
ATOM     50  C   UNL A   1      40.235  29.390  29.777  1.00  0.00     0.049 A 
ATOM     51  H   UNL A   1      42.002  29.057  28.726  1.00  0.00     0.167 HD
ATOM     52  C   UNL A   1      45.630  28.270  26.410  1.00  0.00     0.031 A 
ATOM     53  C   UNL A   1      40.350  30.597  30.364  1.00  0.00     0.031 A 
ATOM     54  C   UNL A   1      45.821  29.581  26.966  1.00  0.00     0.049 A 
ATOM     55  C   UNL A   1      41.615  31.394  30.177  1.00  0.00     0.074 A 
ATOM     56  C   UNL A   1      46.890  30.441  26.790  1.00  0.00     0.029 A 
ATOM     57  N   UNL A   1      44.925  30.218  27.809  1.00  0.00    -0.354 N 
ATOM     58  N   UNL A   1      42.670  31.114  29.449  1.00  0.00    -0.248 NA
ATOM     59  C   UNL A   1      41.706  32.676  30.893  1.00  0.00     0.031 C 
ATOM     60  C   UNL A   1      46.670  31.574  27.577  1.00  0.00     0.029 A 
ATOM     61  C   UNL A   1      45.431  31.449  28.186  1.00  0.00     0.049 A 
ATOM     62  H   UNL A   1      44.058  29.850  28.096  1.00  0.00     0.167 HD
ATOM     63  C   UNL A   1      43.534  32.193  29.598  1.00  0.00     0.074 A 
ATOM     64  C   UNL A   1      42.875  33.140  30.471  1.00  0.00     0.031 C 
ATOM     65  C   UNL A   1      44.764  32.381  29.058  1.00  0.00     0.031 A 
BRANCH  52  66
ATOM     66  C   UNL A   1      46.708  27.706  25.529  1.00  0.00    -0.014 A 
ATOM     67  C   UNL A   1      47.677  26.828  26.039  1.00  0.00     0.009 A 
ATOM     68  C   UNL A   1      46.723  28.016  24.160  1.00  0.00     0.009 A 
ATOM     69  C   UNL A   1      48.651  26.285  25.197  1.00  0.00     0.001 A 
ATOM     70  C   UNL A   1      47.679  27.449  23.317  1.00  0.00     0.001 A 
ATOM     71  C   UNL A   1      48.645  26.589  23.837  1.00  0.00     0.000 A 
ENDBRANCH  52  66
BRANCH  53  72
ATOM     72  C   UNL A   1      39.238  31.128  31.197  1.00  0.00    -0.014 A 
ATOM     73  C   UNL A   1      38.332  32.062  30.669  1.00  0.00     0.009 A 
ATOM     74  C   UNL A   1      39.079  30.712  32.528  1.00  0.00     0.009 A 
ATOM     75  C   UNL A   1      37.302  32.577  31.460  1.00  0.00     0.001 A 
ATOM     76  C   UNL A   1      38.030  31.207  33.308  1.00  0.00     0.001 A 
ATOM     77  C   UNL A   1      37.148  32.144  32.776  1.00  0.00     0.000 A 
ENDBRANCH  53  72
BRANCH  65  78
ATOM     78  C   UNL A   1      45.477  33.669  29.371  1.00  0.00    -0.014 A 
ATOM     79  C   UNL A   1      45.247  34.829  28.617  1.00  0.00     0.009 A 
ATOM     80  C   UNL A   1      46.324  33.742  30.489  1.00  0.00     0.009 A 
ATOM     81  C   UNL A   1      45.870  36.031  28.962  1.00  0.00     0.001 A 
ATOM     82  C   UNL A   1      46.919  34.951  30.852  1.00  0.00     0.001 A 
ATOM     83  C   UNL A   1      46.697  36.093  30.083  1.00  0.00     0.000 A 
ENDBRANCH  65  78
ENDBRANCH  39  40
ENDBRANCH  32  34
ENDBRANCH  31  32
ENDBRANCH  30  31
ENDBRANCH  29  30
ENDBRANCH  28  29
ENDBRANCH  27  28
ENDBRANCH   1  27
TORSDOF 21
ENDMDL
MODEL 2
REMARK VINA RESULT:      -9.6      3.767      5.960
REMARK SMILES Cc1cc(Br)cc2c1O[C@H](C(F)(F)F)C(C(=O)OCCOCCOCCOCCOC(=O)c1ccc(-c3c4nc(c(-c5ccccc5)c5ccc([nH]5)c(-c5ccccc5)c5nc(c(-c6ccccc6)c6ccc3[nH]6)C=C5)C=C4)cc1)=C2
REMARK SMILES IDX 25 1 24 2 23 3 22 4 21 5 20 6 19 7 18 8 16 9 17 10 15 11
REMARK SMILES IDX 1 12 2 13 3 14 8 15 4 16 7 17 9 18 5 19 6 20 81 21 10 22
REMARK SMILES IDX 11 23 12 24 13 25 14 26 26 27 27 28 28 29 29 30 30 31 31 32
REMARK SMILES IDX 32 33 33 34 34 35 80 36 35 37 79 38 36 39 37 40 38 41 73 42
REMARK SMILES IDX 39 43 78 44 72 45 74 46 40 47 77 48 71 49 70 50 41 52 63 53
REMARK SMILES IDX 48 54 62 55 49 56 52 57 61 58 75 59 50 60 51 61 60 63 76 64
REMARK SMILES IDX 53 65 42 66 43 67 47 68 44 69 46 70 45 71 64 72 65 73 69 74
REMARK SMILES IDX 66 75 68 76 67 77 54 78 55 79 59 80 56 81 58 82 57 83
REMARK H PARENT 74 51 52 62
REMARK Flexibility Score: inf
ROOT
ATOM      1  C   UNL A   1      38.156  20.954  25.378  1.00  0.00     0.188 C 
ENDROOT
BRANCH   1   2
ATOM      2  O   UNL A   1      37.431  21.452  24.250  1.00  0.00    -0.377 OA
BRANCH   2   3
ATOM      3  C   UNL A   1      36.236  22.179  24.495  1.00  0.00     0.188 C 
BRANCH   3   4
ATOM      4  C   UNL A   1      35.357  21.554  25.596  1.00  0.00     0.188 C 
BRANCH   4   5
ATOM      5  O   UNL A   1      34.024  21.318  25.173  1.00  0.00    -0.376 OA
BRANCH   5   6
ATOM      6  C   UNL A   1      33.573  21.762  23.905  1.00  0.00     0.202 C 
BRANCH   6   7
ATOM      7  C   UNL A   1      32.085  21.886  23.530  1.00  0.00     0.261 C 
BRANCH   7   8
ATOM      8  O   UNL A   1      31.494  23.184  23.621  1.00  0.00    -0.460 OA
BRANCH   8   9
ATOM      9  C   UNL A   1      31.018  23.575  24.817  1.00  0.00     0.338 C 
ATOM     10  O   UNL A   1      30.779  22.862  25.776  1.00  0.00    -0.246 OA
BRANCH   9  11
ATOM     11  C   UNL A   1      31.003  25.054  24.830  1.00  0.00     0.087 C 
ATOM     12  C   UNL A   1      32.061  30.010  25.516  1.00  0.00     0.048 C 
ATOM     13  C   UNL A   1      31.060  29.232  24.708  1.00  0.00    -0.007 A 
ATOM     14  C   UNL A   1      30.221  29.896  23.803  1.00  0.00     0.023 A 
ATOM     15  C   UNL A   1      30.983  27.832  24.814  1.00  0.00     0.130 A 
ATOM     16  C   UNL A   1      29.310  29.174  23.032  1.00  0.00     0.019 A 
ATOM     17  C   UNL A   1      30.104  27.110  24.000  1.00  0.00     0.019 A 
ATOM     18  O   UNL A   1      31.812  27.242  25.726  1.00  0.00    -0.475 OA
ATOM     19  Br  UNL A   1      28.189  30.081  21.810  1.00  0.00    -0.051 Br
ATOM     20  C   UNL A   1      29.244  27.787  23.129  1.00  0.00     0.027 A 
ATOM     21  C   UNL A   1      30.135  25.657  24.008  1.00  0.00     0.027 C 
ATOM     22  C   UNL A   1      31.883  25.794  25.805  1.00  0.00     0.316 C 
BRANCH  22  23
ATOM     23  C   UNL A   1      33.356  25.386  25.679  1.00  0.00     0.430 C 
ATOM     24  F   UNL A   1      33.605  24.228  26.337  1.00  0.00    -0.167 F 
ATOM     25  F   UNL A   1      33.723  25.185  24.392  1.00  0.00    -0.167 F 
ATOM     26  F   UNL A   1      34.182  26.328  26.191  1.00  0.00    -0.167 F 
ENDBRANCH  22  23
ENDBRANCH   9  11
ENDBRANCH   8   9
ENDBRANCH   7   8
ENDBRANCH   6   7
ENDBRANCH   5   6
ENDBRANCH   4   5
ENDBRANCH   3   4
ENDBRANCH   2   3
ENDBRANCH   1   2
BRANCH   1  27
ATOM     27  C   UNL A   1      39.033  19.678  25.302  1.00  0.00     0.188 C 
BRANCH  27  28
ATOM     28  O   UNL A   1      40.175  19.700  26.147  1.00  0.00    -0.376 OA
BRANCH  28  29
ATOM     29  C   UNL A   1      40.685  20.958  26.551  1.00  0.00     0.202 C 
BRANCH  29  30
ATOM     30  C   UNL A   1      42.141  21.246  26.160  1.00  0.00     0.261 C 
BRANCH  30  31
ATOM     31  O   UNL A   1      42.705  22.447  26.707  1.00  0.00    -0.460 OA
BRANCH  31  32
ATOM     32  C   UNL A   1      42.740  23.535  25.910  1.00  0.00     0.338 C 
ATOM     33  O   UNL A   1      42.990  23.571  24.717  1.00  0.00    -0.246 OA
BRANCH  32  34
ATOM     34  C   UNL A   1      42.230  24.676  26.696  1.00  0.00     0.060 A 
ATOM     35  C   UNL A   1      42.862  25.921  26.578  1.00  0.00     0.016 A 
ATOM     36  C   UNL A   1      41.124  24.518  27.534  1.00  0.00     0.016 A 
ATOM     37  C   UNL A   1      42.408  27.006  27.326  1.00  0.00     0.010 A 
ATOM     38  C   UNL A   1      40.688  25.597  28.304  1.00  0.00     0.010 A 
ATOM     39  C   UNL A   1      41.350  26.835  28.229  1.00  0.00    -0.014 A 
BRANCH  39  40
ATOM     40  C   UNL A   1      41.090  27.872  29.255  1.00  0.00     0.031 A 
ATOM     41  C   UNL A   1      42.001  27.926  30.450  1.00  0.00     0.074 A 
ATOM     42  C   UNL A   1      40.095  28.767  29.120  1.00  0.00     0.049 A 
ATOM     43  N   UNL A   1      41.958  28.713  31.492  1.00  0.00    -0.248 NA
ATOM     44  C   UNL A   1      43.115  26.961  30.469  1.00  0.00     0.031 C 
ATOM     45  C   UNL A   1      39.189  28.864  27.978  1.00  0.00     0.029 A 
ATOM     46  N   UNL A   1      39.689  29.773  29.961  1.00  0.00    -0.354 N 
ATOM     47  C   UNL A   1      43.035  28.342  32.286  1.00  0.00     0.074 A 
ATOM     48  C   UNL A   1      43.693  27.237  31.627  1.00  0.00     0.031 C 
ATOM     49  C   UNL A   1      38.330  29.877  28.190  1.00  0.00     0.029 A 
ATOM     50  C   UNL A   1      38.603  30.474  29.497  1.00  0.00     0.049 A 
ATOM     51  H   UNL A   1      40.135  29.973  30.816  1.00  0.00     0.167 HD
ATOM     52  C   UNL A   1      43.446  28.878  33.459  1.00  0.00     0.031 A 
ATOM     53  C   UNL A   1      37.902  31.471  30.073  1.00  0.00     0.031 A 
ATOM     54  C   UNL A   1      42.781  29.963  34.125  1.00  0.00     0.049 A 
ATOM     55  C   UNL A   1      38.312  31.977  31.432  1.00  0.00     0.074 A 
ATOM     56  C   UNL A   1      43.117  30.570  35.322  1.00  0.00     0.029 A 
ATOM     57  N   UNL A   1      41.641  30.596  33.657  1.00  0.00    -0.354 N 
ATOM     58  N   UNL A   1      39.333  31.621  32.173  1.00  0.00    -0.248 NA
ATOM     59  C   UNL A   1      37.471  33.023  32.034  1.00  0.00     0.031 C 
ATOM     60  C   UNL A   1      42.146  31.532  35.609  1.00  0.00     0.029 A 
ATOM     61  C   UNL A   1      41.244  31.570  34.557  1.00  0.00     0.049 A 
ATOM     62  H   UNL A   1      41.184  30.386  32.812  1.00  0.00     0.167 HD
ATOM     63  C   UNL A   1      39.273  32.416  33.313  1.00  0.00     0.074 A 
ATOM     64  C   UNL A   1      38.125  33.283  33.158  1.00  0.00     0.031 C 
ATOM     65  C   UNL A   1      40.097  32.425  34.390  1.00  0.00     0.031 A 
BRANCH  52  66
ATOM     66  C   UNL A   1      44.661  28.280  34.109  1.00  0.00    -0.014 A 
ATOM     67  C   UNL A   1      44.564  27.138  34.918  1.00  0.00     0.009 A 
ATOM     68  C   UNL A   1      45.927  28.836  33.865  1.00  0.00     0.009 A 
ATOM     69  C   UNL A   1      45.709  26.574  35.485  1.00  0.00     0.001 A 
ATOM     70  C   UNL A   1      47.072  28.254  34.409  1.00  0.00     0.001 A 
ATOM     71  C   UNL A   1      46.961  27.127  35.223  1.00  0.00     0.000 A 
ENDBRANCH  52  66
BRANCH  53  72
ATOM     72  C   UNL A   1      36.728  32.056  29.371  1.00  0.00    -0.014 A 
ATOM     73  C   UNL A   1      35.477  31.420  29.416  1.00  0.00     0.009 A 
ATOM     74  C   UNL A   1      36.852  33.252  28.645  1.00  0.00     0.009 A 
ATOM     75  C   UNL A   1      34.381  31.961  28.738  1.00  0.00     0.001 A 
ATOM     76  C   UNL A   1      35.748  33.804  27.992  1.00  0.00     0.001 A 
ATOM     77  C   UNL A   1      34.516  33.155  28.033  1.00  0.00     0.000 A 
ENDBRANCH  53  72
BRANCH  65  78
ATOM     78  C   UNL A   1      39.809  33.418  35.483  1.00  0.00    -0.014 A 
ATOM     79  C   UNL A   1      39.134  33.037  36.653  1.00  0.00     0.009 A 
ATOM     80  C   UNL A   1      40.296  34.731  35.378  1.00  0.00     0.009 A 
ATOM     81  C   UNL A   1      38.932  33.958  37.684  1.00  0.00     0.001 A 
ATOM     82  C   UNL A   1      40.123  35.639  36.423  1.00  0.00     0.001 A 
ATOM     83  C   UNL A   1      39.434  35.254  37.572  1.00  0.00     0.000 A 
ENDBRANCH  65  78
ENDBRANCH  39  40
ENDBRANCH  32  34
ENDBRANCH  31  32
ENDBRANCH  30  31
ENDBRANCH  29  30
ENDBRANCH  28  29
ENDBRANCH  27  28
ENDBRANCH   1  27
TORSDOF 21
ENDMDL
MODEL 3
REMARK VINA RESULT:      -9.4      4.467      8.769
REMARK SMILES Cc1cc(Br)cc2c1O[C@H](C(F)(F)F)C(C(=O)OCCOCCOCCOCCOC(=O)c1ccc(-c3c4nc(c(-c5ccccc5)c5ccc([nH]5)c(-c5ccccc5)c5nc(c(-c6ccccc6)c6ccc3[nH]6)C=C5)C=C4)cc1)=C2
REMARK SMILES IDX 25 1 24 2 23 3 22 4 21 5 20 6 19 7 18 8 16 9 17 10 15 11
REMARK SMILES IDX 1 12 2 13 3 14 8 15 4 16 7 17 9 18 5 19 6 20 81 21 10 22
REMARK SMILES IDX 11 23 12 24 13 25 14 26 26 27 27 28 28 29 29 30 30 31 31 32
REMARK SMILES IDX 32 33 33 34 34 35 80 36 35 37 79 38 36 39 37 40 38 41 73 42
REMARK SMILES IDX 39 43 78 44 72 45 74 46 40 47 77 48 71 49 70 50 41 52 63 53
REMARK SMILES IDX 48 54 62 55 49 56 52 57 61 58 75 59 50 60 51 61 60 63 76 64
REMARK SMILES IDX 53 65 42 66 43 67 47 68 44 69 46 70 45 71 64 72 65 73 69 74
REMARK SMILES IDX 66 75 68 76 67 77 54 78 55 79 59 80 56 81 58 82 57 83
REMARK H PARENT 74 51 52 62
REMARK Flexibility Score: inf
ROOT
ATOM      1  C   UNL A   1      41.354  21.895  27.505  1.00  0.00     0.188 C 
ENDROOT
BRANCH   1   2
ATOM      2  O   UNL A   1      40.040  21.415  27.209  1.00  0.00    -0.377 OA
BRANCH   2   3
ATOM      3  C   UNL A   1      39.196  22.234  26.412  1.00  0.00     0.188 C 
BRANCH   3   4
ATOM      4  C   UNL A   1      38.338  21.433  25.412  1.00  0.00     0.188 C 
BRANCH   4   5
ATOM      5  O   UNL A   1      37.081  22.038  25.154  1.00  0.00    -0.376 OA
BRANCH   5   6
ATOM      6  C   UNL A   1      36.903  23.437  25.292  1.00  0.00     0.202 C 
BRANCH   6   7
ATOM      7  C   UNL A   1      35.599  24.080  25.799  1.00  0.00     0.261 C 
BRANCH   7   8
ATOM      8  O   UNL A   1      34.604  23.206  26.334  1.00  0.00    -0.460 OA
BRANCH   8   9
ATOM      9  C   UNL A   1      33.347  23.327  25.869  1.00  0.00     0.338 C 
ATOM     10  O   UNL A   1      32.629  24.308  25.951  1.00  0.00    -0.246 OA
BRANCH   9  11
ATOM     11  C   UNL A   1      33.046  22.114  25.078  1.00  0.00     0.087 C 
ATOM     12  C   UNL A   1      32.142  18.737  21.346  1.00  0.00     0.048 C 
ATOM     13  C   UNL A   1      32.378  18.655  22.828  1.00  0.00    -0.007 A 
ATOM     14  C   UNL A   1      32.507  17.406  23.450  1.00  0.00     0.023 A 
ATOM     15  C   UNL A   1      32.516  19.822  23.599  1.00  0.00     0.130 A 
ATOM     16  C   UNL A   1      32.752  17.327  24.820  1.00  0.00     0.019 A 
ATOM     17  C   UNL A   1      32.815  19.737  24.963  1.00  0.00     0.019 A 
ATOM     18  O   UNL A   1      32.362  21.010  22.942  1.00  0.00    -0.475 OA
ATOM     19  Br  UNL A   1      32.932  15.636  25.646  1.00  0.00    -0.051 Br
ATOM     20  C   UNL A   1      32.902  18.484  25.580  1.00  0.00     0.027 A 
ATOM     21  C   UNL A   1      33.104  20.942  25.721  1.00  0.00     0.027 C 
ATOM     22  C   UNL A   1      32.615  22.259  23.640  1.00  0.00     0.316 C 
BRANCH  22  23
ATOM     23  C   UNL A   1      33.623  23.066  22.812  1.00  0.00     0.430 C 
ATOM     24  F   UNL A   1      33.603  24.377  23.154  1.00  0.00    -0.167 F 
ATOM     25  F   UNL A   1      34.893  22.638  22.995  1.00  0.00    -0.167 F 
ATOM     26  F   UNL A   1      33.358  22.989  21.487  1.00  0.00    -0.167 F 
ENDBRANCH  22  23
ENDBRANCH   9  11
ENDBRANCH   8   9
ENDBRANCH   7   8
ENDBRANCH   6   7
ENDBRANCH   5   6
ENDBRANCH   4   5
ENDBRANCH   3   4
ENDBRANCH   2   3
ENDBRANCH   1   2
BRANCH   1  27
ATOM     27  C   UNL A   1      42.590  21.507  26.654  1.00  0.00     0.188 C 
BRANCH  27  28
ATOM     28  O   UNL A   1      42.543  21.965  25.310  1.00  0.00    -0.376 OA
BRANCH  28  29
ATOM     29  C   UNL A   1      43.352  23.071  24.950  1.00  0.00     0.202 C 
BRANCH  29  30
ATOM     30  C   UNL A   1      43.522  24.153  26.024  1.00  0.00     0.261 C 
BRANCH  30  31
ATOM     31  O   UNL A   1      43.322  25.504  25.583  1.00  0.00    -0.460 OA
BRANCH  31  32
ATOM     32  C   UNL A   1      42.089  26.030  25.738  1.00  0.00     0.338 C 
ATOM     33  O   UNL A   1      41.127  25.890  25.002  1.00  0.00    -0.246 OA
BRANCH  32  34
ATOM     34  C   UNL A   1      42.042  26.663  27.070  1.00  0.00     0.060 A 
ATOM     35  C   UNL A   1      41.129  26.186  28.020  1.00  0.00     0.016 A 
ATOM     36  C   UNL A   1      42.908  27.713  27.384  1.00  0.00     0.016 A 
ATOM     37  C   UNL A   1      41.056  26.783  29.277  1.00  0.00     0.010 A 
ATOM     38  C   UNL A   1      42.816  28.328  28.634  1.00  0.00     0.010 A 
ATOM     39  C   UNL A   1      41.865  27.888  29.571  1.00  0.00    -0.014 A 
BRANCH  39  40
ATOM     40  C   UNL A   1      41.559  28.723  30.756  1.00  0.00     0.031 A 
ATOM     41  C   UNL A   1      40.402  29.679  30.665  1.00  0.00     0.074 A 
ATOM     42  C   UNL A   1      42.262  28.618  31.897  1.00  0.00     0.049 A 
ATOM     43  N   UNL A   1      39.961  30.536  31.548  1.00  0.00    -0.248 NA
ATOM     44  C   UNL A   1      39.636  29.663  29.406  1.00  0.00     0.031 C 
ATOM     45  C   UNL A   1      43.360  27.683  32.135  1.00  0.00     0.029 A 
ATOM     46  N   UNL A   1      42.146  29.311  33.077  1.00  0.00    -0.354 N 
ATOM     47  C   UNL A   1      38.869  31.156  30.954  1.00  0.00     0.074 A 
ATOM     48  C   UNL A   1      38.734  30.606  29.624  1.00  0.00     0.031 C 
ATOM     49  C   UNL A   1      43.818  27.861  33.388  1.00  0.00     0.029 A 
ATOM     50  C   UNL A   1      43.071  28.946  34.024  1.00  0.00     0.049 A 
ATOM     51  H   UNL A   1      41.464  30.004  33.228  1.00  0.00     0.167 HD
ATOM     52  C   UNL A   1      38.045  32.096  31.472  1.00  0.00     0.031 A 
ATOM     53  C   UNL A   1      43.297  29.444  35.255  1.00  0.00     0.031 A 
ATOM     54  C   UNL A   1      38.190  32.658  32.786  1.00  0.00     0.049 A 
ATOM     55  C   UNL A   1      42.436  30.570  35.769  1.00  0.00     0.074 A 
ATOM     56  C   UNL A   1      37.409  33.622  33.398  1.00  0.00     0.029 A 
ATOM     57  N   UNL A   1      39.185  32.312  33.687  1.00  0.00    -0.354 N 
ATOM     58  N   UNL A   1      41.405  31.147  35.201  1.00  0.00    -0.248 NA
ATOM     59  C   UNL A   1      42.771  31.113  37.094  1.00  0.00     0.031 C 
ATOM     60  C   UNL A   1      37.968  33.904  34.647  1.00  0.00     0.029 A 
ATOM     61  C   UNL A   1      39.055  33.066  34.840  1.00  0.00     0.049 A 
ATOM     62  H   UNL A   1      39.878  31.632  33.530  1.00  0.00     0.167 HD
ATOM     63  C   UNL A   1      40.953  32.099  36.108  1.00  0.00     0.074 A 
ATOM     64  C   UNL A   1      41.811  32.011  37.270  1.00  0.00     0.031 C 
ATOM     65  C   UNL A   1      39.919  32.969  35.988  1.00  0.00     0.031 A 
BRANCH  52  66
ATOM     66  C   UNL A   1      36.925  32.594  30.604  1.00  0.00    -0.014 A 
ATOM     67  C   UNL A   1      35.642  32.029  30.678  1.00  0.00     0.009 A 
ATOM     68  C   UNL A   1      37.142  33.678  29.740  1.00  0.00     0.009 A 
ATOM     69  C   UNL A   1      34.603  32.530  29.889  1.00  0.00     0.001 A 
ATOM     70  C   UNL A   1      36.096  34.195  28.975  1.00  0.00     0.001 A 
ATOM     71  C   UNL A   1      34.829  33.616  29.046  1.00  0.00     0.000 A 
ENDBRANCH  52  66
BRANCH  53  72
ATOM     72  C   UNL A   1      44.395  28.891  36.092  1.00  0.00    -0.014 A 
ATOM     73  C   UNL A   1      45.681  29.452  36.048  1.00  0.00     0.009 A 
ATOM     74  C   UNL A   1      44.167  27.791  36.936  1.00  0.00     0.009 A 
ATOM     75  C   UNL A   1      46.716  28.916  36.819  1.00  0.00     0.001 A 
ATOM     76  C   UNL A   1      45.196  27.276  37.727  1.00  0.00     0.001 A 
ATOM     77  C   UNL A   1      46.471  27.834  37.663  1.00  0.00     0.000 A 
ENDBRANCH  53  72
BRANCH  65  78
ATOM     78  C   UNL A   1      39.634  33.883  37.149  1.00  0.00    -0.014 A 
ATOM     79  C   UNL A   1      40.000  35.237  37.115  1.00  0.00     0.009 A 
ATOM     80  C   UNL A   1      38.912  33.402  38.253  1.00  0.00     0.009 A 
ATOM     81  C   UNL A   1      39.670  36.084  38.175  1.00  0.00     0.001 A 
ATOM     82  C   UNL A   1      38.555  34.258  39.296  1.00  0.00     0.001 A 
ATOM     83  C   UNL A   1      38.941  35.596  39.259  1.00  0.00     0.000 A 
ENDBRANCH  65  78
ENDBRANCH  39  40
ENDBRANCH  32  34
ENDBRANCH  31  32
ENDBRANCH  30  31
ENDBRANCH  29  30
ENDBRANCH  28  29
ENDBRANCH  27  28
ENDBRANCH   1  27
TORSDOF 21
ENDMDL
