MODEL 1
REMARK VINA RESULT:      -8.3      0.000      0.000
REMARK SMILES CCOc1c(F)cccc1C(=O)OCCOCCOCCOCCOC(=O)c1ccc(-c2c3nc(c(-c4ccccc4)c4ccc([nH]4)c(-c4ccccc4)c4nc(c(-c5ccccc5)c5ccc2[nH]5)C=C4)C=C3)cc1
REMARK SMILES IDX 19 1 18 2 17 3 16 4 15 5 14 6 13 7 11 8 12 9 10 10 4 11 5 12
REMARK SMILES IDX 6 13 7 14 9 15 8 16 3 17 2 18 1 19 20 20 21 21 22 22 23 23
REMARK SMILES IDX 24 24 25 25 26 26 27 27 28 28 29 29 75 30 30 31 74 32 31 33
REMARK SMILES IDX 32 34 33 35 68 36 34 37 73 38 67 39 69 40 35 41 72 42 66 43
REMARK SMILES IDX 65 44 36 46 58 47 43 48 57 49 44 50 47 51 56 52 70 53 45 54
REMARK SMILES IDX 46 55 55 57 71 58 48 59 37 60 38 61 42 62 39 63 41 64 40 65
REMARK SMILES IDX 59 66 60 67 64 68 61 69 63 70 62 71 49 72 50 73 54 74 51 75
REMARK SMILES IDX 53 76 52 77
REMARK H PARENT 69 45 47 56
REMARK Flexibility Score: inf
ROOT
ATOM      1  O   UNL A   1      39.203  21.026  26.516  1.00  0.00    -0.377 OA
ENDROOT
BRANCH   1   2
ATOM      2  C   UNL A   1      38.695  22.108  25.743  1.00  0.00     0.188 C 
BRANCH   2   3
ATOM      3  C   UNL A   1      37.249  22.066  25.197  1.00  0.00     0.188 C 
BRANCH   3   4
ATOM      4  O   UNL A   1      36.286  22.648  26.056  1.00  0.00    -0.376 OA
BRANCH   4   5
ATOM      5  C   UNL A   1      35.217  21.844  26.518  1.00  0.00     0.202 C 
BRANCH   5   6
ATOM      6  C   UNL A   1      33.775  22.288  26.217  1.00  0.00     0.261 C 
BRANCH   6   7
ATOM      7  O   UNL A   1      33.242  23.309  27.073  1.00  0.00    -0.460 OA
BRANCH   7   8
ATOM      8  C   UNL A   1      32.170  23.983  26.605  1.00  0.00     0.342 C 
ATOM      9  O   UNL A   1      31.047  23.967  27.083  1.00  0.00    -0.246 OA
BRANCH   8  10
ATOM     10  C   UNL A   1      32.599  24.973  25.588  1.00  0.00     0.105 A 
ATOM     11  C   UNL A   1      32.399  24.827  24.211  1.00  0.00     0.169 A 
ATOM     12  C   UNL A   1      32.765  25.888  23.375  1.00  0.00     0.165 A 
ATOM     13  F   UNL A   1      32.439  25.880  22.076  1.00  0.00    -0.203 F 
ATOM     14  C   UNL A   1      33.438  27.006  23.859  1.00  0.00     0.043 A 
ATOM     15  C   UNL A   1      33.273  26.110  26.082  1.00  0.00     0.020 A 
ATOM     16  C   UNL A   1      33.720  27.107  25.216  1.00  0.00     0.004 A 
BRANCH  11  17
ATOM     17  O   UNL A   1      31.777  23.719  23.699  1.00  0.00    -0.490 OA
BRANCH  17  18
ATOM     18  C   UNL A   1      32.651  22.917  22.881  1.00  0.00     0.226 C 
ATOM     19  C   UNL A   1      32.046  21.554  22.568  1.00  0.00     0.049 C 
ENDBRANCH  17  18
ENDBRANCH  11  17
ENDBRANCH   8  10
ENDBRANCH   7   8
ENDBRANCH   6   7
ENDBRANCH   5   6
ENDBRANCH   4   5
ENDBRANCH   3   4
ENDBRANCH   2   3
ENDBRANCH   1   2
BRANCH   1  20
ATOM     20  C   UNL A   1      40.454  20.437  26.175  1.00  0.00     0.188 C 
BRANCH  20  21
ATOM     21  C   UNL A   1      41.712  20.684  27.039  1.00  0.00     0.188 C 
BRANCH  21  22
ATOM     22  O   UNL A   1      42.506  21.779  26.616  1.00  0.00    -0.376 OA
BRANCH  22  23
ATOM     23  C   UNL A   1      42.701  21.951  25.224  1.00  0.00     0.202 C 
BRANCH  23  24
ATOM     24  C   UNL A   1      43.984  22.666  24.771  1.00  0.00     0.261 C 
BRANCH  24  25
ATOM     25  O   UNL A   1      44.748  23.318  25.797  1.00  0.00    -0.460 OA
BRANCH  25  26
ATOM     26  C   UNL A   1      45.111  24.600  25.586  1.00  0.00     0.338 C 
ATOM     27  O   UNL A   1      45.861  25.025  24.722  1.00  0.00    -0.246 OA
BRANCH  26  28
ATOM     28  C   UNL A   1      44.288  25.444  26.476  1.00  0.00     0.060 A 
ATOM     29  C   UNL A   1      44.385  26.839  26.386  1.00  0.00     0.016 A 
ATOM     30  C   UNL A   1      43.408  24.853  27.386  1.00  0.00     0.016 A 
ATOM     31  C   UNL A   1      43.622  27.648  27.228  1.00  0.00     0.010 A 
ATOM     32  C   UNL A   1      42.662  25.662  28.244  1.00  0.00     0.010 A 
ATOM     33  C   UNL A   1      42.789  27.062  28.191  1.00  0.00    -0.014 A 
BRANCH  33  34
ATOM     34  C   UNL A   1      42.206  27.895  29.270  1.00  0.00     0.031 A 
ATOM     35  C   UNL A   1      42.905  27.925  30.601  1.00  0.00     0.074 A 
ATOM     36  C   UNL A   1      41.089  28.617  29.077  1.00  0.00     0.049 A 
ATOM     37  N   UNL A   1      42.559  28.527  31.710  1.00  0.00    -0.248 NA
ATOM     38  C   UNL A   1      44.166  27.170  30.694  1.00  0.00     0.031 C 
ATOM     39  C   UNL A   1      40.346  28.712  27.822  1.00  0.00     0.029 A 
ATOM     40  N   UNL A   1      40.382  29.405  29.950  1.00  0.00    -0.354 N 
ATOM     41  C   UNL A   1      43.551  28.216  32.632  1.00  0.00     0.074 A 
ATOM     42  C   UNL A   1      44.495  27.346  31.964  1.00  0.00     0.031 C 
ATOM     43  C   UNL A   1      39.277  29.506  28.010  1.00  0.00     0.029 A 
ATOM     44  C   UNL A   1      39.241  29.943  29.405  1.00  0.00     0.049 A 
ATOM     45  H   UNL A   1      40.665  29.569  30.879  1.00  0.00     0.167 HD
ATOM     46  C   UNL A   1      43.671  28.621  33.917  1.00  0.00     0.031 A 
ATOM     47  C   UNL A   1      38.268  30.680  29.976  1.00  0.00     0.031 A 
ATOM     48  C   UNL A   1      42.720  29.468  34.588  1.00  0.00     0.049 A 
ATOM     49  C   UNL A   1      38.374  31.041  31.437  1.00  0.00     0.074 A 
ATOM     50  C   UNL A   1      42.754  29.941  35.887  1.00  0.00     0.029 A 
ATOM     51  N   UNL A   1      41.557  29.958  34.013  1.00  0.00    -0.354 N 
ATOM     52  N   UNL A   1      39.328  30.762  32.292  1.00  0.00    -0.248 NA
ATOM     53  C   UNL A   1      37.269  31.827  32.006  1.00  0.00     0.031 C 
ATOM     54  C   UNL A   1      41.579  30.662  36.119  1.00  0.00     0.029 A 
ATOM     55  C   UNL A   1      40.850  30.703  34.941  1.00  0.00     0.049 A 
ATOM     56  H   UNL A   1      41.277  29.799  33.082  1.00  0.00     0.167 HD
ATOM     57  C   UNL A   1      38.955  31.366  33.489  1.00  0.00     0.074 A 
ATOM     58  C   UNL A   1      37.697  32.037  33.243  1.00  0.00     0.031 C 
ATOM     59  C   UNL A   1      39.598  31.367  34.683  1.00  0.00     0.031 A 
BRANCH  46  60
ATOM     60  C   UNL A   1      44.853  28.114  34.695  1.00  0.00    -0.014 A 
ATOM     61  C   UNL A   1      46.061  28.829  34.741  1.00  0.00     0.009 A 
ATOM     62  C   UNL A   1      44.749  26.914  35.414  1.00  0.00     0.009 A 
ATOM     63  C   UNL A   1      47.150  28.332  35.461  1.00  0.00     0.001 A 
ATOM     64  C   UNL A   1      45.827  26.436  36.160  1.00  0.00     0.001 A 
ATOM     65  C   UNL A   1      47.030  27.141  36.175  1.00  0.00     0.000 A 
ENDBRANCH  46  60
BRANCH  47  66
ATOM     66  C   UNL A   1      37.086  31.105  29.179  1.00  0.00    -0.014 A 
ATOM     67  C   UNL A   1      36.968  32.425  28.716  1.00  0.00     0.009 A 
ATOM     68  C   UNL A   1      36.052  30.198  28.901  1.00  0.00     0.009 A 
ATOM     69  C   UNL A   1      35.827  32.833  28.019  1.00  0.00     0.001 A 
ATOM     70  C   UNL A   1      34.928  30.598  28.174  1.00  0.00     0.001 A 
ATOM     71  C   UNL A   1      34.812  31.918  27.743  1.00  0.00     0.000 A 
ENDBRANCH  47  66
BRANCH  59  72
ATOM     72  C   UNL A   1      38.978  32.154  35.805  1.00  0.00    -0.014 A 
ATOM     73  C   UNL A   1      38.151  31.547  36.762  1.00  0.00     0.009 A 
ATOM     74  C   UNL A   1      39.267  33.523  35.932  1.00  0.00     0.009 A 
ATOM     75  C   UNL A   1      37.597  32.300  37.799  1.00  0.00     0.001 A 
ATOM     76  C   UNL A   1      38.742  34.267  36.989  1.00  0.00     0.001 A 
ATOM     77  C   UNL A   1      37.898  33.658  37.915  1.00  0.00     0.000 A 
ENDBRANCH  59  72
ENDBRANCH  33  34
ENDBRANCH  26  28
ENDBRANCH  25  26
ENDBRANCH  24  25
ENDBRANCH  23  24
ENDBRANCH  22  23
ENDBRANCH  21  22
ENDBRANCH  20  21
ENDBRANCH   1  20
TORSDOF 22
ENDMDL
MODEL 2
REMARK VINA RESULT:      -7.8      1.637      2.179
REMARK SMILES CCOc1c(F)cccc1C(=O)OCCOCCOCCOCCOC(=O)c1ccc(-c2c3nc(c(-c4ccccc4)c4ccc([nH]4)c(-c4ccccc4)c4nc(c(-c5ccccc5)c5ccc2[nH]5)C=C4)C=C3)cc1
REMARK SMILES IDX 19 1 18 2 17 3 16 4 15 5 14 6 13 7 11 8 12 9 10 10 4 11 5 12
REMARK SMILES IDX 6 13 7 14 9 15 8 16 3 17 2 18 1 19 20 20 21 21 22 22 23 23
REMARK SMILES IDX 24 24 25 25 26 26 27 27 28 28 29 29 75 30 30 31 74 32 31 33
REMARK SMILES IDX 32 34 33 35 68 36 34 37 73 38 67 39 69 40 35 41 72 42 66 43
REMARK SMILES IDX 65 44 36 46 58 47 43 48 57 49 44 50 47 51 56 52 70 53 45 54
REMARK SMILES IDX 46 55 55 57 71 58 48 59 37 60 38 61 42 62 39 63 41 64 40 65
REMARK SMILES IDX 59 66 60 67 64 68 61 69 63 70 62 71 49 72 50 73 54 74 51 75
REMARK SMILES IDX 53 76 52 77
REMARK H PARENT 69 45 47 56
REMARK Flexibility Score: inf
ROOT
ATOM      1  O   UNL A   1      38.558  21.390  26.196  1.00  0.00    -0.377 OA
ENDROOT
BRANCH   1   2
ATOM      2  C   UNL A   1      38.286  22.781  26.082  1.00  0.00     0.188 C 
BRANCH   2   3
ATOM      3  C   UNL A   1      37.194  23.286  25.111  1.00  0.00     0.188 C 
BRANCH   3   4
ATOM      4  O   UNL A   1      36.133  23.981  25.740  1.00  0.00    -0.376 OA
BRANCH   4   5
ATOM      5  C   UNL A   1      34.859  23.972  25.125  1.00  0.00     0.202 C 
BRANCH   5   6
ATOM      6  C   UNL A   1      33.910  25.158  25.372  1.00  0.00     0.261 C 
BRANCH   6   7
ATOM      7  O   UNL A   1      32.561  24.986  24.915  1.00  0.00    -0.460 OA
BRANCH   7   8
ATOM      8  C   UNL A   1      31.592  25.510  25.697  1.00  0.00     0.342 C 
ATOM      9  O   UNL A   1      31.527  25.424  26.913  1.00  0.00    -0.246 OA
BRANCH   8  10
ATOM     10  C   UNL A   1      30.756  26.446  24.908  1.00  0.00     0.105 A 
ATOM     11  C   UNL A   1      31.116  27.764  24.606  1.00  0.00     0.169 A 
ATOM     12  C   UNL A   1      30.276  28.501  23.764  1.00  0.00     0.165 A 
ATOM     13  F   UNL A   1      30.653  29.700  23.300  1.00  0.00    -0.203 F 
ATOM     14  C   UNL A   1      29.044  28.010  23.343  1.00  0.00     0.043 A 
ATOM     15  C   UNL A   1      29.512  25.943  24.474  1.00  0.00     0.020 A 
ATOM     16  C   UNL A   1      28.645  26.734  23.721  1.00  0.00     0.004 A 
BRANCH  11  17
ATOM     17  O   UNL A   1      32.304  28.291  25.041  1.00  0.00    -0.490 OA
BRANCH  17  18
ATOM     18  C   UNL A   1      32.203  28.885  26.350  1.00  0.00     0.226 C 
ATOM     19  C   UNL A   1      33.357  28.470  27.254  1.00  0.00     0.049 C 
ENDBRANCH  17  18
ENDBRANCH  11  17
ENDBRANCH   8  10
ENDBRANCH   7   8
ENDBRANCH   6   7
ENDBRANCH   5   6
ENDBRANCH   4   5
ENDBRANCH   3   4
ENDBRANCH   2   3
ENDBRANCH   1   2
BRANCH   1  20
ATOM     20  C   UNL A   1      39.803  20.870  25.739  1.00  0.00     0.188 C 
BRANCH  20  21
ATOM     21  C   UNL A   1      41.012  20.742  26.695  1.00  0.00     0.188 C 
BRANCH  21  22
ATOM     22  O   UNL A   1      41.687  21.962  26.949  1.00  0.00    -0.376 OA
BRANCH  22  23
ATOM     23  C   UNL A   1      42.133  22.712  25.834  1.00  0.00     0.202 C 
BRANCH  23  24
ATOM     24  C   UNL A   1      43.638  22.701  25.528  1.00  0.00     0.261 C 
BRANCH  24  25
ATOM     25  O   UNL A   1      44.520  22.613  26.658  1.00  0.00    -0.460 OA
BRANCH  25  26
ATOM     26  C   UNL A   1      45.335  23.661  26.897  1.00  0.00     0.338 C 
ATOM     27  O   UNL A   1      46.447  23.855  26.432  1.00  0.00    -0.246 OA
BRANCH  26  28
ATOM     28  C   UNL A   1      44.569  24.647  27.685  1.00  0.00     0.060 A 
ATOM     29  C   UNL A   1      44.696  26.012  27.393  1.00  0.00     0.016 A 
ATOM     30  C   UNL A   1      43.712  24.217  28.701  1.00  0.00     0.016 A 
ATOM     31  C   UNL A   1      43.987  26.954  28.138  1.00  0.00     0.010 A 
ATOM     32  C   UNL A   1      43.020  25.162  29.461  1.00  0.00     0.010 A 
ATOM     33  C   UNL A   1      43.179  26.536  29.204  1.00  0.00    -0.014 A 
BRANCH  33  34
ATOM     34  C   UNL A   1      42.660  27.531  30.172  1.00  0.00     0.031 A 
ATOM     35  C   UNL A   1      43.339  27.643  31.509  1.00  0.00     0.074 A 
ATOM     36  C   UNL A   1      41.617  28.325  29.875  1.00  0.00     0.049 A 
ATOM     37  N   UNL A   1      43.033  28.392  32.538  1.00  0.00    -0.248 NA
ATOM     38  C   UNL A   1      44.524  26.792  31.713  1.00  0.00     0.031 C 
ATOM     39  C   UNL A   1      40.903  28.349  28.600  1.00  0.00     0.029 A 
ATOM     40  N   UNL A   1      40.972  29.264  30.641  1.00  0.00    -0.354 N 
ATOM     41  C   UNL A   1      43.979  28.095  33.512  1.00  0.00     0.074 A 
ATOM     42  C   UNL A   1      44.848  27.076  32.965  1.00  0.00     0.031 C 
ATOM     43  C   UNL A   1      39.910  29.252  28.675  1.00  0.00     0.029 A 
ATOM     44  C   UNL A   1      39.894  29.840  30.014  1.00  0.00     0.049 A 
ATOM     45  H   UNL A   1      41.256  29.503  31.553  1.00  0.00     0.167 HD
ATOM     46  C   UNL A   1      44.117  28.626  34.749  1.00  0.00     0.031 A 
ATOM     47  C   UNL A   1      38.985  30.719  30.478  1.00  0.00     0.031 A 
ATOM     48  C   UNL A   1      43.238  29.623  35.301  1.00  0.00     0.049 A 
ATOM     49  C   UNL A   1      39.102  31.227  31.893  1.00  0.00     0.074 A 
ATOM     50  C   UNL A   1      43.297  30.230  36.542  1.00  0.00     0.029 A 
ATOM     51  N   UNL A   1      42.134  30.149  34.648  1.00  0.00    -0.354 N 
ATOM     52  N   UNL A   1      40.014  30.959  32.797  1.00  0.00    -0.248 NA
ATOM     53  C   UNL A   1      38.066  32.166  32.347  1.00  0.00     0.031 C 
ATOM     54  C   UNL A   1      42.190  31.075  36.667  1.00  0.00     0.029 A 
ATOM     55  C   UNL A   1      41.486  31.052  35.474  1.00  0.00     0.049 A 
ATOM     56  H   UNL A   1      41.854  29.916  33.733  1.00  0.00     0.167 HD
ATOM     57  C   UNL A   1      39.680  31.720  33.912  1.00  0.00     0.074 A 
ATOM     58  C   UNL A   1      38.493  32.471  33.565  1.00  0.00     0.031 C 
ATOM     59  C   UNL A   1      40.304  31.794  35.115  1.00  0.00     0.031 A 
BRANCH  46  60
ATOM     60  C   UNL A   1      45.235  28.103  35.606  1.00  0.00    -0.014 A 
ATOM     61  C   UNL A   1      46.504  28.706  35.604  1.00  0.00     0.009 A 
ATOM     62  C   UNL A   1      45.011  27.002  36.447  1.00  0.00     0.009 A 
ATOM     63  C   UNL A   1      47.532  28.195  36.399  1.00  0.00     0.001 A 
ATOM     64  C   UNL A   1      46.030  26.514  37.266  1.00  0.00     0.001 A 
ATOM     65  C   UNL A   1      47.292  27.105  37.234  1.00  0.00     0.000 A 
ENDBRANCH  46  60
BRANCH  47  66
ATOM     66  C   UNL A   1      37.859  31.160  29.611  1.00  0.00    -0.014 A 
ATOM     67  C   UNL A   1      37.846  32.444  29.046  1.00  0.00     0.009 A 
ATOM     68  C   UNL A   1      36.773  30.304  29.367  1.00  0.00     0.009 A 
ATOM     69  C   UNL A   1      36.757  32.872  28.282  1.00  0.00     0.001 A 
ATOM     70  C   UNL A   1      35.701  30.722  28.574  1.00  0.00     0.001 A 
ATOM     71  C   UNL A   1      35.689  32.009  28.041  1.00  0.00     0.000 A 
ENDBRANCH  47  66
BRANCH  59  72
ATOM     72  C   UNL A   1      39.742  32.752  36.131  1.00  0.00    -0.014 A 
ATOM     73  C   UNL A   1      38.750  32.361  37.042  1.00  0.00     0.009 A 
ATOM     74  C   UNL A   1      40.253  34.058  36.204  1.00  0.00     0.009 A 
ATOM     75  C   UNL A   1      38.255  33.268  37.981  1.00  0.00     0.001 A 
ATOM     76  C   UNL A   1      39.782  34.953  37.166  1.00  0.00     0.001 A 
ATOM     77  C   UNL A   1      38.775  34.561  38.046  1.00  0.00     0.000 A 
ENDBRANCH  59  72
ENDBRANCH  33  34
ENDBRANCH  26  28
ENDBRANCH  25  26
ENDBRANCH  24  25
ENDBRANCH  23  24
ENDBRANCH  22  23
ENDBRANCH  21  22
ENDBRANCH  20  21
ENDBRANCH   1  20
TORSDOF 22
ENDMDL
MODEL 3
REMARK VINA RESULT:      -7.8      1.946      2.674
REMARK SMILES CCOc1c(F)cccc1C(=O)OCCOCCOCCOCCOC(=O)c1ccc(-c2c3nc(c(-c4ccccc4)c4ccc([nH]4)c(-c4ccccc4)c4nc(c(-c5ccccc5)c5ccc2[nH]5)C=C4)C=C3)cc1
REMARK SMILES IDX 19 1 18 2 17 3 16 4 15 5 14 6 13 7 11 8 12 9 10 10 4 11 5 12
REMARK SMILES IDX 6 13 7 14 9 15 8 16 3 17 2 18 1 19 20 20 21 21 22 22 23 23
REMARK SMILES IDX 24 24 25 25 26 26 27 27 28 28 29 29 75 30 30 31 74 32 31 33
REMARK SMILES IDX 32 34 33 35 68 36 34 37 73 38 67 39 69 40 35 41 72 42 66 43
REMARK SMILES IDX 65 44 36 46 58 47 43 48 57 49 44 50 47 51 56 52 70 53 45 54
REMARK SMILES IDX 46 55 55 57 71 58 48 59 37 60 38 61 42 62 39 63 41 64 40 65
REMARK SMILES IDX 59 66 60 67 64 68 61 69 63 70 62 71 49 72 50 73 54 74 51 75
REMARK SMILES IDX 53 76 52 77
REMARK H PARENT 69 45 47 56
REMARK Flexibility Score: inf
ROOT
ATOM      1  O   UNL A   1      39.289  21.618  26.596  1.00  0.00    -0.377 OA
ENDROOT
BRANCH   1   2
ATOM      2  C   UNL A   1      38.200  21.955  25.744  1.00  0.00     0.188 C 
BRANCH   2   3
ATOM      3  C   UNL A   1      37.702  23.416  25.655  1.00  0.00     0.188 C 
BRANCH   3   4
ATOM      4  O   UNL A   1      36.560  23.690  26.448  1.00  0.00    -0.376 OA
BRANCH   4   5
ATOM      5  C   UNL A   1      35.391  22.922  26.239  1.00  0.00     0.202 C 
BRANCH   5   6
ATOM      6  C   UNL A   1      34.089  23.355  26.934  1.00  0.00     0.261 C 
BRANCH   6   7
ATOM      7  O   UNL A   1      33.092  22.334  27.088  1.00  0.00    -0.460 OA
BRANCH   7   8
ATOM      8  C   UNL A   1      31.932  22.524  26.423  1.00  0.00     0.342 C 
ATOM      9  O   UNL A   1      30.906  22.995  26.888  1.00  0.00    -0.246 OA
BRANCH   8  10
ATOM     10  C   UNL A   1      32.148  22.341  24.968  1.00  0.00     0.105 A 
ATOM     11  C   UNL A   1      32.105  21.104  24.313  1.00  0.00     0.169 A 
ATOM     12  C   UNL A   1      32.225  21.092  22.919  1.00  0.00     0.165 A 
ATOM     13  F   UNL A   1      32.018  19.966  22.224  1.00  0.00    -0.203 F 
ATOM     14  C   UNL A   1      32.521  22.245  22.197  1.00  0.00     0.043 A 
ATOM     15  C   UNL A   1      32.438  23.511  24.236  1.00  0.00     0.020 A 
ATOM     16  C   UNL A   1      32.656  23.458  22.860  1.00  0.00     0.004 A 
BRANCH  11  17
ATOM     17  O   UNL A   1      31.858  19.946  25.002  1.00  0.00    -0.490 OA
BRANCH  17  18
ATOM     18  C   UNL A   1      33.064  19.293  25.444  1.00  0.00     0.226 C 
ATOM     19  C   UNL A   1      33.651  18.392  24.363  1.00  0.00     0.049 C 
ENDBRANCH  17  18
ENDBRANCH  11  17
ENDBRANCH   8  10
ENDBRANCH   7   8
ENDBRANCH   6   7
ENDBRANCH   5   6
ENDBRANCH   4   5
ENDBRANCH   3   4
ENDBRANCH   2   3
ENDBRANCH   1   2
BRANCH   1  20
ATOM     20  C   UNL A   1      40.361  20.825  26.096  1.00  0.00     0.188 C 
BRANCH  20  21
ATOM     21  C   UNL A   1      40.297  19.280  26.140  1.00  0.00     0.188 C 
BRANCH  21  22
ATOM     22  O   UNL A   1      41.486  18.633  25.721  1.00  0.00    -0.376 OA
BRANCH  22  23
ATOM     23  C   UNL A   1      42.719  19.181  26.150  1.00  0.00     0.202 C 
BRANCH  23  24
ATOM     24  C   UNL A   1      43.655  19.750  25.073  1.00  0.00     0.261 C 
BRANCH  24  25
ATOM     25  O   UNL A   1      43.812  21.177  25.052  1.00  0.00    -0.460 OA
BRANCH  25  26
ATOM     26  C   UNL A   1      44.830  21.704  25.763  1.00  0.00     0.338 C 
ATOM     27  O   UNL A   1      46.018  21.443  25.660  1.00  0.00    -0.246 OA
BRANCH  26  28
ATOM     28  C   UNL A   1      44.278  22.808  26.574  1.00  0.00     0.060 A 
ATOM     29  C   UNL A   1      44.539  24.134  26.202  1.00  0.00     0.016 A 
ATOM     30  C   UNL A   1      43.489  22.529  27.692  1.00  0.00     0.016 A 
ATOM     31  C   UNL A   1      44.033  25.186  26.966  1.00  0.00     0.010 A 
ATOM     32  C   UNL A   1      43.002  23.581  28.469  1.00  0.00     0.010 A 
ATOM     33  C   UNL A   1      43.299  24.913  28.128  1.00  0.00    -0.014 A 
BRANCH  33  34
ATOM     34  C   UNL A   1      43.011  26.002  29.093  1.00  0.00     0.031 A 
ATOM     35  C   UNL A   1      43.999  26.252  30.198  1.00  0.00     0.074 A 
ATOM     36  C   UNL A   1      41.906  26.759  28.990  1.00  0.00     0.049 A 
ATOM     37  N   UNL A   1      43.940  27.101  31.191  1.00  0.00    -0.248 NA
ATOM     38  C   UNL A   1      45.220  25.428  30.182  1.00  0.00     0.031 C 
ATOM     39  C   UNL A   1      40.896  26.652  27.939  1.00  0.00     0.029 A 
ATOM     40  N   UNL A   1      41.447  27.771  29.797  1.00  0.00    -0.354 N 
ATOM     41  C   UNL A   1      45.106  26.907  31.921  1.00  0.00     0.074 A 
ATOM     42  C   UNL A   1      45.839  25.839  31.277  1.00  0.00     0.031 C 
ATOM     43  C   UNL A   1      39.929  27.556  28.171  1.00  0.00     0.029 A 
ATOM     44  C   UNL A   1      40.231  28.278  29.407  1.00  0.00     0.049 A 
ATOM     45  H   UNL A   1      41.943  28.102  30.580  1.00  0.00     0.167 HD
ATOM     46  C   UNL A   1      45.534  27.562  33.025  1.00  0.00     0.031 A 
ATOM     47  C   UNL A   1      39.443  29.199  29.995  1.00  0.00     0.031 A 
ATOM     48  C   UNL A   1      44.794  28.609  33.679  1.00  0.00     0.049 A 
ATOM     49  C   UNL A   1      39.896  29.849  31.278  1.00  0.00     0.074 A 
ATOM     50  C   UNL A   1      45.145  29.341  34.799  1.00  0.00     0.029 A 
ATOM     51  N   UNL A   1      43.549  29.064  33.276  1.00  0.00    -0.354 N 
ATOM     52  N   UNL A   1      41.012  29.676  31.946  1.00  0.00    -0.248 NA
ATOM     53  C   UNL A   1      38.982  30.828  31.883  1.00  0.00     0.031 C 
ATOM     54  C   UNL A   1      44.081  30.192  35.114  1.00  0.00     0.029 A 
ATOM     55  C   UNL A   1      43.102  30.045  34.144  1.00  0.00     0.049 A 
ATOM     56  H   UNL A   1      43.055  28.738  32.488  1.00  0.00     0.167 HD
ATOM     57  C   UNL A   1      40.947  30.547  33.028  1.00  0.00     0.074 A 
ATOM     58  C   UNL A   1      39.690  31.257  32.918  1.00  0.00     0.031 C 
ATOM     59  C   UNL A   1      41.848  30.745  34.022  1.00  0.00     0.031 A 
BRANCH  46  60
ATOM     60  C   UNL A   1      46.845  27.131  33.621  1.00  0.00    -0.014 A 
ATOM     61  C   UNL A   1      48.068  27.623  33.135  1.00  0.00     0.009 A 
ATOM     62  C   UNL A   1      46.857  26.236  34.702  1.00  0.00     0.009 A 
ATOM     63  C   UNL A   1      49.274  27.199  33.696  1.00  0.00     0.001 A 
ATOM     64  C   UNL A   1      48.063  25.840  35.283  1.00  0.00     0.001 A 
ATOM     65  C   UNL A   1      49.270  26.314  34.774  1.00  0.00     0.000 A 
ENDBRANCH  46  60
BRANCH  47  66
ATOM     66  C   UNL A   1      38.125  29.546  29.399  1.00  0.00    -0.014 A 
ATOM     67  C   UNL A   1      38.041  30.106  28.115  1.00  0.00     0.009 A 
ATOM     68  C   UNL A   1      36.941  29.346  30.127  1.00  0.00     0.009 A 
ATOM     69  C   UNL A   1      36.805  30.485  27.586  1.00  0.00     0.001 A 
ATOM     70  C   UNL A   1      35.703  29.694  29.582  1.00  0.00     0.001 A 
ATOM     71  C   UNL A   1      35.637  30.273  28.316  1.00  0.00     0.000 A 
ENDBRANCH  47  66
BRANCH  59  72
ATOM     72  C   UNL A   1      41.533  31.801  35.047  1.00  0.00    -0.014 A 
ATOM     73  C   UNL A   1      40.701  31.536  36.145  1.00  0.00     0.009 A 
ATOM     74  C   UNL A   1      42.119  33.072  34.932  1.00  0.00     0.009 A 
ATOM     75  C   UNL A   1      40.433  32.533  37.086  1.00  0.00     0.001 A 
ATOM     76  C   UNL A   1      41.879  34.056  35.892  1.00  0.00     0.001 A 
ATOM     77  C   UNL A   1      41.027  33.789  36.963  1.00  0.00     0.000 A 
ENDBRANCH  59  72
ENDBRANCH  33  34
ENDBRANCH  26  28
ENDBRANCH  25  26
ENDBRANCH  24  25
ENDBRANCH  23  24
ENDBRANCH  22  23
ENDBRANCH  21  22
ENDBRANCH  20  21
ENDBRANCH   1  20
TORSDOF 22
ENDMDL
