MODEL 1
REMARK VINA RESULT:      -8.9      0.000      0.000
REMARK SMILES O=C(C[C@@H](c1ccccc1)[NH+]1CCCCC1)OCCOCCOCCOCCOC(=O)c1ccc(-c2c3nc(c(-c4ccccc4)c4ccc([nH]4)c(-c4ccccc4)c4nc(c(-c5ccccc5)c5ccc2[nH]5)C=C4)C=C3)cc1
REMARK SMILES IDX 23 1 22 2 21 3 20 4 19 5 18 6 17 7 2 8 1 9 3 10 4 11 5 12
REMARK SMILES IDX 6 13 10 14 7 15 9 16 8 17 11 18 12 19 16 20 13 22 15 23
REMARK SMILES IDX 14 24 24 25 25 26 26 27 27 28 28 29 29 30 30 31 31 32 32 33
REMARK SMILES IDX 33 34 79 35 34 36 78 37 35 38 36 39 37 40 72 41 38 42 77 43
REMARK SMILES IDX 71 44 73 45 39 46 76 47 70 48 69 49 40 51 62 52 47 53 61 54
REMARK SMILES IDX 48 55 51 56 60 57 74 58 49 59 50 60 59 62 75 63 52 64 41 65
REMARK SMILES IDX 42 66 46 67 43 68 45 69 44 70 63 71 64 72 68 73 65 74 67 75
REMARK SMILES IDX 66 76 53 77 54 78 58 79 55 80 57 81 56 82
REMARK H PARENT 11 21 73 50 51 61
REMARK Flexibility Score: inf
ROOT
ATOM      1  O   UNL A   1      33.692  20.674  24.498  1.00  0.00    -0.377 OA
ENDROOT
BRANCH   1   2
ATOM      2  C   UNL A   1      32.619  20.597  25.425  1.00  0.00     0.188 C 
BRANCH   2   3
ATOM      3  C   UNL A   1      31.517  21.607  25.154  1.00  0.00     0.188 C 
BRANCH   3   4
ATOM      4  O   UNL A   1      31.805  22.954  25.478  1.00  0.00    -0.376 OA
BRANCH   4   5
ATOM      5  C   UNL A   1      31.832  24.014  24.539  1.00  0.00     0.202 C 
BRANCH   5   6
ATOM      6  C   UNL A   1      32.776  24.044  23.344  1.00  0.00     0.261 C 
BRANCH   6   7
ATOM      7  O   UNL A   1      33.294  25.319  22.961  1.00  0.00    -0.463 OA
BRANCH   7   8
ATOM      8  C   UNL A   1      32.582  26.055  22.069  1.00  0.00     0.312 C 
ATOM      9  O   UNL A   1      32.385  25.664  20.924  1.00  0.00    -0.252 OA
BRANCH   8  10
ATOM     10  C   UNL A   1      32.314  27.467  22.505  1.00  0.00     0.192 C 
BRANCH  10  11
ATOM     11  C   UNL A   1      31.460  27.629  23.765  1.00  0.00     0.226 C 
BRANCH  11  12
ATOM     12  C   UNL A   1      32.261  28.073  24.998  1.00  0.00     0.010 A 
ATOM     13  C   UNL A   1      33.660  28.203  25.006  1.00  0.00     0.010 A 
ATOM     14  C   UNL A   1      31.581  28.318  26.206  1.00  0.00     0.010 A 
ATOM     15  C   UNL A   1      34.359  28.456  26.192  1.00  0.00     0.001 A 
ATOM     16  C   UNL A   1      32.276  28.610  27.383  1.00  0.00     0.001 A 
ATOM     17  C   UNL A   1      33.667  28.651  27.382  1.00  0.00     0.000 A 
ENDBRANCH  11  12
BRANCH  11  18
ATOM     18  N   UNL A   1      30.266  28.500  23.537  1.00  0.00    -0.328 N 
ATOM     19  C   UNL A   1      30.452  29.596  22.561  1.00  0.00     0.262 C 
ATOM     20  C   UNL A   1      29.103  27.682  23.166  1.00  0.00     0.262 C 
ATOM     21  H   UNL A   1      30.111  28.968  24.430  1.00  0.00     0.348 HD
ATOM     22  C   UNL A   1      29.224  30.502  22.476  1.00  0.00     0.062 C 
ATOM     23  C   UNL A   1      27.834  28.529  23.125  1.00  0.00     0.062 C 
ATOM     24  C   UNL A   1      27.973  29.695  22.156  1.00  0.00     0.012 C 
ENDBRANCH  11  18
ENDBRANCH  10  11
ENDBRANCH   8  10
ENDBRANCH   7   8
ENDBRANCH   6   7
ENDBRANCH   5   6
ENDBRANCH   4   5
ENDBRANCH   3   4
ENDBRANCH   2   3
ENDBRANCH   1   2
BRANCH   1  25
ATOM     25  C   UNL A   1      34.966  20.900  25.078  1.00  0.00     0.188 C 
BRANCH  25  26
ATOM     26  C   UNL A   1      35.017  21.834  26.316  1.00  0.00     0.188 C 
BRANCH  26  27
ATOM     27  O   UNL A   1      35.924  22.921  26.428  1.00  0.00    -0.376 OA
BRANCH  27  28
ATOM     28  C   UNL A   1      36.735  23.284  25.329  1.00  0.00     0.202 C 
BRANCH  28  29
ATOM     29  C   UNL A   1      38.035  22.497  25.093  1.00  0.00     0.261 C 
BRANCH  29  30
ATOM     30  O   UNL A   1      38.746  22.108  26.281  1.00  0.00    -0.460 OA
BRANCH  30  31
ATOM     31  C   UNL A   1      39.993  22.638  26.421  1.00  0.00     0.338 C 
ATOM     32  O   UNL A   1      41.034  22.164  26.034  1.00  0.00    -0.246 OA
BRANCH  31  33
ATOM     33  C   UNL A   1      39.884  24.026  26.954  1.00  0.00     0.060 A 
ATOM     34  C   UNL A   1      40.537  25.045  26.243  1.00  0.00     0.016 A 
ATOM     35  C   UNL A   1      39.147  24.341  28.098  1.00  0.00     0.016 A 
ATOM     36  C   UNL A   1      40.503  26.362  26.697  1.00  0.00     0.010 A 
ATOM     37  C   UNL A   1      39.136  25.661  28.573  1.00  0.00     0.010 A 
ATOM     38  C   UNL A   1      39.857  26.666  27.901  1.00  0.00    -0.014 A 
BRANCH  38  39
ATOM     39  C   UNL A   1      40.206  27.939  28.585  1.00  0.00     0.031 A 
ATOM     40  C   UNL A   1      41.630  28.106  29.054  1.00  0.00     0.074 A 
ATOM     41  C   UNL A   1      39.333  28.953  28.718  1.00  0.00     0.049 A 
ATOM     42  N   UNL A   1      42.197  29.122  29.652  1.00  0.00    -0.248 NA
ATOM     43  C   UNL A   1      42.537  26.971  28.805  1.00  0.00     0.031 C 
ATOM     44  C   UNL A   1      37.947  28.953  28.256  1.00  0.00     0.029 A 
ATOM     45  N   UNL A   1      39.500  30.195  29.282  1.00  0.00    -0.354 N 
ATOM     46  C   UNL A   1      43.523  28.750  29.844  1.00  0.00     0.074 A 
ATOM     47  C   UNL A   1      43.665  27.402  29.342  1.00  0.00     0.031 C 
ATOM     48  C   UNL A   1      37.385  30.136  28.566  1.00  0.00     0.029 A 
ATOM     49  C   UNL A   1      38.364  30.968  29.266  1.00  0.00     0.049 A 
ATOM     50  H   UNL A   1      40.354  30.502  29.663  1.00  0.00     0.167 HD
ATOM     51  C   UNL A   1      44.541  29.466  30.374  1.00  0.00     0.031 A 
ATOM     52  C   UNL A   1      38.139  32.196  29.774  1.00  0.00     0.031 A 
ATOM     53  C   UNL A   1      44.405  30.796  30.898  1.00  0.00     0.049 A 
ATOM     54  C   UNL A   1      39.264  32.937  30.453  1.00  0.00     0.074 A 
ATOM     55  C   UNL A   1      45.374  31.597  31.477  1.00  0.00     0.029 A 
ATOM     56  N   UNL A   1      43.224  31.520  30.910  1.00  0.00    -0.354 N 
ATOM     57  N   UNL A   1      40.515  32.579  30.617  1.00  0.00    -0.248 NA
ATOM     58  C   UNL A   1      38.947  34.265  31.003  1.00  0.00     0.031 C 
ATOM     59  C   UNL A   1      44.765  32.788  31.888  1.00  0.00     0.029 A 
ATOM     60  C   UNL A   1      43.434  32.752  31.505  1.00  0.00     0.049 A 
ATOM     61  H   UNL A   1      42.364  31.205  30.550  1.00  0.00     0.167 HD
ATOM     62  C   UNL A   1      41.137  33.644  31.259  1.00  0.00     0.074 A 
ATOM     63  C   UNL A   1      40.132  34.672  31.434  1.00  0.00     0.031 C 
ATOM     64  C   UNL A   1      42.424  33.764  31.669  1.00  0.00     0.031 A 
BRANCH  51  65
ATOM     65  C   UNL A   1      45.887  28.802  30.438  1.00  0.00    -0.014 A 
ATOM     66  C   UNL A   1      46.810  28.926  29.386  1.00  0.00     0.009 A 
ATOM     67  C   UNL A   1      46.245  28.055  31.571  1.00  0.00     0.009 A 
ATOM     68  C   UNL A   1      48.051  28.290  29.455  1.00  0.00     0.001 A 
ATOM     69  C   UNL A   1      47.498  27.446  31.651  1.00  0.00     0.001 A 
ATOM     70  C   UNL A   1      48.397  27.557  30.589  1.00  0.00     0.000 A 
ENDBRANCH  51  65
BRANCH  52  71
ATOM     71  C   UNL A   1      36.782  32.807  29.698  1.00  0.00    -0.014 A 
ATOM     72  C   UNL A   1      36.438  33.683  28.656  1.00  0.00     0.009 A 
ATOM     73  C   UNL A   1      35.841  32.560  30.710  1.00  0.00     0.009 A 
ATOM     74  C   UNL A   1      35.197  34.324  28.650  1.00  0.00     0.001 A 
ATOM     75  C   UNL A   1      34.588  33.177  30.683  1.00  0.00     0.001 A 
ATOM     76  C   UNL A   1      34.272  34.068  29.660  1.00  0.00     0.000 A 
ENDBRANCH  52  71
BRANCH  64  77
ATOM     77  C   UNL A   1      42.830  35.067  32.304  1.00  0.00    -0.014 A 
ATOM     78  C   UNL A   1      42.641  35.307  33.674  1.00  0.00     0.009 A 
ATOM     79  C   UNL A   1      43.442  36.059  31.520  1.00  0.00     0.009 A 
ATOM     80  C   UNL A   1      43.015  36.531  34.236  1.00  0.00     0.001 A 
ATOM     81  C   UNL A   1      43.846  37.267  32.090  1.00  0.00     0.001 A 
ATOM     82  C   UNL A   1      43.620  37.507  33.445  1.00  0.00     0.000 A 
ENDBRANCH  64  77
ENDBRANCH  38  39
ENDBRANCH  31  33
ENDBRANCH  30  31
ENDBRANCH  29  30
ENDBRANCH  28  29
ENDBRANCH  27  28
ENDBRANCH  26  27
ENDBRANCH  25  26
ENDBRANCH   1  25
TORSDOF 23
ENDMDL
MODEL 2
REMARK VINA RESULT:      -8.8      4.095      9.022
REMARK SMILES O=C(C[C@@H](c1ccccc1)[NH+]1CCCCC1)OCCOCCOCCOCCOC(=O)c1ccc(-c2c3nc(c(-c4ccccc4)c4ccc([nH]4)c(-c4ccccc4)c4nc(c(-c5ccccc5)c5ccc2[nH]5)C=C4)C=C3)cc1
REMARK SMILES IDX 23 1 22 2 21 3 20 4 19 5 18 6 17 7 2 8 1 9 3 10 4 11 5 12
REMARK SMILES IDX 6 13 10 14 7 15 9 16 8 17 11 18 12 19 16 20 13 22 15 23
REMARK SMILES IDX 14 24 24 25 25 26 26 27 27 28 28 29 29 30 30 31 31 32 32 33
REMARK SMILES IDX 33 34 79 35 34 36 78 37 35 38 36 39 37 40 72 41 38 42 77 43
REMARK SMILES IDX 71 44 73 45 39 46 76 47 70 48 69 49 40 51 62 52 47 53 61 54
REMARK SMILES IDX 48 55 51 56 60 57 74 58 49 59 50 60 59 62 75 63 52 64 41 65
REMARK SMILES IDX 42 66 46 67 43 68 45 69 44 70 63 71 64 72 68 73 65 74 67 75
REMARK SMILES IDX 66 76 53 77 54 78 58 79 55 80 57 81 56 82
REMARK H PARENT 11 21 73 50 51 61
REMARK Flexibility Score: inf
ROOT
ATOM      1  O   UNL A   1      34.180  35.055  29.634  1.00  0.00    -0.377 OA
ENDROOT
BRANCH   1   2
ATOM      2  C   UNL A   1      34.469  33.667  29.557  1.00  0.00     0.188 C 
BRANCH   2   3
ATOM      3  C   UNL A   1      34.941  33.227  28.182  1.00  0.00     0.188 C 
BRANCH   3   4
ATOM      4  O   UNL A   1      34.137  32.273  27.515  1.00  0.00    -0.376 OA
BRANCH   4   5
ATOM      5  C   UNL A   1      34.319  30.871  27.603  1.00  0.00     0.202 C 
BRANCH   5   6
ATOM      6  C   UNL A   1      33.413  29.868  26.901  1.00  0.00     0.261 C 
BRANCH   6   7
ATOM      7  O   UNL A   1      33.420  28.529  27.402  1.00  0.00    -0.463 OA
BRANCH   7   8
ATOM      8  C   UNL A   1      32.281  27.799  27.285  1.00  0.00     0.312 C 
ATOM      9  O   UNL A   1      31.369  27.895  28.098  1.00  0.00    -0.252 OA
BRANCH   8  10
ATOM     10  C   UNL A   1      32.356  26.693  26.271  1.00  0.00     0.192 C 
BRANCH  10  11
ATOM     11  C   UNL A   1      31.014  26.141  25.782  1.00  0.00     0.226 C 
BRANCH  11  12
ATOM     12  C   UNL A   1      30.352  27.003  24.697  1.00  0.00     0.010 A 
ATOM     13  C   UNL A   1      30.945  28.157  24.157  1.00  0.00     0.010 A 
ATOM     14  C   UNL A   1      29.063  26.666  24.244  1.00  0.00     0.010 A 
ATOM     15  C   UNL A   1      30.240  28.998  23.289  1.00  0.00     0.001 A 
ATOM     16  C   UNL A   1      28.372  27.484  23.346  1.00  0.00     0.001 A 
ATOM     17  C   UNL A   1      28.951  28.666  22.890  1.00  0.00     0.000 A 
ENDBRANCH  11  12
BRANCH  11  18
ATOM     18  N   UNL A   1      31.104  24.706  25.370  1.00  0.00    -0.328 N 
ATOM     19  C   UNL A   1      32.400  24.289  24.789  1.00  0.00     0.262 C 
ATOM     20  C   UNL A   1      30.747  23.830  26.495  1.00  0.00     0.262 C 
ATOM     21  H   UNL A   1      30.433  24.612  24.608  1.00  0.00     0.348 HD
ATOM     22  C   UNL A   1      32.365  22.844  24.293  1.00  0.00     0.062 C 
ATOM     23  C   UNL A   1      30.640  22.378  26.039  1.00  0.00     0.062 C 
ATOM     24  C   UNL A   1      31.937  21.896  25.404  1.00  0.00     0.012 C 
ENDBRANCH  11  18
ENDBRANCH  10  11
ENDBRANCH   8  10
ENDBRANCH   7   8
ENDBRANCH   6   7
ENDBRANCH   5   6
ENDBRANCH   4   5
ENDBRANCH   3   4
ENDBRANCH   2   3
ENDBRANCH   1   2
BRANCH   1  25
ATOM     25  C   UNL A   1      33.370  35.436  30.734  1.00  0.00     0.188 C 
BRANCH  25  26
ATOM     26  C   UNL A   1      34.107  35.862  32.032  1.00  0.00     0.188 C 
BRANCH  26  27
ATOM     27  O   UNL A   1      33.968  35.167  33.263  1.00  0.00    -0.376 OA
BRANCH  27  28
ATOM     28  C   UNL A   1      33.749  33.771  33.267  1.00  0.00     0.202 C 
BRANCH  28  29
ATOM     29  C   UNL A   1      34.948  32.846  32.997  1.00  0.00     0.261 C 
BRANCH  29  30
ATOM     30  O   UNL A   1      36.087  33.045  33.853  1.00  0.00    -0.460 OA
BRANCH  30  31
ATOM     31  C   UNL A   1      37.139  33.701  33.291  1.00  0.00     0.338 C 
ATOM     32  O   UNL A   1      37.550  34.800  33.577  1.00  0.00    -0.246 OA
BRANCH  31  33
ATOM     33  C   UNL A   1      37.873  32.774  32.383  1.00  0.00     0.060 A 
ATOM     34  C   UNL A   1      38.763  31.862  32.971  1.00  0.00     0.016 A 
ATOM     35  C   UNL A   1      37.686  32.768  30.997  1.00  0.00     0.016 A 
ATOM     36  C   UNL A   1      39.504  30.984  32.182  1.00  0.00     0.010 A 
ATOM     37  C   UNL A   1      38.453  31.906  30.200  1.00  0.00     0.010 A 
ATOM     38  C   UNL A   1      39.402  31.048  30.787  1.00  0.00    -0.014 A 
BRANCH  38  39
ATOM     39  C   UNL A   1      40.493  30.450  29.973  1.00  0.00     0.031 A 
ATOM     40  C   UNL A   1      41.711  31.303  29.714  1.00  0.00     0.074 A 
ATOM     41  C   UNL A   1      40.464  29.176  29.546  1.00  0.00     0.049 A 
ATOM     42  N   UNL A   1      42.807  31.015  29.060  1.00  0.00    -0.248 NA
ATOM     43  C   UNL A   1      41.687  32.663  30.280  1.00  0.00     0.031 C 
ATOM     44  C   UNL A   1      39.382  28.222  29.777  1.00  0.00     0.029 A 
ATOM     45  N   UNL A   1      41.393  28.464  28.824  1.00  0.00    -0.354 N 
ATOM     46  C   UNL A   1      43.600  32.154  29.141  1.00  0.00     0.074 A 
ATOM     47  C   UNL A   1      42.845  33.150  29.866  1.00  0.00     0.031 C 
ATOM     48  C   UNL A   1      39.705  27.050  29.199  1.00  0.00     0.029 A 
ATOM     49  C   UNL A   1      41.004  27.178  28.538  1.00  0.00     0.049 A 
ATOM     50  H   UNL A   1      42.257  28.840  28.539  1.00  0.00     0.167 HD
ATOM     51  C   UNL A   1      44.852  32.355  28.671  1.00  0.00     0.031 A 
ATOM     52  C   UNL A   1      41.620  26.222  27.813  1.00  0.00     0.031 A 
ATOM     53  C   UNL A   1      45.602  31.382  27.928  1.00  0.00     0.049 A 
ATOM     54  C   UNL A   1      42.975  26.503  27.212  1.00  0.00     0.074 A 
ATOM     55  C   UNL A   1      46.872  31.499  27.389  1.00  0.00     0.029 A 
ATOM     56  N   UNL A   1      45.148  30.111  27.615  1.00  0.00    -0.354 N 
ATOM     57  N   UNL A   1      43.718  27.580  27.306  1.00  0.00    -0.248 NA
ATOM     58  C   UNL A   1      43.583  25.426  26.415  1.00  0.00     0.031 C 
ATOM     59  C   UNL A   1      47.165  30.315  26.704  1.00  0.00     0.029 A 
ATOM     60  C   UNL A   1      46.104  29.439  26.874  1.00  0.00     0.049 A 
ATOM     61  H   UNL A   1      44.276  29.741  27.880  1.00  0.00     0.167 HD
ATOM     62  C   UNL A   1      44.889  27.298  26.609  1.00  0.00     0.074 A 
ATOM     63  C   UNL A   1      44.767  25.942  26.118  1.00  0.00     0.031 C 
ATOM     64  C   UNL A   1      45.969  28.089  26.393  1.00  0.00     0.031 A 
BRANCH  51  65
ATOM     65  C   UNL A   1      45.474  33.699  28.927  1.00  0.00    -0.014 A 
ATOM     66  C   UNL A   1      46.275  33.927  30.058  1.00  0.00     0.009 A 
ATOM     67  C   UNL A   1      45.270  34.748  28.017  1.00  0.00     0.009 A 
ATOM     68  C   UNL A   1      46.833  35.186  30.288  1.00  0.00     0.001 A 
ATOM     69  C   UNL A   1      45.854  35.997  28.233  1.00  0.00     0.001 A 
ATOM     70  C   UNL A   1      46.627  36.218  29.373  1.00  0.00     0.000 A 
ENDBRANCH  51  65
BRANCH  52  71
ATOM     71  C   UNL A   1      40.957  24.909  27.577  1.00  0.00    -0.014 A 
ATOM     72  C   UNL A   1      41.451  23.731  28.159  1.00  0.00     0.009 A 
ATOM     73  C   UNL A   1      39.855  24.823  26.711  1.00  0.00     0.009 A 
ATOM     74  C   UNL A   1      40.878  22.494  27.851  1.00  0.00     0.001 A 
ATOM     75  C   UNL A   1      39.264  23.589  26.431  1.00  0.00     0.001 A 
ATOM     76  C   UNL A   1      39.784  22.424  26.992  1.00  0.00     0.000 A 
ENDBRANCH  52  71
BRANCH  64  77
ATOM     77  C   UNL A   1      47.123  27.493  25.632  1.00  0.00    -0.014 A 
ATOM     78  C   UNL A   1      47.236  27.635  24.240  1.00  0.00     0.009 A 
ATOM     79  C   UNL A   1      48.130  26.805  26.328  1.00  0.00     0.009 A 
ATOM     80  C   UNL A   1      48.310  27.061  23.556  1.00  0.00     0.001 A 
ATOM     81  C   UNL A   1      49.220  26.262  25.646  1.00  0.00     0.001 A 
ATOM     82  C   UNL A   1      49.302  26.379  24.260  1.00  0.00     0.000 A 
ENDBRANCH  64  77
ENDBRANCH  38  39
ENDBRANCH  31  33
ENDBRANCH  30  31
ENDBRANCH  29  30
ENDBRANCH  28  29
ENDBRANCH  27  28
ENDBRANCH  26  27
ENDBRANCH  25  26
ENDBRANCH   1  25
TORSDOF 23
ENDMDL
MODEL 3
REMARK VINA RESULT:      -8.8      2.898      6.875
REMARK SMILES O=C(C[C@@H](c1ccccc1)[NH+]1CCCCC1)OCCOCCOCCOCCOC(=O)c1ccc(-c2c3nc(c(-c4ccccc4)c4ccc([nH]4)c(-c4ccccc4)c4nc(c(-c5ccccc5)c5ccc2[nH]5)C=C4)C=C3)cc1
REMARK SMILES IDX 23 1 22 2 21 3 20 4 19 5 18 6 17 7 2 8 1 9 3 10 4 11 5 12
REMARK SMILES IDX 6 13 10 14 7 15 9 16 8 17 11 18 12 19 16 20 13 22 15 23
REMARK SMILES IDX 14 24 24 25 25 26 26 27 27 28 28 29 29 30 30 31 31 32 32 33
REMARK SMILES IDX 33 34 79 35 34 36 78 37 35 38 36 39 37 40 72 41 38 42 77 43
REMARK SMILES IDX 71 44 73 45 39 46 76 47 70 48 69 49 40 51 62 52 47 53 61 54
REMARK SMILES IDX 48 55 51 56 60 57 74 58 49 59 50 60 59 62 75 63 52 64 41 65
REMARK SMILES IDX 42 66 46 67 43 68 45 69 44 70 63 71 64 72 68 73 65 74 67 75
REMARK SMILES IDX 66 76 53 77 54 78 58 79 55 80 57 81 56 82
REMARK H PARENT 11 21 73 50 51 61
REMARK Flexibility Score: inf
ROOT
ATOM      1  O   UNL A   1      37.851  21.598  25.334  1.00  0.00    -0.377 OA
ENDROOT
BRANCH   1   2
ATOM      2  C   UNL A   1      36.784  22.412  25.799  1.00  0.00     0.188 C 
BRANCH   2   3
ATOM      3  C   UNL A   1      35.531  21.623  26.140  1.00  0.00     0.188 C 
BRANCH   3   4
ATOM      4  O   UNL A   1      34.584  22.272  26.967  1.00  0.00    -0.376 OA
BRANCH   4   5
ATOM      5  C   UNL A   1      33.482  23.021  26.485  1.00  0.00     0.202 C 
BRANCH   5   6
ATOM      6  C   UNL A   1      32.143  23.090  27.207  1.00  0.00     0.261 C 
BRANCH   6   7
ATOM      7  O   UNL A   1      31.483  24.358  27.228  1.00  0.00    -0.463 OA
BRANCH   7   8
ATOM      8  C   UNL A   1      30.185  24.408  26.832  1.00  0.00     0.312 C 
ATOM      9  O   UNL A   1      29.330  23.691  27.339  1.00  0.00    -0.252 OA
BRANCH   8  10
ATOM     10  C   UNL A   1      29.953  25.184  25.567  1.00  0.00     0.192 C 
BRANCH  10  11
ATOM     11  C   UNL A   1      31.209  25.650  24.826  1.00  0.00     0.226 C 
BRANCH  11  12
ATOM     12  C   UNL A   1      31.758  24.613  23.835  1.00  0.00     0.010 A 
ATOM     13  C   UNL A   1      31.184  23.346  23.644  1.00  0.00     0.010 A 
ATOM     14  C   UNL A   1      32.927  24.911  23.109  1.00  0.00     0.010 A 
ATOM     15  C   UNL A   1      31.809  22.377  22.850  1.00  0.00     0.001 A 
ATOM     16  C   UNL A   1      33.530  23.957  22.283  1.00  0.00     0.001 A 
ATOM     17  C   UNL A   1      32.986  22.680  22.176  1.00  0.00     0.000 A 
ENDBRANCH  11  12
BRANCH  11  18
ATOM     18  N   UNL A   1      31.029  26.988  24.184  1.00  0.00    -0.328 N 
ATOM     19  C   UNL A   1      29.726  27.208  23.520  1.00  0.00     0.262 C 
ATOM     20  C   UNL A   1      31.289  28.058  25.158  1.00  0.00     0.262 C 
ATOM     21  H   UNL A   1      31.715  27.009  23.430  1.00  0.00     0.348 HD
ATOM     22  C   UNL A   1      29.673  28.553  22.795  1.00  0.00     0.062 C 
ATOM     23  C   UNL A   1      31.307  29.423  24.474  1.00  0.00     0.062 C 
ATOM     24  C   UNL A   1      29.999  29.697  23.745  1.00  0.00     0.012 C 
ENDBRANCH  11  18
ENDBRANCH  10  11
ENDBRANCH   8  10
ENDBRANCH   7   8
ENDBRANCH   6   7
ENDBRANCH   5   6
ENDBRANCH   4   5
ENDBRANCH   3   4
ENDBRANCH   2   3
ENDBRANCH   1   2
BRANCH   1  25
ATOM     25  C   UNL A   1      39.142  22.008  25.756  1.00  0.00     0.188 C 
BRANCH  25  26
ATOM     26  C   UNL A   1      40.157  20.884  26.098  1.00  0.00     0.188 C 
BRANCH  26  27
ATOM     27  O   UNL A   1      41.292  21.093  26.925  1.00  0.00    -0.376 OA
BRANCH  27  28
ATOM     28  C   UNL A   1      42.556  20.599  26.532  1.00  0.00     0.202 C 
BRANCH  28  29
ATOM     29  C   UNL A   1      43.363  21.404  25.499  1.00  0.00     0.261 C 
BRANCH  29  30
ATOM     30  O   UNL A   1      42.765  22.642  25.076  1.00  0.00    -0.460 OA
BRANCH  30  31
ATOM     31  C   UNL A   1      43.545  23.749  25.210  1.00  0.00     0.338 C 
ATOM     32  O   UNL A   1      44.551  24.011  24.596  1.00  0.00    -0.246 OA
BRANCH  31  33
ATOM     33  C   UNL A   1      42.863  24.730  26.102  1.00  0.00     0.060 A 
ATOM     34  C   UNL A   1      43.431  26.009  26.211  1.00  0.00     0.016 A 
ATOM     35  C   UNL A   1      41.688  24.431  26.796  1.00  0.00     0.016 A 
ATOM     36  C   UNL A   1      42.865  26.968  27.048  1.00  0.00     0.010 A 
ATOM     37  C   UNL A   1      41.133  25.385  27.661  1.00  0.00     0.010 A 
ATOM     38  C   UNL A   1      41.750  26.639  27.829  1.00  0.00    -0.014 A 
BRANCH  38  39
ATOM     39  C   UNL A   1      41.445  27.485  29.012  1.00  0.00     0.031 A 
ATOM     40  C   UNL A   1      40.191  28.322  28.960  1.00  0.00     0.074 A 
ATOM     41  C   UNL A   1      42.188  27.460  30.132  1.00  0.00     0.049 A 
ATOM     42  N   UNL A   1      39.684  29.123  29.862  1.00  0.00    -0.248 NA
ATOM     43  C   UNL A   1      39.398  28.235  27.721  1.00  0.00     0.031 C 
ATOM     44  C   UNL A   1      43.387  26.653  30.344  1.00  0.00     0.029 A 
ATOM     45  N   UNL A   1      42.027  28.141  31.316  1.00  0.00    -0.354 N 
ATOM     46  C   UNL A   1      38.516  29.627  29.301  1.00  0.00     0.074 A 
ATOM     47  C   UNL A   1      38.412  29.080  27.968  1.00  0.00     0.031 C 
ATOM     48  C   UNL A   1      43.860  26.893  31.581  1.00  0.00     0.029 A 
ATOM     49  C   UNL A   1      43.011  27.887  32.239  1.00  0.00     0.049 A 
ATOM     50  H   UNL A   1      41.276  28.755  31.485  1.00  0.00     0.167 HD
ATOM     51  C   UNL A   1      37.599  30.459  29.847  1.00  0.00     0.031 A 
ATOM     52  C   UNL A   1      43.211  28.409  33.466  1.00  0.00     0.031 A 
ATOM     53  C   UNL A   1      37.705  31.027  31.161  1.00  0.00     0.049 A 
ATOM     54  C   UNL A   1      42.228  29.412  34.015  1.00  0.00     0.074 A 
ATOM     55  C   UNL A   1      36.837  31.899  31.795  1.00  0.00     0.029 A 
ATOM     56  N   UNL A   1      38.746  30.784  32.042  1.00  0.00    -0.354 N 
ATOM     57  N   UNL A   1      41.122  29.872  33.479  1.00  0.00    -0.248 NA
ATOM     58  C   UNL A   1      42.514  29.959  35.351  1.00  0.00     0.031 C 
ATOM     59  C   UNL A   1      37.382  32.225  33.043  1.00  0.00     0.029 A 
ATOM     60  C   UNL A   1      38.553  31.504  33.208  1.00  0.00     0.049 A 
ATOM     61  H   UNL A   1      39.509  30.188  31.864  1.00  0.00     0.167 HD
ATOM     62  C   UNL A   1      40.570  30.733  34.421  1.00  0.00     0.074 A 
ATOM     63  C   UNL A   1      41.449  30.715  35.571  1.00  0.00     0.031 C 
ATOM     64  C   UNL A   1      39.436  31.474  34.344  1.00  0.00     0.031 A 
BRANCH  51  65
ATOM     65  C   UNL A   1      36.413  30.822  28.999  1.00  0.00    -0.014 A 
ATOM     66  C   UNL A   1      36.093  32.164  28.733  1.00  0.00     0.009 A 
ATOM     67  C   UNL A   1      35.614  29.811  28.445  1.00  0.00     0.009 A 
ATOM     68  C   UNL A   1      34.979  32.484  27.954  1.00  0.00     0.001 A 
ATOM     69  C   UNL A   1      34.519  30.132  27.641  1.00  0.00     0.001 A 
ATOM     70  C   UNL A   1      34.197  31.469  27.405  1.00  0.00     0.000 A 
ENDBRANCH  51  65
BRANCH  52  71
ATOM     71  C   UNL A   1      44.410  28.026  34.263  1.00  0.00    -0.014 A 
ATOM     72  C   UNL A   1      45.624  28.717  34.125  1.00  0.00     0.009 A 
ATOM     73  C   UNL A   1      44.358  26.919  35.126  1.00  0.00     0.009 A 
ATOM     74  C   UNL A   1      46.766  28.287  34.806  1.00  0.00     0.001 A 
ATOM     75  C   UNL A   1      45.493  26.512  35.831  1.00  0.00     0.001 A 
ATOM     76  C   UNL A   1      46.699  27.188  35.661  1.00  0.00     0.000 A 
ENDBRANCH  52  71
BRANCH  64  77
ATOM     77  C   UNL A   1      39.059  32.289  35.551  1.00  0.00    -0.014 A 
ATOM     78  C   UNL A   1      38.306  31.742  36.601  1.00  0.00     0.009 A 
ATOM     79  C   UNL A   1      39.494  33.621  35.651  1.00  0.00     0.009 A 
ATOM     80  C   UNL A   1      37.958  32.525  37.705  1.00  0.00     0.001 A 
ATOM     81  C   UNL A   1      39.175  34.391  36.771  1.00  0.00     0.001 A 
ATOM     82  C   UNL A   1      38.396  33.846  37.790  1.00  0.00     0.000 A 
ENDBRANCH  64  77
ENDBRANCH  38  39
ENDBRANCH  31  33
ENDBRANCH  30  31
ENDBRANCH  29  30
ENDBRANCH  28  29
ENDBRANCH  27  28
ENDBRANCH  26  27
ENDBRANCH  25  26
ENDBRANCH   1  25
TORSDOF 23
ENDMDL
