MODEL 1
REMARK VINA RESULT:      -9.0      0.000      0.000
REMARK SMILES COc1ccc([C@H](C(=O)OCCOCCOCCOCCOC(=O)c2ccc(-c3c4nc(c(-c5ccccc5)c5ccc([nH]5)c(-c5ccccc5)c5nc(c(-c6ccccc6)c6ccc3[nH]6)C=C5)C=C4)cc2)[NH+]2CCOCC2)c(OC)n1
REMARK SMILES IDX 16 1 15 2 14 3 13 4 12 5 11 6 10 7 8 8 9 9 7 10 6 11 3 12
REMARK SMILES IDX 4 13 82 14 5 15 79 16 2 17 1 18 80 19 81 20 73 21 74 22
REMARK SMILES IDX 78 23 75 25 77 26 76 27 17 28 18 29 19 30 20 31 21 32 22 33
REMARK SMILES IDX 23 34 24 35 25 36 26 37 72 38 27 39 71 40 28 41 29 42 30 43
REMARK SMILES IDX 65 44 31 45 70 46 64 47 66 48 32 49 69 50 63 51 62 52 33 54
REMARK SMILES IDX 55 55 40 56 54 57 41 58 44 59 53 60 67 61 42 62 43 63 52 65
REMARK SMILES IDX 68 66 45 67 34 68 35 69 39 70 36 71 38 72 37 73 56 74 57 75
REMARK SMILES IDX 61 76 58 77 60 78 59 79 46 80 47 81 51 82 48 83 50 84 49 85
REMARK H PARENT 73 24 66 53 44 64
REMARK Flexibility Score: inf
ROOT
ATOM      1  O   UNL A   1      41.965  20.619  26.866  1.00  0.00    -0.377 OA
ENDROOT
BRANCH   1   2
ATOM      2  C   UNL A   1      41.367  21.838  26.462  1.00  0.00     0.188 C 
BRANCH   2   3
ATOM      3  C   UNL A   1      39.850  21.982  26.673  1.00  0.00     0.188 C 
BRANCH   3   4
ATOM      4  O   UNL A   1      39.459  23.272  27.128  1.00  0.00    -0.376 OA
BRANCH   4   5
ATOM      5  C   UNL A   1      38.663  24.030  26.228  1.00  0.00     0.202 C 
BRANCH   5   6
ATOM      6  C   UNL A   1      37.237  23.506  26.023  1.00  0.00     0.261 C 
BRANCH   6   7
ATOM      7  O   UNL A   1      36.309  24.228  25.179  1.00  0.00    -0.459 OA
BRANCH   7   8
ATOM      8  C   UNL A   1      35.723  23.672  24.078  1.00  0.00     0.370 C 
ATOM      9  O   UNL A   1      36.305  23.432  23.032  1.00  0.00    -0.245 OA
BRANCH   8  10
ATOM     10  C   UNL A   1      34.234  23.418  24.363  1.00  0.00     0.332 C 
BRANCH  10  11
ATOM     11  C   UNL A   1      33.321  24.432  23.683  1.00  0.00     0.083 A 
ATOM     12  C   UNL A   1      32.624  26.850  22.695  1.00  0.00     0.216 A 
ATOM     13  C   UNL A   1      33.258  25.965  21.839  1.00  0.00     0.069 A 
ATOM     14  N   UNL A   1      32.164  26.537  23.921  1.00  0.00    -0.177 NA
ATOM     15  C   UNL A   1      33.573  24.710  22.331  1.00  0.00     0.022 A 
ATOM     16  C   UNL A   1      32.514  25.330  24.395  1.00  0.00     0.226 A 
BRANCH  12  17
ATOM     17  O   UNL A   1      32.794  28.192  22.462  1.00  0.00    -0.481 OA
ATOM     18  C   UNL A   1      33.823  28.711  23.281  1.00  0.00     0.280 C 
ENDBRANCH  12  17
BRANCH  16  19
ATOM     19  O   UNL A   1      32.371  25.206  25.750  1.00  0.00    -0.481 OA
ATOM     20  C   UNL A   1      32.473  26.459  26.414  1.00  0.00     0.280 C 
ENDBRANCH  16  19
ENDBRANCH  10  11
BRANCH  10  21
ATOM     21  N   UNL A   1      33.733  22.045  24.067  1.00  0.00    -0.315 N 
ATOM     22  C   UNL A   1      32.309  21.807  23.844  1.00  0.00     0.292 C 
ATOM     23  C   UNL A   1      34.377  20.896  24.718  1.00  0.00     0.292 C 
ATOM     24  H   UNL A   1      34.119  22.092  23.124  1.00  0.00     0.349 HD
ATOM     25  C   UNL A   1      31.577  21.134  25.021  1.00  0.00     0.221 C 
ATOM     26  C   UNL A   1      33.595  20.312  25.897  1.00  0.00     0.221 C 
ATOM     27  O   UNL A   1      32.264  19.970  25.493  1.00  0.00    -0.370 OA
ENDBRANCH  10  21
ENDBRANCH   8  10
ENDBRANCH   7   8
ENDBRANCH   6   7
ENDBRANCH   5   6
ENDBRANCH   4   5
ENDBRANCH   3   4
ENDBRANCH   2   3
ENDBRANCH   1   2
BRANCH   1  28
ATOM     28  C   UNL A   1      42.393  19.712  25.856  1.00  0.00     0.188 C 
BRANCH  28  29
ATOM     29  C   UNL A   1      43.813  19.848  25.266  1.00  0.00     0.188 C 
BRANCH  29  30
ATOM     30  O   UNL A   1      44.552  20.936  25.793  1.00  0.00    -0.376 OA
BRANCH  30  31
ATOM     31  C   UNL A   1      45.428  21.673  24.964  1.00  0.00     0.202 C 
BRANCH  31  32
ATOM     32  C   UNL A   1      44.841  22.672  23.958  1.00  0.00     0.261 C 
BRANCH  32  33
ATOM     33  O   UNL A   1      44.170  23.819  24.494  1.00  0.00    -0.460 OA
BRANCH  33  34
ATOM     34  C   UNL A   1      44.924  24.787  25.070  1.00  0.00     0.338 C 
ATOM     35  O   UNL A   1      46.023  25.155  24.739  1.00  0.00    -0.246 OA
BRANCH  34  36
ATOM     36  C   UNL A   1      44.038  25.492  26.035  1.00  0.00     0.060 A 
ATOM     37  C   UNL A   1      44.039  26.894  26.043  1.00  0.00     0.016 A 
ATOM     38  C   UNL A   1      43.158  24.783  26.859  1.00  0.00     0.016 A 
ATOM     39  C   UNL A   1      43.182  27.587  26.894  1.00  0.00     0.010 A 
ATOM     40  C   UNL A   1      42.326  25.478  27.740  1.00  0.00     0.010 A 
ATOM     41  C   UNL A   1      42.364  26.883  27.786  1.00  0.00    -0.014 A 
BRANCH  41  42
ATOM     42  C   UNL A   1      41.784  27.620  28.933  1.00  0.00     0.031 A 
ATOM     43  C   UNL A   1      42.530  27.564  30.240  1.00  0.00     0.074 A 
ATOM     44  C   UNL A   1      40.688  28.386  28.807  1.00  0.00     0.049 A 
ATOM     45  N   UNL A   1      42.280  28.177  31.367  1.00  0.00    -0.248 NA
ATOM     46  C   UNL A   1      43.726  26.706  30.271  1.00  0.00     0.031 C 
ATOM     47  C   UNL A   1      39.912  28.568  27.582  1.00  0.00     0.029 A 
ATOM     48  N   UNL A   1      40.050  29.173  29.734  1.00  0.00    -0.354 N 
ATOM     49  C   UNL A   1      43.288  27.781  32.237  1.00  0.00     0.074 A 
ATOM     50  C   UNL A   1      44.131  26.850  31.522  1.00  0.00     0.031 C 
ATOM     51  C   UNL A   1      38.899  29.418  27.834  1.00  0.00     0.029 A 
ATOM     52  C   UNL A   1      38.946  29.820  29.239  1.00  0.00     0.049 A 
ATOM     53  H   UNL A   1      40.355  29.263  30.665  1.00  0.00     0.167 HD
ATOM     54  C   UNL A   1      43.504  28.166  33.516  1.00  0.00     0.031 A 
ATOM     55  C   UNL A   1      38.070  30.637  29.857  1.00  0.00     0.031 A 
ATOM     56  C   UNL A   1      42.653  29.070  34.239  1.00  0.00     0.049 A 
ATOM     57  C   UNL A   1      38.280  30.980  31.310  1.00  0.00     0.074 A 
ATOM     58  C   UNL A   1      42.781  29.523  35.540  1.00  0.00     0.029 A 
ATOM     59  N   UNL A   1      41.503  29.650  33.723  1.00  0.00    -0.354 N 
ATOM     60  N   UNL A   1      39.253  30.623  32.115  1.00  0.00    -0.248 NA
ATOM     61  C   UNL A   1      37.274  31.851  31.934  1.00  0.00     0.031 C 
ATOM     62  C   UNL A   1      41.673  30.326  35.832  1.00  0.00     0.029 A 
ATOM     63  C   UNL A   1      40.895  30.430  34.691  1.00  0.00     0.049 A 
ATOM     64  H   UNL A   1      41.170  29.524  32.806  1.00  0.00     0.167 HD
ATOM     65  C   UNL A   1      38.990  31.247  33.329  1.00  0.00     0.074 A 
ATOM     66  C   UNL A   1      37.782  32.024  33.145  1.00  0.00     0.031 C 
ATOM     67  C   UNL A   1      39.683  31.184  34.495  1.00  0.00     0.031 A 
BRANCH  54  68
ATOM     68  C   UNL A   1      44.687  27.566  34.224  1.00  0.00    -0.014 A 
ATOM     69  C   UNL A   1      45.976  28.106  34.085  1.00  0.00     0.009 A 
ATOM     70  C   UNL A   1      44.506  26.445  35.048  1.00  0.00     0.009 A 
ATOM     71  C   UNL A   1      47.064  27.514  34.731  1.00  0.00     0.001 A 
ATOM     72  C   UNL A   1      45.589  25.876  35.718  1.00  0.00     0.001 A 
ATOM     73  C   UNL A   1      46.868  26.403  35.552  1.00  0.00     0.000 A 
ENDBRANCH  54  68
BRANCH  55  74
ATOM     74  C   UNL A   1      36.900  31.183  29.117  1.00  0.00    -0.014 A 
ATOM     75  C   UNL A   1      35.819  30.359  28.765  1.00  0.00     0.009 A 
ATOM     76  C   UNL A   1      36.879  32.530  28.720  1.00  0.00     0.009 A 
ATOM     77  C   UNL A   1      34.759  30.865  28.009  1.00  0.00     0.001 A 
ATOM     78  C   UNL A   1      35.804  33.040  27.990  1.00  0.00     0.001 A 
ATOM     79  C   UNL A   1      34.750  32.206  27.626  1.00  0.00     0.000 A 
ENDBRANCH  55  74
BRANCH  67  80
ATOM     80  C   UNL A   1      39.161  32.000  35.646  1.00  0.00    -0.014 A 
ATOM     81  C   UNL A   1      38.229  31.475  36.556  1.00  0.00     0.009 A 
ATOM     82  C   UNL A   1      39.623  33.313  35.833  1.00  0.00     0.009 A 
ATOM     83  C   UNL A   1      37.729  32.265  37.592  1.00  0.00     0.001 A 
ATOM     84  C   UNL A   1      39.150  34.089  36.893  1.00  0.00     0.001 A 
ATOM     85  C   UNL A   1      38.192  33.570  37.762  1.00  0.00     0.000 A 
ENDBRANCH  67  80
ENDBRANCH  41  42
ENDBRANCH  34  36
ENDBRANCH  33  34
ENDBRANCH  32  33
ENDBRANCH  31  32
ENDBRANCH  30  31
ENDBRANCH  29  30
ENDBRANCH  28  29
ENDBRANCH   1  28
TORSDOF 24
ENDMDL
MODEL 2
REMARK VINA RESULT:      -8.8      1.531      3.329
REMARK SMILES COc1ccc([C@H](C(=O)OCCOCCOCCOCCOC(=O)c2ccc(-c3c4nc(c(-c5ccccc5)c5ccc([nH]5)c(-c5ccccc5)c5nc(c(-c6ccccc6)c6ccc3[nH]6)C=C5)C=C4)cc2)[NH+]2CCOCC2)c(OC)n1
REMARK SMILES IDX 16 1 15 2 14 3 13 4 12 5 11 6 10 7 8 8 9 9 7 10 6 11 3 12
REMARK SMILES IDX 4 13 82 14 5 15 79 16 2 17 1 18 80 19 81 20 73 21 74 22
REMARK SMILES IDX 78 23 75 25 77 26 76 27 17 28 18 29 19 30 20 31 21 32 22 33
REMARK SMILES IDX 23 34 24 35 25 36 26 37 72 38 27 39 71 40 28 41 29 42 30 43
REMARK SMILES IDX 65 44 31 45 70 46 64 47 66 48 32 49 69 50 63 51 62 52 33 54
REMARK SMILES IDX 55 55 40 56 54 57 41 58 44 59 53 60 67 61 42 62 43 63 52 65
REMARK SMILES IDX 68 66 45 67 34 68 35 69 39 70 36 71 38 72 37 73 56 74 57 75
REMARK SMILES IDX 61 76 58 77 60 78 59 79 46 80 47 81 51 82 48 83 50 84 49 85
REMARK H PARENT 73 24 66 53 44 64
REMARK Flexibility Score: inf
ROOT
ATOM      1  O   UNL A   1      40.509  21.793  27.232  1.00  0.00    -0.377 OA
ENDROOT
BRANCH   1   2
ATOM      2  C   UNL A   1      40.083  22.799  26.330  1.00  0.00     0.188 C 
BRANCH   2   3
ATOM      3  C   UNL A   1      39.185  23.915  26.891  1.00  0.00     0.188 C 
BRANCH   3   4
ATOM      4  O   UNL A   1      38.254  24.425  25.944  1.00  0.00    -0.376 OA
BRANCH   4   5
ATOM      5  C   UNL A   1      37.347  23.479  25.397  1.00  0.00     0.202 C 
BRANCH   5   6
ATOM      6  C   UNL A   1      36.140  23.149  26.284  1.00  0.00     0.261 C 
BRANCH   6   7
ATOM      7  O   UNL A   1      35.460  21.879  26.146  1.00  0.00    -0.459 OA
BRANCH   7   8
ATOM      8  C   UNL A   1      34.234  21.633  26.695  1.00  0.00     0.370 C 
ATOM      9  O   UNL A   1      34.051  21.292  27.853  1.00  0.00    -0.245 OA
BRANCH   8  10
ATOM     10  C   UNL A   1      33.145  21.835  25.630  1.00  0.00     0.332 C 
BRANCH  10  11
ATOM     11  C   UNL A   1      32.598  20.519  25.086  1.00  0.00     0.083 A 
ATOM     12  C   UNL A   1      32.750  18.027  24.049  1.00  0.00     0.216 A 
ATOM     13  C   UNL A   1      32.722  18.148  25.428  1.00  0.00     0.069 A 
ATOM     14  N   UNL A   1      32.522  19.034  23.184  1.00  0.00    -0.177 NA
ATOM     15  C   UNL A   1      32.598  19.420  25.959  1.00  0.00     0.022 A 
ATOM     16  C   UNL A   1      32.445  20.265  23.716  1.00  0.00     0.226 A 
BRANCH  12  17
ATOM     17  O   UNL A   1      33.398  16.940  23.518  1.00  0.00    -0.481 OA
ATOM     18  C   UNL A   1      33.633  15.967  24.517  1.00  0.00     0.280 C 
ENDBRANCH  12  17
BRANCH  16  19
ATOM     19  O   UNL A   1      32.606  21.272  22.804  1.00  0.00    -0.481 OA
ATOM     20  C   UNL A   1      31.761  21.106  21.672  1.00  0.00     0.280 C 
ENDBRANCH  16  19
ENDBRANCH  10  11
BRANCH  10  21
ATOM     21  N   UNL A   1      32.000  22.707  26.018  1.00  0.00    -0.315 N 
ATOM     22  C   UNL A   1      30.904  22.952  25.083  1.00  0.00     0.292 C 
ATOM     23  C   UNL A   1      32.252  23.875  26.871  1.00  0.00     0.292 C 
ATOM     24  H   UNL A   1      31.634  21.979  26.631  1.00  0.00     0.349 HD
ATOM     25  C   UNL A   1      30.919  24.345  24.424  1.00  0.00     0.221 C 
ATOM     26  C   UNL A   1      32.282  25.213  26.128  1.00  0.00     0.221 C 
ATOM     27  O   UNL A   1      31.073  25.397  25.382  1.00  0.00    -0.370 OA
ENDBRANCH  10  21
ENDBRANCH   8  10
ENDBRANCH   7   8
ENDBRANCH   6   7
ENDBRANCH   5   6
ENDBRANCH   4   5
ENDBRANCH   3   4
ENDBRANCH   2   3
ENDBRANCH   1   2
BRANCH   1  28
ATOM     28  C   UNL A   1      40.834  20.511  26.707  1.00  0.00     0.188 C 
BRANCH  28  29
ATOM     29  C   UNL A   1      42.192  20.301  26.002  1.00  0.00     0.188 C 
BRANCH  29  30
ATOM     30  O   UNL A   1      43.112  21.361  26.202  1.00  0.00    -0.376 OA
BRANCH  30  31
ATOM     31  C   UNL A   1      44.302  21.424  25.443  1.00  0.00     0.202 C 
BRANCH  31  32
ATOM     32  C   UNL A   1      44.444  22.507  24.366  1.00  0.00     0.261 C 
BRANCH  32  33
ATOM     33  O   UNL A   1      44.233  23.865  24.773  1.00  0.00    -0.460 OA
BRANCH  33  34
ATOM     34  C   UNL A   1      45.022  24.366  25.755  1.00  0.00     0.338 C 
ATOM     35  O   UNL A   1      46.225  24.351  25.808  1.00  0.00    -0.246 OA
BRANCH  34  36
ATOM     36  C   UNL A   1      44.133  25.168  26.639  1.00  0.00     0.060 A 
ATOM     37  C   UNL A   1      44.279  26.562  26.646  1.00  0.00     0.016 A 
ATOM     38  C   UNL A   1      43.117  24.562  27.384  1.00  0.00     0.016 A 
ATOM     39  C   UNL A   1      43.429  27.349  27.418  1.00  0.00     0.010 A 
ATOM     40  C   UNL A   1      42.288  25.348  28.189  1.00  0.00     0.010 A 
ATOM     41  C   UNL A   1      42.469  26.742  28.237  1.00  0.00    -0.014 A 
BRANCH  41  42
ATOM     42  C   UNL A   1      41.872  27.546  29.329  1.00  0.00     0.031 A 
ATOM     43  C   UNL A   1      42.573  27.533  30.661  1.00  0.00     0.074 A 
ATOM     44  C   UNL A   1      40.801  28.333  29.131  1.00  0.00     0.049 A 
ATOM     45  N   UNL A   1      42.303  28.204  31.750  1.00  0.00    -0.248 NA
ATOM     46  C   UNL A   1      43.745  26.648  30.772  1.00  0.00     0.031 C 
ATOM     47  C   UNL A   1      40.069  28.475  27.874  1.00  0.00     0.029 A 
ATOM     48  N   UNL A   1      40.154  29.177  29.999  1.00  0.00    -0.354 N 
ATOM     49  C   UNL A   1      43.273  27.825  32.670  1.00  0.00     0.074 A 
ATOM     50  C   UNL A   1      44.112  26.841  32.028  1.00  0.00     0.031 C 
ATOM     51  C   UNL A   1      39.071  29.361  28.052  1.00  0.00     0.029 A 
ATOM     52  C   UNL A   1      39.083  29.828  29.438  1.00  0.00     0.049 A 
ATOM     53  H   UNL A   1      40.431  29.304  30.935  1.00  0.00     0.167 HD
ATOM     54  C   UNL A   1      43.457  28.265  33.937  1.00  0.00     0.031 A 
ATOM     55  C   UNL A   1      38.210  30.695  29.988  1.00  0.00     0.031 A 
ATOM     56  C   UNL A   1      42.607  29.222  34.588  1.00  0.00     0.049 A 
ATOM     57  C   UNL A   1      38.382  31.100  31.430  1.00  0.00     0.074 A 
ATOM     58  C   UNL A   1      42.705  29.733  35.870  1.00  0.00     0.029 A 
ATOM     59  N   UNL A   1      41.490  29.805  34.008  1.00  0.00    -0.354 N 
ATOM     60  N   UNL A   1      39.319  30.757  32.283  1.00  0.00    -0.248 NA
ATOM     61  C   UNL A   1      37.380  32.025  31.979  1.00  0.00     0.031 C 
ATOM     62  C   UNL A   1      41.610  30.575  36.088  1.00  0.00     0.029 A 
ATOM     63  C   UNL A   1      40.871  30.645  34.918  1.00  0.00     0.049 A 
ATOM     64  H   UNL A   1      41.183  29.645  33.087  1.00  0.00     0.167 HD
ATOM     65  C   UNL A   1      39.034  31.444  33.457  1.00  0.00     0.074 A 
ATOM     66  C   UNL A   1      37.853  32.241  33.197  1.00  0.00     0.031 C 
ATOM     67  C   UNL A   1      39.687  31.419  34.647  1.00  0.00     0.031 A 
BRANCH  54  68
ATOM     68  C   UNL A   1      44.601  27.669  34.710  1.00  0.00    -0.014 A 
ATOM     69  C   UNL A   1      45.877  28.255  34.699  1.00  0.00     0.009 A 
ATOM     70  C   UNL A   1      44.393  26.506  35.468  1.00  0.00     0.009 A 
ATOM     71  C   UNL A   1      46.930  27.667  35.404  1.00  0.00     0.001 A 
ATOM     72  C   UNL A   1      45.439  25.940  36.197  1.00  0.00     0.001 A 
ATOM     73  C   UNL A   1      46.708  26.514  36.158  1.00  0.00     0.000 A 
ENDBRANCH  54  68
BRANCH  55  74
ATOM     74  C   UNL A   1      37.079  31.233  29.185  1.00  0.00    -0.014 A 
ATOM     75  C   UNL A   1      37.047  32.581  28.795  1.00  0.00     0.009 A 
ATOM     76  C   UNL A   1      36.000  30.405  28.840  1.00  0.00     0.009 A 
ATOM     77  C   UNL A   1      35.946  33.093  28.102  1.00  0.00     0.001 A 
ATOM     78  C   UNL A   1      34.915  30.912  28.121  1.00  0.00     0.001 A 
ATOM     79  C   UNL A   1      34.884  32.257  27.762  1.00  0.00     0.000 A 
ENDBRANCH  55  74
BRANCH  67  80
ATOM     80  C   UNL A   1      39.150  32.301  35.742  1.00  0.00    -0.014 A 
ATOM     81  C   UNL A   1      39.557  33.639  35.871  1.00  0.00     0.009 A 
ATOM     82  C   UNL A   1      38.210  31.788  36.650  1.00  0.00     0.009 A 
ATOM     83  C   UNL A   1      39.077  34.426  36.919  1.00  0.00     0.001 A 
ATOM     84  C   UNL A   1      37.703  32.589  37.675  1.00  0.00     0.001 A 
ATOM     85  C   UNL A   1      38.148  33.902  37.818  1.00  0.00     0.000 A 
ENDBRANCH  67  80
ENDBRANCH  41  42
ENDBRANCH  34  36
ENDBRANCH  33  34
ENDBRANCH  32  33
ENDBRANCH  31  32
ENDBRANCH  30  31
ENDBRANCH  29  30
ENDBRANCH  28  29
ENDBRANCH   1  28
TORSDOF 24
ENDMDL
MODEL 3
REMARK VINA RESULT:      -8.7      2.233      7.046
REMARK SMILES COc1ccc([C@H](C(=O)OCCOCCOCCOCCOC(=O)c2ccc(-c3c4nc(c(-c5ccccc5)c5ccc([nH]5)c(-c5ccccc5)c5nc(c(-c6ccccc6)c6ccc3[nH]6)C=C5)C=C4)cc2)[NH+]2CCOCC2)c(OC)n1
REMARK SMILES IDX 16 1 15 2 14 3 13 4 12 5 11 6 10 7 8 8 9 9 7 10 6 11 3 12
REMARK SMILES IDX 4 13 82 14 5 15 79 16 2 17 1 18 80 19 81 20 73 21 74 22
REMARK SMILES IDX 78 23 75 25 77 26 76 27 17 28 18 29 19 30 20 31 21 32 22 33
REMARK SMILES IDX 23 34 24 35 25 36 26 37 72 38 27 39 71 40 28 41 29 42 30 43
REMARK SMILES IDX 65 44 31 45 70 46 64 47 66 48 32 49 69 50 63 51 62 52 33 54
REMARK SMILES IDX 55 55 40 56 54 57 41 58 44 59 53 60 67 61 42 62 43 63 52 65
REMARK SMILES IDX 68 66 45 67 34 68 35 69 39 70 36 71 38 72 37 73 56 74 57 75
REMARK SMILES IDX 61 76 58 77 60 78 59 79 46 80 47 81 51 82 48 83 50 84 49 85
REMARK H PARENT 73 24 66 53 44 64
REMARK Flexibility Score: inf
ROOT
ATOM      1  O   UNL A   1      34.482  22.420  23.489  1.00  0.00    -0.377 OA
ENDROOT
BRANCH   1   2
ATOM      2  C   UNL A   1      33.983  23.699  23.139  1.00  0.00     0.188 C 
BRANCH   2   3
ATOM      3  C   UNL A   1      33.294  23.836  21.771  1.00  0.00     0.188 C 
BRANCH   3   4
ATOM      4  O   UNL A   1      33.440  25.126  21.187  1.00  0.00    -0.376 OA
BRANCH   4   5
ATOM      5  C   UNL A   1      32.232  25.790  20.845  1.00  0.00     0.202 C 
BRANCH   5   6
ATOM      6  C   UNL A   1      31.551  26.534  22.000  1.00  0.00     0.261 C 
BRANCH   6   7
ATOM      7  O   UNL A   1      30.965  25.796  23.098  1.00  0.00    -0.459 OA
BRANCH   7   8
ATOM      8  C   UNL A   1      30.767  26.341  24.334  1.00  0.00     0.370 C 
ATOM      9  O   UNL A   1      29.819  27.050  24.634  1.00  0.00    -0.245 OA
BRANCH   8  10
ATOM     10  C   UNL A   1      31.922  25.936  25.264  1.00  0.00     0.332 C 
BRANCH  10  11
ATOM     11  C   UNL A   1      32.553  27.127  25.977  1.00  0.00     0.083 A 
ATOM     12  C   UNL A   1      32.861  29.734  26.622  1.00  0.00     0.216 A 
ATOM     13  C   UNL A   1      31.996  28.979  27.396  1.00  0.00     0.069 A 
ATOM     14  N   UNL A   1      33.697  29.234  25.693  1.00  0.00    -0.177 NA
ATOM     15  C   UNL A   1      31.873  27.634  27.095  1.00  0.00     0.022 A 
ATOM     16  C   UNL A   1      33.534  27.936  25.388  1.00  0.00     0.226 A 
BRANCH  12  17
ATOM     17  O   UNL A   1      32.607  31.079  26.513  1.00  0.00    -0.481 OA
ATOM     18  C   UNL A   1      31.245  31.303  26.210  1.00  0.00     0.280 C 
ENDBRANCH  12  17
BRANCH  16  19
ATOM     19  O   UNL A   1      34.110  27.572  24.200  1.00  0.00    -0.481 OA
ATOM     20  C   UNL A   1      33.967  28.579  23.207  1.00  0.00     0.280 C 
ENDBRANCH  16  19
ENDBRANCH  10  11
BRANCH  10  21
ATOM     21  N   UNL A   1      31.615  24.880  26.272  1.00  0.00    -0.315 N 
ATOM     22  C   UNL A   1      32.694  24.174  26.958  1.00  0.00     0.292 C 
ATOM     23  C   UNL A   1      30.450  24.011  26.060  1.00  0.00     0.292 C 
ATOM     24  H   UNL A   1      31.325  25.589  26.946  1.00  0.00     0.349 HD
ATOM     25  C   UNL A   1      32.940  22.736  26.462  1.00  0.00     0.221 C 
ATOM     26  C   UNL A   1      30.786  22.612  25.536  1.00  0.00     0.221 C 
ATOM     27  O   UNL A   1      31.733  21.970  26.397  1.00  0.00    -0.370 OA
ENDBRANCH  10  21
ENDBRANCH   8  10
ENDBRANCH   7   8
ENDBRANCH   6   7
ENDBRANCH   5   6
ENDBRANCH   4   5
ENDBRANCH   3   4
ENDBRANCH   2   3
ENDBRANCH   1   2
BRANCH   1  28
ATOM     28  C   UNL A   1      35.794  22.336  24.034  1.00  0.00     0.188 C 
BRANCH  28  29
ATOM     29  C   UNL A   1      36.173  21.126  24.915  1.00  0.00     0.188 C 
BRANCH  29  30
ATOM     30  O   UNL A   1      37.150  21.416  25.900  1.00  0.00    -0.376 OA
BRANCH  30  31
ATOM     31  C   UNL A   1      38.415  21.921  25.522  1.00  0.00     0.202 C 
BRANCH  31  32
ATOM     32  C   UNL A   1      38.914  23.229  26.150  1.00  0.00     0.261 C 
BRANCH  32  33
ATOM     33  O   UNL A   1      39.956  23.127  27.129  1.00  0.00    -0.460 OA
BRANCH  33  34
ATOM     34  C   UNL A   1      41.068  23.882  26.957  1.00  0.00     0.338 C 
ATOM     35  O   UNL A   1      41.953  23.715  26.156  1.00  0.00    -0.246 OA
BRANCH  34  36
ATOM     36  C   UNL A   1      40.872  25.110  27.775  1.00  0.00     0.060 A 
ATOM     37  C   UNL A   1      41.898  26.066  27.803  1.00  0.00     0.016 A 
ATOM     38  C   UNL A   1      39.663  25.355  28.433  1.00  0.00     0.016 A 
ATOM     39  C   UNL A   1      41.727  27.252  28.512  1.00  0.00     0.010 A 
ATOM     40  C   UNL A   1      39.507  26.527  29.177  1.00  0.00     0.010 A 
ATOM     41  C   UNL A   1      40.555  27.461  29.248  1.00  0.00    -0.014 A 
BRANCH  41  42
ATOM     42  C   UNL A   1      40.566  28.509  30.296  1.00  0.00     0.031 A 
ATOM     43  C   UNL A   1      39.522  29.590  30.204  1.00  0.00     0.074 A 
ATOM     44  C   UNL A   1      41.407  28.462  31.342  1.00  0.00     0.049 A 
ATOM     45  N   UNL A   1      39.267  30.573  31.028  1.00  0.00    -0.248 NA
ATOM     46  C   UNL A   1      38.639  29.547  29.026  1.00  0.00     0.031 C 
ATOM     47  C   UNL A   1      42.422  27.437  31.573  1.00  0.00     0.029 A 
ATOM     48  N   UNL A   1      41.521  29.304  32.421  1.00  0.00    -0.354 N 
ATOM     49  C   UNL A   1      38.196  31.259  30.469  1.00  0.00     0.074 A 
ATOM     50  C   UNL A   1      37.872  30.606  29.222  1.00  0.00     0.031 C 
ATOM     51  C   UNL A   1      43.057  27.709  32.729  1.00  0.00     0.029 A 
ATOM     52  C   UNL A   1      42.507  28.936  33.303  1.00  0.00     0.049 A 
ATOM     53  H   UNL A   1      40.950  30.095  32.550  1.00  0.00     0.167 HD
ATOM     54  C   UNL A   1      37.530  32.333  30.954  1.00  0.00     0.031 A 
ATOM     55  C   UNL A   1      42.919  29.532  34.440  1.00  0.00     0.031 A 
ATOM     56  C   UNL A   1      37.868  33.002  32.180  1.00  0.00     0.049 A 
ATOM     57  C   UNL A   1      42.220  30.781  34.913  1.00  0.00     0.074 A 
ATOM     58  C   UNL A   1      37.258  34.100  32.760  1.00  0.00     0.029 A 
ATOM     59  N   UNL A   1      38.919  32.641  33.010  1.00  0.00    -0.354 N 
ATOM     60  N   UNL A   1      41.191  31.405  34.392  1.00  0.00    -0.248 NA
ATOM     61  C   UNL A   1      42.737  31.400  36.143  1.00  0.00     0.031 C 
ATOM     62  C   UNL A   1      37.981  34.443  33.908  1.00  0.00     0.029 A 
ATOM     63  C   UNL A   1      38.996  33.515  34.080  1.00  0.00     0.049 A 
ATOM     64  H   UNL A   1      39.521  31.877  32.860  1.00  0.00     0.167 HD
ATOM     65  C   UNL A   1      40.920  32.470  35.244  1.00  0.00     0.074 A 
ATOM     66  C   UNL A   1      41.878  32.391  36.327  1.00  0.00     0.031 C 
ATOM     67  C   UNL A   1      39.967  33.431  35.141  1.00  0.00     0.031 A 
BRANCH  54  68
ATOM     68  C   UNL A   1      36.400  32.872  30.124  1.00  0.00    -0.014 A 
ATOM     69  C   UNL A   1      35.100  32.352  30.229  1.00  0.00     0.009 A 
ATOM     70  C   UNL A   1      36.640  33.923  29.226  1.00  0.00     0.009 A 
ATOM     71  C   UNL A   1      34.071  32.852  29.427  1.00  0.00     0.001 A 
ATOM     72  C   UNL A   1      35.603  34.443  28.450  1.00  0.00     0.001 A 
ATOM     73  C   UNL A   1      34.323  33.901  28.543  1.00  0.00     0.000 A 
ENDBRANCH  54  68
BRANCH  55  74
ATOM     74  C   UNL A   1      44.062  28.971  35.210  1.00  0.00    -0.014 A 
ATOM     75  C   UNL A   1      43.851  28.062  36.258  1.00  0.00     0.009 A 
ATOM     76  C   UNL A   1      45.375  29.379  34.924  1.00  0.00     0.009 A 
ATOM     77  C   UNL A   1      44.926  27.597  37.021  1.00  0.00     0.001 A 
ATOM     78  C   UNL A   1      46.451  28.889  35.668  1.00  0.00     0.001 A 
ATOM     79  C   UNL A   1      46.225  28.007  36.722  1.00  0.00     0.000 A 
ENDBRANCH  55  74
BRANCH  67  80
ATOM     80  C   UNL A   1      39.901  34.452  36.245  1.00  0.00    -0.014 A 
ATOM     81  C   UNL A   1      40.649  35.639  36.192  1.00  0.00     0.009 A 
ATOM     82  C   UNL A   1      39.065  34.227  37.350  1.00  0.00     0.009 A 
ATOM     83  C   UNL A   1      40.603  36.552  37.247  1.00  0.00     0.001 A 
ATOM     84  C   UNL A   1      38.992  35.160  38.387  1.00  0.00     0.001 A 
ATOM     85  C   UNL A   1      39.773  36.313  38.341  1.00  0.00     0.000 A 
ENDBRANCH  67  80
ENDBRANCH  41  42
ENDBRANCH  34  36
ENDBRANCH  33  34
ENDBRANCH  32  33
ENDBRANCH  31  32
ENDBRANCH  30  31
ENDBRANCH  29  30
ENDBRANCH  28  29
ENDBRANCH   1  28
TORSDOF 24
ENDMDL
