MODEL 1
REMARK VINA RESULT:      -9.5      0.000      0.000
REMARK SMILES Cc1ccc(Nc2c(F)cccc2I)c(CC(=O)OCCOCCOCCOCCOC(=O)c2ccc(-c3c4nc(c(-c5ccccc5)c5ccc([nH]5)c(-c5ccccc5)c5nc(c(-c6ccccc6)c6ccc3[nH]6)C=C5)C=C4)cc2)c1
REMARK SMILES IDX 24 1 23 2 22 3 21 4 20 5 19 6 17 7 18 8 16 9 15 10 1 11 2 12
REMARK SMILES IDX 3 13 82 14 4 15 5 16 6 17 7 19 8 20 13 21 9 22 10 23 12 24
REMARK SMILES IDX 14 25 11 26 25 27 26 28 27 29 28 30 29 31 30 32 31 33 32 34
REMARK SMILES IDX 33 35 34 36 35 37 81 38 36 39 80 40 37 41 38 42 39 43 74 44
REMARK SMILES IDX 40 45 79 46 73 47 75 48 41 49 78 50 72 51 71 52 42 54 64 55
REMARK SMILES IDX 49 56 63 57 50 58 53 59 62 60 76 61 51 62 52 63 61 65 77 66
REMARK SMILES IDX 54 67 43 68 44 69 48 70 45 71 47 72 46 73 65 74 66 75 70 76
REMARK SMILES IDX 67 77 69 78 68 79 55 80 56 81 60 82 57 83 59 84 58 85
REMARK H PARENT 6 18 75 53 53 64
REMARK Flexibility Score: inf
ROOT
ATOM      1  C   UNL A   1      35.186  21.184  25.872  1.00  0.00     0.188 C 
ENDROOT
BRANCH   1   2
ATOM      2  C   UNL A   1      34.597  22.491  26.399  1.00  0.00     0.188 C 
BRANCH   2   3
ATOM      3  O   UNL A   1      34.081  23.442  25.481  1.00  0.00    -0.376 OA
BRANCH   3   4
ATOM      4  C   UNL A   1      33.697  24.659  26.087  1.00  0.00     0.202 C 
BRANCH   4   5
ATOM      5  C   UNL A   1      32.251  24.794  26.563  1.00  0.00     0.261 C 
BRANCH   5   6
ATOM      6  O   UNL A   1      31.527  25.879  25.953  1.00  0.00    -0.463 OA
BRANCH   6   7
ATOM      7  C   UNL A   1      30.220  25.642  25.689  1.00  0.00     0.310 C 
ATOM      8  O   UNL A   1      29.330  25.648  26.533  1.00  0.00    -0.252 OA
BRANCH   7   9
ATOM      9  C   UNL A   1      29.940  25.273  24.253  1.00  0.00     0.160 C 
BRANCH   9  10
ATOM     10  C   UNL A   1      31.054  24.708  23.387  1.00  0.00    -0.013 A 
ATOM     11  C   UNL A   1      32.411  21.129  22.841  1.00  0.00     0.044 C 
ATOM     12  C   UNL A   1      32.216  22.613  22.748  1.00  0.00    -0.051 A 
ATOM     13  C   UNL A   1      32.985  23.344  21.860  1.00  0.00     0.005 A 
ATOM     14  C   UNL A   1      31.267  23.299  23.510  1.00  0.00     0.009 A 
ATOM     15  C   UNL A   1      32.809  24.728  21.749  1.00  0.00     0.026 A 
ATOM     16  C   UNL A   1      31.842  25.460  22.470  1.00  0.00     0.042 A 
BRANCH  16  17
ATOM     17  N   UNL A   1      31.738  26.884  22.336  1.00  0.00    -0.352 N 
ATOM     18  H   UNL A   1      31.331  27.194  21.494  1.00  0.00     0.167 HD
BRANCH  17  19
ATOM     19  C   UNL A   1      32.137  27.931  23.239  1.00  0.00     0.088 A 
ATOM     20  C   UNL A   1      33.406  27.977  23.836  1.00  0.00     0.147 A 
ATOM     21  C   UNL A   1      31.197  28.847  23.767  1.00  0.00     0.040 A 
ATOM     22  F   UNL A   1      34.453  27.382  23.243  1.00  0.00    -0.205 F 
ATOM     23  C   UNL A   1      33.654  28.648  25.036  1.00  0.00     0.041 A 
ATOM     24  C   UNL A   1      31.422  29.505  24.994  1.00  0.00     0.017 A 
ATOM     25  I   UNL A   1      29.416  29.350  22.751  1.00  0.00    -0.042 I 
ATOM     26  C   UNL A   1      32.637  29.358  25.657  1.00  0.00     0.004 A 
ENDBRANCH  17  19
ENDBRANCH  16  17
ENDBRANCH   9  10
ENDBRANCH   7   9
ENDBRANCH   6   7
ENDBRANCH   5   6
ENDBRANCH   4   5
ENDBRANCH   3   4
ENDBRANCH   2   3
ENDBRANCH   1   2
BRANCH   1  27
ATOM     27  O   UNL A   1      36.075  21.416  24.802  1.00  0.00    -0.377 OA
BRANCH  27  28
ATOM     28  C   UNL A   1      37.423  21.374  25.196  1.00  0.00     0.188 C 
BRANCH  28  29
ATOM     29  C   UNL A   1      38.180  20.120  24.729  1.00  0.00     0.188 C 
BRANCH  29  30
ATOM     30  O   UNL A   1      39.001  19.545  25.742  1.00  0.00    -0.376 OA
BRANCH  30  31
ATOM     31  C   UNL A   1      40.337  20.070  25.780  1.00  0.00     0.202 C 
BRANCH  31  32
ATOM     32  C   UNL A   1      40.827  20.662  27.137  1.00  0.00     0.261 C 
BRANCH  32  33
ATOM     33  O   UNL A   1      40.429  22.051  27.329  1.00  0.00    -0.460 OA
BRANCH  33  34
ATOM     34  C   UNL A   1      41.324  23.042  27.007  1.00  0.00     0.338 C 
ATOM     35  O   UNL A   1      42.470  22.893  26.667  1.00  0.00    -0.246 OA
BRANCH  34  36
ATOM     36  C   UNL A   1      40.561  24.338  26.949  1.00  0.00     0.060 A 
ATOM     37  C   UNL A   1      40.933  25.360  26.079  1.00  0.00     0.016 A 
ATOM     38  C   UNL A   1      39.683  24.628  28.000  1.00  0.00     0.016 A 
ATOM     39  C   UNL A   1      40.598  26.694  26.391  1.00  0.00     0.010 A 
ATOM     40  C   UNL A   1      39.470  25.964  28.376  1.00  0.00     0.010 A 
ATOM     41  C   UNL A   1      40.007  27.021  27.624  1.00  0.00    -0.014 A 
BRANCH  41  42
ATOM     42  C   UNL A   1      40.260  28.337  28.294  1.00  0.00     0.031 A 
ATOM     43  C   UNL A   1      39.249  29.447  28.424  1.00  0.00     0.074 A 
ATOM     44  C   UNL A   1      41.367  28.430  29.089  1.00  0.00     0.049 A 
ATOM     45  N   UNL A   1      39.521  30.617  28.927  1.00  0.00    -0.248 NA
ATOM     46  C   UNL A   1      37.846  29.365  28.017  1.00  0.00     0.031 C 
ATOM     47  C   UNL A   1      41.586  29.340  30.218  1.00  0.00     0.029 A 
ATOM     48  N   UNL A   1      42.534  27.656  29.103  1.00  0.00    -0.354 N 
ATOM     49  C   UNL A   1      38.335  31.216  29.295  1.00  0.00     0.074 A 
ATOM     50  C   UNL A   1      37.331  30.482  28.558  1.00  0.00     0.031 C 
ATOM     51  C   UNL A   1      42.775  29.116  30.785  1.00  0.00     0.029 A 
ATOM     52  C   UNL A   1      43.527  28.352  29.830  1.00  0.00     0.049 A 
ATOM     53  H   UNL A   1      42.645  26.774  28.678  1.00  0.00     0.167 HD
ATOM     54  C   UNL A   1      38.303  32.133  30.313  1.00  0.00     0.031 A 
ATOM     55  C   UNL A   1      44.615  28.870  29.181  1.00  0.00     0.031 A 
ATOM     56  C   UNL A   1      39.632  32.579  30.789  1.00  0.00     0.049 A 
ATOM     57  C   UNL A   1      44.603  30.397  29.069  1.00  0.00     0.074 A 
ATOM     58  C   UNL A   1      40.201  32.914  32.013  1.00  0.00     0.029 A 
ATOM     59  N   UNL A   1      40.681  32.656  29.883  1.00  0.00    -0.354 N 
ATOM     60  N   UNL A   1      43.809  31.191  29.750  1.00  0.00    -0.248 NA
ATOM     61  C   UNL A   1      45.426  31.159  28.132  1.00  0.00     0.031 C 
ATOM     62  C   UNL A   1      41.595  33.170  31.820  1.00  0.00     0.029 A 
ATOM     63  C   UNL A   1      41.858  33.065  30.469  1.00  0.00     0.049 A 
ATOM     64  H   UNL A   1      40.593  32.444  28.926  1.00  0.00     0.167 HD
ATOM     65  C   UNL A   1      43.853  32.463  29.239  1.00  0.00     0.074 A 
ATOM     66  C   UNL A   1      44.935  32.405  28.271  1.00  0.00     0.031 C 
ATOM     67  C   UNL A   1      42.949  33.434  29.580  1.00  0.00     0.031 A 
BRANCH  54  68
ATOM     68  C   UNL A   1      37.025  32.551  31.039  1.00  0.00    -0.014 A 
ATOM     69  C   UNL A   1      36.770  32.087  32.347  1.00  0.00     0.009 A 
ATOM     70  C   UNL A   1      35.982  33.291  30.448  1.00  0.00     0.009 A 
ATOM     71  C   UNL A   1      35.556  32.331  33.012  1.00  0.00     0.001 A 
ATOM     72  C   UNL A   1      34.786  33.584  31.128  1.00  0.00     0.001 A 
ATOM     73  C   UNL A   1      34.567  33.091  32.406  1.00  0.00     0.000 A 
ENDBRANCH  54  68
BRANCH  55  74
ATOM     74  C   UNL A   1      45.191  27.837  28.265  1.00  0.00    -0.014 A 
ATOM     75  C   UNL A   1      45.478  26.593  28.876  1.00  0.00     0.009 A 
ATOM     76  C   UNL A   1      44.911  27.847  26.889  1.00  0.00     0.009 A 
ATOM     77  C   UNL A   1      45.273  25.391  28.193  1.00  0.00     0.001 A 
ATOM     78  C   UNL A   1      44.738  26.633  26.200  1.00  0.00     0.001 A 
ATOM     79  C   UNL A   1      44.860  25.412  26.867  1.00  0.00     0.000 A 
ENDBRANCH  55  74
BRANCH  67  80
ATOM     80  C   UNL A   1      42.876  34.834  28.999  1.00  0.00    -0.014 A 
ATOM     81  C   UNL A   1      43.098  36.000  29.733  1.00  0.00     0.009 A 
ATOM     82  C   UNL A   1      42.476  35.008  27.649  1.00  0.00     0.009 A 
ATOM     83  C   UNL A   1      43.016  37.263  29.124  1.00  0.00     0.001 A 
ATOM     84  C   UNL A   1      42.371  36.261  27.044  1.00  0.00     0.001 A 
ATOM     85  C   UNL A   1      42.663  37.393  27.782  1.00  0.00     0.000 A 
ENDBRANCH  67  80
ENDBRANCH  41  42
ENDBRANCH  34  36
ENDBRANCH  33  34
ENDBRANCH  32  33
ENDBRANCH  31  32
ENDBRANCH  30  31
ENDBRANCH  29  30
ENDBRANCH  28  29
ENDBRANCH  27  28
ENDBRANCH   1  27
TORSDOF 23
ENDMDL
MODEL 2
REMARK VINA RESULT:      -8.7      3.180      7.378
REMARK SMILES Cc1ccc(Nc2c(F)cccc2I)c(CC(=O)OCCOCCOCCOCCOC(=O)c2ccc(-c3c4nc(c(-c5ccccc5)c5ccc([nH]5)c(-c5ccccc5)c5nc(c(-c6ccccc6)c6ccc3[nH]6)C=C5)C=C4)cc2)c1
REMARK SMILES IDX 24 1 23 2 22 3 21 4 20 5 19 6 17 7 18 8 16 9 15 10 1 11 2 12
REMARK SMILES IDX 3 13 82 14 4 15 5 16 6 17 7 19 8 20 13 21 9 22 10 23 12 24
REMARK SMILES IDX 14 25 11 26 25 27 26 28 27 29 28 30 29 31 30 32 31 33 32 34
REMARK SMILES IDX 33 35 34 36 35 37 81 38 36 39 80 40 37 41 38 42 39 43 74 44
REMARK SMILES IDX 40 45 79 46 73 47 75 48 41 49 78 50 72 51 71 52 42 54 64 55
REMARK SMILES IDX 49 56 63 57 50 58 53 59 62 60 76 61 51 62 52 63 61 65 77 66
REMARK SMILES IDX 54 67 43 68 44 69 48 70 45 71 47 72 46 73 65 74 66 75 70 76
REMARK SMILES IDX 67 77 69 78 68 79 55 80 56 81 60 82 57 83 59 84 58 85
REMARK H PARENT 6 18 75 53 53 64
REMARK Flexibility Score: inf
ROOT
ATOM      1  C   UNL A   1      34.810  24.598  25.267  1.00  0.00     0.188 C 
ENDROOT
BRANCH   1   2
ATOM      2  C   UNL A   1      34.263  25.841  24.569  1.00  0.00     0.188 C 
BRANCH   2   3
ATOM      3  O   UNL A   1      33.840  26.949  25.349  1.00  0.00    -0.376 OA
BRANCH   3   4
ATOM      4  C   UNL A   1      33.056  27.879  24.631  1.00  0.00     0.202 C 
BRANCH   4   5
ATOM      5  C   UNL A   1      31.712  28.291  25.229  1.00  0.00     0.261 C 
BRANCH   5   6
ATOM      6  O   UNL A   1      30.582  27.582  24.687  1.00  0.00    -0.463 OA
BRANCH   6   7
ATOM      7  C   UNL A   1      30.296  26.394  25.270  1.00  0.00     0.310 C 
ATOM      8  O   UNL A   1      30.391  26.170  26.473  1.00  0.00    -0.252 OA
BRANCH   7   9
ATOM      9  C   UNL A   1      29.922  25.304  24.295  1.00  0.00     0.160 C 
BRANCH   9  10
ATOM     10  C   UNL A   1      30.989  24.691  23.403  1.00  0.00    -0.013 A 
ATOM     11  C   UNL A   1      32.839  25.957  20.254  1.00  0.00     0.044 C 
ATOM     12  C   UNL A   1      32.389  25.099  21.399  1.00  0.00    -0.051 A 
ATOM     13  C   UNL A   1      32.999  23.875  21.610  1.00  0.00     0.005 A 
ATOM     14  C   UNL A   1      31.385  25.492  22.287  1.00  0.00     0.009 A 
ATOM     15  C   UNL A   1      32.602  23.066  22.681  1.00  0.00     0.026 A 
ATOM     16  C   UNL A   1      31.620  23.433  23.625  1.00  0.00     0.042 A 
BRANCH  16  17
ATOM     17  N   UNL A   1      31.234  22.541  24.679  1.00  0.00    -0.352 N 
ATOM     18  H   UNL A   1      30.313  22.199  24.619  1.00  0.00     0.167 HD
BRANCH  17  19
ATOM     19  C   UNL A   1      31.984  22.068  25.813  1.00  0.00     0.088 A 
ATOM     20  C   UNL A   1      32.038  22.763  27.031  1.00  0.00     0.147 A 
ATOM     21  C   UNL A   1      32.904  21.000  25.696  1.00  0.00     0.040 A 
ATOM     22  F   UNL A   1      31.040  23.589  27.382  1.00  0.00    -0.205 F 
ATOM     23  C   UNL A   1      33.092  22.620  27.938  1.00  0.00     0.041 A 
ATOM     24  C   UNL A   1      33.990  20.865  26.585  1.00  0.00     0.017 A 
ATOM     25  I   UNL A   1      32.707  19.495  24.228  1.00  0.00    -0.042 I 
ATOM     26  C   UNL A   1      34.111  21.717  27.679  1.00  0.00     0.004 A 
ENDBRANCH  17  19
ENDBRANCH  16  17
ENDBRANCH   9  10
ENDBRANCH   7   9
ENDBRANCH   6   7
ENDBRANCH   5   6
ENDBRANCH   4   5
ENDBRANCH   3   4
ENDBRANCH   2   3
ENDBRANCH   1   2
BRANCH   1  27
ATOM     27  O   UNL A   1      35.838  23.995  24.514  1.00  0.00    -0.377 OA
BRANCH  27  28
ATOM     28  C   UNL A   1      36.472  22.947  25.200  1.00  0.00     0.188 C 
BRANCH  28  29
ATOM     29  C   UNL A   1      37.172  21.926  24.288  1.00  0.00     0.188 C 
BRANCH  29  30
ATOM     30  O   UNL A   1      36.959  20.574  24.686  1.00  0.00    -0.376 OA
BRANCH  30  31
ATOM     31  C   UNL A   1      38.167  19.851  24.969  1.00  0.00     0.202 C 
BRANCH  31  32
ATOM     32  C   UNL A   1      39.107  20.443  26.064  1.00  0.00     0.261 C 
BRANCH  32  33
ATOM     33  O   UNL A   1      40.393  19.761  26.138  1.00  0.00    -0.460 OA
BRANCH  33  34
ATOM     34  C   UNL A   1      41.381  20.304  26.923  1.00  0.00     0.338 C 
ATOM     35  O   UNL A   1      42.183  19.700  27.590  1.00  0.00    -0.246 OA
BRANCH  34  36
ATOM     36  C   UNL A   1      41.421  21.781  26.641  1.00  0.00     0.060 A 
ATOM     37  C   UNL A   1      42.146  22.296  25.568  1.00  0.00     0.016 A 
ATOM     38  C   UNL A   1      40.994  22.653  27.650  1.00  0.00     0.016 A 
ATOM     39  C   UNL A   1      42.618  23.623  25.622  1.00  0.00     0.010 A 
ATOM     40  C   UNL A   1      41.578  23.925  27.761  1.00  0.00     0.010 A 
ATOM     41  C   UNL A   1      42.477  24.395  26.789  1.00  0.00    -0.014 A 
BRANCH  41  42
ATOM     42  C   UNL A   1      43.483  25.437  27.171  1.00  0.00     0.031 A 
ATOM     43  C   UNL A   1      44.950  25.176  27.400  1.00  0.00     0.074 A 
ATOM     44  C   UNL A   1      43.118  26.744  27.016  1.00  0.00     0.049 A 
ATOM     45  N   UNL A   1      45.786  26.079  27.823  1.00  0.00    -0.248 NA
ATOM     46  C   UNL A   1      45.626  23.897  27.179  1.00  0.00     0.031 C 
ATOM     47  C   UNL A   1      43.994  27.901  26.809  1.00  0.00     0.029 A 
ATOM     48  N   UNL A   1      41.844  27.320  26.933  1.00  0.00    -0.354 N 
ATOM     49  C   UNL A   1      47.064  25.661  27.516  1.00  0.00     0.074 A 
ATOM     50  C   UNL A   1      46.920  24.244  27.279  1.00  0.00     0.031 C 
ATOM     51  C   UNL A   1      43.277  29.019  26.659  1.00  0.00     0.029 A 
ATOM     52  C   UNL A   1      41.965  28.712  27.150  1.00  0.00     0.049 A 
ATOM     53  H   UNL A   1      41.005  26.837  26.753  1.00  0.00     0.167 HD
ATOM     54  C   UNL A   1      48.066  26.576  27.310  1.00  0.00     0.031 A 
ATOM     55  C   UNL A   1      41.468  29.272  28.296  1.00  0.00     0.031 A 
ATOM     56  C   UNL A   1      47.720  27.969  27.674  1.00  0.00     0.049 A 
ATOM     57  C   UNL A   1      42.548  29.721  29.286  1.00  0.00     0.074 A 
ATOM     58  C   UNL A   1      47.995  29.235  27.172  1.00  0.00     0.029 A 
ATOM     59  N   UNL A   1      46.849  28.193  28.731  1.00  0.00    -0.354 N 
ATOM     60  N   UNL A   1      43.823  29.842  28.999  1.00  0.00    -0.248 NA
ATOM     61  C   UNL A   1      42.301  30.000  30.699  1.00  0.00     0.031 C 
ATOM     62  C   UNL A   1      47.263  30.202  27.931  1.00  0.00     0.029 A 
ATOM     63  C   UNL A   1      46.604  29.531  28.941  1.00  0.00     0.049 A 
ATOM     64  H   UNL A   1      46.451  27.473  29.272  1.00  0.00     0.167 HD
ATOM     65  C   UNL A   1      44.558  30.000  30.145  1.00  0.00     0.074 A 
ATOM     66  C   UNL A   1      43.549  30.163  31.178  1.00  0.00     0.031 C 
ATOM     67  C   UNL A   1      45.924  29.895  30.175  1.00  0.00     0.031 A 
BRANCH  54  68
ATOM     68  C   UNL A   1      49.380  26.248  26.603  1.00  0.00    -0.014 A 
ATOM     69  C   UNL A   1      50.390  25.532  27.281  1.00  0.00     0.009 A 
ATOM     70  C   UNL A   1      49.733  26.722  25.324  1.00  0.00     0.009 A 
ATOM     71  C   UNL A   1      51.664  25.317  26.730  1.00  0.00     0.001 A 
ATOM     72  C   UNL A   1      50.988  26.463  24.744  1.00  0.00     0.001 A 
ATOM     73  C   UNL A   1      51.960  25.772  25.453  1.00  0.00     0.000 A 
ENDBRANCH  54  68
BRANCH  55  74
ATOM     74  C   UNL A   1      40.080  28.770  28.541  1.00  0.00    -0.014 A 
ATOM     75  C   UNL A   1      39.984  27.730  29.496  1.00  0.00     0.009 A 
ATOM     76  C   UNL A   1      38.963  29.598  28.352  1.00  0.00     0.009 A 
ATOM     77  C   UNL A   1      38.903  27.663  30.381  1.00  0.00     0.001 A 
ATOM     78  C   UNL A   1      37.865  29.503  29.225  1.00  0.00     0.001 A 
ATOM     79  C   UNL A   1      37.865  28.579  30.272  1.00  0.00     0.000 A 
ENDBRANCH  55  74
BRANCH  67  80
ATOM     80  C   UNL A   1      46.802  29.972  31.409  1.00  0.00    -0.014 A 
ATOM     81  C   UNL A   1      46.662  29.143  32.524  1.00  0.00     0.009 A 
ATOM     82  C   UNL A   1      47.780  30.995  31.507  1.00  0.00     0.009 A 
ATOM     83  C   UNL A   1      47.516  29.271  33.632  1.00  0.00     0.001 A 
ATOM     84  C   UNL A   1      48.616  31.143  32.614  1.00  0.00     0.001 A 
ATOM     85  C   UNL A   1      48.496  30.262  33.672  1.00  0.00     0.000 A 
ENDBRANCH  67  80
ENDBRANCH  41  42
ENDBRANCH  34  36
ENDBRANCH  33  34
ENDBRANCH  32  33
ENDBRANCH  31  32
ENDBRANCH  30  31
ENDBRANCH  29  30
ENDBRANCH  28  29
ENDBRANCH  27  28
ENDBRANCH   1  27
TORSDOF 23
ENDMDL
MODEL 3
REMARK VINA RESULT:      -8.3      3.386      7.061
REMARK SMILES Cc1ccc(Nc2c(F)cccc2I)c(CC(=O)OCCOCCOCCOCCOC(=O)c2ccc(-c3c4nc(c(-c5ccccc5)c5ccc([nH]5)c(-c5ccccc5)c5nc(c(-c6ccccc6)c6ccc3[nH]6)C=C5)C=C4)cc2)c1
REMARK SMILES IDX 24 1 23 2 22 3 21 4 20 5 19 6 17 7 18 8 16 9 15 10 1 11 2 12
REMARK SMILES IDX 3 13 82 14 4 15 5 16 6 17 7 19 8 20 13 21 9 22 10 23 12 24
REMARK SMILES IDX 14 25 11 26 25 27 26 28 27 29 28 30 29 31 30 32 31 33 32 34
REMARK SMILES IDX 33 35 34 36 35 37 81 38 36 39 80 40 37 41 38 42 39 43 74 44
REMARK SMILES IDX 40 45 79 46 73 47 75 48 41 49 78 50 72 51 71 52 42 54 64 55
REMARK SMILES IDX 49 56 63 57 50 58 53 59 62 60 76 61 51 62 52 63 61 65 77 66
REMARK SMILES IDX 54 67 43 68 44 69 48 70 45 71 47 72 46 73 65 74 66 75 70 76
REMARK SMILES IDX 67 77 69 78 68 79 55 80 56 81 60 82 57 83 59 84 58 85
REMARK H PARENT 6 18 75 53 53 64
REMARK Flexibility Score: inf
ROOT
ATOM      1  C   UNL A   1      34.923  24.731  25.995  1.00  0.00     0.188 C 
ENDROOT
BRANCH   1   2
ATOM      2  C   UNL A   1      34.127  25.857  25.339  1.00  0.00     0.188 C 
BRANCH   2   3
ATOM      3  O   UNL A   1      33.649  26.929  26.137  1.00  0.00    -0.376 OA
BRANCH   3   4
ATOM      4  C   UNL A   1      32.409  27.447  25.702  1.00  0.00     0.202 C 
BRANCH   4   5
ATOM      5  C   UNL A   1      31.166  27.110  26.523  1.00  0.00     0.261 C 
BRANCH   5   6
ATOM      6  O   UNL A   1      30.325  26.101  25.934  1.00  0.00    -0.463 OA
BRANCH   6   7
ATOM      7  C   UNL A   1      30.733  24.820  26.101  1.00  0.00     0.310 C 
ATOM      8  O   UNL A   1      31.361  24.413  27.073  1.00  0.00    -0.252 OA
BRANCH   7   9
ATOM      9  C   UNL A   1      30.426  23.920  24.930  1.00  0.00     0.160 C 
BRANCH   9  10
ATOM     10  C   UNL A   1      31.404  23.830  23.770  1.00  0.00    -0.013 A 
ATOM     11  C   UNL A   1      33.028  26.487  21.480  1.00  0.00     0.044 C 
ATOM     12  C   UNL A   1      32.650  25.177  22.103  1.00  0.00    -0.051 A 
ATOM     13  C   UNL A   1      33.245  24.013  21.649  1.00  0.00     0.005 A 
ATOM     14  C   UNL A   1      31.729  25.076  23.149  1.00  0.00     0.009 A 
ATOM     15  C   UNL A   1      32.915  22.782  22.227  1.00  0.00     0.026 A 
ATOM     16  C   UNL A   1      32.019  22.632  23.307  1.00  0.00     0.042 A 
BRANCH  16  17
ATOM     17  N   UNL A   1      31.697  21.336  23.829  1.00  0.00    -0.352 N 
ATOM     18  H   UNL A   1      30.811  21.267  24.254  1.00  0.00     0.167 HD
BRANCH  17  19
ATOM     19  C   UNL A   1      32.467  20.120  23.831  1.00  0.00     0.088 A 
ATOM     20  C   UNL A   1      32.415  19.186  22.785  1.00  0.00     0.147 A 
ATOM     21  C   UNL A   1      33.142  19.676  24.992  1.00  0.00     0.040 A 
ATOM     22  F   UNL A   1      32.072  19.576  21.548  1.00  0.00    -0.205 F 
ATOM     23  C   UNL A   1      32.732  17.836  22.960  1.00  0.00     0.041 A 
ATOM     24  C   UNL A   1      33.437  18.311  25.194  1.00  0.00     0.017 A 
ATOM     25  I   UNL A   1      33.810  21.007  26.490  1.00  0.00    -0.042 I 
ATOM     26  C   UNL A   1      33.178  17.382  24.192  1.00  0.00     0.004 A 
ENDBRANCH  17  19
ENDBRANCH  16  17
ENDBRANCH   9  10
ENDBRANCH   7   9
ENDBRANCH   6   7
ENDBRANCH   5   6
ENDBRANCH   4   5
ENDBRANCH   3   4
ENDBRANCH   2   3
ENDBRANCH   1   2
BRANCH   1  27
ATOM     27  O   UNL A   1      35.797  24.115  25.076  1.00  0.00    -0.377 OA
BRANCH  27  28
ATOM     28  C   UNL A   1      36.972  23.637  25.678  1.00  0.00     0.188 C 
BRANCH  28  29
ATOM     29  C   UNL A   1      37.577  22.401  24.992  1.00  0.00     0.188 C 
BRANCH  29  30
ATOM     30  O   UNL A   1      38.291  21.552  25.886  1.00  0.00    -0.376 OA
BRANCH  30  31
ATOM     31  C   UNL A   1      39.680  21.889  26.029  1.00  0.00     0.202 C 
BRANCH  31  32
ATOM     32  C   UNL A   1      40.086  22.688  27.306  1.00  0.00     0.261 C 
BRANCH  32  33
ATOM     33  O   UNL A   1      41.146  23.657  27.057  1.00  0.00    -0.460 OA
BRANCH  33  34
ATOM     34  C   UNL A   1      41.822  24.183  28.131  1.00  0.00     0.338 C 
ATOM     35  O   UNL A   1      42.682  23.640  28.776  1.00  0.00    -0.246 OA
BRANCH  34  36
ATOM     36  C   UNL A   1      41.448  25.638  28.230  1.00  0.00     0.060 A 
ATOM     37  C   UNL A   1      42.413  26.641  28.169  1.00  0.00     0.016 A 
ATOM     38  C   UNL A   1      40.171  25.955  28.707  1.00  0.00     0.016 A 
ATOM     39  C   UNL A   1      42.161  27.885  28.781  1.00  0.00     0.010 A 
ATOM     40  C   UNL A   1      39.976  27.143  29.430  1.00  0.00     0.010 A 
ATOM     41  C   UNL A   1      41.006  28.090  29.556  1.00  0.00    -0.014 A 
BRANCH  41  42
ATOM     42  C   UNL A   1      41.000  29.021  30.730  1.00  0.00     0.031 A 
ATOM     43  C   UNL A   1      41.665  28.743  32.054  1.00  0.00     0.074 A 
ATOM     44  C   UNL A   1      40.628  30.315  30.499  1.00  0.00     0.049 A 
ATOM     45  N   UNL A   1      41.566  29.526  33.089  1.00  0.00    -0.248 NA
ATOM     46  C   UNL A   1      42.503  27.581  32.352  1.00  0.00     0.031 C 
ATOM     47  C   UNL A   1      41.002  31.506  31.267  1.00  0.00     0.029 A 
ATOM     48  N   UNL A   1      39.875  30.863  29.452  1.00  0.00    -0.354 N 
ATOM     49  C   UNL A   1      42.600  29.232  33.953  1.00  0.00     0.074 A 
ATOM     50  C   UNL A   1      43.040  27.920  33.536  1.00  0.00     0.031 C 
ATOM     51  C   UNL A   1      40.480  32.608  30.719  1.00  0.00     0.029 A 
ATOM     52  C   UNL A   1      39.444  32.153  29.836  1.00  0.00     0.049 A 
ATOM     53  H   UNL A   1      39.679  30.423  28.593  1.00  0.00     0.167 HD
ATOM     54  C   UNL A   1      43.096  30.191  34.798  1.00  0.00     0.031 A 
ATOM     55  C   UNL A   1      38.119  32.386  30.089  1.00  0.00     0.031 A 
ATOM     56  C   UNL A   1      42.295  31.434  34.866  1.00  0.00     0.049 A 
ATOM     57  C   UNL A   1      37.797  32.589  31.573  1.00  0.00     0.074 A 
ATOM     58  C   UNL A   1      42.559  32.794  34.987  1.00  0.00     0.029 A 
ATOM     59  N   UNL A   1      40.918  31.357  34.717  1.00  0.00    -0.354 N 
ATOM     60  N   UNL A   1      38.689  32.809  32.509  1.00  0.00    -0.248 NA
ATOM     61  C   UNL A   1      36.454  32.488  32.142  1.00  0.00     0.031 C 
ATOM     62  C   UNL A   1      41.326  33.514  34.887  1.00  0.00     0.029 A 
ATOM     63  C   UNL A   1      40.308  32.589  34.782  1.00  0.00     0.049 A 
ATOM     64  H   UNL A   1      40.430  30.512  34.580  1.00  0.00     0.167 HD
ATOM     65  C   UNL A   1      38.121  32.683  33.750  1.00  0.00     0.074 A 
ATOM     66  C   UNL A   1      36.703  32.550  33.464  1.00  0.00     0.031 C 
ATOM     67  C   UNL A   1      38.858  32.606  34.903  1.00  0.00     0.031 A 
BRANCH  54  68
ATOM     68  C   UNL A   1      44.453  30.088  35.493  1.00  0.00    -0.014 A 
ATOM     69  C   UNL A   1      44.625  29.212  36.586  1.00  0.00     0.009 A 
ATOM     70  C   UNL A   1      45.558  30.913  35.203  1.00  0.00     0.009 A 
ATOM     71  C   UNL A   1      45.807  29.171  37.344  1.00  0.00     0.001 A 
ATOM     72  C   UNL A   1      46.764  30.839  35.924  1.00  0.00     0.001 A 
ATOM     73  C   UNL A   1      46.884  29.977  37.004  1.00  0.00     0.000 A 
ENDBRANCH  54  68
BRANCH  55  74
ATOM     74  C   UNL A   1      37.288  31.806  28.989  1.00  0.00    -0.014 A 
ATOM     75  C   UNL A   1      36.956  30.440  29.151  1.00  0.00     0.009 A 
ATOM     76  C   UNL A   1      36.423  32.608  28.229  1.00  0.00     0.009 A 
ATOM     77  C   UNL A   1      35.705  29.952  28.764  1.00  0.00     0.001 A 
ATOM     78  C   UNL A   1      35.179  32.101  27.813  1.00  0.00     0.001 A 
ATOM     79  C   UNL A   1      34.799  30.797  28.134  1.00  0.00     0.000 A 
ENDBRANCH  55  74
BRANCH  67  80
ATOM     80  C   UNL A   1      38.313  32.381  36.301  1.00  0.00    -0.014 A 
ATOM     81  C   UNL A   1      37.860  31.149  36.777  1.00  0.00     0.009 A 
ATOM     82  C   UNL A   1      38.160  33.487  37.176  1.00  0.00     0.009 A 
ATOM     83  C   UNL A   1      37.371  31.017  38.087  1.00  0.00     0.001 A 
ATOM     84  C   UNL A   1      37.654  33.368  38.470  1.00  0.00     0.001 A 
ATOM     85  C   UNL A   1      37.277  32.121  38.934  1.00  0.00     0.000 A 
ENDBRANCH  67  80
ENDBRANCH  41  42
ENDBRANCH  34  36
ENDBRANCH  33  34
ENDBRANCH  32  33
ENDBRANCH  31  32
ENDBRANCH  30  31
ENDBRANCH  29  30
ENDBRANCH  28  29
ENDBRANCH  27  28
ENDBRANCH   1  27
TORSDOF 23
ENDMDL
