MODEL 1
REMARK VINA RESULT:     -11.1      0.000      0.000
REMARK SMILES Cc1cccc([C@@H](CC(F)(F)F)C(=O)OCCOCCOCCOCCOC(=O)c2ccc(-c3c4nc(c(-c5ccccc5)c5ccc([nH]5)c(-c5ccccc5)c5nc(c(-c6ccccc6)c6ccc3[nH]6)C=C5)C=C4)cc2)c1
REMARK SMILES IDX 21 1 20 2 19 3 18 4 17 5 16 6 15 7 13 8 14 9 7 10 6 11 1 12
REMARK SMILES IDX 2 13 3 14 78 15 4 16 5 17 8 18 9 19 10 20 11 21 12 22 22 23
REMARK SMILES IDX 23 24 24 25 25 26 26 27 27 28 28 29 29 30 30 31 31 32 77 33
REMARK SMILES IDX 32 34 76 35 33 36 34 37 35 38 70 39 36 40 75 41 69 42 71 43
REMARK SMILES IDX 37 44 74 45 68 46 67 47 38 49 60 50 45 51 59 52 46 53 49 54
REMARK SMILES IDX 58 55 72 56 47 57 48 58 57 60 73 61 50 62 39 63 40 64 44 65
REMARK SMILES IDX 41 66 43 67 42 68 61 69 62 70 66 71 63 72 65 73 64 74 51 75
REMARK SMILES IDX 52 76 56 77 53 78 55 79 54 80
REMARK H PARENT 71 48 49 59
REMARK Flexibility Score: inf
ROOT
ATOM      1  O   UNL A   1      36.601  23.637  25.295  1.00  0.00    -0.377 OA
ENDROOT
BRANCH   1   2
ATOM      2  C   UNL A   1      35.338  24.271  25.008  1.00  0.00     0.188 C 
BRANCH   2   3
ATOM      3  C   UNL A   1      33.974  24.445  26.001  1.00  0.00     0.188 C 
BRANCH   3   4
ATOM      4  O   UNL A   1      32.420  23.604  26.122  1.00  0.00    -0.376 OA
BRANCH   4   5
ATOM      5  C   UNL A   1      31.012  23.370  25.059  1.00  0.00     0.202 C 
BRANCH   5   6
ATOM      6  C   UNL A   1      30.731  23.756  23.198  1.00  0.00     0.261 C 
BRANCH   6   7
ATOM      7  O   UNL A   1      31.644  24.903  22.123  1.00  0.00    -0.463 OA
BRANCH   7   8
ATOM      8  C   UNL A   1      32.396  26.125  22.049  1.00  0.00     0.313 C 
ATOM      9  O   UNL A   1      33.574  26.210  21.657  1.00  0.00    -0.252 OA
BRANCH   8  10
ATOM     10  C   UNL A   1      31.892  27.641  22.423  1.00  0.00     0.138 C 
BRANCH  10  11
ATOM     11  C   UNL A   1      30.472  28.333  22.554  1.00  0.00    -0.033 A 
ATOM     12  C   UNL A   1      28.581  31.574  21.565  1.00  0.00     0.044 C 
ATOM     13  C   UNL A   1      28.889  30.189  22.065  1.00  0.00    -0.051 A 
ATOM     14  C   UNL A   1      27.834  29.448  22.600  1.00  0.00     0.003 A 
ATOM     15  C   UNL A   1      30.187  29.615  22.005  1.00  0.00     0.008 A 
ATOM     16  C   UNL A   1      28.092  28.223  23.189  1.00  0.00     0.001 A 
ATOM     17  C   UNL A   1      29.400  27.723  23.233  1.00  0.00     0.004 A 
ENDBRANCH  10  11
BRANCH  10  18
ATOM     18  C   UNL A   1      32.985  28.402  23.180  1.00  0.00     0.135 C 
BRANCH  18  19
ATOM     19  C   UNL A   1      32.834  28.369  24.670  1.00  0.00     0.390 C 
ATOM     20  F   UNL A   1      32.253  27.238  25.102  1.00  0.00    -0.171 F 
ATOM     21  F   UNL A   1      34.050  28.459  25.256  1.00  0.00    -0.171 F 
ATOM     22  F   UNL A   1      32.110  29.407  25.134  1.00  0.00    -0.171 F 
ENDBRANCH  18  19
ENDBRANCH  10  18
ENDBRANCH   8  10
ENDBRANCH   7   8
ENDBRANCH   6   7
ENDBRANCH   5   6
ENDBRANCH   4   5
ENDBRANCH   3   4
ENDBRANCH   2   3
ENDBRANCH   1   2
BRANCH   1  23
ATOM     23  C   UNL A   1      37.553  23.997  26.294  1.00  0.00     0.188 C 
BRANCH  23  24
ATOM     24  C   UNL A   1      38.923  23.384  26.183  1.00  0.00     0.188 C 
BRANCH  24  25
ATOM     25  O   UNL A   1      38.736  21.984  26.260  1.00  0.00    -0.376 OA
BRANCH  25  26
ATOM     26  C   UNL A   1      39.931  21.231  26.269  1.00  0.00     0.202 C 
BRANCH  26  27
ATOM     27  C   UNL A   1      41.139  22.144  26.076  1.00  0.00     0.261 C 
BRANCH  27  28
ATOM     28  O   UNL A   1      42.133  21.787  27.068  1.00  0.00    -0.460 OA
BRANCH  28  29
ATOM     29  C   UNL A   1      43.166  22.654  27.190  1.00  0.00     0.338 C 
ATOM     30  O   UNL A   1      44.225  22.596  26.544  1.00  0.00    -0.246 OA
BRANCH  29  31
ATOM     31  C   UNL A   1      43.011  23.462  28.423  1.00  0.00     0.060 A 
ATOM     32  C   UNL A   1      42.725  24.810  28.341  1.00  0.00     0.016 A 
ATOM     33  C   UNL A   1      43.345  23.001  29.676  1.00  0.00     0.016 A 
ATOM     34  C   UNL A   1      43.213  25.683  29.342  1.00  0.00     0.010 A 
ATOM     35  C   UNL A   1      43.727  23.933  30.677  1.00  0.00     0.010 A 
ATOM     36  C   UNL A   1      44.087  25.286  30.374  1.00  0.00    -0.014 A 
BRANCH  36  37
ATOM     37  C   UNL A   1      45.553  26.283  30.850  1.00  0.00     0.031 A 
ATOM     38  C   UNL A   1      47.130  26.873  29.785  1.00  0.00     0.074 A 
ATOM     39  C   UNL A   1      45.455  26.351  32.231  1.00  0.00     0.049 A 
ATOM     40  N   UNL A   1      48.359  26.298  29.921  1.00  0.00    -0.248 NA
ATOM     41  C   UNL A   1      47.443  27.401  28.293  1.00  0.00     0.031 C 
ATOM     42  C   UNL A   1      46.151  27.249  33.070  1.00  0.00     0.029 A 
ATOM     43  N   UNL A   1      44.972  25.468  33.211  1.00  0.00    -0.354 N 
ATOM     44  C   UNL A   1      49.312  26.289  28.944  1.00  0.00     0.074 A 
ATOM     45  C   UNL A   1      48.634  26.912  27.873  1.00  0.00     0.031 C 
ATOM     46  C   UNL A   1      46.580  26.670  34.197  1.00  0.00     0.029 A 
ATOM     47  C   UNL A   1      45.908  25.416  34.248  1.00  0.00     0.049 A 
ATOM     48  H   UNL A   1      44.122  24.973  33.174  1.00  0.00     0.167 HD
ATOM     49  C   UNL A   1      50.568  25.743  29.099  1.00  0.00     0.031 A 
ATOM     50  C   UNL A   1      46.160  24.467  35.160  1.00  0.00     0.031 A 
ATOM     51  C   UNL A   1      51.009  25.532  30.488  1.00  0.00     0.049 A 
ATOM     52  C   UNL A   1      47.623  24.125  35.215  1.00  0.00     0.074 A 
ATOM     53  C   UNL A   1      51.604  26.425  31.367  1.00  0.00     0.029 A 
ATOM     54  N   UNL A   1      50.777  24.380  31.239  1.00  0.00    -0.354 N 
ATOM     55  N   UNL A   1      48.466  24.351  34.228  1.00  0.00    -0.248 NA
ATOM     56  C   UNL A   1      48.259  23.505  36.370  1.00  0.00     0.031 C 
ATOM     57  C   UNL A   1      51.459  25.926  32.681  1.00  0.00     0.029 A 
ATOM     58  C   UNL A   1      50.909  24.657  32.609  1.00  0.00     0.049 A 
ATOM     59  H   UNL A   1      50.553  23.498  30.863  1.00  0.00     0.167 HD
ATOM     60  C   UNL A   1      49.690  23.802  34.546  1.00  0.00     0.074 A 
ATOM     61  C   UNL A   1      49.517  23.356  35.923  1.00  0.00     0.031 C 
ATOM     62  C   UNL A   1      50.746  23.665  33.677  1.00  0.00     0.031 A 
BRANCH  49  63
ATOM     63  C   UNL A   1      51.551  25.748  27.947  1.00  0.00    -0.014 A 
ATOM     64  C   UNL A   1      52.758  26.467  28.036  1.00  0.00     0.009 A 
ATOM     65  C   UNL A   1      51.305  25.068  26.739  1.00  0.00     0.009 A 
ATOM     66  C   UNL A   1      53.626  26.593  26.941  1.00  0.00     0.001 A 
ATOM     67  C   UNL A   1      52.169  25.201  25.637  1.00  0.00     0.001 A 
ATOM     68  C   UNL A   1      53.316  25.983  25.731  1.00  0.00     0.000 A 
ENDBRANCH  49  63
BRANCH  50  69
ATOM     69  C   UNL A   1      44.900  23.873  35.670  1.00  0.00    -0.014 A 
ATOM     70  C   UNL A   1      44.224  24.715  36.592  1.00  0.00     0.009 A 
ATOM     71  C   UNL A   1      44.119  23.070  34.823  1.00  0.00     0.009 A 
ATOM     72  C   UNL A   1      42.848  24.942  36.485  1.00  0.00     0.001 A 
ATOM     73  C   UNL A   1      42.732  23.282  34.743  1.00  0.00     0.001 A 
ATOM     74  C   UNL A   1      42.110  24.257  35.526  1.00  0.00     0.000 A 
ENDBRANCH  50  69
BRANCH  62  75
ATOM     75  C   UNL A   1      51.855  22.638  33.851  1.00  0.00    -0.014 A 
ATOM     76  C   UNL A   1      53.149  22.936  34.301  1.00  0.00     0.009 A 
ATOM     77  C   UNL A   1      51.550  21.265  33.711  1.00  0.00     0.009 A 
ATOM     78  C   UNL A   1      54.092  21.932  34.560  1.00  0.00     0.001 A 
ATOM     79  C   UNL A   1      52.467  20.256  34.022  1.00  0.00     0.001 A 
ATOM     80  C   UNL A   1      53.745  20.592  34.438  1.00  0.00     0.000 A 
ENDBRANCH  62  75
ENDBRANCH  36  37
ENDBRANCH  29  31
ENDBRANCH  28  29
ENDBRANCH  27  28
ENDBRANCH  26  27
ENDBRANCH  25  26
ENDBRANCH  24  25
ENDBRANCH  23  24
ENDBRANCH   1  23
TORSDOF 23
ENDMDL
MODEL 2
REMARK VINA RESULT:     -11.1      7.919     11.716
REMARK SMILES Cc1cccc([C@@H](CC(F)(F)F)C(=O)OCCOCCOCCOCCOC(=O)c2ccc(-c3c4nc(c(-c5ccccc5)c5ccc([nH]5)c(-c5ccccc5)c5nc(c(-c6ccccc6)c6ccc3[nH]6)C=C5)C=C4)cc2)c1
REMARK SMILES IDX 21 1 20 2 19 3 18 4 17 5 16 6 15 7 13 8 14 9 7 10 6 11 1 12
REMARK SMILES IDX 2 13 3 14 78 15 4 16 5 17 8 18 9 19 10 20 11 21 12 22 22 23
REMARK SMILES IDX 23 24 24 25 25 26 26 27 27 28 28 29 29 30 30 31 31 32 77 33
REMARK SMILES IDX 32 34 76 35 33 36 34 37 35 38 70 39 36 40 75 41 69 42 71 43
REMARK SMILES IDX 37 44 74 45 68 46 67 47 38 49 60 50 45 51 59 52 46 53 49 54
REMARK SMILES IDX 58 55 72 56 47 57 48 58 57 60 73 61 50 62 39 63 40 64 44 65
REMARK SMILES IDX 41 66 43 67 42 68 61 69 62 70 66 71 63 72 65 73 64 74 51 75
REMARK SMILES IDX 52 76 56 77 53 78 55 79 54 80
REMARK H PARENT 71 48 49 59
REMARK Flexibility Score: inf
ROOT
ATOM      1  O   UNL A   1      33.591  27.901  26.699  1.00  0.00    -0.377 OA
ENDROOT
BRANCH   1   2
ATOM      2  C   UNL A   1      33.171  26.719  25.988  1.00  0.00     0.188 C 
BRANCH   2   3
ATOM      3  C   UNL A   1      31.604  26.218  25.571  1.00  0.00     0.188 C 
BRANCH   3   4
ATOM      4  O   UNL A   1      30.904  25.395  24.168  1.00  0.00    -0.376 OA
BRANCH   4   5
ATOM      5  C   UNL A   1      30.714  23.703  23.647  1.00  0.00     0.202 C 
BRANCH   5   6
ATOM      6  C   UNL A   1      31.942  22.462  22.844  1.00  0.00     0.261 C 
BRANCH   6   7
ATOM      7  O   UNL A   1      33.701  22.197  23.220  1.00  0.00    -0.463 OA
BRANCH   7   8
ATOM      8  C   UNL A   1      34.959  22.814  23.536  1.00  0.00     0.313 C 
ATOM      9  O   UNL A   1      35.696  23.386  22.711  1.00  0.00    -0.252 OA
BRANCH   8  10
ATOM     10  C   UNL A   1      35.683  22.931  25.004  1.00  0.00     0.138 C 
BRANCH  10  11
ATOM     11  C   UNL A   1      37.175  22.777  25.516  1.00  0.00    -0.033 A 
ATOM     12  C   UNL A   1      39.961  24.749  27.362  1.00  0.00     0.044 C 
ATOM     13  C   UNL A   1      39.178  23.641  26.713  1.00  0.00    -0.051 A 
ATOM     14  C   UNL A   1      39.781  22.385  26.637  1.00  0.00     0.003 A 
ATOM     15  C   UNL A   1      37.867  23.819  26.193  1.00  0.00     0.008 A 
ATOM     16  C   UNL A   1      39.155  21.369  25.937  1.00  0.00     0.001 A 
ATOM     17  C   UNL A   1      37.916  21.596  25.322  1.00  0.00     0.004 A 
ENDBRANCH  10  11
BRANCH  10  18
ATOM     18  C   UNL A   1      34.813  23.740  25.971  1.00  0.00     0.135 C 
BRANCH  18  19
ATOM     19  C   UNL A   1      33.980  22.902  26.893  1.00  0.00     0.390 C 
ATOM     20  F   UNL A   1      34.498  22.830  28.129  1.00  0.00    -0.171 F 
ATOM     21  F   UNL A   1      32.739  23.430  26.995  1.00  0.00    -0.171 F 
ATOM     22  F   UNL A   1      33.823  21.643  26.437  1.00  0.00    -0.171 F 
ENDBRANCH  18  19
ENDBRANCH  10  18
ENDBRANCH   8  10
ENDBRANCH   7   8
ENDBRANCH   6   7
ENDBRANCH   5   6
ENDBRANCH   4   5
ENDBRANCH   3   4
ENDBRANCH   2   3
ENDBRANCH   1   2
BRANCH   1  23
ATOM     23  C   UNL A   1      33.916  29.179  26.158  1.00  0.00     0.188 C 
BRANCH  23  24
ATOM     24  C   UNL A   1      33.978  30.333  27.121  1.00  0.00     0.188 C 
BRANCH  24  25
ATOM     25  O   UNL A   1      35.202  30.202  27.816  1.00  0.00    -0.376 OA
BRANCH  25  26
ATOM     26  C   UNL A   1      35.363  31.095  28.898  1.00  0.00     0.202 C 
BRANCH  26  27
ATOM     27  C   UNL A   1      34.400  32.272  28.766  1.00  0.00     0.261 C 
BRANCH  27  28
ATOM     28  O   UNL A   1      34.262  32.887  30.070  1.00  0.00    -0.460 OA
BRANCH  28  29
ATOM     29  C   UNL A   1      35.263  33.729  30.421  1.00  0.00     0.338 C 
ATOM     30  O   UNL A   1      36.023  34.304  29.626  1.00  0.00    -0.246 OA
BRANCH  29  31
ATOM     31  C   UNL A   1      35.550  33.604  31.871  1.00  0.00     0.060 A 
ATOM     32  C   UNL A   1      35.940  34.708  32.601  1.00  0.00     0.016 A 
ATOM     33  C   UNL A   1      35.660  32.395  32.517  1.00  0.00     0.016 A 
ATOM     34  C   UNL A   1      36.814  34.537  33.700  1.00  0.00     0.010 A 
ATOM     35  C   UNL A   1      36.470  32.302  33.681  1.00  0.00     0.010 A 
ATOM     36  C   UNL A   1      37.423  33.311  34.038  1.00  0.00    -0.014 A 
BRANCH  36  37
ATOM     37  C   UNL A   1      39.201  33.192  34.479  1.00  0.00     0.031 A 
ATOM     38  C   UNL A   1      40.453  34.550  35.226  1.00  0.00     0.074 A 
ATOM     39  C   UNL A   1      39.579  31.970  33.946  1.00  0.00     0.049 A 
ATOM     40  N   UNL A   1      41.411  35.156  34.466  1.00  0.00    -0.248 NA
ATOM     41  C   UNL A   1      40.421  35.752  36.302  1.00  0.00     0.031 C 
ATOM     42  C   UNL A   1      40.755  31.253  34.260  1.00  0.00     0.029 A 
ATOM     43  N   UNL A   1      39.182  31.247  32.808  1.00  0.00    -0.354 N 
ATOM     44  C   UNL A   1      41.944  36.381  34.741  1.00  0.00     0.074 A 
ATOM     45  C   UNL A   1      41.193  36.777  35.870  1.00  0.00     0.031 C 
ATOM     46  C   UNL A   1      41.315  30.690  33.184  1.00  0.00     0.029 A 
ATOM     47  C   UNL A   1      40.334  30.794  32.158  1.00  0.00     0.049 A 
ATOM     48  H   UNL A   1      38.255  31.088  32.519  1.00  0.00     0.167 HD
ATOM     49  C   UNL A   1      42.941  36.971  33.994  1.00  0.00     0.031 A 
ATOM     50  C   UNL A   1      40.549  30.462  30.878  1.00  0.00     0.031 A 
ATOM     51  C   UNL A   1      43.713  36.068  33.125  1.00  0.00     0.049 A 
ATOM     52  C   UNL A   1      41.763  31.154  30.323  1.00  0.00     0.074 A 
ATOM     53  C   UNL A   1      44.810  35.276  33.434  1.00  0.00     0.029 A 
ATOM     54  N   UNL A   1      43.381  35.736  31.812  1.00  0.00    -0.354 N 
ATOM     55  N   UNL A   1      42.271  32.261  30.828  1.00  0.00    -0.248 NA
ATOM     56  C   UNL A   1      42.505  30.670  29.166  1.00  0.00     0.031 C 
ATOM     57  C   UNL A   1      44.944  34.286  32.436  1.00  0.00     0.029 A 
ATOM     58  C   UNL A   1      44.027  34.549  31.432  1.00  0.00     0.049 A 
ATOM     59  H   UNL A   1      42.780  36.259  31.234  1.00  0.00     0.167 HD
ATOM     60  C   UNL A   1      43.290  32.702  30.011  1.00  0.00     0.074 A 
ATOM     61  C   UNL A   1      43.437  31.629  29.036  1.00  0.00     0.031 C 
ATOM     62  C   UNL A   1      43.909  33.926  30.109  1.00  0.00     0.031 A 
BRANCH  49  63
ATOM     63  C   UNL A   1      43.448  38.352  34.354  1.00  0.00    -0.014 A 
ATOM     64  C   UNL A   1      43.203  39.450  33.507  1.00  0.00     0.009 A 
ATOM     65  C   UNL A   1      44.198  38.604  35.518  1.00  0.00     0.009 A 
ATOM     66  C   UNL A   1      43.768  40.711  33.750  1.00  0.00     0.001 A 
ATOM     67  C   UNL A   1      44.773  39.865  35.758  1.00  0.00     0.001 A 
ATOM     68  C   UNL A   1      44.577  40.912  34.862  1.00  0.00     0.000 A 
ENDBRANCH  49  63
BRANCH  50  69
ATOM     69  C   UNL A   1      39.400  29.705  30.324  1.00  0.00    -0.014 A 
ATOM     70  C   UNL A   1      38.947  30.220  29.080  1.00  0.00     0.009 A 
ATOM     71  C   UNL A   1      39.319  28.320  30.528  1.00  0.00     0.009 A 
ATOM     72  C   UNL A   1      38.683  29.368  28.003  1.00  0.00     0.001 A 
ATOM     73  C   UNL A   1      39.022  27.470  29.448  1.00  0.00     0.001 A 
ATOM     74  C   UNL A   1      38.766  27.991  28.177  1.00  0.00     0.000 A 
ENDBRANCH  50  69
BRANCH  62  75
ATOM     75  C   UNL A   1      44.628  34.603  28.952  1.00  0.00    -0.014 A 
ATOM     76  C   UNL A   1      45.956  34.344  28.581  1.00  0.00     0.009 A 
ATOM     77  C   UNL A   1      43.892  35.435  28.076  1.00  0.00     0.009 A 
ATOM     78  C   UNL A   1      46.526  34.907  27.432  1.00  0.00     0.001 A 
ATOM     79  C   UNL A   1      44.438  35.953  26.898  1.00  0.00     0.001 A 
ATOM     80  C   UNL A   1      45.762  35.696  26.581  1.00  0.00     0.000 A 
ENDBRANCH  62  75
ENDBRANCH  36  37
ENDBRANCH  29  31
ENDBRANCH  28  29
ENDBRANCH  27  28
ENDBRANCH  26  27
ENDBRANCH  25  26
ENDBRANCH  24  25
ENDBRANCH  23  24
ENDBRANCH   1  23
TORSDOF 23
ENDMDL
MODEL 3
REMARK VINA RESULT:     -10.5      7.955     11.324
REMARK SMILES Cc1cccc([C@@H](CC(F)(F)F)C(=O)OCCOCCOCCOCCOC(=O)c2ccc(-c3c4nc(c(-c5ccccc5)c5ccc([nH]5)c(-c5ccccc5)c5nc(c(-c6ccccc6)c6ccc3[nH]6)C=C5)C=C4)cc2)c1
REMARK SMILES IDX 21 1 20 2 19 3 18 4 17 5 16 6 15 7 13 8 14 9 7 10 6 11 1 12
REMARK SMILES IDX 2 13 3 14 78 15 4 16 5 17 8 18 9 19 10 20 11 21 12 22 22 23
REMARK SMILES IDX 23 24 24 25 25 26 26 27 27 28 28 29 29 30 30 31 31 32 77 33
REMARK SMILES IDX 32 34 76 35 33 36 34 37 35 38 70 39 36 40 75 41 69 42 71 43
REMARK SMILES IDX 37 44 74 45 68 46 67 47 38 49 60 50 45 51 59 52 46 53 49 54
REMARK SMILES IDX 58 55 72 56 47 57 48 58 57 60 73 61 50 62 39 63 40 64 44 65
REMARK SMILES IDX 41 66 43 67 42 68 61 69 62 70 66 71 63 72 65 73 64 74 51 75
REMARK SMILES IDX 52 76 56 77 53 78 55 79 54 80
REMARK H PARENT 71 48 49 59
REMARK Flexibility Score: inf
ROOT
ATOM      1  O   UNL A   1      31.981  29.353  27.107  1.00  0.00    -0.377 OA
ENDROOT
BRANCH   1   2
ATOM      2  C   UNL A   1      31.470  28.103  26.601  1.00  0.00     0.188 C 
BRANCH   2   3
ATOM      3  C   UNL A   1      32.173  26.560  26.643  1.00  0.00     0.188 C 
BRANCH   3   4
ATOM      4  O   UNL A   1      31.577  24.942  27.047  1.00  0.00    -0.376 OA
BRANCH   4   5
ATOM      5  C   UNL A   1      30.475  23.766  26.293  1.00  0.00     0.202 C 
BRANCH   5   6
ATOM      6  C   UNL A   1      30.738  21.956  25.703  1.00  0.00     0.261 C 
BRANCH   6   7
ATOM      7  O   UNL A   1      32.282  21.134  25.206  1.00  0.00    -0.463 OA
BRANCH   7   8
ATOM      8  C   UNL A   1      33.615  21.306  24.698  1.00  0.00     0.313 C 
ATOM      9  O   UNL A   1      34.439  20.386  24.543  1.00  0.00    -0.252 OA
BRANCH   8  10
ATOM     10  C   UNL A   1      34.329  22.695  24.197  1.00  0.00     0.138 C 
BRANCH  10  11
ATOM     11  C   UNL A   1      33.824  23.976  23.410  1.00  0.00    -0.033 A 
ATOM     12  C   UNL A   1      33.812  27.850  23.626  1.00  0.00     0.044 C 
ATOM     13  C   UNL A   1      33.657  26.441  23.122  1.00  0.00    -0.051 A 
ATOM     14  C   UNL A   1      33.111  26.269  21.849  1.00  0.00     0.003 A 
ATOM     15  C   UNL A   1      34.049  25.302  23.875  1.00  0.00     0.008 A 
ATOM     16  C   UNL A   1      32.831  24.992  21.395  1.00  0.00     0.001 A 
ATOM     17  C   UNL A   1      33.109  23.880  22.201  1.00  0.00     0.004 A 
ENDBRANCH  10  11
BRANCH  10  18
ATOM     18  C   UNL A   1      35.603  22.968  25.001  1.00  0.00     0.135 C 
BRANCH  18  19
ATOM     19  C   UNL A   1      36.870  22.777  24.224  1.00  0.00     0.390 C 
ATOM     20  F   UNL A   1      36.831  23.374  23.023  1.00  0.00    -0.171 F 
ATOM     21  F   UNL A   1      37.912  23.298  24.912  1.00  0.00    -0.171 F 
ATOM     22  F   UNL A   1      37.158  21.474  24.027  1.00  0.00    -0.171 F 
ENDBRANCH  18  19
ENDBRANCH  10  18
ENDBRANCH   8  10
ENDBRANCH   7   8
ENDBRANCH   6   7
ENDBRANCH   5   6
ENDBRANCH   4   5
ENDBRANCH   3   4
ENDBRANCH   2   3
ENDBRANCH   1   2
BRANCH   1  23
ATOM     23  C   UNL A   1      32.476  30.462  26.360  1.00  0.00     0.188 C 
BRANCH  23  24
ATOM     24  C   UNL A   1      32.957  31.653  27.145  1.00  0.00     0.188 C 
BRANCH  24  25
ATOM     25  O   UNL A   1      34.285  31.359  27.532  1.00  0.00    -0.376 OA
BRANCH  25  26
ATOM     26  C   UNL A   1      34.687  31.952  28.750  1.00  0.00     0.202 C 
BRANCH  26  27
ATOM     27  C   UNL A   1      33.927  33.255  28.985  1.00  0.00     0.261 C 
BRANCH  27  28
ATOM     28  O   UNL A   1      34.123  33.645  30.366  1.00  0.00    -0.460 OA
BRANCH  28  29
ATOM     29  C   UNL A   1      35.378  34.041  30.684  1.00  0.00     0.338 C 
ATOM     30  O   UNL A   1      36.227  34.439  29.871  1.00  0.00    -0.246 OA
BRANCH  29  31
ATOM     31  C   UNL A   1      35.713  33.615  32.064  1.00  0.00     0.060 A 
ATOM     32  C   UNL A   1      36.034  34.552  33.024  1.00  0.00     0.016 A 
ATOM     33  C   UNL A   1      35.937  32.303  32.416  1.00  0.00     0.016 A 
ATOM     34  C   UNL A   1      36.950  34.210  34.048  1.00  0.00     0.010 A 
ATOM     35  C   UNL A   1      36.783  32.017  33.520  1.00  0.00     0.010 A 
ATOM     36  C   UNL A   1      37.663  32.994  34.090  1.00  0.00    -0.014 A 
BRANCH  36  37
ATOM     37  C   UNL A   1      39.456  32.927  34.478  1.00  0.00     0.031 A 
ATOM     38  C   UNL A   1      40.689  34.319  35.192  1.00  0.00     0.074 A 
ATOM     39  C   UNL A   1      39.854  31.718  33.927  1.00  0.00     0.049 A 
ATOM     40  N   UNL A   1      41.605  34.955  34.407  1.00  0.00    -0.248 NA
ATOM     41  C   UNL A   1      40.654  35.514  36.275  1.00  0.00     0.031 C 
ATOM     42  C   UNL A   1      41.060  31.036  34.202  1.00  0.00     0.029 A 
ATOM     43  N   UNL A   1      39.444  30.989  32.798  1.00  0.00    -0.354 N 
ATOM     44  C   UNL A   1      42.109  36.195  34.671  1.00  0.00     0.074 A 
ATOM     45  C   UNL A   1      41.381  36.564  35.825  1.00  0.00     0.031 C 
ATOM     46  C   UNL A   1      41.604  30.494  33.108  1.00  0.00     0.029 A 
ATOM     47  C   UNL A   1      40.589  30.572  32.112  1.00  0.00     0.049 A 
ATOM     48  H   UNL A   1      38.514  30.803  32.537  1.00  0.00     0.167 HD
ATOM     49  C   UNL A   1      43.065  36.818  33.898  1.00  0.00     0.031 A 
ATOM     50  C   UNL A   1      40.776  30.252  30.824  1.00  0.00     0.031 A 
ATOM     51  C   UNL A   1      43.838  35.941  33.002  1.00  0.00     0.049 A 
ATOM     52  C   UNL A   1      41.951  30.982  30.237  1.00  0.00     0.074 A 
ATOM     53  C   UNL A   1      44.967  35.182  33.274  1.00  0.00     0.029 A 
ATOM     54  N   UNL A   1      43.476  35.604  31.698  1.00  0.00    -0.354 N 
ATOM     55  N   UNL A   1      42.440  32.102  30.731  1.00  0.00    -0.248 NA
ATOM     56  C   UNL A   1      42.672  30.525  29.055  1.00  0.00     0.031 C 
ATOM     57  C   UNL A   1      45.099  34.199  32.267  1.00  0.00     0.029 A 
ATOM     58  C   UNL A   1      44.146  34.439  31.292  1.00  0.00     0.049 A 
ATOM     59  H   UNL A   1      42.843  36.112  31.140  1.00  0.00     0.167 HD
ATOM     60  C   UNL A   1      43.421  32.577  29.886  1.00  0.00     0.074 A 
ATOM     61  C   UNL A   1      43.570  31.512  28.902  1.00  0.00     0.031 C 
ATOM     62  C   UNL A   1      44.006  33.818  29.971  1.00  0.00     0.031 A 
BRANCH  49  63
ATOM     63  C   UNL A   1      43.542  38.212  34.249  1.00  0.00    -0.014 A 
ATOM     64  C   UNL A   1      44.391  38.423  35.353  1.00  0.00     0.009 A 
ATOM     65  C   UNL A   1      43.153  39.352  33.521  1.00  0.00     0.009 A 
ATOM     66  C   UNL A   1      44.745  39.713  35.776  1.00  0.00     0.001 A 
ATOM     67  C   UNL A   1      43.499  40.646  33.949  1.00  0.00     0.001 A 
ATOM     68  C   UNL A   1      44.275  40.827  35.091  1.00  0.00     0.000 A 
ENDBRANCH  49  63
BRANCH  50  69
ATOM     69  C   UNL A   1      39.633  29.464  30.302  1.00  0.00    -0.014 A 
ATOM     70  C   UNL A   1      39.297  29.798  28.963  1.00  0.00     0.009 A 
ATOM     71  C   UNL A   1      39.469  28.130  30.705  1.00  0.00     0.009 A 
ATOM     72  C   UNL A   1      39.069  28.801  28.008  1.00  0.00     0.001 A 
ATOM     73  C   UNL A   1      39.209  27.136  29.744  1.00  0.00     0.001 A 
ATOM     74  C   UNL A   1      39.071  27.465  28.393  1.00  0.00     0.000 A 
ENDBRANCH  50  69
BRANCH  62  75
ATOM     75  C   UNL A   1      44.669  34.521  28.796  1.00  0.00    -0.014 A 
ATOM     76  C   UNL A   1      46.009  34.348  28.421  1.00  0.00     0.009 A 
ATOM     77  C   UNL A   1      43.872  35.282  27.910  1.00  0.00     0.009 A 
ATOM     78  C   UNL A   1      46.533  34.927  27.257  1.00  0.00     0.001 A 
ATOM     79  C   UNL A   1      44.374  35.814  26.718  1.00  0.00     0.001 A 
ATOM     80  C   UNL A   1      45.710  35.644  26.396  1.00  0.00     0.000 A 
ENDBRANCH  62  75
ENDBRANCH  36  37
ENDBRANCH  29  31
ENDBRANCH  28  29
ENDBRANCH  27  28
ENDBRANCH  26  27
ENDBRANCH  25  26
ENDBRANCH  24  25
ENDBRANCH  23  24
ENDBRANCH   1  23
TORSDOF 23
ENDMDL
