MODEL 1
REMARK VINA RESULT:      -9.2      0.000      0.000
REMARK SMILES O=C(OCCOCCOCCOCCOC(=O)[C@H]1C[C@@H](O)CN1C(=O)c1cc(F)c(F)cc1Cl)c1ccc(-c2c3nc(c(-c4ccccc4)c4ccc([nH]4)c(-c4ccccc4)c4nc(c(-c5ccccc5)c5ccc2[nH]5)C=C4)C=C3)cc1
REMARK SMILES IDX 9 1 8 2 7 3 6 4 5 5 4 6 3 7 2 8 1 9 35 10 36 11 82 12 37 13
REMARK SMILES IDX 81 14 38 15 39 16 40 17 75 18 41 19 80 20 74 21 76 22 42 23
REMARK SMILES IDX 79 24 73 25 72 26 43 28 65 29 50 30 64 31 51 32 54 33 63 34
REMARK SMILES IDX 77 35 52 36 53 37 62 39 78 40 55 41 44 42 45 43 49 44 46 45
REMARK SMILES IDX 48 46 47 47 66 48 67 49 71 50 68 51 70 52 69 53 56 54 57 55
REMARK SMILES IDX 61 56 58 57 60 58 59 59 10 60 11 61 12 62 13 63 14 64 15 65
REMARK SMILES IDX 16 66 17 67 18 68 19 69 23 70 20 71 22 72 24 73 25 74 26 75
REMARK SMILES IDX 27 76 33 77 28 78 32 79 34 80 29 81 30 82 31 83 21 84
REMARK H PARENT 76 27 54 38 21 85
REMARK Flexibility Score: inf
ROOT
ATOM      1  O   UNL A   1      42.707  19.865  26.838  1.00  0.00    -0.377 OA
ENDROOT
BRANCH   1   2
ATOM      2  C   UNL A   1      43.138  18.655  26.236  1.00  0.00     0.188 C 
BRANCH   2   3
ATOM      3  C   UNL A   1      43.782  18.856  24.870  1.00  0.00     0.188 C 
BRANCH   3   4
ATOM      4  O   UNL A   1      45.197  18.636  24.942  1.00  0.00    -0.376 OA
BRANCH   4   5
ATOM      5  C   UNL A   1      45.939  19.752  25.419  1.00  0.00     0.202 C 
BRANCH   5   6
ATOM      6  C   UNL A   1      45.689  21.068  24.696  1.00  0.00     0.261 C 
BRANCH   6   7
ATOM      7  O   UNL A   1      45.140  22.105  25.517  1.00  0.00    -0.460 OA
BRANCH   7   8
ATOM      8  C   UNL A   1      43.911  22.671  25.475  1.00  0.00     0.338 C 
ATOM      9  O   UNL A   1      43.135  22.281  24.602  1.00  0.00    -0.246 OA
BRANCH   8  10
ATOM     10  C   UNL A   1      43.453  23.802  26.353  1.00  0.00     0.060 A 
ATOM     11  C   UNL A   1      42.348  23.532  27.184  1.00  0.00     0.016 A 
ATOM     12  C   UNL A   1      44.027  25.076  26.428  1.00  0.00     0.016 A 
ATOM     13  C   UNL A   1      41.854  24.489  28.075  1.00  0.00     0.010 A 
ATOM     14  C   UNL A   1      43.506  26.057  27.272  1.00  0.00     0.010 A 
ATOM     15  C   UNL A   1      42.451  25.751  28.132  1.00  0.00    -0.014 A 
BRANCH  15  16
ATOM     16  C   UNL A   1      42.204  26.644  29.277  1.00  0.00     0.031 A 
ATOM     17  C   UNL A   1      43.082  26.653  30.482  1.00  0.00     0.074 A 
ATOM     18  C   UNL A   1      41.090  27.399  29.201  1.00  0.00     0.049 A 
ATOM     19  N   UNL A   1      43.031  27.455  31.513  1.00  0.00    -0.248 NA
ATOM     20  C   UNL A   1      44.140  25.634  30.556  1.00  0.00     0.031 C 
ATOM     21  C   UNL A   1      40.151  27.385  28.073  1.00  0.00     0.029 A 
ATOM     22  N   UNL A   1      40.550  28.307  30.070  1.00  0.00    -0.354 N 
ATOM     23  C   UNL A   1      44.069  27.065  32.347  1.00  0.00     0.074 A 
ATOM     24  C   UNL A   1      44.702  25.920  31.727  1.00  0.00     0.031 C 
ATOM     25  C   UNL A   1      39.156  28.247  28.317  1.00  0.00     0.029 A 
ATOM     26  C   UNL A   1      39.391  28.878  29.608  1.00  0.00     0.049 A 
ATOM     27  H   UNL A   1      40.954  28.528  30.941  1.00  0.00     0.167 HD
ATOM     28  C   UNL A   1      44.448  27.637  33.514  1.00  0.00     0.031 A 
ATOM     29  C   UNL A   1      38.618  29.836  30.149  1.00  0.00     0.031 A 
ATOM     30  C   UNL A   1      43.757  28.756  34.109  1.00  0.00     0.049 A 
ATOM     31  C   UNL A   1      39.080  30.469  31.425  1.00  0.00     0.074 A 
ATOM     32  C   UNL A   1      44.078  29.452  35.260  1.00  0.00     0.029 A 
ATOM     33  N   UNL A   1      42.600  29.332  33.600  1.00  0.00    -0.354 N 
ATOM     34  N   UNL A   1      40.133  30.173  32.150  1.00  0.00    -0.248 NA
ATOM     35  C   UNL A   1      38.287  31.590  31.938  1.00  0.00     0.031 C 
ATOM     36  C   UNL A   1      43.084  30.408  35.480  1.00  0.00     0.029 A 
ATOM     37  C   UNL A   1      42.183  30.360  34.428  1.00  0.00     0.049 A 
ATOM     38  H   UNL A   1      42.145  29.050  32.774  1.00  0.00     0.167 HD
ATOM     39  C   UNL A   1      40.152  31.091  33.186  1.00  0.00     0.074 A 
ATOM     40  C   UNL A   1      39.008  31.962  32.988  1.00  0.00     0.031 C 
ATOM     41  C   UNL A   1      41.037  31.207  34.205  1.00  0.00     0.031 A 
BRANCH  28  42
ATOM     42  C   UNL A   1      45.664  27.103  34.224  1.00  0.00    -0.014 A 
ATOM     43  C   UNL A   1      45.525  26.146  35.242  1.00  0.00     0.009 A 
ATOM     44  C   UNL A   1      46.933  27.656  33.988  1.00  0.00     0.009 A 
ATOM     45  C   UNL A   1      46.622  25.774  36.024  1.00  0.00     0.001 A 
ATOM     46  C   UNL A   1      48.034  27.263  34.753  1.00  0.00     0.001 A 
ATOM     47  C   UNL A   1      47.876  26.332  35.780  1.00  0.00     0.000 A 
ENDBRANCH  28  42
BRANCH  29  48
ATOM     48  C   UNL A   1      37.423  30.308  29.401  1.00  0.00    -0.014 A 
ATOM     49  C   UNL A   1      36.322  29.458  29.201  1.00  0.00     0.009 A 
ATOM     50  C   UNL A   1      37.428  31.566  28.782  1.00  0.00     0.009 A 
ATOM     51  C   UNL A   1      35.263  29.851  28.378  1.00  0.00     0.001 A 
ATOM     52  C   UNL A   1      36.354  31.968  27.985  1.00  0.00     0.001 A 
ATOM     53  C   UNL A   1      35.279  31.106  27.774  1.00  0.00     0.000 A 
ENDBRANCH  29  48
BRANCH  41  54
ATOM     54  C   UNL A   1      40.816  32.323  35.184  1.00  0.00    -0.014 A 
ATOM     55  C   UNL A   1      41.444  33.562  34.976  1.00  0.00     0.009 A 
ATOM     56  C   UNL A   1      40.077  32.118  36.358  1.00  0.00     0.009 A 
ATOM     57  C   UNL A   1      41.348  34.571  35.933  1.00  0.00     0.001 A 
ATOM     58  C   UNL A   1      39.957  33.141  37.300  1.00  0.00     0.001 A 
ATOM     59  C   UNL A   1      40.601  34.361  37.092  1.00  0.00     0.000 A 
ENDBRANCH  41  54
ENDBRANCH  15  16
ENDBRANCH   8  10
ENDBRANCH   7   8
ENDBRANCH   6   7
ENDBRANCH   5   6
ENDBRANCH   4   5
ENDBRANCH   3   4
ENDBRANCH   2   3
ENDBRANCH   1   2
BRANCH   1  60
ATOM     60  C   UNL A   1      41.342  19.939  27.216  1.00  0.00     0.188 C 
BRANCH  60  61
ATOM     61  C   UNL A   1      40.269  19.893  26.126  1.00  0.00     0.188 C 
BRANCH  61  62
ATOM     62  O   UNL A   1      39.364  20.987  26.184  1.00  0.00    -0.376 OA
BRANCH  62  63
ATOM     63  C   UNL A   1      38.283  20.936  25.261  1.00  0.00     0.202 C 
BRANCH  63  64
ATOM     64  C   UNL A   1      37.385  22.187  25.214  1.00  0.00     0.261 C 
BRANCH  64  65
ATOM     65  O   UNL A   1      36.058  22.063  24.642  1.00  0.00    -0.462 OA
BRANCH  65  66
ATOM     66  C   UNL A   1      35.136  23.036  24.861  1.00  0.00     0.329 C 
ATOM     67  O   UNL A   1      35.384  24.081  25.439  1.00  0.00    -0.250 OA
BRANCH  66  68
ATOM     68  C   UNL A   1      33.721  22.673  24.288  1.00  0.00     0.198 C 
ATOM     69  C   UNL A   1      33.650  21.134  24.242  1.00  0.00     0.071 C 
ATOM     70  N   UNL A   1      32.470  23.010  25.039  1.00  0.00    -0.322 N 
ATOM     71  C   UNL A   1      33.051  20.774  25.601  1.00  0.00     0.136 C 
ATOM     72  C   UNL A   1      31.983  21.847  25.786  1.00  0.00     0.152 C 
BRANCH  70  73
ATOM     73  C   UNL A   1      31.721  24.144  24.707  1.00  0.00     0.256 C 
ATOM     74  O   UNL A   1      30.589  24.024  24.246  1.00  0.00    -0.269 OA
BRANCH  73  75
ATOM     75  C   UNL A   1      32.281  25.537  24.856  1.00  0.00     0.061 A 
ATOM     76  C   UNL A   1      32.244  26.188  26.099  1.00  0.00     0.057 A 
ATOM     77  C   UNL A   1      32.981  26.174  23.805  1.00  0.00     0.056 A 
ATOM     78  C   UNL A   1      32.848  27.434  26.277  1.00  0.00     0.159 A 
ATOM     79  C   UNL A   1      33.607  27.419  24.004  1.00  0.00     0.063 A 
ATOM     80  Cl  UNL A   1      33.100  25.527  22.207  1.00  0.00    -0.083 Cl
ATOM     81  F   UNL A   1      32.803  28.012  27.486  1.00  0.00    -0.204 F 
ATOM     82  C   UNL A   1      33.531  28.043  25.238  1.00  0.00     0.160 A 
ATOM     83  F   UNL A   1      34.136  29.224  25.428  1.00  0.00    -0.204 F 
ENDBRANCH  73  75
ENDBRANCH  70  73
BRANCH  71  84
ATOM     84  O   UNL A   1      33.978  20.867  26.683  1.00  0.00    -0.391 OA
ATOM     85  H   UNL A   1      33.848  20.118  27.285  1.00  0.00     0.211 HD
ENDBRANCH  71  84
ENDBRANCH  66  68
ENDBRANCH  65  66
ENDBRANCH  64  65
ENDBRANCH  63  64
ENDBRANCH  62  63
ENDBRANCH  61  62
ENDBRANCH  60  61
ENDBRANCH   1  60
TORSDOF 23
ENDMDL
MODEL 2
REMARK VINA RESULT:      -8.8      6.620      9.974
REMARK SMILES O=C(OCCOCCOCCOCCOC(=O)[C@H]1C[C@@H](O)CN1C(=O)c1cc(F)c(F)cc1Cl)c1ccc(-c2c3nc(c(-c4ccccc4)c4ccc([nH]4)c(-c4ccccc4)c4nc(c(-c5ccccc5)c5ccc2[nH]5)C=C4)C=C3)cc1
REMARK SMILES IDX 9 1 8 2 7 3 6 4 5 5 4 6 3 7 2 8 1 9 35 10 36 11 82 12 37 13
REMARK SMILES IDX 81 14 38 15 39 16 40 17 75 18 41 19 80 20 74 21 76 22 42 23
REMARK SMILES IDX 79 24 73 25 72 26 43 28 65 29 50 30 64 31 51 32 54 33 63 34
REMARK SMILES IDX 77 35 52 36 53 37 62 39 78 40 55 41 44 42 45 43 49 44 46 45
REMARK SMILES IDX 48 46 47 47 66 48 67 49 71 50 68 51 70 52 69 53 56 54 57 55
REMARK SMILES IDX 61 56 58 57 60 58 59 59 10 60 11 61 12 62 13 63 14 64 15 65
REMARK SMILES IDX 16 66 17 67 18 68 19 69 23 70 20 71 22 72 24 73 25 74 26 75
REMARK SMILES IDX 27 76 33 77 28 78 32 79 34 80 29 81 30 82 31 83 21 84
REMARK H PARENT 76 27 54 38 21 85
REMARK Flexibility Score: inf
ROOT
ATOM      1  O   UNL A   1      36.038  21.718  26.045  1.00  0.00    -0.377 OA
ENDROOT
BRANCH   1   2
ATOM      2  C   UNL A   1      36.571  22.996  25.740  1.00  0.00     0.188 C 
BRANCH   2   3
ATOM      3  C   UNL A   1      38.035  23.149  26.133  1.00  0.00     0.188 C 
BRANCH   3   4
ATOM      4  O   UNL A   1      38.836  22.138  25.508  1.00  0.00    -0.376 OA
BRANCH   4   5
ATOM      5  C   UNL A   1      39.587  21.341  26.416  1.00  0.00     0.202 C 
BRANCH   5   6
ATOM      6  C   UNL A   1      41.084  21.611  26.447  1.00  0.00     0.261 C 
BRANCH   6   7
ATOM      7  O   UNL A   1      41.449  22.978  26.227  1.00  0.00    -0.460 OA
BRANCH   7   8
ATOM      8  C   UNL A   1      41.713  23.950  27.131  1.00  0.00     0.338 C 
ATOM      9  O   UNL A   1      40.862  24.172  27.993  1.00  0.00    -0.246 OA
BRANCH   8  10
ATOM     10  C   UNL A   1      42.923  24.841  27.108  1.00  0.00     0.060 A 
ATOM     11  C   UNL A   1      43.442  25.148  25.835  1.00  0.00     0.016 A 
ATOM     12  C   UNL A   1      43.564  25.396  28.222  1.00  0.00     0.016 A 
ATOM     13  C   UNL A   1      44.540  25.999  25.681  1.00  0.00     0.010 A 
ATOM     14  C   UNL A   1      44.694  26.200  28.082  1.00  0.00     0.010 A 
ATOM     15  C   UNL A   1      45.156  26.543  26.811  1.00  0.00    -0.014 A 
BRANCH  15  16
ATOM     16  C   UNL A   1      46.063  27.697  26.686  1.00  0.00     0.031 A 
ATOM     17  C   UNL A   1      45.567  29.103  26.711  1.00  0.00     0.074 A 
ATOM     18  C   UNL A   1      47.360  27.402  26.472  1.00  0.00     0.049 A 
ATOM     19  N   UNL A   1      46.268  30.207  26.709  1.00  0.00    -0.248 NA
ATOM     20  C   UNL A   1      44.111  29.308  26.729  1.00  0.00     0.031 C 
ATOM     21  C   UNL A   1      47.897  26.040  26.368  1.00  0.00     0.029 A 
ATOM     22  N   UNL A   1      48.453  28.204  26.292  1.00  0.00    -0.354 N 
ATOM     23  C   UNL A   1      45.345  31.241  26.758  1.00  0.00     0.074 A 
ATOM     24  C   UNL A   1      44.029  30.635  26.737  1.00  0.00     0.031 C 
ATOM     25  C   UNL A   1      49.217  26.101  26.152  1.00  0.00     0.029 A 
ATOM     26  C   UNL A   1      49.618  27.501  26.109  1.00  0.00     0.049 A 
ATOM     27  H   UNL A   1      48.409  29.188  26.295  1.00  0.00     0.167 HD
ATOM     28  C   UNL A   1      45.598  32.570  26.828  1.00  0.00     0.031 A 
ATOM     29  C   UNL A   1      50.882  27.935  25.960  1.00  0.00     0.031 A 
ATOM     30  C   UNL A   1      46.930  33.124  26.807  1.00  0.00     0.049 A 
ATOM     31  C   UNL A   1      51.132  29.408  26.071  1.00  0.00     0.074 A 
ATOM     32  C   UNL A   1      47.313  34.448  26.922  1.00  0.00     0.029 A 
ATOM     33  N   UNL A   1      48.093  32.382  26.649  1.00  0.00    -0.354 N 
ATOM     34  N   UNL A   1      50.261  30.375  26.238  1.00  0.00    -0.248 NA
ATOM     35  C   UNL A   1      52.528  29.852  26.022  1.00  0.00     0.031 C 
ATOM     36  C   UNL A   1      48.700  34.513  26.774  1.00  0.00     0.029 A 
ATOM     37  C   UNL A   1      49.191  33.224  26.642  1.00  0.00     0.049 A 
ATOM     38  H   UNL A   1      48.130  31.403  26.555  1.00  0.00     0.167 HD
ATOM     39  C   UNL A   1      51.001  31.539  26.349  1.00  0.00     0.074 A 
ATOM     40  C   UNL A   1      52.397  31.154  26.241  1.00  0.00     0.031 C 
ATOM     41  C   UNL A   1      50.568  32.809  26.529  1.00  0.00     0.031 A 
BRANCH  28  42
ATOM     42  C   UNL A   1      44.440  33.523  26.959  1.00  0.00    -0.014 A 
ATOM     43  C   UNL A   1      43.918  34.162  25.822  1.00  0.00     0.009 A 
ATOM     44  C   UNL A   1      43.963  33.904  28.223  1.00  0.00     0.009 A 
ATOM     45  C   UNL A   1      42.966  35.177  25.950  1.00  0.00     0.001 A 
ATOM     46  C   UNL A   1      42.991  34.900  28.347  1.00  0.00     0.001 A 
ATOM     47  C   UNL A   1      42.502  35.545  27.212  1.00  0.00     0.000 A 
ENDBRANCH  28  42
BRANCH  29  48
ATOM     48  C   UNL A   1      51.976  26.939  25.821  1.00  0.00    -0.014 A 
ATOM     49  C   UNL A   1      52.647  26.448  26.954  1.00  0.00     0.009 A 
ATOM     50  C   UNL A   1      52.436  26.568  24.549  1.00  0.00     0.009 A 
ATOM     51  C   UNL A   1      53.766  25.624  26.814  1.00  0.00     0.001 A 
ATOM     52  C   UNL A   1      53.537  25.720  24.413  1.00  0.00     0.001 A 
ATOM     53  C   UNL A   1      54.208  25.258  25.545  1.00  0.00     0.000 A 
ENDBRANCH  29  48
BRANCH  41  54
ATOM     54  C   UNL A   1      51.612  33.884  26.634  1.00  0.00    -0.014 A 
ATOM     55  C   UNL A   1      51.962  34.623  25.492  1.00  0.00     0.009 A 
ATOM     56  C   UNL A   1      52.316  34.092  27.828  1.00  0.00     0.009 A 
ATOM     57  C   UNL A   1      53.010  35.541  25.541  1.00  0.00     0.001 A 
ATOM     58  C   UNL A   1      53.344  35.034  27.882  1.00  0.00     0.001 A 
ATOM     59  C   UNL A   1      53.697  35.749  26.737  1.00  0.00     0.000 A 
ENDBRANCH  41  54
ENDBRANCH  15  16
ENDBRANCH   8  10
ENDBRANCH   7   8
ENDBRANCH   6   7
ENDBRANCH   5   6
ENDBRANCH   4   5
ENDBRANCH   3   4
ENDBRANCH   2   3
ENDBRANCH   1   2
BRANCH   1  60
ATOM     60  C   UNL A   1      34.914  21.299  25.288  1.00  0.00     0.188 C 
BRANCH  60  61
ATOM     61  C   UNL A   1      33.909  22.350  24.812  1.00  0.00     0.188 C 
BRANCH  61  62
ATOM     62  O   UNL A   1      33.309  22.027  23.565  1.00  0.00    -0.376 OA
BRANCH  62  63
ATOM     63  C   UNL A   1      32.537  23.063  22.972  1.00  0.00     0.202 C 
BRANCH  63  64
ATOM     64  C   UNL A   1      33.141  23.707  21.709  1.00  0.00     0.261 C 
BRANCH  64  65
ATOM     65  O   UNL A   1      33.293  25.149  21.673  1.00  0.00    -0.462 OA
BRANCH  65  66
ATOM     66  C   UNL A   1      32.193  25.941  21.601  1.00  0.00     0.329 C 
ATOM     67  O   UNL A   1      31.440  25.962  20.642  1.00  0.00    -0.250 OA
BRANCH  66  68
ATOM     68  C   UNL A   1      31.992  26.823  22.884  1.00  0.00     0.198 C 
ATOM     69  C   UNL A   1      33.393  27.033  23.493  1.00  0.00     0.071 C 
ATOM     70  N   UNL A   1      31.491  28.231  22.788  1.00  0.00    -0.322 N 
ATOM     71  C   UNL A   1      33.866  28.327  22.833  1.00  0.00     0.136 C 
ATOM     72  C   UNL A   1      32.604  29.183  22.840  1.00  0.00     0.152 C 
BRANCH  70  73
ATOM     73  C   UNL A   1      30.145  28.527  23.028  1.00  0.00     0.256 C 
ATOM     74  O   UNL A   1      29.408  27.688  23.539  1.00  0.00    -0.269 OA
BRANCH  73  75
ATOM     75  C   UNL A   1      29.543  29.854  22.635  1.00  0.00     0.061 A 
ATOM     76  C   UNL A   1      28.828  29.981  21.433  1.00  0.00     0.057 A 
ATOM     77  C   UNL A   1      29.550  30.964  23.511  1.00  0.00     0.056 A 
ATOM     78  C   UNL A   1      28.180  31.173  21.104  1.00  0.00     0.159 A 
ATOM     79  C   UNL A   1      28.872  32.152  23.180  1.00  0.00     0.063 A 
ATOM     80  Cl  UNL A   1      30.403  30.986  25.015  1.00  0.00    -0.083 Cl
ATOM     81  F   UNL A   1      27.495  31.246  19.954  1.00  0.00    -0.204 F 
ATOM     82  C   UNL A   1      28.196  32.250  21.975  1.00  0.00     0.160 A 
ATOM     83  F   UNL A   1      27.543  33.379  21.666  1.00  0.00    -0.204 F 
ENDBRANCH  73  75
ENDBRANCH  70  73
BRANCH  71  84
ATOM     84  O   UNL A   1      34.294  28.162  21.481  1.00  0.00    -0.391 OA
ATOM     85  H   UNL A   1      34.231  29.012  21.017  1.00  0.00     0.211 HD
ENDBRANCH  71  84
ENDBRANCH  66  68
ENDBRANCH  65  66
ENDBRANCH  64  65
ENDBRANCH  63  64
ENDBRANCH  62  63
ENDBRANCH  61  62
ENDBRANCH  60  61
ENDBRANCH   1  60
TORSDOF 23
ENDMDL
MODEL 3
REMARK VINA RESULT:      -8.6      6.209      9.718
REMARK SMILES O=C(OCCOCCOCCOCCOC(=O)[C@H]1C[C@@H](O)CN1C(=O)c1cc(F)c(F)cc1Cl)c1ccc(-c2c3nc(c(-c4ccccc4)c4ccc([nH]4)c(-c4ccccc4)c4nc(c(-c5ccccc5)c5ccc2[nH]5)C=C4)C=C3)cc1
REMARK SMILES IDX 9 1 8 2 7 3 6 4 5 5 4 6 3 7 2 8 1 9 35 10 36 11 82 12 37 13
REMARK SMILES IDX 81 14 38 15 39 16 40 17 75 18 41 19 80 20 74 21 76 22 42 23
REMARK SMILES IDX 79 24 73 25 72 26 43 28 65 29 50 30 64 31 51 32 54 33 63 34
REMARK SMILES IDX 77 35 52 36 53 37 62 39 78 40 55 41 44 42 45 43 49 44 46 45
REMARK SMILES IDX 48 46 47 47 66 48 67 49 71 50 68 51 70 52 69 53 56 54 57 55
REMARK SMILES IDX 61 56 58 57 60 58 59 59 10 60 11 61 12 62 13 63 14 64 15 65
REMARK SMILES IDX 16 66 17 67 18 68 19 69 23 70 20 71 22 72 24 73 25 74 26 75
REMARK SMILES IDX 27 76 33 77 28 78 32 79 34 80 29 81 30 82 31 83 21 84
REMARK H PARENT 76 27 54 38 21 85
REMARK Flexibility Score: inf
ROOT
ATOM      1  O   UNL A   1      36.506  21.947  25.085  1.00  0.00    -0.377 OA
ENDROOT
BRANCH   1   2
ATOM      2  C   UNL A   1      36.926  23.011  25.924  1.00  0.00     0.188 C 
BRANCH   2   3
ATOM      3  C   UNL A   1      38.420  22.994  26.220  1.00  0.00     0.188 C 
BRANCH   3   4
ATOM      4  O   UNL A   1      38.939  21.660  26.126  1.00  0.00    -0.376 OA
BRANCH   4   5
ATOM      5  C   UNL A   1      40.321  21.547  26.443  1.00  0.00     0.202 C 
BRANCH   5   6
ATOM      6  C   UNL A   1      40.792  22.357  27.642  1.00  0.00     0.261 C 
BRANCH   6   7
ATOM      7  O   UNL A   1      42.208  22.355  27.845  1.00  0.00    -0.460 OA
BRANCH   7   8
ATOM      8  C   UNL A   1      43.198  22.684  26.982  1.00  0.00     0.338 C 
ATOM      9  O   UNL A   1      43.713  21.773  26.332  1.00  0.00    -0.246 OA
BRANCH   8  10
ATOM     10  C   UNL A   1      43.778  24.061  26.820  1.00  0.00     0.060 A 
ATOM     11  C   UNL A   1      44.202  24.697  28.005  1.00  0.00     0.016 A 
ATOM     12  C   UNL A   1      43.943  24.755  25.616  1.00  0.00     0.016 A 
ATOM     13  C   UNL A   1      44.795  25.962  27.980  1.00  0.00     0.010 A 
ATOM     14  C   UNL A   1      44.481  26.041  25.587  1.00  0.00     0.010 A 
ATOM     15  C   UNL A   1      44.952  26.628  26.762  1.00  0.00    -0.014 A 
BRANCH  15  16
ATOM     16  C   UNL A   1      45.872  27.773  26.648  1.00  0.00     0.031 A 
ATOM     17  C   UNL A   1      45.396  29.184  26.716  1.00  0.00     0.074 A 
ATOM     18  C   UNL A   1      47.161  27.466  26.402  1.00  0.00     0.049 A 
ATOM     19  N   UNL A   1      46.112  30.278  26.727  1.00  0.00    -0.248 NA
ATOM     20  C   UNL A   1      43.944  29.407  26.766  1.00  0.00     0.031 C 
ATOM     21  C   UNL A   1      47.678  26.100  26.256  1.00  0.00     0.029 A 
ATOM     22  N   UNL A   1      48.262  28.258  26.221  1.00  0.00    -0.354 N 
ATOM     23  C   UNL A   1      45.203  31.323  26.817  1.00  0.00     0.074 A 
ATOM     24  C   UNL A   1      43.880  30.735  26.807  1.00  0.00     0.031 C 
ATOM     25  C   UNL A   1      48.994  26.149  26.016  1.00  0.00     0.029 A 
ATOM     26  C   UNL A   1      49.414  27.544  25.999  1.00  0.00     0.049 A 
ATOM     27  H   UNL A   1      48.230  29.241  26.248  1.00  0.00     0.167 HD
ATOM     28  C   UNL A   1      45.475  32.646  26.914  1.00  0.00     0.031 A 
ATOM     29  C   UNL A   1      50.680  27.966  25.837  1.00  0.00     0.031 A 
ATOM     30  C   UNL A   1      46.814  33.183  26.881  1.00  0.00     0.049 A 
ATOM     31  C   UNL A   1      50.951  29.432  25.978  1.00  0.00     0.074 A 
ATOM     32  C   UNL A   1      47.217  34.499  27.021  1.00  0.00     0.029 A 
ATOM     33  N   UNL A   1      47.964  32.430  26.684  1.00  0.00    -0.354 N 
ATOM     34  N   UNL A   1      50.097  30.405  26.184  1.00  0.00    -0.248 NA
ATOM     35  C   UNL A   1      52.353  29.859  25.913  1.00  0.00     0.031 C 
ATOM     36  C   UNL A   1      48.601  34.550  26.848  1.00  0.00     0.029 A 
ATOM     37  C   UNL A   1      49.073  33.258  26.676  1.00  0.00     0.049 A 
ATOM     38  H   UNL A   1      47.986  31.453  26.566  1.00  0.00     0.167 HD
ATOM     39  C   UNL A   1      50.855  31.557  26.309  1.00  0.00     0.074 A 
ATOM     40  C   UNL A   1      52.243  31.157  26.165  1.00  0.00     0.031 C 
ATOM     41  C   UNL A   1      50.442  32.828  26.527  1.00  0.00     0.031 A 
BRANCH  28  42
ATOM     42  C   UNL A   1      44.333  33.611  27.089  1.00  0.00    -0.014 A 
ATOM     43  C   UNL A   1      43.834  34.323  25.987  1.00  0.00     0.009 A 
ATOM     44  C   UNL A   1      43.850  33.927  28.370  1.00  0.00     0.009 A 
ATOM     45  C   UNL A   1      42.898  35.346  26.165  1.00  0.00     0.001 A 
ATOM     46  C   UNL A   1      42.895  34.932  28.542  1.00  0.00     0.001 A 
ATOM     47  C   UNL A   1      42.428  35.649  27.442  1.00  0.00     0.000 A 
ENDBRANCH  28  42
BRANCH  29  48
ATOM     48  C   UNL A   1      51.758  26.959  25.653  1.00  0.00    -0.014 A 
ATOM     49  C   UNL A   1      52.181  26.588  24.366  1.00  0.00     0.009 A 
ATOM     50  C   UNL A   1      52.283  26.277  26.761  1.00  0.00     0.009 A 
ATOM     51  C   UNL A   1      53.090  25.542  24.192  1.00  0.00     0.001 A 
ATOM     52  C   UNL A   1      53.215  25.251  26.584  1.00  0.00     0.001 A 
ATOM     53  C   UNL A   1      53.609  24.877  25.301  1.00  0.00     0.000 A 
ENDBRANCH  29  48
BRANCH  41  54
ATOM     54  C   UNL A   1      51.502  33.886  26.638  1.00  0.00    -0.014 A 
ATOM     55  C   UNL A   1      51.924  34.566  25.484  1.00  0.00     0.009 A 
ATOM     56  C   UNL A   1      52.150  34.135  27.856  1.00  0.00     0.009 A 
ATOM     57  C   UNL A   1      52.988  35.466  25.546  1.00  0.00     0.001 A 
ATOM     58  C   UNL A   1      53.193  35.058  27.920  1.00  0.00     0.001 A 
ATOM     59  C   UNL A   1      53.619  35.714  26.765  1.00  0.00     0.000 A 
ENDBRANCH  41  54
ENDBRANCH  15  16
ENDBRANCH   8  10
ENDBRANCH   7   8
ENDBRANCH   6   7
ENDBRANCH   5   6
ENDBRANCH   4   5
ENDBRANCH   3   4
ENDBRANCH   2   3
ENDBRANCH   1   2
BRANCH   1  60
ATOM     60  C   UNL A   1      36.226  22.272  23.734  1.00  0.00     0.188 C 
BRANCH  60  61
ATOM     61  C   UNL A   1      35.419  23.535  23.428  1.00  0.00     0.188 C 
BRANCH  61  62
ATOM     62  O   UNL A   1      34.457  23.351  22.399  1.00  0.00    -0.376 OA
BRANCH  62  63
ATOM     63  C   UNL A   1      33.283  24.145  22.511  1.00  0.00     0.202 C 
BRANCH  63  64
ATOM     64  C   UNL A   1      32.987  25.073  21.317  1.00  0.00     0.261 C 
BRANCH  64  65
ATOM     65  O   UNL A   1      31.804  25.910  21.369  1.00  0.00    -0.462 OA
BRANCH  65  66
ATOM     66  C   UNL A   1      31.158  26.092  22.549  1.00  0.00     0.329 C 
ATOM     67  O   UNL A   1      30.157  25.475  22.871  1.00  0.00    -0.250 OA
BRANCH  66  68
ATOM     68  C   UNL A   1      31.840  27.178  23.454  1.00  0.00     0.198 C 
ATOM     69  C   UNL A   1      32.046  28.421  22.566  1.00  0.00     0.071 C 
ATOM     70  N   UNL A   1      31.126  27.766  24.632  1.00  0.00    -0.322 N 
ATOM     71  C   UNL A   1      30.765  29.223  22.789  1.00  0.00     0.136 C 
ATOM     72  C   UNL A   1      30.529  29.058  24.287  1.00  0.00     0.152 C 
BRANCH  70  73
ATOM     73  C   UNL A   1      31.382  27.300  25.927  1.00  0.00     0.256 C 
ATOM     74  O   UNL A   1      31.414  28.083  26.872  1.00  0.00    -0.269 OA
BRANCH  73  75
ATOM     75  C   UNL A   1      31.668  25.844  26.204  1.00  0.00     0.061 A 
ATOM     76  C   UNL A   1      30.614  24.945  26.435  1.00  0.00     0.057 A 
ATOM     77  C   UNL A   1      32.972  25.309  26.102  1.00  0.00     0.056 A 
ATOM     78  C   UNL A   1      30.855  23.580  26.593  1.00  0.00     0.159 A 
ATOM     79  C   UNL A   1      33.200  23.926  26.238  1.00  0.00     0.063 A 
ATOM     80  Cl  UNL A   1      34.383  26.276  25.849  1.00  0.00    -0.083 Cl
ATOM     81  F   UNL A   1      29.818  22.755  26.796  1.00  0.00    -0.204 F 
ATOM     82  C   UNL A   1      32.139  23.071  26.489  1.00  0.00     0.160 A 
ATOM     83  F   UNL A   1      32.357  21.755  26.608  1.00  0.00    -0.204 F 
ENDBRANCH  73  75
ENDBRANCH  70  73
BRANCH  71  84
ATOM     84  O   UNL A   1      29.632  28.704  22.093  1.00  0.00    -0.391 OA
ATOM     85  H   UNL A   1      29.303  27.916  22.554  1.00  0.00     0.211 HD
ENDBRANCH  71  84
ENDBRANCH  66  68
ENDBRANCH  65  66
ENDBRANCH  64  65
ENDBRANCH  63  64
ENDBRANCH  62  63
ENDBRANCH  61  62
ENDBRANCH  60  61
ENDBRANCH   1  60
TORSDOF 23
ENDMDL
