MODEL 1
REMARK VINA RESULT:      -9.7      0.000      0.000
REMARK SMILES CC(=O)Nc1cc(NC(C)=O)cc(C(=O)Nc2ccc(Br)cc2C(=O)OCCOCCOCCOCCOC(=O)c2ccc(-c3c4nc(c(-c5ccccc5)c5ccc([nH]5)c(-c5ccccc5)c5nc(c(-c6ccccc6)c6ccc3[nH]6)C=C5)C=C4)cc2)c1
REMARK SMILES IDX 31 1 30 2 29 3 28 4 27 5 26 6 24 7 25 8 23 9 17 10 18 11
REMARK SMILES IDX 19 12 22 13 20 14 21 15 16 16 14 17 15 18 13 20 5 21 6 22
REMARK SMILES IDX 89 23 7 24 12 25 4 26 1 27 2 28 3 29 8 31 9 32 10 34 11 35
REMARK SMILES IDX 32 36 33 37 34 38 35 39 36 40 37 41 38 42 39 43 40 44 41 45
REMARK SMILES IDX 42 46 88 47 43 48 87 49 44 50 45 51 46 52 81 53 47 54 86 55
REMARK SMILES IDX 80 56 82 57 48 58 85 59 79 60 78 61 49 63 71 64 56 65 70 66
REMARK SMILES IDX 57 67 60 68 69 69 83 70 58 71 59 72 68 74 84 75 61 76 50 77
REMARK SMILES IDX 51 78 55 79 52 80 54 81 53 82 72 83 73 84 77 85 74 86 76 87
REMARK SMILES IDX 75 88 62 89 63 90 67 91 64 92 66 93 65 94
REMARK H PARENT 16 19 4 30 8 33 82 62 60 73
REMARK Flexibility Score: inf
ROOT
ATOM      1  C   UNL A   1      35.250  32.764  27.953  1.00  0.00     0.188 C 
ENDROOT
BRANCH   1   2
ATOM      2  C   UNL A   1      34.400  31.476  27.949  1.00  0.00     0.188 C 
BRANCH   2   3
ATOM      3  O   UNL A   1      34.891  30.285  27.366  1.00  0.00    -0.376 OA
BRANCH   3   4
ATOM      4  C   UNL A   1      34.298  29.014  27.539  1.00  0.00     0.202 C 
BRANCH   4   5
ATOM      5  C   UNL A   1      33.555  28.214  26.472  1.00  0.00     0.261 C 
BRANCH   5   6
ATOM      6  O   UNL A   1      34.021  26.910  26.140  1.00  0.00    -0.460 OA
BRANCH   6   7
ATOM      7  C   UNL A   1      34.047  26.661  24.817  1.00  0.00     0.340 C 
ATOM      8  O   UNL A   1      34.022  27.512  23.938  1.00  0.00    -0.246 OA
BRANCH   7   9
ATOM      9  C   UNL A   1      34.267  25.225  24.518  1.00  0.00     0.084 A 
ATOM     10  C   UNL A   1      34.120  24.573  23.277  1.00  0.00     0.056 A 
ATOM     11  C   UNL A   1      34.239  23.166  23.266  1.00  0.00     0.028 A 
ATOM     12  C   UNL A   1      34.579  22.440  24.414  1.00  0.00     0.018 A 
ATOM     13  C   UNL A   1      34.606  24.480  25.673  1.00  0.00     0.033 A 
ATOM     14  C   UNL A   1      34.773  23.104  25.614  1.00  0.00     0.018 A 
ATOM     15  Br  UNL A   1      35.261  22.148  27.166  1.00  0.00    -0.051 Br
BRANCH  10  16
ATOM     16  N   UNL A   1      33.899  25.127  21.990  1.00  0.00    -0.321 N 
ATOM     17  C   UNL A   1      32.811  25.659  21.326  1.00  0.00     0.255 C 
ATOM     18  O   UNL A   1      32.903  25.888  20.120  1.00  0.00    -0.269 OA
ATOM     19  H   UNL A   1      34.714  25.134  21.439  1.00  0.00     0.170 HD
BRANCH  17  20
ATOM     20  C   UNL A   1      31.548  26.018  22.014  1.00  0.00     0.044 A 
ATOM     21  C   UNL A   1      30.171  27.772  22.902  1.00  0.00     0.044 A 
ATOM     22  C   UNL A   1      29.700  26.870  23.874  1.00  0.00     0.052 A 
ATOM     23  C   UNL A   1      31.009  27.302  21.899  1.00  0.00     0.040 A 
ATOM     24  C   UNL A   1      30.103  25.529  23.890  1.00  0.00     0.044 A 
ATOM     25  C   UNL A   1      31.020  25.097  22.930  1.00  0.00     0.040 A 
BRANCH  21  26
ATOM     26  N   UNL A   1      30.002  29.144  23.193  1.00  0.00    -0.326 N 
ATOM     27  C   UNL A   1      27.532  29.502  23.135  1.00  0.00     0.114 C 
ATOM     28  C   UNL A   1      28.946  30.001  23.087  1.00  0.00     0.221 C 
ATOM     29  O   UNL A   1      29.166  31.210  22.978  1.00  0.00    -0.275 OA
ATOM     30  H   UNL A   1      30.816  29.571  23.547  1.00  0.00     0.169 HD
ENDBRANCH  21  26
BRANCH  24  31
ATOM     31  N   UNL A   1      29.763  24.614  24.915  1.00  0.00    -0.326 N 
ATOM     32  C   UNL A   1      30.354  24.515  26.163  1.00  0.00     0.221 C 
ATOM     33  H   UNL A   1      29.031  23.985  24.721  1.00  0.00     0.169 HD
ATOM     34  C   UNL A   1      29.752  23.439  27.032  1.00  0.00     0.114 C 
ATOM     35  O   UNL A   1      31.288  25.190  26.583  1.00  0.00    -0.275 OA
ENDBRANCH  24  31
ENDBRANCH  17  20
ENDBRANCH  10  16
ENDBRANCH   7   9
ENDBRANCH   6   7
ENDBRANCH   5   6
ENDBRANCH   4   5
ENDBRANCH   3   4
ENDBRANCH   2   3
ENDBRANCH   1   2
BRANCH   1  36
ATOM     36  O   UNL A   1      35.667  33.239  29.217  1.00  0.00    -0.377 OA
BRANCH  36  37
ATOM     37  C   UNL A   1      34.712  33.365  30.264  1.00  0.00     0.188 C 
BRANCH  37  38
ATOM     38  C   UNL A   1      34.758  32.453  31.511  1.00  0.00     0.188 C 
BRANCH  38  39
ATOM     39  O   UNL A   1      34.030  32.934  32.624  1.00  0.00    -0.376 OA
BRANCH  39  40
ATOM     40  C   UNL A   1      34.710  33.590  33.676  1.00  0.00     0.202 C 
BRANCH  40  41
ATOM     41  C   UNL A   1      35.915  32.880  34.309  1.00  0.00     0.261 C 
BRANCH  41  42
ATOM     42  O   UNL A   1      37.180  33.544  34.197  1.00  0.00    -0.460 OA
BRANCH  42  43
ATOM     43  C   UNL A   1      37.474  34.147  33.022  1.00  0.00     0.338 C 
ATOM     44  O   UNL A   1      37.209  35.277  32.684  1.00  0.00    -0.246 OA
BRANCH  43  45
ATOM     45  C   UNL A   1      38.361  33.220  32.281  1.00  0.00     0.060 A 
ATOM     46  C   UNL A   1      39.127  32.283  32.990  1.00  0.00     0.016 A 
ATOM     47  C   UNL A   1      38.403  33.264  30.887  1.00  0.00     0.016 A 
ATOM     48  C   UNL A   1      39.956  31.398  32.302  1.00  0.00     0.010 A 
ATOM     49  C   UNL A   1      39.257  32.401  30.202  1.00  0.00     0.010 A 
ATOM     50  C   UNL A   1      40.058  31.484  30.908  1.00  0.00    -0.014 A 
BRANCH  50  51
ATOM     51  C   UNL A   1      41.145  30.780  30.193  1.00  0.00     0.031 A 
ATOM     52  C   UNL A   1      42.438  31.516  29.978  1.00  0.00     0.074 A 
ATOM     53  C   UNL A   1      40.986  29.530  29.724  1.00  0.00     0.049 A 
ATOM     54  N   UNL A   1      43.487  31.168  29.281  1.00  0.00    -0.248 NA
ATOM     55  C   UNL A   1      42.555  32.828  30.637  1.00  0.00     0.031 C 
ATOM     56  C   UNL A   1      39.805  28.693  29.919  1.00  0.00     0.029 A 
ATOM     57  N   UNL A   1      41.830  28.757  28.966  1.00  0.00    -0.354 N 
ATOM     58  C   UNL A   1      44.382  32.224  29.402  1.00  0.00     0.074 A 
ATOM     59  C   UNL A   1      43.745  33.232  30.221  1.00  0.00     0.031 C 
ATOM     60  C   UNL A   1      39.992  27.525  29.278  1.00  0.00     0.029 A 
ATOM     61  C   UNL A   1      41.284  27.555  28.593  1.00  0.00     0.049 A 
ATOM     62  H   UNL A   1      42.739  29.039  28.715  1.00  0.00     0.167 HD
ATOM     63  C   UNL A   1      45.623  32.344  28.879  1.00  0.00     0.031 A 
ATOM     64  C   UNL A   1      41.760  26.606  27.764  1.00  0.00     0.031 A 
ATOM     65  C   UNL A   1      46.241  31.350  28.042  1.00  0.00     0.049 A 
ATOM     66  C   UNL A   1      43.099  26.809  27.102  1.00  0.00     0.074 A 
ATOM     67  C   UNL A   1      47.497  31.370  27.465  1.00  0.00     0.029 A 
ATOM     68  N   UNL A   1      45.638  30.164  27.654  1.00  0.00    -0.354 N 
ATOM     69  N   UNL A   1      43.949  27.799  27.237  1.00  0.00    -0.248 NA
ATOM     70  C   UNL A   1      43.545  25.761  26.171  1.00  0.00     0.031 C 
ATOM     71  C   UNL A   1      47.629  30.226  26.672  1.00  0.00     0.029 A 
ATOM     72  C   UNL A   1      46.483  29.459  26.815  1.00  0.00     0.049 A 
ATOM     73  H   UNL A   1      44.742  29.866  27.935  1.00  0.00     0.167 HD
ATOM     74  C   UNL A   1      45.039  27.479  26.435  1.00  0.00     0.074 A 
ATOM     75  C   UNL A   1      44.749  26.197  25.829  1.00  0.00     0.031 C 
ATOM     76  C   UNL A   1      46.179  28.182  26.222  1.00  0.00     0.031 A 
BRANCH  63  77
ATOM     77  C   UNL A   1      46.369  33.619  29.154  1.00  0.00    -0.014 A 
ATOM     78  C   UNL A   1      47.190  33.760  30.284  1.00  0.00     0.009 A 
ATOM     79  C   UNL A   1      46.260  34.693  28.257  1.00  0.00     0.009 A 
ATOM     80  C   UNL A   1      47.858  34.963  30.527  1.00  0.00     0.001 A 
ATOM     81  C   UNL A   1      46.954  35.882  28.485  1.00  0.00     0.001 A 
ATOM     82  C   UNL A   1      47.743  36.020  29.625  1.00  0.00     0.000 A 
ENDBRANCH  63  77
BRANCH  64  83
ATOM     83  C   UNL A   1      40.953  25.389  27.477  1.00  0.00    -0.014 A 
ATOM     84  C   UNL A   1      39.851  25.449  26.610  1.00  0.00     0.009 A 
ATOM     85  C   UNL A   1      41.265  24.164  28.088  1.00  0.00     0.009 A 
ATOM     86  C   UNL A   1      39.066  24.316  26.381  1.00  0.00     0.001 A 
ATOM     87  C   UNL A   1      40.499  23.025  27.831  1.00  0.00     0.001 A 
ATOM     88  C   UNL A   1      39.394  23.104  26.987  1.00  0.00     0.000 A 
ENDBRANCH  64  83
BRANCH  76  89
ATOM     89  C   UNL A   1      47.220  27.565  25.327  1.00  0.00    -0.014 A 
ATOM     90  C   UNL A   1      47.280  27.863  23.958  1.00  0.00     0.009 A 
ATOM     91  C   UNL A   1      48.194  26.719  25.881  1.00  0.00     0.009 A 
ATOM     92  C   UNL A   1      48.277  27.302  23.156  1.00  0.00     0.001 A 
ATOM     93  C   UNL A   1      49.209  26.187  25.085  1.00  0.00     0.001 A 
ATOM     94  C   UNL A   1      49.245  26.472  23.721  1.00  0.00     0.000 A 
ENDBRANCH  76  89
ENDBRANCH  50  51
ENDBRANCH  43  45
ENDBRANCH  42  43
ENDBRANCH  41  42
ENDBRANCH  40  41
ENDBRANCH  39  40
ENDBRANCH  38  39
ENDBRANCH  37  38
ENDBRANCH  36  37
ENDBRANCH   1  36
TORSDOF 24
ENDMDL
MODEL 2
REMARK VINA RESULT:      -9.0      5.083     10.617
REMARK SMILES CC(=O)Nc1cc(NC(C)=O)cc(C(=O)Nc2ccc(Br)cc2C(=O)OCCOCCOCCOCCOC(=O)c2ccc(-c3c4nc(c(-c5ccccc5)c5ccc([nH]5)c(-c5ccccc5)c5nc(c(-c6ccccc6)c6ccc3[nH]6)C=C5)C=C4)cc2)c1
REMARK SMILES IDX 31 1 30 2 29 3 28 4 27 5 26 6 24 7 25 8 23 9 17 10 18 11
REMARK SMILES IDX 19 12 22 13 20 14 21 15 16 16 14 17 15 18 13 20 5 21 6 22
REMARK SMILES IDX 89 23 7 24 12 25 4 26 1 27 2 28 3 29 8 31 9 32 10 34 11 35
REMARK SMILES IDX 32 36 33 37 34 38 35 39 36 40 37 41 38 42 39 43 40 44 41 45
REMARK SMILES IDX 42 46 88 47 43 48 87 49 44 50 45 51 46 52 81 53 47 54 86 55
REMARK SMILES IDX 80 56 82 57 48 58 85 59 79 60 78 61 49 63 71 64 56 65 70 66
REMARK SMILES IDX 57 67 60 68 69 69 83 70 58 71 59 72 68 74 84 75 61 76 50 77
REMARK SMILES IDX 51 78 55 79 52 80 54 81 53 82 72 83 73 84 77 85 74 86 76 87
REMARK SMILES IDX 75 88 62 89 63 90 67 91 64 92 66 93 65 94
REMARK H PARENT 16 19 4 30 8 33 82 62 60 73
REMARK Flexibility Score: inf
ROOT
ATOM      1  C   UNL A   1      34.729  30.079  27.686  1.00  0.00     0.188 C 
ENDROOT
BRANCH   1   2
ATOM      2  C   UNL A   1      36.264  30.150  27.828  1.00  0.00     0.188 C 
BRANCH   2   3
ATOM      3  O   UNL A   1      37.025  28.981  28.058  1.00  0.00    -0.376 OA
BRANCH   3   4
ATOM      4  C   UNL A   1      38.387  28.984  28.437  1.00  0.00     0.202 C 
BRANCH   4   5
ATOM      5  C   UNL A   1      39.252  27.753  28.696  1.00  0.00     0.261 C 
BRANCH   5   6
ATOM      6  O   UNL A   1      39.405  26.789  27.658  1.00  0.00    -0.460 OA
BRANCH   6   7
ATOM      7  C   UNL A   1      40.363  25.874  27.902  1.00  0.00     0.340 C 
ATOM      8  O   UNL A   1      41.392  26.081  28.529  1.00  0.00    -0.246 OA
BRANCH   7   9
ATOM      9  C   UNL A   1      39.972  24.516  27.453  1.00  0.00     0.084 A 
ATOM     10  C   UNL A   1      40.699  23.318  27.606  1.00  0.00     0.056 A 
ATOM     11  C   UNL A   1      40.193  22.166  26.963  1.00  0.00     0.028 A 
ATOM     12  C   UNL A   1      38.973  22.175  26.275  1.00  0.00     0.018 A 
ATOM     13  C   UNL A   1      38.743  24.513  26.752  1.00  0.00     0.033 A 
ATOM     14  C   UNL A   1      38.246  23.350  26.182  1.00  0.00     0.018 A 
ATOM     15  Br  UNL A   1      36.586  23.376  25.285  1.00  0.00    -0.051 Br
BRANCH  10  16
ATOM     16  N   UNL A   1      41.878  23.069  28.355  1.00  0.00    -0.321 N 
ATOM     17  C   UNL A   1      43.180  22.730  28.047  1.00  0.00     0.255 C 
ATOM     18  O   UNL A   1      43.939  22.394  28.957  1.00  0.00    -0.269 OA
ATOM     19  H   UNL A   1      41.733  23.160  29.324  1.00  0.00     0.170 HD
BRANCH  17  20
ATOM     20  C   UNL A   1      43.725  22.804  26.670  1.00  0.00     0.044 A 
ATOM     21  C   UNL A   1      44.400  21.601  24.707  1.00  0.00     0.044 A 
ATOM     22  C   UNL A   1      45.358  22.601  24.459  1.00  0.00     0.052 A 
ATOM     23  C   UNL A   1      43.504  21.773  25.754  1.00  0.00     0.040 A 
ATOM     24  C   UNL A   1      45.470  23.732  25.276  1.00  0.00     0.044 A 
ATOM     25  C   UNL A   1      44.622  23.842  26.380  1.00  0.00     0.040 A 
BRANCH  21  26
ATOM     26  N   UNL A   1      44.616  20.360  24.067  1.00  0.00    -0.326 N 
ATOM     27  C   UNL A   1      46.311  19.204  25.489  1.00  0.00     0.114 C 
ATOM     28  C   UNL A   1      45.568  19.391  24.200  1.00  0.00     0.221 C 
ATOM     29  O   UNL A   1      45.794  18.640  23.247  1.00  0.00    -0.275 OA
ATOM     30  H   UNL A   1      43.941  20.151  23.382  1.00  0.00     0.169 HD
ENDBRANCH  21  26
BRANCH  24  31
ATOM     31  N   UNL A   1      46.493  24.701  25.148  1.00  0.00    -0.326 N 
ATOM     32  C   UNL A   1      46.325  26.072  25.049  1.00  0.00     0.221 C 
ATOM     33  H   UNL A   1      47.419  24.366  25.128  1.00  0.00     0.169 HD
ATOM     34  C   UNL A   1      47.623  26.832  24.934  1.00  0.00     0.114 C 
ATOM     35  O   UNL A   1      45.258  26.676  25.034  1.00  0.00    -0.275 OA
ENDBRANCH  24  31
ENDBRANCH  17  20
ENDBRANCH  10  16
ENDBRANCH   7   9
ENDBRANCH   6   7
ENDBRANCH   5   6
ENDBRANCH   4   5
ENDBRANCH   3   4
ENDBRANCH   2   3
ENDBRANCH   1   2
BRANCH   1  36
ATOM     36  O   UNL A   1      34.050  31.311  27.554  1.00  0.00    -0.377 OA
BRANCH  36  37
ATOM     37  C   UNL A   1      34.255  32.327  28.528  1.00  0.00     0.188 C 
BRANCH  37  38
ATOM     38  C   UNL A   1      34.732  33.743  28.130  1.00  0.00     0.188 C 
BRANCH  38  39
ATOM     39  O   UNL A   1      33.719  34.728  28.116  1.00  0.00    -0.376 OA
BRANCH  39  40
ATOM     40  C   UNL A   1      33.856  35.886  28.915  1.00  0.00     0.202 C 
BRANCH  40  41
ATOM     41  C   UNL A   1      32.790  36.152  29.987  1.00  0.00     0.261 C 
BRANCH  41  42
ATOM     42  O   UNL A   1      33.261  36.318  31.330  1.00  0.00    -0.460 OA
BRANCH  42  43
ATOM     43  C   UNL A   1      32.957  35.353  32.229  1.00  0.00     0.338 C 
ATOM     44  O   UNL A   1      31.858  34.987  32.577  1.00  0.00    -0.246 OA
BRANCH  43  45
ATOM     45  C   UNL A   1      34.230  34.680  32.575  1.00  0.00     0.060 A 
ATOM     46  C   UNL A   1      34.203  33.380  33.101  1.00  0.00     0.016 A 
ATOM     47  C   UNL A   1      35.443  35.329  32.345  1.00  0.00     0.016 A 
ATOM     48  C   UNL A   1      35.397  32.733  33.419  1.00  0.00     0.010 A 
ATOM     49  C   UNL A   1      36.635  34.694  32.693  1.00  0.00     0.010 A 
ATOM     50  C   UNL A   1      36.615  33.406  33.258  1.00  0.00    -0.014 A 
BRANCH  50  51
ATOM     51  C   UNL A   1      37.851  32.870  33.869  1.00  0.00     0.031 A 
ATOM     52  C   UNL A   1      38.054  33.078  35.344  1.00  0.00     0.074 A 
ATOM     53  C   UNL A   1      38.783  32.237  33.136  1.00  0.00     0.049 A 
ATOM     54  N   UNL A   1      39.098  32.815  36.085  1.00  0.00    -0.248 NA
ATOM     55  C   UNL A   1      36.922  33.669  36.078  1.00  0.00     0.031 C 
ATOM     56  C   UNL A   1      38.675  31.923  31.713  1.00  0.00     0.029 A 
ATOM     57  N   UNL A   1      40.018  31.760  33.498  1.00  0.00    -0.354 N 
ATOM     58  C   UNL A   1      38.757  33.225  37.368  1.00  0.00     0.074 A 
ATOM     59  C   UNL A   1      37.420  33.772  37.301  1.00  0.00     0.031 C 
ATOM     60  C   UNL A   1      39.810  31.320  31.316  1.00  0.00     0.029 A 
ATOM     61  C   UNL A   1      40.737  31.250  32.445  1.00  0.00     0.049 A 
ATOM     62  H   UNL A   1      40.355  31.782  34.422  1.00  0.00     0.167 HD
ATOM     63  C   UNL A   1      39.492  33.153  38.501  1.00  0.00     0.031 A 
ATOM     64  C   UNL A   1      42.010  30.812  32.397  1.00  0.00     0.031 A 
ATOM     65  C   UNL A   1      40.831  32.633  38.558  1.00  0.00     0.049 A 
ATOM     66  C   UNL A   1      42.849  30.842  33.648  1.00  0.00     0.074 A 
ATOM     67  C   UNL A   1      41.662  32.509  39.656  1.00  0.00     0.029 A 
ATOM     68  N   UNL A   1      41.540  32.164  37.462  1.00  0.00    -0.354 N 
ATOM     69  N   UNL A   1      42.514  31.211  34.862  1.00  0.00    -0.248 NA
ATOM     70  C   UNL A   1      44.245  30.395  33.523  1.00  0.00     0.031 C 
ATOM     71  C   UNL A   1      42.898  32.028  39.214  1.00  0.00     0.029 A 
ATOM     72  C   UNL A   1      42.812  31.783  37.853  1.00  0.00     0.049 A 
ATOM     73  H   UNL A   1      41.189  32.110  36.543  1.00  0.00     0.167 HD
ATOM     74  C   UNL A   1      43.645  31.013  35.647  1.00  0.00     0.074 A 
ATOM     75  C   UNL A   1      44.670  30.477  34.776  1.00  0.00     0.031 C 
ATOM     76  C   UNL A   1      43.818  31.250  36.971  1.00  0.00     0.031 A 
BRANCH  63  77
ATOM     77  C   UNL A   1      38.877  33.699  39.760  1.00  0.00    -0.014 A 
ATOM     78  C   UNL A   1      39.015  35.050  40.117  1.00  0.00     0.009 A 
ATOM     79  C   UNL A   1      38.131  32.849  40.592  1.00  0.00     0.009 A 
ATOM     80  C   UNL A   1      38.451  35.528  41.302  1.00  0.00     0.001 A 
ATOM     81  C   UNL A   1      37.541  33.338  41.758  1.00  0.00     0.001 A 
ATOM     82  C   UNL A   1      37.709  34.674  42.117  1.00  0.00     0.000 A 
ENDBRANCH  63  77
BRANCH  64  83
ATOM     83  C   UNL A   1      42.590  30.338  31.111  1.00  0.00    -0.014 A 
ATOM     84  C   UNL A   1      42.723  31.212  30.021  1.00  0.00     0.009 A 
ATOM     85  C   UNL A   1      42.991  29.001  30.957  1.00  0.00     0.009 A 
ATOM     86  C   UNL A   1      43.222  30.752  28.800  1.00  0.00     0.001 A 
ATOM     87  C   UNL A   1      43.521  28.552  29.746  1.00  0.00     0.001 A 
ATOM     88  C   UNL A   1      43.626  29.424  28.665  1.00  0.00     0.000 A 
ENDBRANCH  64  83
BRANCH  76  89
ATOM     89  C   UNL A   1      45.151  30.893  37.573  1.00  0.00    -0.014 A 
ATOM     90  C   UNL A   1      45.474  29.570  37.910  1.00  0.00     0.009 A 
ATOM     91  C   UNL A   1      46.122  31.894  37.744  1.00  0.00     0.009 A 
ATOM     92  C   UNL A   1      46.731  29.262  38.435  1.00  0.00     0.001 A 
ATOM     93  C   UNL A   1      47.389  31.577  38.237  1.00  0.00     0.001 A 
ATOM     94  C   UNL A   1      47.689  30.263  38.591  1.00  0.00     0.000 A 
ENDBRANCH  76  89
ENDBRANCH  50  51
ENDBRANCH  43  45
ENDBRANCH  42  43
ENDBRANCH  41  42
ENDBRANCH  40  41
ENDBRANCH  39  40
ENDBRANCH  38  39
ENDBRANCH  37  38
ENDBRANCH  36  37
ENDBRANCH   1  36
TORSDOF 24
ENDMDL
MODEL 3
REMARK VINA RESULT:      -8.9      1.710      2.611
REMARK SMILES CC(=O)Nc1cc(NC(C)=O)cc(C(=O)Nc2ccc(Br)cc2C(=O)OCCOCCOCCOCCOC(=O)c2ccc(-c3c4nc(c(-c5ccccc5)c5ccc([nH]5)c(-c5ccccc5)c5nc(c(-c6ccccc6)c6ccc3[nH]6)C=C5)C=C4)cc2)c1
REMARK SMILES IDX 31 1 30 2 29 3 28 4 27 5 26 6 24 7 25 8 23 9 17 10 18 11
REMARK SMILES IDX 19 12 22 13 20 14 21 15 16 16 14 17 15 18 13 20 5 21 6 22
REMARK SMILES IDX 89 23 7 24 12 25 4 26 1 27 2 28 3 29 8 31 9 32 10 34 11 35
REMARK SMILES IDX 32 36 33 37 34 38 35 39 36 40 37 41 38 42 39 43 40 44 41 45
REMARK SMILES IDX 42 46 88 47 43 48 87 49 44 50 45 51 46 52 81 53 47 54 86 55
REMARK SMILES IDX 80 56 82 57 48 58 85 59 79 60 78 61 49 63 71 64 56 65 70 66
REMARK SMILES IDX 57 67 60 68 69 69 83 70 58 71 59 72 68 74 84 75 61 76 50 77
REMARK SMILES IDX 51 78 55 79 52 80 54 81 53 82 72 83 73 84 77 85 74 86 76 87
REMARK SMILES IDX 75 88 62 89 63 90 67 91 64 92 66 93 65 94
REMARK H PARENT 16 19 4 30 8 33 82 62 60 73
REMARK Flexibility Score: inf
ROOT
ATOM      1  C   UNL A   1      35.721  32.398  28.001  1.00  0.00     0.188 C 
ENDROOT
BRANCH   1   2
ATOM      2  C   UNL A   1      34.613  31.325  27.941  1.00  0.00     0.188 C 
BRANCH   2   3
ATOM      3  O   UNL A   1      34.931  29.969  27.701  1.00  0.00    -0.376 OA
BRANCH   3   4
ATOM      4  C   UNL A   1      33.983  28.985  27.340  1.00  0.00     0.202 C 
BRANCH   4   5
ATOM      5  C   UNL A   1      33.670  28.513  25.922  1.00  0.00     0.261 C 
BRANCH   5   6
ATOM      6  O   UNL A   1      33.931  27.156  25.575  1.00  0.00    -0.460 OA
BRANCH   6   7
ATOM      7  C   UNL A   1      33.868  26.911  24.252  1.00  0.00     0.340 C 
ATOM      8  O   UNL A   1      33.707  27.758  23.384  1.00  0.00    -0.246 OA
BRANCH   7   9
ATOM      9  C   UNL A   1      34.173  25.497  23.927  1.00  0.00     0.084 A 
ATOM     10  C   UNL A   1      33.839  24.794  22.751  1.00  0.00     0.056 A 
ATOM     11  C   UNL A   1      34.103  23.407  22.727  1.00  0.00     0.028 A 
ATOM     12  C   UNL A   1      34.753  22.756  23.784  1.00  0.00     0.018 A 
ATOM     13  C   UNL A   1      34.825  24.828  24.989  1.00  0.00     0.033 A 
ATOM     14  C   UNL A   1      35.122  23.475  24.909  1.00  0.00     0.018 A 
ATOM     15  Br  UNL A   1      36.025  22.624  26.330  1.00  0.00    -0.051 Br
BRANCH  10  16
ATOM     16  N   UNL A   1      33.293  25.281  21.535  1.00  0.00    -0.321 N 
ATOM     17  C   UNL A   1      32.062  25.764  21.139  1.00  0.00     0.255 C 
ATOM     18  O   UNL A   1      31.849  25.936  19.938  1.00  0.00    -0.269 OA
ATOM     19  H   UNL A   1      33.948  25.272  20.800  1.00  0.00     0.170 HD
BRANCH  17  20
ATOM     20  C   UNL A   1      30.999  26.139  22.101  1.00  0.00     0.044 A 
ATOM     21  C   UNL A   1      29.958  27.894  23.363  1.00  0.00     0.044 A 
ATOM     22  C   UNL A   1      29.643  26.951  24.359  1.00  0.00     0.052 A 
ATOM     23  C   UNL A   1      30.533  27.454  22.178  1.00  0.00     0.040 A 
ATOM     24  C   UNL A   1      29.951  25.593  24.210  1.00  0.00     0.044 A 
ATOM     25  C   UNL A   1      30.615  25.184  23.052  1.00  0.00     0.040 A 
BRANCH  21  26
ATOM     26  N   UNL A   1      29.945  29.249  23.764  1.00  0.00    -0.326 N 
ATOM     27  C   UNL A   1      27.676  30.073  23.129  1.00  0.00     0.114 C 
ATOM     28  C   UNL A   1      29.112  30.297  23.497  1.00  0.00     0.221 C 
ATOM     29  O   UNL A   1      29.549  31.447  23.592  1.00  0.00    -0.275 OA
ATOM     30  H   UNL A   1      30.692  29.487  24.358  1.00  0.00     0.169 HD
ENDBRANCH  21  26
BRANCH  24  31
ATOM     31  N   UNL A   1      29.774  24.627  25.229  1.00  0.00    -0.326 N 
ATOM     32  C   UNL A   1      30.688  24.286  26.212  1.00  0.00     0.221 C 
ATOM     33  H   UNL A   1      28.914  24.149  25.240  1.00  0.00     0.169 HD
ATOM     34  C   UNL A   1      30.188  23.222  27.157  1.00  0.00     0.114 C 
ATOM     35  O   UNL A   1      31.814  24.750  26.352  1.00  0.00    -0.275 OA
ENDBRANCH  24  31
ENDBRANCH  17  20
ENDBRANCH  10  16
ENDBRANCH   7   9
ENDBRANCH   6   7
ENDBRANCH   5   6
ENDBRANCH   4   5
ENDBRANCH   3   4
ENDBRANCH   2   3
ENDBRANCH   1   2
BRANCH   1  36
ATOM     36  O   UNL A   1      36.175  32.764  29.289  1.00  0.00    -0.377 OA
BRANCH  36  37
ATOM     37  C   UNL A   1      35.409  33.679  30.063  1.00  0.00     0.188 C 
BRANCH  37  38
ATOM     38  C   UNL A   1      34.635  33.223  31.321  1.00  0.00     0.188 C 
BRANCH  38  39
ATOM     39  O   UNL A   1      35.270  33.521  32.549  1.00  0.00    -0.376 OA
BRANCH  39  40
ATOM     40  C   UNL A   1      36.473  32.863  32.893  1.00  0.00     0.202 C 
BRANCH  40  41
ATOM     41  C   UNL A   1      36.552  31.345  32.677  1.00  0.00     0.261 C 
BRANCH  41  42
ATOM     42  O   UNL A   1      37.377  30.895  31.595  1.00  0.00    -0.460 OA
BRANCH  42  43
ATOM     43  C   UNL A   1      37.018  29.754  30.962  1.00  0.00     0.338 C 
ATOM     44  O   UNL A   1      35.899  29.344  30.754  1.00  0.00    -0.246 OA
BRANCH  43  45
ATOM     45  C   UNL A   1      38.257  29.179  30.391  1.00  0.00     0.060 A 
ATOM     46  C   UNL A   1      39.122  28.444  31.216  1.00  0.00     0.016 A 
ATOM     47  C   UNL A   1      38.539  29.344  29.034  1.00  0.00     0.016 A 
ATOM     48  C   UNL A   1      40.286  27.889  30.686  1.00  0.00     0.010 A 
ATOM     49  C   UNL A   1      39.719  28.816  28.512  1.00  0.00     0.010 A 
ATOM     50  C   UNL A   1      40.611  28.111  29.342  1.00  0.00    -0.014 A 
BRANCH  50  51
ATOM     51  C   UNL A   1      41.968  27.804  28.841  1.00  0.00     0.031 A 
ATOM     52  C   UNL A   1      42.986  28.910  28.841  1.00  0.00     0.074 A 
ATOM     53  C   UNL A   1      42.288  26.584  28.374  1.00  0.00     0.049 A 
ATOM     54  N   UNL A   1      44.194  28.929  28.344  1.00  0.00    -0.248 NA
ATOM     55  C   UNL A   1      42.575  30.169  29.486  1.00  0.00     0.031 C 
ATOM     56  C   UNL A   1      41.410  25.416  28.376  1.00  0.00     0.029 A 
ATOM     57  N   UNL A   1      43.447  26.138  27.790  1.00  0.00    -0.354 N 
ATOM     58  C   UNL A   1      44.682  30.204  28.600  1.00  0.00     0.074 A 
ATOM     59  C   UNL A   1      43.634  30.936  29.276  1.00  0.00     0.031 C 
ATOM     60  C   UNL A   1      42.057  24.388  27.799  1.00  0.00     0.029 A 
ATOM     61  C   UNL A   1      43.373  24.840  27.349  1.00  0.00     0.049 A 
ATOM     62  H   UNL A   1      44.253  26.695  27.695  1.00  0.00     0.167 HD
ATOM     63  C   UNL A   1      45.896  30.720  28.299  1.00  0.00     0.031 A 
ATOM     64  C   UNL A   1      44.255  24.116  26.633  1.00  0.00     0.031 A 
ATOM     65  C   UNL A   1      46.925  29.998  27.602  1.00  0.00     0.049 A 
ATOM     66  C   UNL A   1      45.558  24.747  26.211  1.00  0.00     0.074 A 
ATOM     67  C   UNL A   1      48.193  30.426  27.252  1.00  0.00     0.029 A 
ATOM     68  N   UNL A   1      46.796  28.698  27.136  1.00  0.00    -0.354 N 
ATOM     69  N   UNL A   1      46.022  25.945  26.475  1.00  0.00    -0.248 NA
ATOM     70  C   UNL A   1      46.459  23.922  25.392  1.00  0.00     0.031 C 
ATOM     71  C   UNL A   1      48.807  29.408  26.515  1.00  0.00     0.029 A 
ATOM     72  C   UNL A   1      47.949  28.320  26.471  1.00  0.00     0.049 A 
ATOM     73  H   UNL A   1      46.003  28.129  27.262  1.00  0.00     0.167 HD
ATOM     74  C   UNL A   1      47.278  26.007  25.881  1.00  0.00     0.074 A 
ATOM     75  C   UNL A   1      47.509  24.721  25.257  1.00  0.00     0.031 C 
ATOM     76  C   UNL A   1      48.162  27.035  25.857  1.00  0.00     0.031 A 
BRANCH  63  77
ATOM     77  C   UNL A   1      46.150  32.153  28.677  1.00  0.00    -0.014 A 
ATOM     78  C   UNL A   1      46.583  32.506  29.965  1.00  0.00     0.009 A 
ATOM     79  C   UNL A   1      45.970  33.164  27.720  1.00  0.00     0.009 A 
ATOM     80  C   UNL A   1      46.793  33.847  30.296  1.00  0.00     0.001 A 
ATOM     81  C   UNL A   1      46.213  34.499  28.044  1.00  0.00     0.001 A 
ATOM     82  C   UNL A   1      46.614  34.841  29.335  1.00  0.00     0.000 A 
ENDBRANCH  63  77
BRANCH  64  83
ATOM     83  C   UNL A   1      43.927  22.721  26.232  1.00  0.00    -0.014 A 
ATOM     84  C   UNL A   1      44.865  21.935  25.543  1.00  0.00     0.009 A 
ATOM     85  C   UNL A   1      42.665  22.174  26.514  1.00  0.00     0.009 A 
ATOM     86  C   UNL A   1      44.536  20.643  25.125  1.00  0.00     0.001 A 
ATOM     87  C   UNL A   1      42.351  20.870  26.124  1.00  0.00     0.001 A 
ATOM     88  C   UNL A   1      43.283  20.110  25.420  1.00  0.00     0.000 A 
ENDBRANCH  64  83
BRANCH  76  89
ATOM     89  C   UNL A   1      49.481  26.802  25.169  1.00  0.00    -0.014 A 
ATOM     90  C   UNL A   1      49.715  27.252  23.861  1.00  0.00     0.009 A 
ATOM     91  C   UNL A   1      50.525  26.177  25.869  1.00  0.00     0.009 A 
ATOM     92  C   UNL A   1      50.960  27.053  23.258  1.00  0.00     0.001 A 
ATOM     93  C   UNL A   1      51.777  26.009  25.277  1.00  0.00     0.001 A 
ATOM     94  C   UNL A   1      51.991  26.439  23.969  1.00  0.00     0.000 A 
ENDBRANCH  76  89
ENDBRANCH  50  51
ENDBRANCH  43  45
ENDBRANCH  42  43
ENDBRANCH  41  42
ENDBRANCH  40  41
ENDBRANCH  39  40
ENDBRANCH  38  39
ENDBRANCH  37  38
ENDBRANCH  36  37
ENDBRANCH   1  36
TORSDOF 24
ENDMDL
