MODEL 1
REMARK VINA RESULT:      -8.4      0.000      0.000
REMARK SMILES COc1ccc(-c2ccc(CCC(=O)OCCOCCOCCOCCOC(=O)c3ccc(-c4c5nc(c(-c6ccccc6)c6ccc([nH]6)c(-c6ccccc6)c6nc(c(-c7ccccc7)c7ccc4[nH]7)C=C6)C=C5)cc3)n2-c2ccc(C(C)=O)cc2)cc1
REMARK SMILES IDX 20 1 19 2 18 3 17 4 16 5 15 6 13 7 14 8 12 9 11 10 10 11
REMARK SMILES IDX 7 12 8 13 78 14 9 15 6 16 3 17 4 18 89 19 5 20 88 21 2 22
REMARK SMILES IDX 1 23 79 24 80 25 87 26 81 27 86 28 82 29 83 30 84 31 85 32
REMARK SMILES IDX 21 33 22 34 23 35 24 36 25 37 26 38 27 39 28 40 29 41 30 42
REMARK SMILES IDX 31 43 77 44 32 45 76 46 33 47 34 48 35 49 70 50 36 51 75 52
REMARK SMILES IDX 69 53 71 54 37 55 74 56 68 57 67 58 38 60 60 61 45 62 59 63
REMARK SMILES IDX 46 64 49 65 58 66 72 67 47 68 48 69 57 71 73 72 50 73 39 74
REMARK SMILES IDX 40 75 44 76 41 77 43 78 42 79 61 80 62 81 66 82 63 83 65 84
REMARK SMILES IDX 64 85 51 86 52 87 56 88 53 89 55 90 54 91
REMARK H PARENT 71 59 49 70
REMARK Flexibility Score: inf
ROOT
ATOM      1  C   UNL A   1      35.179  24.049  24.868  1.00  0.00     0.188 C 
ENDROOT
BRANCH   1   2
ATOM      2  C   UNL A   1      34.041  25.026  25.178  1.00  0.00     0.188 C 
BRANCH   2   3
ATOM      3  O   UNL A   1      33.327  25.411  24.003  1.00  0.00    -0.376 OA
BRANCH   3   4
ATOM      4  C   UNL A   1      33.129  26.812  23.863  1.00  0.00     0.202 C 
BRANCH   4   5
ATOM      5  C   UNL A   1      32.460  27.429  25.092  1.00  0.00     0.261 C 
BRANCH   5   6
ATOM      6  O   UNL A   1      33.342  28.080  26.023  1.00  0.00    -0.463 OA
BRANCH   6   7
ATOM      7  C   UNL A   1      33.063  29.344  26.404  1.00  0.00     0.306 C 
ATOM      8  O   UNL A   1      32.250  30.066  25.839  1.00  0.00    -0.252 OA
BRANCH   7   9
ATOM      9  C   UNL A   1      33.964  29.822  27.527  1.00  0.00     0.129 C 
BRANCH   9  10
ATOM     10  C   UNL A   1      35.380  30.302  27.189  1.00  0.00     0.066 C 
BRANCH  10  11
ATOM     11  C   UNL A   1      36.371  30.225  28.331  1.00  0.00     0.024 A 
ATOM     12  C   UNL A   1      37.786  31.007  29.916  1.00  0.00     0.053 A 
ATOM     13  C   UNL A   1      38.110  29.686  29.671  1.00  0.00     0.029 A 
ATOM     14  N   UNL A   1      36.614  31.277  29.214  1.00  0.00    -0.314 N 
ATOM     15  C   UNL A   1      37.203  29.190  28.720  1.00  0.00     0.024 A 
BRANCH  12  16
ATOM     16  C   UNL A   1      38.479  31.926  30.810  1.00  0.00    -0.001 A 
ATOM     17  C   UNL A   1      39.825  33.588  32.606  1.00  0.00     0.118 A 
ATOM     18  C   UNL A   1      40.236  33.522  31.275  1.00  0.00     0.047 A 
ATOM     19  C   UNL A   1      38.698  32.883  33.026  1.00  0.00     0.047 A 
ATOM     20  C   UNL A   1      39.569  32.687  30.377  1.00  0.00     0.014 A 
ATOM     21  C   UNL A   1      38.027  32.053  32.129  1.00  0.00     0.014 A 
BRANCH  17  22
ATOM     22  O   UNL A   1      40.556  34.395  33.433  1.00  0.00    -0.497 OA
ATOM     23  C   UNL A   1      41.697  34.960  32.786  1.00  0.00     0.278 C 
ENDBRANCH  17  22
ENDBRANCH  12  16
BRANCH  14  24
ATOM     24  C   UNL A   1      35.774  32.405  29.385  1.00  0.00     0.046 A 
ATOM     25  C   UNL A   1      35.800  33.416  28.416  1.00  0.00     0.027 A 
ATOM     26  C   UNL A   1      34.946  32.510  30.500  1.00  0.00     0.027 A 
ATOM     27  C   UNL A   1      35.007  34.556  28.574  1.00  0.00     0.014 A 
ATOM     28  C   UNL A   1      34.174  33.664  30.664  1.00  0.00     0.014 A 
ATOM     29  C   UNL A   1      34.199  34.697  29.708  1.00  0.00     0.017 A 
BRANCH  29  30
ATOM     30  C   UNL A   1      33.366  35.910  29.979  1.00  0.00     0.159 C 
ATOM     31  C   UNL A   1      32.669  36.101  31.302  1.00  0.00     0.093 C 
ATOM     32  O   UNL A   1      33.265  36.773  29.106  1.00  0.00    -0.295 OA
ENDBRANCH  29  30
ENDBRANCH  14  24
ENDBRANCH  10  11
ENDBRANCH   9  10
ENDBRANCH   7   9
ENDBRANCH   6   7
ENDBRANCH   5   6
ENDBRANCH   4   5
ENDBRANCH   3   4
ENDBRANCH   2   3
ENDBRANCH   1   2
BRANCH   1  33
ATOM     33  O   UNL A   1      35.504  23.620  23.554  1.00  0.00    -0.377 OA
BRANCH  33  34
ATOM     34  C   UNL A   1      36.599  22.740  23.388  1.00  0.00     0.188 C 
BRANCH  34  35
ATOM     35  C   UNL A   1      36.586  21.580  24.396  1.00  0.00     0.188 C 
BRANCH  35  36
ATOM     36  O   UNL A   1      37.877  21.245  24.906  1.00  0.00    -0.376 OA
BRANCH  36  37
ATOM     37  C   UNL A   1      38.449  22.143  25.851  1.00  0.00     0.202 C 
BRANCH  37  38
ATOM     38  C   UNL A   1      39.697  21.636  26.598  1.00  0.00     0.261 C 
BRANCH  38  39
ATOM     39  O   UNL A   1      40.890  21.565  25.811  1.00  0.00    -0.460 OA
BRANCH  39  40
ATOM     40  C   UNL A   1      42.015  21.840  26.485  1.00  0.00     0.338 C 
ATOM     41  O   UNL A   1      42.752  21.066  27.067  1.00  0.00    -0.246 OA
BRANCH  40  42
ATOM     42  C   UNL A   1      42.280  23.276  26.476  1.00  0.00     0.060 A 
ATOM     43  C   UNL A   1      43.622  23.646  26.330  1.00  0.00     0.016 A 
ATOM     44  C   UNL A   1      41.332  24.090  27.096  1.00  0.00     0.016 A 
ATOM     45  C   UNL A   1      44.081  24.734  27.039  1.00  0.00     0.010 A 
ATOM     46  C   UNL A   1      41.800  25.155  27.838  1.00  0.00     0.010 A 
ATOM     47  C   UNL A   1      43.184  25.393  27.886  1.00  0.00    -0.014 A 
BRANCH  47  48
ATOM     48  C   UNL A   1      43.723  26.227  28.973  1.00  0.00     0.031 A 
ATOM     49  C   UNL A   1      43.889  27.680  28.618  1.00  0.00     0.074 A 
ATOM     50  C   UNL A   1      43.955  25.570  30.147  1.00  0.00     0.049 A 
ATOM     51  N   UNL A   1      44.397  28.641  29.323  1.00  0.00    -0.248 NA
ATOM     52  C   UNL A   1      43.418  28.139  27.287  1.00  0.00     0.031 C 
ATOM     53  C   UNL A   1      43.740  24.120  30.342  1.00  0.00     0.029 A 
ATOM     54  N   UNL A   1      44.406  25.958  31.391  1.00  0.00    -0.354 N 
ATOM     55  C   UNL A   1      44.177  29.823  28.606  1.00  0.00     0.074 A 
ATOM     56  C   UNL A   1      43.624  29.453  27.335  1.00  0.00     0.031 C 
ATOM     57  C   UNL A   1      44.109  23.745  31.579  1.00  0.00     0.029 A 
ATOM     58  C   UNL A   1      44.566  24.903  32.319  1.00  0.00     0.049 A 
ATOM     59  H   UNL A   1      44.601  26.896  31.616  1.00  0.00     0.167 HD
ATOM     60  C   UNL A   1      44.383  31.067  29.110  1.00  0.00     0.031 A 
ATOM     61  C   UNL A   1      45.046  24.937  33.595  1.00  0.00     0.031 A 
ATOM     62  C   UNL A   1      45.036  31.049  30.376  1.00  0.00     0.049 A 
ATOM     63  C   UNL A   1      45.209  26.356  33.961  1.00  0.00     0.074 A 
ATOM     64  C   UNL A   1      46.343  30.881  30.757  1.00  0.00     0.029 A 
ATOM     65  N   UNL A   1      44.256  30.973  31.501  1.00  0.00    -0.354 N 
ATOM     66  N   UNL A   1      44.228  27.180  34.177  1.00  0.00    -0.248 NA
ATOM     67  C   UNL A   1      46.550  26.939  34.030  1.00  0.00     0.031 C 
ATOM     68  C   UNL A   1      46.289  30.364  32.076  1.00  0.00     0.029 A 
ATOM     69  C   UNL A   1      44.948  30.226  32.434  1.00  0.00     0.049 A 
ATOM     70  H   UNL A   1      43.366  31.375  31.621  1.00  0.00     0.167 HD
ATOM     71  C   UNL A   1      44.811  28.417  34.023  1.00  0.00     0.074 A 
ATOM     72  C   UNL A   1      46.231  28.220  34.208  1.00  0.00     0.031 C 
ATOM     73  C   UNL A   1      44.170  29.388  33.323  1.00  0.00     0.031 A 
BRANCH  60  74
ATOM     74  C   UNL A   1      43.909  32.357  28.527  1.00  0.00    -0.014 A 
ATOM     75  C   UNL A   1      44.372  32.734  27.252  1.00  0.00     0.009 A 
ATOM     76  C   UNL A   1      43.200  33.311  29.272  1.00  0.00     0.009 A 
ATOM     77  C   UNL A   1      44.157  34.020  26.752  1.00  0.00     0.001 A 
ATOM     78  C   UNL A   1      42.962  34.592  28.762  1.00  0.00     0.001 A 
ATOM     79  C   UNL A   1      43.454  34.950  27.509  1.00  0.00     0.000 A 
ENDBRANCH  60  74
BRANCH  61  80
ATOM     80  C   UNL A   1      45.438  23.903  34.617  1.00  0.00    -0.014 A 
ATOM     81  C   UNL A   1      45.350  24.061  36.006  1.00  0.00     0.009 A 
ATOM     82  C   UNL A   1      45.867  22.626  34.176  1.00  0.00     0.009 A 
ATOM     83  C   UNL A   1      45.613  22.999  36.892  1.00  0.00     0.001 A 
ATOM     84  C   UNL A   1      46.099  21.556  35.050  1.00  0.00     0.001 A 
ATOM     85  C   UNL A   1      45.963  21.742  36.414  1.00  0.00     0.000 A 
ENDBRANCH  61  80
BRANCH  73  86
ATOM     86  C   UNL A   1      42.680  29.156  33.168  1.00  0.00    -0.014 A 
ATOM     87  C   UNL A   1      42.168  28.502  32.039  1.00  0.00     0.009 A 
ATOM     88  C   UNL A   1      41.757  29.682  34.091  1.00  0.00     0.009 A 
ATOM     89  C   UNL A   1      40.786  28.384  31.844  1.00  0.00     0.001 A 
ATOM     90  C   UNL A   1      40.378  29.554  33.907  1.00  0.00     0.001 A 
ATOM     91  C   UNL A   1      39.892  28.906  32.779  1.00  0.00     0.000 A 
ENDBRANCH  73  86
ENDBRANCH  47  48
ENDBRANCH  40  42
ENDBRANCH  39  40
ENDBRANCH  38  39
ENDBRANCH  37  38
ENDBRANCH  36  37
ENDBRANCH  35  36
ENDBRANCH  34  35
ENDBRANCH  33  34
ENDBRANCH   1  33
TORSDOF 26
ENDMDL
MODEL 2
REMARK VINA RESULT:      -8.2      1.280      2.774
REMARK SMILES COc1ccc(-c2ccc(CCC(=O)OCCOCCOCCOCCOC(=O)c3ccc(-c4c5nc(c(-c6ccccc6)c6ccc([nH]6)c(-c6ccccc6)c6nc(c(-c7ccccc7)c7ccc4[nH]7)C=C6)C=C5)cc3)n2-c2ccc(C(C)=O)cc2)cc1
REMARK SMILES IDX 20 1 19 2 18 3 17 4 16 5 15 6 13 7 14 8 12 9 11 10 10 11
REMARK SMILES IDX 7 12 8 13 78 14 9 15 6 16 3 17 4 18 89 19 5 20 88 21 2 22
REMARK SMILES IDX 1 23 79 24 80 25 87 26 81 27 86 28 82 29 83 30 84 31 85 32
REMARK SMILES IDX 21 33 22 34 23 35 24 36 25 37 26 38 27 39 28 40 29 41 30 42
REMARK SMILES IDX 31 43 77 44 32 45 76 46 33 47 34 48 35 49 70 50 36 51 75 52
REMARK SMILES IDX 69 53 71 54 37 55 74 56 68 57 67 58 38 60 60 61 45 62 59 63
REMARK SMILES IDX 46 64 49 65 58 66 72 67 47 68 48 69 57 71 73 72 50 73 39 74
REMARK SMILES IDX 40 75 44 76 41 77 43 78 42 79 61 80 62 81 66 82 63 83 65 84
REMARK SMILES IDX 64 85 51 86 52 87 56 88 53 89 55 90 54 91
REMARK H PARENT 71 59 49 70
REMARK Flexibility Score: inf
ROOT
ATOM      1  C   UNL A   1      35.192  24.076  24.789  1.00  0.00     0.188 C 
ENDROOT
BRANCH   1   2
ATOM      2  C   UNL A   1      34.085  25.098  25.065  1.00  0.00     0.188 C 
BRANCH   2   3
ATOM      3  O   UNL A   1      33.280  25.344  23.912  1.00  0.00    -0.376 OA
BRANCH   3   4
ATOM      4  C   UNL A   1      33.017  26.718  23.656  1.00  0.00     0.202 C 
BRANCH   4   5
ATOM      5  C   UNL A   1      32.512  27.454  24.898  1.00  0.00     0.261 C 
BRANCH   5   6
ATOM      6  O   UNL A   1      33.455  28.344  25.522  1.00  0.00    -0.463 OA
BRANCH   6   7
ATOM      7  C   UNL A   1      33.025  29.553  25.939  1.00  0.00     0.306 C 
ATOM      8  O   UNL A   1      31.947  30.042  25.626  1.00  0.00    -0.252 OA
BRANCH   7   9
ATOM      9  C   UNL A   1      34.082  30.301  26.731  1.00  0.00     0.129 C 
BRANCH   9  10
ATOM     10  C   UNL A   1      33.661  31.073  27.987  1.00  0.00     0.066 C 
BRANCH  10  11
ATOM     11  C   UNL A   1      34.491  32.300  28.291  1.00  0.00     0.024 A 
ATOM     12  C   UNL A   1      36.122  33.517  29.284  1.00  0.00     0.053 A 
ATOM     13  C   UNL A   1      35.175  34.397  28.794  1.00  0.00     0.029 A 
ATOM     14  N   UNL A   1      35.779  32.249  28.824  1.00  0.00    -0.314 N 
ATOM     15  C   UNL A   1      34.186  33.642  28.139  1.00  0.00     0.024 A 
BRANCH  12  16
ATOM     16  C   UNL A   1      37.310  33.855  30.059  1.00  0.00    -0.001 A 
ATOM     17  C   UNL A   1      39.561  34.396  31.619  1.00  0.00     0.118 A 
ATOM     18  C   UNL A   1      39.682  34.294  30.233  1.00  0.00     0.047 A 
ATOM     19  C   UNL A   1      38.308  34.302  32.222  1.00  0.00     0.047 A 
ATOM     20  C   UNL A   1      38.558  34.018  29.452  1.00  0.00     0.014 A 
ATOM     21  C   UNL A   1      37.185  34.031  31.442  1.00  0.00     0.014 A 
BRANCH  17  22
ATOM     22  O   UNL A   1      40.715  34.626  32.317  1.00  0.00    -0.497 OA
ATOM     23  C   UNL A   1      41.724  33.652  32.052  1.00  0.00     0.278 C 
ENDBRANCH  17  22
ENDBRANCH  12  16
BRANCH  14  24
ATOM     24  C   UNL A   1      36.603  31.096  28.847  1.00  0.00     0.046 A 
ATOM     25  C   UNL A   1      36.573  30.271  29.978  1.00  0.00     0.027 A 
ATOM     26  C   UNL A   1      37.433  30.796  27.770  1.00  0.00     0.027 A 
ATOM     27  C   UNL A   1      37.399  29.145  30.044  1.00  0.00     0.014 A 
ATOM     28  C   UNL A   1      38.274  29.683  27.852  1.00  0.00     0.014 A 
ATOM     29  C   UNL A   1      38.269  28.850  28.987  1.00  0.00     0.017 A 
BRANCH  29  30
ATOM     30  C   UNL A   1      39.224  27.699  29.005  1.00  0.00     0.159 C 
ATOM     31  C   UNL A   1      38.862  26.391  29.661  1.00  0.00     0.093 C 
ATOM     32  O   UNL A   1      40.321  27.824  28.458  1.00  0.00    -0.295 OA
ENDBRANCH  29  30
ENDBRANCH  14  24
ENDBRANCH  10  11
ENDBRANCH   9  10
ENDBRANCH   7   9
ENDBRANCH   6   7
ENDBRANCH   5   6
ENDBRANCH   4   5
ENDBRANCH   3   4
ENDBRANCH   2   3
ENDBRANCH   1   2
BRANCH   1  33
ATOM     33  O   UNL A   1      35.463  23.548  23.498  1.00  0.00    -0.377 OA
BRANCH  33  34
ATOM     34  C   UNL A   1      36.532  22.632  23.360  1.00  0.00     0.188 C 
BRANCH  34  35
ATOM     35  C   UNL A   1      36.511  21.529  24.430  1.00  0.00     0.188 C 
BRANCH  35  36
ATOM     36  O   UNL A   1      37.802  21.200  24.944  1.00  0.00    -0.376 OA
BRANCH  36  37
ATOM     37  C   UNL A   1      38.415  22.153  25.806  1.00  0.00     0.202 C 
BRANCH  37  38
ATOM     38  C   UNL A   1      39.671  21.676  26.558  1.00  0.00     0.261 C 
BRANCH  38  39
ATOM     39  O   UNL A   1      40.841  21.518  25.749  1.00  0.00    -0.460 OA
BRANCH  39  40
ATOM     40  C   UNL A   1      41.989  21.817  26.371  1.00  0.00     0.338 C 
ATOM     41  O   UNL A   1      42.754  21.062  26.944  1.00  0.00    -0.246 OA
BRANCH  40  42
ATOM     42  C   UNL A   1      42.244  23.253  26.316  1.00  0.00     0.060 A 
ATOM     43  C   UNL A   1      43.573  23.627  26.085  1.00  0.00     0.016 A 
ATOM     44  C   UNL A   1      41.328  24.077  26.972  1.00  0.00     0.016 A 
ATOM     45  C   UNL A   1      44.065  24.733  26.743  1.00  0.00     0.010 A 
ATOM     46  C   UNL A   1      41.831  25.160  27.662  1.00  0.00     0.010 A 
ATOM     47  C   UNL A   1      43.214  25.406  27.625  1.00  0.00    -0.014 A 
BRANCH  47  48
ATOM     48  C   UNL A   1      43.809  26.266  28.661  1.00  0.00     0.031 A 
ATOM     49  C   UNL A   1      43.966  27.708  28.258  1.00  0.00     0.074 A 
ATOM     50  C   UNL A   1      44.095  25.641  29.841  1.00  0.00     0.049 A 
ATOM     51  N   UNL A   1      44.511  28.685  28.910  1.00  0.00    -0.248 NA
ATOM     52  C   UNL A   1      43.432  28.132  26.938  1.00  0.00     0.031 C 
ATOM     53  C   UNL A   1      43.882  24.198  30.086  1.00  0.00     0.029 A 
ATOM     54  N   UNL A   1      44.608  26.060  31.050  1.00  0.00    -0.354 N 
ATOM     55  C   UNL A   1      44.263  29.847  28.171  1.00  0.00     0.074 A 
ATOM     56  C   UNL A   1      43.647  29.446  26.940  1.00  0.00     0.031 C 
ATOM     57  C   UNL A   1      44.309  23.855  31.314  1.00  0.00     0.029 A 
ATOM     58  C   UNL A   1      44.807  25.031  31.998  1.00  0.00     0.049 A 
ATOM     59  H   UNL A   1      44.818  27.003  31.239  1.00  0.00     0.167 HD
ATOM     60  C   UNL A   1      44.499  31.103  28.630  1.00  0.00     0.031 A 
ATOM     61  C   UNL A   1      45.348  25.097  33.248  1.00  0.00     0.031 A 
ATOM     62  C   UNL A   1      45.213  31.117  29.862  1.00  0.00     0.049 A 
ATOM     63  C   UNL A   1      45.536  26.525  33.566  1.00  0.00     0.074 A 
ATOM     64  C   UNL A   1      46.536  30.951  30.185  1.00  0.00     0.029 A 
ATOM     65  N   UNL A   1      44.488  31.077  31.025  1.00  0.00    -0.354 N 
ATOM     66  N   UNL A   1      44.571  27.360  33.806  1.00  0.00    -0.248 NA
ATOM     67  C   UNL A   1      46.882  27.101  33.553  1.00  0.00     0.031 C 
ATOM     68  C   UNL A   1      46.543  30.472  31.518  1.00  0.00     0.029 A 
ATOM     69  C   UNL A   1      45.220  30.352  31.945  1.00  0.00     0.049 A 
ATOM     70  H   UNL A   1      43.607  31.488  31.177  1.00  0.00     0.167 HD
ATOM     71  C   UNL A   1      45.152  28.589  33.588  1.00  0.00     0.074 A 
ATOM     72  C   UNL A   1      46.578  28.388  33.710  1.00  0.00     0.031 C 
ATOM     73  C   UNL A   1      44.483  29.544  32.893  1.00  0.00     0.031 A 
BRANCH  60  74
ATOM     74  C   UNL A   1      44.004  32.380  28.034  1.00  0.00    -0.014 A 
ATOM     75  C   UNL A   1      44.210  32.610  26.661  1.00  0.00     0.009 A 
ATOM     76  C   UNL A   1      43.539  33.450  28.813  1.00  0.00     0.009 A 
ATOM     77  C   UNL A   1      43.985  33.866  26.093  1.00  0.00     0.001 A 
ATOM     78  C   UNL A   1      43.289  34.702  28.240  1.00  0.00     0.001 A 
ATOM     79  C   UNL A   1      43.526  34.913  26.884  1.00  0.00     0.000 A 
ENDBRANCH  60  74
BRANCH  61  80
ATOM     80  C   UNL A   1      45.784  24.089  34.279  1.00  0.00    -0.014 A 
ATOM     81  C   UNL A   1      44.933  23.229  34.983  1.00  0.00     0.009 A 
ATOM     82  C   UNL A   1      47.168  23.916  34.530  1.00  0.00     0.009 A 
ATOM     83  C   UNL A   1      45.431  22.225  35.835  1.00  0.00     0.001 A 
ATOM     84  C   UNL A   1      47.672  22.898  35.350  1.00  0.00     0.001 A 
ATOM     85  C   UNL A   1      46.800  22.043  35.998  1.00  0.00     0.000 A 
ENDBRANCH  61  80
BRANCH  73  86
ATOM     86  C   UNL A   1      42.986  29.317  32.817  1.00  0.00    -0.014 A 
ATOM     87  C   UNL A   1      42.134  29.802  33.819  1.00  0.00     0.009 A 
ATOM     88  C   UNL A   1      42.415  28.523  31.805  1.00  0.00     0.009 A 
ATOM     89  C   UNL A   1      40.766  29.499  33.806  1.00  0.00     0.001 A 
ATOM     90  C   UNL A   1      41.049  28.231  31.781  1.00  0.00     0.001 A 
ATOM     91  C   UNL A   1      40.224  28.718  32.786  1.00  0.00     0.000 A 
ENDBRANCH  73  86
ENDBRANCH  47  48
ENDBRANCH  40  42
ENDBRANCH  39  40
ENDBRANCH  38  39
ENDBRANCH  37  38
ENDBRANCH  36  37
ENDBRANCH  35  36
ENDBRANCH  34  35
ENDBRANCH  33  34
ENDBRANCH   1  33
TORSDOF 26
ENDMDL
MODEL 3
REMARK VINA RESULT:      -8.1      3.162      5.587
REMARK SMILES COc1ccc(-c2ccc(CCC(=O)OCCOCCOCCOCCOC(=O)c3ccc(-c4c5nc(c(-c6ccccc6)c6ccc([nH]6)c(-c6ccccc6)c6nc(c(-c7ccccc7)c7ccc4[nH]7)C=C6)C=C5)cc3)n2-c2ccc(C(C)=O)cc2)cc1
REMARK SMILES IDX 20 1 19 2 18 3 17 4 16 5 15 6 13 7 14 8 12 9 11 10 10 11
REMARK SMILES IDX 7 12 8 13 78 14 9 15 6 16 3 17 4 18 89 19 5 20 88 21 2 22
REMARK SMILES IDX 1 23 79 24 80 25 87 26 81 27 86 28 82 29 83 30 84 31 85 32
REMARK SMILES IDX 21 33 22 34 23 35 24 36 25 37 26 38 27 39 28 40 29 41 30 42
REMARK SMILES IDX 31 43 77 44 32 45 76 46 33 47 34 48 35 49 70 50 36 51 75 52
REMARK SMILES IDX 69 53 71 54 37 55 74 56 68 57 67 58 38 60 60 61 45 62 59 63
REMARK SMILES IDX 46 64 49 65 58 66 72 67 47 68 48 69 57 71 73 72 50 73 39 74
REMARK SMILES IDX 40 75 44 76 41 77 43 78 42 79 61 80 62 81 66 82 63 83 65 84
REMARK SMILES IDX 64 85 51 86 52 87 56 88 53 89 55 90 54 91
REMARK H PARENT 71 59 49 70
REMARK Flexibility Score: inf
ROOT
ATOM      1  C   UNL A   1      34.432  24.462  25.238  1.00  0.00     0.188 C 
ENDROOT
BRANCH   1   2
ATOM      2  C   UNL A   1      33.790  25.752  25.756  1.00  0.00     0.188 C 
BRANCH   2   3
ATOM      3  O   UNL A   1      33.330  26.589  24.694  1.00  0.00    -0.376 OA
BRANCH   3   4
ATOM      4  C   UNL A   1      33.878  27.901  24.695  1.00  0.00     0.202 C 
BRANCH   4   5
ATOM      5  C   UNL A   1      33.733  28.589  26.053  1.00  0.00     0.261 C 
BRANCH   5   6
ATOM      6  O   UNL A   1      34.957  28.808  26.777  1.00  0.00    -0.463 OA
BRANCH   6   7
ATOM      7  C   UNL A   1      35.049  29.884  27.584  1.00  0.00     0.306 C 
ATOM      8  O   UNL A   1      34.247  30.811  27.584  1.00  0.00    -0.252 OA
BRANCH   7   9
ATOM      9  C   UNL A   1      36.328  29.888  28.400  1.00  0.00     0.129 C 
BRANCH   9  10
ATOM     10  C   UNL A   1      36.287  30.405  29.843  1.00  0.00     0.066 C 
BRANCH  10  11
ATOM     11  C   UNL A   1      37.565  31.056  30.325  1.00  0.00     0.024 A 
ATOM     12  C   UNL A   1      39.672  31.150  31.150  1.00  0.00     0.053 A 
ATOM     13  C   UNL A   1      39.077  32.379  31.363  1.00  0.00     0.029 A 
ATOM     14  N   UNL A   1      38.797  30.403  30.364  1.00  0.00    -0.314 N 
ATOM     15  C   UNL A   1      37.785  32.333  30.812  1.00  0.00     0.024 A 
BRANCH  12  16
ATOM     16  C   UNL A   1      41.001  30.735  31.581  1.00  0.00    -0.001 A 
ATOM     17  C   UNL A   1      43.596  30.003  32.304  1.00  0.00     0.118 A 
ATOM     18  C   UNL A   1      42.770  30.643  33.228  1.00  0.00     0.047 A 
ATOM     19  C   UNL A   1      43.106  29.661  31.045  1.00  0.00     0.047 A 
ATOM     20  C   UNL A   1      41.474  31.015  32.866  1.00  0.00     0.014 A 
ATOM     21  C   UNL A   1      41.810  30.027  30.685  1.00  0.00     0.014 A 
BRANCH  17  22
ATOM     22  O   UNL A   1      44.866  29.709  32.720  1.00  0.00    -0.497 OA
ATOM     23  C   UNL A   1      45.192  30.317  33.970  1.00  0.00     0.278 C 
ENDBRANCH  17  22
ENDBRANCH  12  16
BRANCH  14  24
ATOM     24  C   UNL A   1      39.103  29.202  29.677  1.00  0.00     0.046 A 
ATOM     25  C   UNL A   1      39.619  29.283  28.378  1.00  0.00     0.027 A 
ATOM     26  C   UNL A   1      38.885  27.966  30.280  1.00  0.00     0.027 A 
ATOM     27  C   UNL A   1      39.899  28.115  27.663  1.00  0.00     0.014 A 
ATOM     28  C   UNL A   1      39.145  26.802  29.552  1.00  0.00     0.014 A 
ATOM     29  C   UNL A   1      39.649  26.863  28.238  1.00  0.00     0.017 A 
BRANCH  29  30
ATOM     30  C   UNL A   1      39.867  25.569  27.520  1.00  0.00     0.159 C 
ATOM     31  C   UNL A   1      40.137  24.292  28.274  1.00  0.00     0.093 C 
ATOM     32  O   UNL A   1      39.808  25.551  26.290  1.00  0.00    -0.295 OA
ENDBRANCH  29  30
ENDBRANCH  14  24
ENDBRANCH  10  11
ENDBRANCH   9  10
ENDBRANCH   7   9
ENDBRANCH   6   7
ENDBRANCH   5   6
ENDBRANCH   4   5
ENDBRANCH   3   4
ENDBRANCH   2   3
ENDBRANCH   1   2
BRANCH   1  33
ATOM     33  O   UNL A   1      34.510  24.127  23.859  1.00  0.00    -0.377 OA
BRANCH  33  34
ATOM     34  C   UNL A   1      35.467  23.167  23.456  1.00  0.00     0.188 C 
BRANCH  34  35
ATOM     35  C   UNL A   1      35.529  21.957  24.402  1.00  0.00     0.188 C 
BRANCH  35  36
ATOM     36  O   UNL A   1      36.848  21.448  24.602  1.00  0.00    -0.376 OA
BRANCH  36  37
ATOM     37  C   UNL A   1      37.816  22.355  25.120  1.00  0.00     0.202 C 
BRANCH  37  38
ATOM     38  C   UNL A   1      38.749  21.797  26.210  1.00  0.00     0.261 C 
BRANCH  38  39
ATOM     39  O   UNL A   1      39.569  20.696  25.806  1.00  0.00    -0.460 OA
BRANCH  39  40
ATOM     40  C   UNL A   1      40.672  20.526  26.547  1.00  0.00     0.338 C 
ATOM     41  O   UNL A   1      40.789  19.921  27.597  1.00  0.00    -0.246 OA
BRANCH  40  42
ATOM     42  C   UNL A   1      41.808  21.213  25.939  1.00  0.00     0.060 A 
ATOM     43  C   UNL A   1      43.063  20.636  26.172  1.00  0.00     0.016 A 
ATOM     44  C   UNL A   1      41.639  22.566  25.650  1.00  0.00     0.016 A 
ATOM     45  C   UNL A   1      44.140  21.471  26.370  1.00  0.00     0.010 A 
ATOM     46  C   UNL A   1      42.708  23.404  25.888  1.00  0.00     0.010 A 
ATOM     47  C   UNL A   1      43.914  22.852  26.352  1.00  0.00    -0.014 A 
BRANCH  47  48
ATOM     48  C   UNL A   1      44.896  23.735  27.000  1.00  0.00     0.031 A 
ATOM     49  C   UNL A   1      46.003  24.205  26.095  1.00  0.00     0.074 A 
ATOM     50  C   UNL A   1      44.640  24.027  28.309  1.00  0.00     0.049 A 
ATOM     51  N   UNL A   1      47.043  24.924  26.378  1.00  0.00    -0.248 NA
ATOM     52  C   UNL A   1      45.947  23.828  24.659  1.00  0.00     0.031 C 
ATOM     53  C   UNL A   1      43.497  23.480  29.071  1.00  0.00     0.029 A 
ATOM     54  N   UNL A   1      45.257  24.818  29.255  1.00  0.00    -0.354 N 
ATOM     55  C   UNL A   1      47.675  25.211  25.163  1.00  0.00     0.074 A 
ATOM     56  C   UNL A   1      46.994  24.466  24.143  1.00  0.00     0.031 C 
ATOM     57  C   UNL A   1      43.534  23.894  30.350  1.00  0.00     0.029 A 
ATOM     58  C   UNL A   1      44.672  24.770  30.541  1.00  0.00     0.049 A 
ATOM     59  H   UNL A   1      46.044  25.373  29.051  1.00  0.00     0.167 HD
ATOM     60  C   UNL A   1      48.683  26.110  25.025  1.00  0.00     0.031 A 
ATOM     61  C   UNL A   1      45.068  25.374  31.697  1.00  0.00     0.031 A 
ATOM     62  C   UNL A   1      49.172  26.589  26.274  1.00  0.00     0.049 A 
ATOM     63  C   UNL A   1      46.163  26.300  31.350  1.00  0.00     0.074 A 
ATOM     64  C   UNL A   1      50.020  26.063  27.216  1.00  0.00     0.029 A 
ATOM     65  N   UNL A   1      48.570  27.694  26.819  1.00  0.00    -0.354 N 
ATOM     66  N   UNL A   1      46.012  27.404  30.681  1.00  0.00    -0.248 NA
ATOM     67  C   UNL A   1      47.543  25.960  31.704  1.00  0.00     0.031 C 
ATOM     68  C   UNL A   1      49.652  26.676  28.440  1.00  0.00     0.029 A 
ATOM     69  C   UNL A   1      48.583  27.538  28.191  1.00  0.00     0.049 A 
ATOM     70  H   UNL A   1      48.196  28.458  26.323  1.00  0.00     0.167 HD
ATOM     71  C   UNL A   1      47.279  27.669  30.214  1.00  0.00     0.074 A 
ATOM     72  C   UNL A   1      48.186  26.940  31.072  1.00  0.00     0.031 C 
ATOM     73  C   UNL A   1      47.460  28.073  28.931  1.00  0.00     0.031 A 
BRANCH  60  74
ATOM     74  C   UNL A   1      49.205  26.676  23.746  1.00  0.00    -0.014 A 
ATOM     75  C   UNL A   1      50.596  26.698  23.533  1.00  0.00     0.009 A 
ATOM     76  C   UNL A   1      48.396  27.384  22.844  1.00  0.00     0.009 A 
ATOM     77  C   UNL A   1      51.160  27.417  22.477  1.00  0.00     0.001 A 
ATOM     78  C   UNL A   1      48.957  28.084  21.769  1.00  0.00     0.001 A 
ATOM     79  C   UNL A   1      50.339  28.112  21.596  1.00  0.00     0.000 A 
ENDBRANCH  60  74
BRANCH  61  80
ATOM     80  C   UNL A   1      44.669  25.277  33.146  1.00  0.00    -0.014 A 
ATOM     81  C   UNL A   1      44.592  26.353  34.040  1.00  0.00     0.009 A 
ATOM     82  C   UNL A   1      44.259  24.024  33.666  1.00  0.00     0.009 A 
ATOM     83  C   UNL A   1      44.084  26.200  35.344  1.00  0.00     0.001 A 
ATOM     84  C   UNL A   1      43.722  23.870  34.950  1.00  0.00     0.001 A 
ATOM     85  C   UNL A   1      43.627  24.965  35.790  1.00  0.00     0.000 A 
ENDBRANCH  61  80
BRANCH  73  86
ATOM     86  C   UNL A   1      46.210  28.626  28.276  1.00  0.00    -0.014 A 
ATOM     87  C   UNL A   1      45.852  29.972  28.431  1.00  0.00     0.009 A 
ATOM     88  C   UNL A   1      45.311  27.788  27.588  1.00  0.00     0.009 A 
ATOM     89  C   UNL A   1      44.642  30.457  27.918  1.00  0.00     0.001 A 
ATOM     90  C   UNL A   1      44.110  28.271  27.062  1.00  0.00     0.001 A 
ATOM     91  C   UNL A   1      43.774  29.608  27.231  1.00  0.00     0.000 A 
ENDBRANCH  73  86
ENDBRANCH  47  48
ENDBRANCH  40  42
ENDBRANCH  39  40
ENDBRANCH  38  39
ENDBRANCH  37  38
ENDBRANCH  36  37
ENDBRANCH  35  36
ENDBRANCH  34  35
ENDBRANCH  33  34
ENDBRANCH   1  33
TORSDOF 26
ENDMDL
