MODEL 1
REMARK VINA RESULT:     -11.0      0.000      0.000
REMARK SMILES Cc1ccccc1-c1c(Cl)ccc2c1C=C(C(=O)OCCOCCOCCOCCOC(=O)c1ccc(-c3c4nc(c(-c5ccccc5)c5ccc([nH]5)c(-c5ccccc5)c5nc(c(-c6ccccc6)c6ccc3[nH]6)C=C5)C=C4)cc1)[C@@H](C(F)(F)F)O2
REMARK SMILES IDX 26 1 25 2 24 3 23 4 22 5 21 6 20 7 19 8 17 9 18 10 16 11
REMARK SMILES IDX 8 12 9 13 14 14 10 15 11 16 13 17 15 18 12 19 87 20 82 21
REMARK SMILES IDX 7 22 1 23 2 24 3 25 4 26 6 27 5 28 83 29 84 30 85 31 86 32
REMARK SMILES IDX 27 33 28 34 29 35 30 36 31 37 32 38 33 39 34 40 35 41 81 42
REMARK SMILES IDX 36 43 80 44 37 45 38 46 39 47 74 48 40 49 79 50 73 51 75 52
REMARK SMILES IDX 41 53 78 54 72 55 71 56 42 58 64 59 49 60 63 61 50 62 53 63
REMARK SMILES IDX 62 64 76 65 51 66 52 67 61 69 77 70 54 71 43 72 44 73 48 74
REMARK SMILES IDX 45 75 47 76 46 77 65 78 66 79 70 80 67 81 69 82 68 83 55 84
REMARK SMILES IDX 56 85 60 86 57 87 59 88 58 89
REMARK H PARENT 75 57 53 68
REMARK Flexibility Score: inf
ROOT
ATOM      1  C   UNL A   1      44.394  19.239  24.821  1.00  0.00     0.188 C 
ENDROOT
BRANCH   1   2
ATOM      2  O   UNL A   1      42.965  19.334  24.820  1.00  0.00    -0.377 OA
BRANCH   2   3
ATOM      3  C   UNL A   1      42.428  19.241  26.131  1.00  0.00     0.188 C 
BRANCH   3   4
ATOM      4  C   UNL A   1      40.905  19.357  26.240  1.00  0.00     0.188 C 
BRANCH   4   5
ATOM      5  O   UNL A   1      40.248  20.480  25.669  1.00  0.00    -0.376 OA
BRANCH   5   6
ATOM      6  C   UNL A   1      38.828  20.529  25.815  1.00  0.00     0.202 C 
BRANCH   6   7
ATOM      7  C   UNL A   1      38.217  21.923  25.764  1.00  0.00     0.261 C 
BRANCH   7   8
ATOM      8  O   UNL A   1      36.977  21.882  25.046  1.00  0.00    -0.460 OA
BRANCH   8   9
ATOM      9  C   UNL A   1      36.371  23.079  24.991  1.00  0.00     0.338 C 
ATOM     10  O   UNL A   1      36.509  23.906  24.102  1.00  0.00    -0.246 OA
BRANCH   9  11
ATOM     11  C   UNL A   1      35.239  23.085  25.990  1.00  0.00     0.087 C 
ATOM     12  C   UNL A   1      33.536  25.906  24.603  1.00  0.00     0.012 A 
ATOM     13  C   UNL A   1      33.456  26.173  23.222  1.00  0.00     0.049 A 
ATOM     14  C   UNL A   1      33.809  24.574  24.953  1.00  0.00     0.027 A 
ATOM     15  Cl  UNL A   1      33.265  27.785  22.627  1.00  0.00    -0.084 Cl
ATOM     16  C   UNL A   1      33.531  25.138  22.274  1.00  0.00     0.025 A 
ATOM     17  C   UNL A   1      33.592  23.522  24.037  1.00  0.00     0.128 A 
ATOM     18  C   UNL A   1      34.540  24.223  26.194  1.00  0.00     0.028 C 
ATOM     19  C   UNL A   1      33.513  23.806  22.685  1.00  0.00     0.049 A 
ATOM     20  O   UNL A   1      33.579  22.194  24.431  1.00  0.00    -0.475 OA
ATOM     21  C   UNL A   1      34.374  21.891  25.621  1.00  0.00     0.316 C 
BRANCH  12  22
ATOM     22  C   UNL A   1      33.041  26.859  25.628  1.00  0.00    -0.013 A 
ATOM     23  C   UNL A   1      30.630  26.009  25.728  1.00  0.00     0.045 C 
ATOM     24  C   UNL A   1      31.736  26.923  26.155  1.00  0.00    -0.043 A 
ATOM     25  C   UNL A   1      31.406  27.936  27.080  1.00  0.00     0.004 A 
ATOM     26  C   UNL A   1      32.347  28.872  27.498  1.00  0.00     0.000 A 
ATOM     27  C   UNL A   1      33.973  27.828  26.070  1.00  0.00     0.009 A 
ATOM     28  C   UNL A   1      33.636  28.819  26.992  1.00  0.00     0.001 A 
ENDBRANCH  12  22
BRANCH  21  29
ATOM     29  C   UNL A   1      33.555  21.368  26.804  1.00  0.00     0.430 C 
ATOM     30  F   UNL A   1      34.273  21.386  27.951  1.00  0.00    -0.167 F 
ATOM     31  F   UNL A   1      32.469  22.159  27.022  1.00  0.00    -0.167 F 
ATOM     32  F   UNL A   1      33.100  20.110  26.622  1.00  0.00    -0.167 F 
ENDBRANCH  21  29
ENDBRANCH   9  11
ENDBRANCH   8   9
ENDBRANCH   7   8
ENDBRANCH   6   7
ENDBRANCH   5   6
ENDBRANCH   4   5
ENDBRANCH   3   4
ENDBRANCH   2   3
ENDBRANCH   1   2
BRANCH   1  33
ATOM     33  C   UNL A   1      45.030  20.607  24.633  1.00  0.00     0.188 C 
BRANCH  33  34
ATOM     34  O   UNL A   1      44.281  21.547  23.871  1.00  0.00    -0.376 OA
BRANCH  34  35
ATOM     35  C   UNL A   1      43.975  22.808  24.450  1.00  0.00     0.202 C 
BRANCH  35  36
ATOM     36  C   UNL A   1      43.407  22.753  25.875  1.00  0.00     0.261 C 
BRANCH  36  37
ATOM     37  O   UNL A   1      42.026  23.165  25.862  1.00  0.00    -0.460 OA
BRANCH  37  38
ATOM     38  C   UNL A   1      41.450  23.304  27.085  1.00  0.00     0.338 C 
ATOM     39  O   UNL A   1      41.338  22.419  27.921  1.00  0.00    -0.246 OA
BRANCH  38  40
ATOM     40  C   UNL A   1      40.666  24.575  27.118  1.00  0.00     0.060 A 
ATOM     41  C   UNL A   1      40.881  25.531  26.109  1.00  0.00     0.016 A 
ATOM     42  C   UNL A   1      40.059  24.957  28.311  1.00  0.00     0.016 A 
ATOM     43  C   UNL A   1      40.681  26.893  26.375  1.00  0.00     0.010 A 
ATOM     44  C   UNL A   1      39.958  26.307  28.596  1.00  0.00     0.010 A 
ATOM     45  C   UNL A   1      40.332  27.296  27.666  1.00  0.00    -0.014 A 
BRANCH  45  46
ATOM     46  C   UNL A   1      40.613  28.640  28.232  1.00  0.00     0.031 A 
ATOM     47  C   UNL A   1      39.488  29.602  28.507  1.00  0.00     0.074 A 
ATOM     48  C   UNL A   1      41.816  28.820  28.843  1.00  0.00     0.049 A 
ATOM     49  N   UNL A   1      39.613  30.770  29.051  1.00  0.00    -0.248 NA
ATOM     50  C   UNL A   1      38.089  29.324  28.167  1.00  0.00     0.031 C 
ATOM     51  C   UNL A   1      42.077  29.674  30.003  1.00  0.00     0.029 A 
ATOM     52  N   UNL A   1      43.050  28.212  28.672  1.00  0.00    -0.354 N 
ATOM     53  C   UNL A   1      38.358  31.213  29.436  1.00  0.00     0.074 A 
ATOM     54  C   UNL A   1      37.441  30.327  28.769  1.00  0.00     0.031 C 
ATOM     55  C   UNL A   1      43.347  29.545  30.409  1.00  0.00     0.029 A 
ATOM     56  C   UNL A   1      44.055  28.946  29.315  1.00  0.00     0.049 A 
ATOM     57  H   UNL A   1      43.200  27.380  28.169  1.00  0.00     0.167 HD
ATOM     58  C   UNL A   1      38.236  32.185  30.390  1.00  0.00     0.031 A 
ATOM     59  C   UNL A   1      44.987  29.669  28.617  1.00  0.00     0.031 A 
ATOM     60  C   UNL A   1      39.531  32.783  30.747  1.00  0.00     0.049 A 
ATOM     61  C   UNL A   1      44.768  31.187  28.671  1.00  0.00     0.074 A 
ATOM     62  C   UNL A   1      40.179  33.022  31.944  1.00  0.00     0.029 A 
ATOM     63  N   UNL A   1      40.444  33.114  29.743  1.00  0.00    -0.354 N 
ATOM     64  N   UNL A   1      43.661  31.748  29.102  1.00  0.00    -0.248 NA
ATOM     65  C   UNL A   1      45.760  32.195  28.303  1.00  0.00     0.031 C 
ATOM     66  C   UNL A   1      41.497  33.445  31.647  1.00  0.00     0.029 A 
ATOM     67  C   UNL A   1      41.672  33.445  30.272  1.00  0.00     0.049 A 
ATOM     68  H   UNL A   1      40.237  33.110  28.781  1.00  0.00     0.167 HD
ATOM     69  C   UNL A   1      43.753  33.110  29.054  1.00  0.00     0.074 A 
ATOM     70  C   UNL A   1      45.096  33.342  28.553  1.00  0.00     0.031 C 
ATOM     71  C   UNL A   1      42.735  33.952  29.413  1.00  0.00     0.031 A 
BRANCH  58  72
ATOM     72  C   UNL A   1      36.966  32.485  31.199  1.00  0.00    -0.014 A 
ATOM     73  C   UNL A   1      35.940  33.271  30.628  1.00  0.00     0.009 A 
ATOM     74  C   UNL A   1      36.758  32.135  32.546  1.00  0.00     0.009 A 
ATOM     75  C   UNL A   1      34.825  33.723  31.358  1.00  0.00     0.001 A 
ATOM     76  C   UNL A   1      35.623  32.543  33.272  1.00  0.00     0.001 A 
ATOM     77  C   UNL A   1      34.665  33.356  32.684  1.00  0.00     0.000 A 
ENDBRANCH  58  72
BRANCH  59  78
ATOM     78  C   UNL A   1      45.677  28.809  27.607  1.00  0.00    -0.014 A 
ATOM     79  C   UNL A   1      46.304  27.675  28.176  1.00  0.00     0.009 A 
ATOM     80  C   UNL A   1      45.115  28.679  26.325  1.00  0.00     0.009 A 
ATOM     81  C   UNL A   1      46.074  26.402  27.646  1.00  0.00     0.001 A 
ATOM     82  C   UNL A   1      44.917  27.397  25.784  1.00  0.00     0.001 A 
ATOM     83  C   UNL A   1      45.328  26.260  26.481  1.00  0.00     0.000 A 
ENDBRANCH  59  78
BRANCH  71  84
ATOM     84  C   UNL A   1      42.630  35.401  28.998  1.00  0.00    -0.014 A 
ATOM     85  C   UNL A   1      43.148  36.458  29.756  1.00  0.00     0.009 A 
ATOM     86  C   UNL A   1      42.187  35.716  27.690  1.00  0.00     0.009 A 
ATOM     87  C   UNL A   1      43.187  37.764  29.250  1.00  0.00     0.001 A 
ATOM     88  C   UNL A   1      42.265  37.007  27.167  1.00  0.00     0.001 A 
ATOM     89  C   UNL A   1      42.757  38.036  27.954  1.00  0.00     0.000 A 
ENDBRANCH  71  84
ENDBRANCH  45  46
ENDBRANCH  38  40
ENDBRANCH  37  38
ENDBRANCH  36  37
ENDBRANCH  35  36
ENDBRANCH  34  35
ENDBRANCH  33  34
ENDBRANCH   1  33
TORSDOF 22
ENDMDL
MODEL 2
REMARK VINA RESULT:     -10.7      2.547      4.817
REMARK SMILES Cc1ccccc1-c1c(Cl)ccc2c1C=C(C(=O)OCCOCCOCCOCCOC(=O)c1ccc(-c3c4nc(c(-c5ccccc5)c5ccc([nH]5)c(-c5ccccc5)c5nc(c(-c6ccccc6)c6ccc3[nH]6)C=C5)C=C4)cc1)[C@@H](C(F)(F)F)O2
REMARK SMILES IDX 26 1 25 2 24 3 23 4 22 5 21 6 20 7 19 8 17 9 18 10 16 11
REMARK SMILES IDX 8 12 9 13 14 14 10 15 11 16 13 17 15 18 12 19 87 20 82 21
REMARK SMILES IDX 7 22 1 23 2 24 3 25 4 26 6 27 5 28 83 29 84 30 85 31 86 32
REMARK SMILES IDX 27 33 28 34 29 35 30 36 31 37 32 38 33 39 34 40 35 41 81 42
REMARK SMILES IDX 36 43 80 44 37 45 38 46 39 47 74 48 40 49 79 50 73 51 75 52
REMARK SMILES IDX 41 53 78 54 72 55 71 56 42 58 64 59 49 60 63 61 50 62 53 63
REMARK SMILES IDX 62 64 76 65 51 66 52 67 61 69 77 70 54 71 43 72 44 73 48 74
REMARK SMILES IDX 45 75 47 76 46 77 65 78 66 79 70 80 67 81 69 82 68 83 55 84
REMARK SMILES IDX 56 85 60 86 57 87 59 88 58 89
REMARK H PARENT 75 57 53 68
REMARK Flexibility Score: inf
ROOT
ATOM      1  C   UNL A   1      35.109  17.714  24.594  1.00  0.00     0.188 C 
ENDROOT
BRANCH   1   2
ATOM      2  O   UNL A   1      33.709  17.982  24.732  1.00  0.00    -0.377 OA
BRANCH   2   3
ATOM      3  C   UNL A   1      33.068  18.111  23.471  1.00  0.00     0.188 C 
BRANCH   3   4
ATOM      4  C   UNL A   1      32.167  19.336  23.299  1.00  0.00     0.188 C 
BRANCH   4   5
ATOM      5  O   UNL A   1      32.142  20.332  24.313  1.00  0.00    -0.376 OA
BRANCH   5   6
ATOM      6  C   UNL A   1      31.941  21.678  23.879  1.00  0.00     0.202 C 
BRANCH   6   7
ATOM      7  C   UNL A   1      32.755  22.097  22.661  1.00  0.00     0.261 C 
BRANCH   7   8
ATOM      8  O   UNL A   1      33.764  23.036  23.053  1.00  0.00    -0.460 OA
BRANCH   8   9
ATOM      9  C   UNL A   1      34.668  22.505  23.891  1.00  0.00     0.338 C 
ATOM     10  O   UNL A   1      34.988  21.326  23.939  1.00  0.00    -0.246 OA
BRANCH   9  11
ATOM     11  C   UNL A   1      35.473  23.629  24.498  1.00  0.00     0.087 C 
ATOM     12  C   UNL A   1      32.673  25.420  25.815  1.00  0.00     0.012 A 
ATOM     13  C   UNL A   1      31.531  24.801  26.358  1.00  0.00     0.049 A 
ATOM     14  C   UNL A   1      33.837  24.635  25.781  1.00  0.00     0.027 A 
ATOM     15  Cl  UNL A   1      29.989  25.584  26.342  1.00  0.00    -0.084 Cl
ATOM     16  C   UNL A   1      31.599  23.519  26.931  1.00  0.00     0.025 A 
ATOM     17  C   UNL A   1      33.968  23.495  26.604  1.00  0.00     0.128 A 
ATOM     18  C   UNL A   1      34.876  24.817  24.740  1.00  0.00     0.028 C 
ATOM     19  C   UNL A   1      32.834  22.903  27.130  1.00  0.00     0.049 A 
ATOM     20  O   UNL A   1      35.189  22.870  26.804  1.00  0.00    -0.475 OA
ATOM     21  C   UNL A   1      36.153  23.024  25.715  1.00  0.00     0.316 C 
BRANCH  12  22
ATOM     22  C   UNL A   1      32.759  26.887  25.603  1.00  0.00    -0.013 A 
ATOM     23  C   UNL A   1      32.104  26.900  23.130  1.00  0.00     0.045 C 
ATOM     24  C   UNL A   1      32.503  27.579  24.403  1.00  0.00    -0.043 A 
ATOM     25  C   UNL A   1      32.694  28.975  24.348  1.00  0.00     0.004 A 
ATOM     26  C   UNL A   1      33.120  29.694  25.461  1.00  0.00     0.000 A 
ATOM     27  C   UNL A   1      33.195  27.646  26.716  1.00  0.00     0.009 A 
ATOM     28  C   UNL A   1      33.371  29.028  26.650  1.00  0.00     0.001 A 
ENDBRANCH  12  22
BRANCH  21  29
ATOM     29  C   UNL A   1      37.430  23.769  26.109  1.00  0.00     0.430 C 
ATOM     30  F   UNL A   1      38.365  22.923  26.600  1.00  0.00    -0.167 F 
ATOM     31  F   UNL A   1      37.989  24.369  25.024  1.00  0.00    -0.167 F 
ATOM     32  F   UNL A   1      37.220  24.732  27.032  1.00  0.00    -0.167 F 
ENDBRANCH  21  29
ENDBRANCH   9  11
ENDBRANCH   8   9
ENDBRANCH   7   8
ENDBRANCH   6   7
ENDBRANCH   5   6
ENDBRANCH   4   5
ENDBRANCH   3   4
ENDBRANCH   2   3
ENDBRANCH   1   2
BRANCH   1  33
ATOM     33  C   UNL A   1      35.935  18.937  24.963  1.00  0.00     0.188 C 
BRANCH  33  34
ATOM     34  O   UNL A   1      37.306  18.904  24.584  1.00  0.00    -0.376 OA
BRANCH  34  35
ATOM     35  C   UNL A   1      38.166  19.940  25.040  1.00  0.00     0.202 C 
BRANCH  35  36
ATOM     36  C   UNL A   1      39.342  19.477  25.912  1.00  0.00     0.261 C 
BRANCH  36  37
ATOM     37  O   UNL A   1      40.261  20.570  26.104  1.00  0.00    -0.460 OA
BRANCH  37  38
ATOM     38  C   UNL A   1      41.572  20.268  25.904  1.00  0.00     0.338 C 
ATOM     39  O   UNL A   1      41.991  19.269  25.337  1.00  0.00    -0.246 OA
BRANCH  38  40
ATOM     40  C   UNL A   1      42.416  21.138  26.776  1.00  0.00     0.060 A 
ATOM     41  C   UNL A   1      41.943  21.477  28.057  1.00  0.00     0.016 A 
ATOM     42  C   UNL A   1      43.423  21.899  26.190  1.00  0.00     0.016 A 
ATOM     43  C   UNL A   1      42.327  22.688  28.652  1.00  0.00     0.010 A 
ATOM     44  C   UNL A   1      43.720  23.134  26.739  1.00  0.00     0.010 A 
ATOM     45  C   UNL A   1      43.128  23.580  27.936  1.00  0.00    -0.014 A 
BRANCH  45  46
ATOM     46  C   UNL A   1      43.164  25.047  28.165  1.00  0.00     0.031 A 
ATOM     47  C   UNL A   1      41.984  25.906  27.797  1.00  0.00     0.074 A 
ATOM     48  C   UNL A   1      44.089  25.518  29.046  1.00  0.00     0.049 A 
ATOM     49  N   UNL A   1      41.886  27.180  28.007  1.00  0.00    -0.248 NA
ATOM     50  C   UNL A   1      40.787  25.386  27.128  1.00  0.00     0.031 C 
ATOM     51  C   UNL A   1      43.923  26.661  29.944  1.00  0.00     0.029 A 
ATOM     52  N   UNL A   1      45.327  25.038  29.445  1.00  0.00    -0.354 N 
ATOM     53  C   UNL A   1      40.561  27.552  27.841  1.00  0.00     0.074 A 
ATOM     54  C   UNL A   1      39.946  26.424  27.194  1.00  0.00     0.031 C 
ATOM     55  C   UNL A   1      44.988  26.791  30.746  1.00  0.00     0.029 A 
ATOM     56  C   UNL A   1      46.037  26.025  30.140  1.00  0.00     0.049 A 
ATOM     57  H   UNL A   1      45.661  24.130  29.265  1.00  0.00     0.167 HD
ATOM     58  C   UNL A   1      40.099  28.711  28.401  1.00  0.00     0.031 A 
ATOM     59  C   UNL A   1      47.127  26.655  29.595  1.00  0.00     0.031 A 
ATOM     60  C   UNL A   1      41.183  29.530  28.964  1.00  0.00     0.049 A 
ATOM     61  C   UNL A   1      46.857  28.100  29.155  1.00  0.00     0.074 A 
ATOM     62  C   UNL A   1      41.387  30.138  30.188  1.00  0.00     0.029 A 
ATOM     63  N   UNL A   1      42.368  29.704  28.246  1.00  0.00    -0.354 N 
ATOM     64  N   UNL A   1      45.654  28.615  29.046  1.00  0.00    -0.248 NA
ATOM     65  C   UNL A   1      47.884  29.094  28.851  1.00  0.00     0.031 C 
ATOM     66  C   UNL A   1      42.716  30.627  30.213  1.00  0.00     0.029 A 
ATOM     67  C   UNL A   1      43.339  30.302  29.018  1.00  0.00     0.049 A 
ATOM     68  H   UNL A   1      42.493  29.434  27.308  1.00  0.00     0.167 HD
ATOM     69  C   UNL A   1      45.716  29.922  28.654  1.00  0.00     0.074 A 
ATOM     70  C   UNL A   1      47.141  30.179  28.553  1.00  0.00     0.031 C 
ATOM     71  C   UNL A   1      44.612  30.700  28.429  1.00  0.00     0.031 A 
BRANCH  58  72
ATOM     72  C   UNL A   1      38.624  29.052  28.656  1.00  0.00    -0.014 A 
ATOM     73  C   UNL A   1      37.857  29.658  27.636  1.00  0.00     0.009 A 
ATOM     74  C   UNL A   1      37.959  28.915  29.889  1.00  0.00     0.009 A 
ATOM     75  C   UNL A   1      36.554  30.145  27.845  1.00  0.00     0.001 A 
ATOM     76  C   UNL A   1      36.638  29.358  30.095  1.00  0.00     0.001 A 
ATOM     77  C   UNL A   1      35.942  29.993  29.078  1.00  0.00     0.000 A 
ENDBRANCH  58  72
BRANCH  59  78
ATOM     78  C   UNL A   1      48.140  25.657  29.132  1.00  0.00    -0.014 A 
ATOM     79  C   UNL A   1      48.227  25.566  27.723  1.00  0.00     0.009 A 
ATOM     80  C   UNL A   1      49.318  25.486  29.879  1.00  0.00     0.009 A 
ATOM     81  C   UNL A   1      49.470  25.648  27.086  1.00  0.00     0.001 A 
ATOM     82  C   UNL A   1      50.563  25.536  29.229  1.00  0.00     0.001 A 
ATOM     83  C   UNL A   1      50.635  25.694  27.843  1.00  0.00     0.000 A 
ENDBRANCH  59  78
BRANCH  71  84
ATOM     84  C   UNL A   1      44.608  31.974  27.617  1.00  0.00    -0.014 A 
ATOM     85  C   UNL A   1      44.505  31.997  26.220  1.00  0.00     0.009 A 
ATOM     86  C   UNL A   1      44.483  33.218  28.282  1.00  0.00     0.009 A 
ATOM     87  C   UNL A   1      44.325  33.199  25.525  1.00  0.00     0.001 A 
ATOM     88  C   UNL A   1      44.260  34.412  27.596  1.00  0.00     0.001 A 
ATOM     89  C   UNL A   1      44.191  34.403  26.211  1.00  0.00     0.000 A 
ENDBRANCH  71  84
ENDBRANCH  45  46
ENDBRANCH  38  40
ENDBRANCH  37  38
ENDBRANCH  36  37
ENDBRANCH  35  36
ENDBRANCH  34  35
ENDBRANCH  33  34
ENDBRANCH   1  33
TORSDOF 22
ENDMDL
MODEL 3
REMARK VINA RESULT:     -10.6      2.916      5.377
REMARK SMILES Cc1ccccc1-c1c(Cl)ccc2c1C=C(C(=O)OCCOCCOCCOCCOC(=O)c1ccc(-c3c4nc(c(-c5ccccc5)c5ccc([nH]5)c(-c5ccccc5)c5nc(c(-c6ccccc6)c6ccc3[nH]6)C=C5)C=C4)cc1)[C@@H](C(F)(F)F)O2
REMARK SMILES IDX 26 1 25 2 24 3 23 4 22 5 21 6 20 7 19 8 17 9 18 10 16 11
REMARK SMILES IDX 8 12 9 13 14 14 10 15 11 16 13 17 15 18 12 19 87 20 82 21
REMARK SMILES IDX 7 22 1 23 2 24 3 25 4 26 6 27 5 28 83 29 84 30 85 31 86 32
REMARK SMILES IDX 27 33 28 34 29 35 30 36 31 37 32 38 33 39 34 40 35 41 81 42
REMARK SMILES IDX 36 43 80 44 37 45 38 46 39 47 74 48 40 49 79 50 73 51 75 52
REMARK SMILES IDX 41 53 78 54 72 55 71 56 42 58 64 59 49 60 63 61 50 62 53 63
REMARK SMILES IDX 62 64 76 65 51 66 52 67 61 69 77 70 54 71 43 72 44 73 48 74
REMARK SMILES IDX 45 75 47 76 46 77 65 78 66 79 70 80 67 81 69 82 68 83 55 84
REMARK SMILES IDX 56 85 60 86 57 87 59 88 58 89
REMARK H PARENT 75 57 53 68
REMARK Flexibility Score: inf
ROOT
ATOM      1  C   UNL A   1      34.622  20.788  25.064  1.00  0.00     0.188 C 
ENDROOT
BRANCH   1   2
ATOM      2  O   UNL A   1      33.336  20.588  25.661  1.00  0.00    -0.377 OA
BRANCH   2   3
ATOM      3  C   UNL A   1      32.297  21.167  24.885  1.00  0.00     0.188 C 
BRANCH   3   4
ATOM      4  C   UNL A   1      32.711  22.317  23.964  1.00  0.00     0.188 C 
BRANCH   4   5
ATOM      5  O   UNL A   1      31.995  23.544  24.014  1.00  0.00    -0.376 OA
BRANCH   5   6
ATOM      6  C   UNL A   1      32.042  24.357  22.840  1.00  0.00     0.202 C 
BRANCH   6   7
ATOM      7  C   UNL A   1      33.402  24.965  22.524  1.00  0.00     0.261 C 
BRANCH   7   8
ATOM      8  O   UNL A   1      33.449  26.317  22.996  1.00  0.00    -0.460 OA
BRANCH   8   9
ATOM      9  C   UNL A   1      33.939  26.414  24.242  1.00  0.00     0.338 C 
ATOM     10  O   UNL A   1      34.637  25.579  24.799  1.00  0.00    -0.246 OA
BRANCH   9  11
ATOM     11  C   UNL A   1      33.798  27.846  24.699  1.00  0.00     0.087 C 
ATOM     12  C   UNL A   1      30.273  28.066  24.152  1.00  0.00     0.012 A 
ATOM     13  C   UNL A   1      29.375  27.006  24.384  1.00  0.00     0.049 A 
ATOM     14  C   UNL A   1      31.498  27.991  24.834  1.00  0.00     0.027 A 
ATOM     15  Cl  UNL A   1      27.886  26.880  23.514  1.00  0.00    -0.084 Cl
ATOM     16  C   UNL A   1      29.657  26.006  25.331  1.00  0.00     0.025 A 
ATOM     17  C   UNL A   1      31.646  27.170  25.973  1.00  0.00     0.128 A 
ATOM     18  C   UNL A   1      32.742  28.576  24.280  1.00  0.00     0.028 C 
ATOM     19  C   UNL A   1      30.751  26.136  26.186  1.00  0.00     0.049 A 
ATOM     20  O   UNL A   1      32.732  27.284  26.826  1.00  0.00    -0.475 OA
ATOM     21  C   UNL A   1      33.954  27.801  26.210  1.00  0.00     0.316 C 
BRANCH  12  22
ATOM     22  C   UNL A   1      29.853  29.339  23.513  1.00  0.00    -0.013 A 
ATOM     23  C   UNL A   1      30.457  30.893  25.453  1.00  0.00     0.045 C 
ATOM     24  C   UNL A   1      29.930  30.627  24.078  1.00  0.00    -0.043 A 
ATOM     25  C   UNL A   1      29.425  31.734  23.364  1.00  0.00     0.004 A 
ATOM     26  C   UNL A   1      28.861  31.586  22.100  1.00  0.00     0.000 A 
ATOM     27  C   UNL A   1      29.269  29.222  22.229  1.00  0.00     0.009 A 
ATOM     28  C   UNL A   1      28.782  30.325  21.530  1.00  0.00     0.001 A 
ENDBRANCH  12  22
BRANCH  21  29
ATOM     29  C   UNL A   1      34.434  29.132  26.794  1.00  0.00     0.430 C 
ATOM     30  F   UNL A   1      34.547  29.070  28.141  1.00  0.00    -0.167 F 
ATOM     31  F   UNL A   1      35.671  29.444  26.322  1.00  0.00    -0.167 F 
ATOM     32  F   UNL A   1      33.622  30.168  26.495  1.00  0.00    -0.167 F 
ENDBRANCH  21  29
ENDBRANCH   9  11
ENDBRANCH   8   9
ENDBRANCH   7   8
ENDBRANCH   6   7
ENDBRANCH   5   6
ENDBRANCH   4   5
ENDBRANCH   3   4
ENDBRANCH   2   3
ENDBRANCH   1   2
BRANCH   1  33
ATOM     33  C   UNL A   1      35.581  21.443  26.046  1.00  0.00     0.188 C 
BRANCH  33  34
ATOM     34  O   UNL A   1      36.208  22.641  25.604  1.00  0.00    -0.376 OA
BRANCH  34  35
ATOM     35  C   UNL A   1      37.623  22.746  25.698  1.00  0.00     0.202 C 
BRANCH  35  36
ATOM     36  C   UNL A   1      38.393  21.437  25.469  1.00  0.00     0.261 C 
BRANCH  36  37
ATOM     37  O   UNL A   1      39.332  21.235  26.542  1.00  0.00    -0.460 OA
BRANCH  37  38
ATOM     38  C   UNL A   1      40.494  20.622  26.190  1.00  0.00     0.338 C 
ATOM     39  O   UNL A   1      40.605  19.451  25.859  1.00  0.00    -0.246 OA
BRANCH  38  40
ATOM     40  C   UNL A   1      41.647  21.476  26.605  1.00  0.00     0.060 A 
ATOM     41  C   UNL A   1      41.839  21.737  27.975  1.00  0.00     0.016 A 
ATOM     42  C   UNL A   1      42.249  22.296  25.657  1.00  0.00     0.016 A 
ATOM     43  C   UNL A   1      42.454  22.929  28.385  1.00  0.00     0.010 A 
ATOM     44  C   UNL A   1      42.766  23.512  26.069  1.00  0.00     0.010 A 
ATOM     45  C   UNL A   1      42.812  23.880  27.427  1.00  0.00    -0.014 A 
BRANCH  45  46
ATOM     46  C   UNL A   1      42.945  25.335  27.696  1.00  0.00     0.031 A 
ATOM     47  C   UNL A   1      41.736  26.232  27.658  1.00  0.00     0.074 A 
ATOM     48  C   UNL A   1      44.068  25.749  28.343  1.00  0.00     0.049 A 
ATOM     49  N   UNL A   1      41.729  27.496  27.934  1.00  0.00    -0.248 NA
ATOM     50  C   UNL A   1      40.398  25.764  27.281  1.00  0.00     0.031 C 
ATOM     51  C   UNL A   1      44.159  26.855  29.298  1.00  0.00     0.029 A 
ATOM     52  N   UNL A   1      45.352  25.228  28.412  1.00  0.00    -0.354 N 
ATOM     53  C   UNL A   1      40.415  27.901  28.109  1.00  0.00     0.074 A 
ATOM     54  C   UNL A   1      39.629  26.814  27.589  1.00  0.00     0.031 C 
ATOM     55  C   UNL A   1      45.389  26.929  29.822  1.00  0.00     0.029 A 
ATOM     56  C   UNL A   1      46.238  26.170  28.950  1.00  0.00     0.049 A 
ATOM     57  H   UNL A   1      45.606  24.323  28.121  1.00  0.00     0.167 HD
ATOM     58  C   UNL A   1      40.136  29.043  28.807  1.00  0.00     0.031 A 
ATOM     59  C   UNL A   1      47.181  26.802  28.182  1.00  0.00     0.031 A 
ATOM     60  C   UNL A   1      41.347  29.815  29.122  1.00  0.00     0.049 A 
ATOM     61  C   UNL A   1      46.856  28.270  27.876  1.00  0.00     0.074 A 
ATOM     62  C   UNL A   1      41.859  30.365  30.282  1.00  0.00     0.029 A 
ATOM     63  N   UNL A   1      42.328  29.998  28.144  1.00  0.00    -0.354 N 
ATOM     64  N   UNL A   1      45.677  28.813  28.081  1.00  0.00    -0.248 NA
ATOM     65  C   UNL A   1      47.807  29.257  27.369  1.00  0.00     0.031 C 
ATOM     66  C   UNL A   1      43.168  30.827  30.002  1.00  0.00     0.029 A 
ATOM     67  C   UNL A   1      43.474  30.543  28.680  1.00  0.00     0.049 A 
ATOM     68  H   UNL A   1      42.215  29.767  27.194  1.00  0.00     0.167 HD
ATOM     69  C   UNL A   1      45.680  30.134  27.736  1.00  0.00     0.074 A 
ATOM     70  C   UNL A   1      47.046  30.368  27.302  1.00  0.00     0.031 C 
ATOM     71  C   UNL A   1      44.578  30.942  27.815  1.00  0.00     0.031 A 
BRANCH  58  72
ATOM     72  C   UNL A   1      38.777  29.400  29.426  1.00  0.00    -0.014 A 
ATOM     73  C   UNL A   1      37.975  30.399  28.829  1.00  0.00     0.009 A 
ATOM     74  C   UNL A   1      38.276  28.891  30.638  1.00  0.00     0.009 A 
ATOM     75  C   UNL A   1      36.800  30.893  29.423  1.00  0.00     0.001 A 
ATOM     76  C   UNL A   1      37.076  29.346  31.218  1.00  0.00     0.001 A 
ATOM     77  C   UNL A   1      36.348  30.364  30.620  1.00  0.00     0.000 A 
ENDBRANCH  58  72
BRANCH  59  78
ATOM     78  C   UNL A   1      48.023  25.806  27.449  1.00  0.00    -0.014 A 
ATOM     79  C   UNL A   1      48.010  25.992  26.046  1.00  0.00     0.009 A 
ATOM     80  C   UNL A   1      49.211  25.351  28.044  1.00  0.00     0.009 A 
ATOM     81  C   UNL A   1      49.211  26.054  25.332  1.00  0.00     0.001 A 
ATOM     82  C   UNL A   1      50.410  25.385  27.310  1.00  0.00     0.001 A 
ATOM     83  C   UNL A   1      50.416  25.810  25.980  1.00  0.00     0.000 A 
ENDBRANCH  59  78
BRANCH  71  84
ATOM     84  C   UNL A   1      44.415  32.251  27.077  1.00  0.00    -0.014 A 
ATOM     85  C   UNL A   1      44.148  32.332  25.705  1.00  0.00     0.009 A 
ATOM     86  C   UNL A   1      44.307  33.453  27.817  1.00  0.00     0.009 A 
ATOM     87  C   UNL A   1      43.828  33.554  25.099  1.00  0.00     0.001 A 
ATOM     88  C   UNL A   1      43.946  34.664  27.225  1.00  0.00     0.001 A 
ATOM     89  C   UNL A   1      43.716  34.715  25.859  1.00  0.00     0.000 A 
ENDBRANCH  71  84
ENDBRANCH  45  46
ENDBRANCH  38  40
ENDBRANCH  37  38
ENDBRANCH  36  37
ENDBRANCH  35  36
ENDBRANCH  34  35
ENDBRANCH  33  34
ENDBRANCH   1  33
TORSDOF 22
ENDMDL
