MODEL 1
REMARK VINA RESULT:      -9.6      0.000      0.000
REMARK SMILES Cc1ccc(O[C@H](C)C(=O)Nc2ccsc2C(=O)OCCOCCOCCOCCOC(=O)c2ccc(-c3c4nc(c(-c5ccccc5)c5ccc([nH]5)c(-c5ccccc5)c5nc(c(-c6ccccc6)c6ccc3[nH]6)C=C5)C=C4)cc2)cc1
REMARK SMILES IDX 24 1 23 2 22 3 21 4 20 5 19 6 17 7 18 8 16 9 12 10 13 11
REMARK SMILES IDX 14 12 15 13 11 14 9 15 10 16 7 18 8 19 6 20 5 21 1 22 2 23
REMARK SMILES IDX 3 24 83 25 4 26 82 27 25 28 26 29 27 30 28 31 29 32 30 33
REMARK SMILES IDX 31 34 32 35 33 36 34 37 35 38 81 39 36 40 80 41 37 42 38 43
REMARK SMILES IDX 39 44 74 45 40 46 79 47 73 48 75 49 41 50 78 51 72 52 71 53
REMARK SMILES IDX 42 55 64 56 49 57 63 58 50 59 53 60 62 61 76 62 51 63 52 64
REMARK SMILES IDX 61 66 77 67 54 68 43 69 44 70 48 71 45 72 47 73 46 74 65 75
REMARK SMILES IDX 66 76 70 77 67 78 69 79 68 80 55 81 56 82 60 83 57 84 59 85
REMARK SMILES IDX 58 86
REMARK H PARENT 11 17 75 54 53 65
REMARK Flexibility Score: inf
ROOT
ATOM      1  C   UNL A   1      36.434  33.464  28.631  1.00  0.00     0.188 C 
ENDROOT
BRANCH   1   2
ATOM      2  C   UNL A   1      36.312  32.106  29.411  1.00  0.00     0.188 C 
BRANCH   2   3
ATOM      3  O   UNL A   1      35.595  30.841  28.952  1.00  0.00    -0.376 OA
BRANCH   3   4
ATOM      4  C   UNL A   1      34.612  30.550  27.672  1.00  0.00     0.202 C 
BRANCH   4   5
ATOM      5  C   UNL A   1      33.706  29.135  26.880  1.00  0.00     0.261 C 
BRANCH   5   6
ATOM      6  O   UNL A   1      33.638  28.520  25.149  1.00  0.00    -0.459 OA
BRANCH   6   7
ATOM      7  C   UNL A   1      32.641  28.281  23.843  1.00  0.00     0.350 C 
ATOM      8  O   UNL A   1      33.012  28.786  22.777  1.00  0.00    -0.245 OA
BRANCH   7   9
ATOM      9  C   UNL A   1      31.139  27.578  23.814  1.00  0.00     0.136 A 
ATOM     10  C   UNL A   1      30.308  26.469  24.271  1.00  0.00     0.066 A 
ATOM     11  C   UNL A   1      28.911  26.693  24.012  1.00  0.00     0.039 A 
ATOM     12  C   UNL A   1      28.661  27.767  23.221  1.00  0.00     0.068 A 
ATOM     13  S   UNL A   1      30.070  28.605  22.824  1.00  0.00    -0.135 S 
BRANCH  10  14
ATOM     14  N   UNL A   1      30.554  25.216  24.914  1.00  0.00    -0.321 N 
ATOM     15  C   UNL A   1      31.014  24.102  24.205  1.00  0.00     0.265 C 
ATOM     16  O   UNL A   1      30.502  23.762  23.130  1.00  0.00    -0.270 OA
ATOM     17  H   UNL A   1      30.394  25.134  25.882  1.00  0.00     0.170 HD
BRANCH  15  18
ATOM     18  C   UNL A   1      32.130  23.199  24.826  1.00  0.00     0.259 C 
ATOM     19  C   UNL A   1      31.433  22.164  25.731  1.00  0.00     0.064 C 
BRANCH  18  20
ATOM     20  O   UNL A   1      33.183  22.655  24.042  1.00  0.00    -0.481 OA
BRANCH  20  21
ATOM     21  C   UNL A   1      34.460  22.541  24.498  1.00  0.00     0.120 A 
ATOM     22  C   UNL A   1      38.496  22.614  26.040  1.00  0.00     0.044 C 
ATOM     23  C   UNL A   1      37.086  22.608  25.537  1.00  0.00    -0.051 A 
ATOM     24  C   UNL A   1      36.411  21.397  25.373  1.00  0.00     0.007 A 
ATOM     25  C   UNL A   1      36.417  23.794  25.228  1.00  0.00     0.007 A 
ATOM     26  C   UNL A   1      35.105  21.366  24.871  1.00  0.00     0.047 A 
ATOM     27  C   UNL A   1      35.110  23.755  24.732  1.00  0.00     0.047 A 
ENDBRANCH  20  21
ENDBRANCH  18  20
ENDBRANCH  15  18
ENDBRANCH  10  14
ENDBRANCH   7   9
ENDBRANCH   6   7
ENDBRANCH   5   6
ENDBRANCH   4   5
ENDBRANCH   3   4
ENDBRANCH   2   3
ENDBRANCH   1   2
BRANCH   1  28
ATOM     28  O   UNL A   1      35.494  34.500  28.797  1.00  0.00    -0.377 OA
BRANCH  28  29
ATOM     29  C   UNL A   1      34.281  34.079  29.370  1.00  0.00     0.188 C 
BRANCH  29  30
ATOM     30  C   UNL A   1      33.285  35.190  29.754  1.00  0.00     0.188 C 
BRANCH  30  31
ATOM     31  O   UNL A   1      33.733  36.032  30.809  1.00  0.00    -0.376 OA
BRANCH  31  32
ATOM     32  C   UNL A   1      33.148  35.947  32.091  1.00  0.00     0.202 C 
BRANCH  32  33
ATOM     33  C   UNL A   1      34.144  35.539  33.176  1.00  0.00     0.261 C 
BRANCH  33  34
ATOM     34  O   UNL A   1      35.482  35.445  32.636  1.00  0.00    -0.460 OA
BRANCH  34  35
ATOM     35  C   UNL A   1      36.002  34.184  32.574  1.00  0.00     0.338 C 
ATOM     36  O   UNL A   1      35.359  33.159  32.591  1.00  0.00    -0.246 OA
BRANCH  35  37
ATOM     37  C   UNL A   1      37.489  34.272  32.769  1.00  0.00     0.060 A 
ATOM     38  C   UNL A   1      38.306  34.604  31.700  1.00  0.00     0.016 A 
ATOM     39  C   UNL A   1      38.082  33.717  33.907  1.00  0.00     0.016 A 
ATOM     40  C   UNL A   1      39.651  34.186  31.722  1.00  0.00     0.010 A 
ATOM     41  C   UNL A   1      39.341  33.109  33.814  1.00  0.00     0.010 A 
ATOM     42  C   UNL A   1      40.114  33.210  32.648  1.00  0.00    -0.014 A 
BRANCH  42  43
ATOM     43  C   UNL A   1      41.501  32.339  32.569  1.00  0.00     0.031 A 
ATOM     44  C   UNL A   1      40.649  31.053  31.627  1.00  0.00     0.074 A 
ATOM     45  C   UNL A   1      42.989  32.342  33.367  1.00  0.00     0.049 A 
ATOM     46  N   UNL A   1      40.674  29.757  31.860  1.00  0.00    -0.248 NA
ATOM     47  C   UNL A   1      39.631  31.277  30.563  1.00  0.00     0.031 C 
ATOM     48  C   UNL A   1      44.363  31.334  33.364  1.00  0.00     0.029 A 
ATOM     49  N   UNL A   1      43.582  32.936  34.656  1.00  0.00    -0.354 N 
ATOM     50  C   UNL A   1      40.362  29.125  30.698  1.00  0.00     0.074 A 
ATOM     51  C   UNL A   1      39.422  30.035  30.096  1.00  0.00     0.031 C 
ATOM     52  C   UNL A   1      45.193  31.397  34.392  1.00  0.00     0.029 A 
ATOM     53  C   UNL A   1      44.450  32.043  35.379  1.00  0.00     0.049 A 
ATOM     54  H   UNL A   1      43.383  33.850  34.962  1.00  0.00     0.167 HD
ATOM     55  C   UNL A   1      41.163  28.128  30.199  1.00  0.00     0.031 A 
ATOM     56  C   UNL A   1      44.311  31.418  36.593  1.00  0.00     0.031 A 
ATOM     57  C   UNL A   1      42.412  27.872  30.995  1.00  0.00     0.049 A 
ATOM     58  C   UNL A   1      44.367  29.860  36.410  1.00  0.00     0.074 A 
ATOM     59  C   UNL A   1      43.759  28.056  30.691  1.00  0.00     0.029 A 
ATOM     60  N   UNL A   1      42.402  27.623  32.380  1.00  0.00    -0.354 N 
ATOM     61  N   UNL A   1      44.076  29.258  35.275  1.00  0.00    -0.248 NA
ATOM     62  C   UNL A   1      44.781  28.880  37.406  1.00  0.00     0.031 C 
ATOM     63  C   UNL A   1      44.545  27.875  31.865  1.00  0.00     0.029 A 
ATOM     64  C   UNL A   1      43.698  27.583  32.923  1.00  0.00     0.049 A 
ATOM     65  H   UNL A   1      41.582  27.494  32.908  1.00  0.00     0.167 HD
ATOM     66  C   UNL A   1      44.231  27.901  35.338  1.00  0.00     0.074 A 
ATOM     67  C   UNL A   1      44.672  27.718  36.721  1.00  0.00     0.031 C 
ATOM     68  C   UNL A   1      43.986  27.052  34.277  1.00  0.00     0.031 A 
BRANCH  55  69
ATOM     69  C   UNL A   1      41.000  27.678  28.743  1.00  0.00    -0.014 A 
ATOM     70  C   UNL A   1      40.146  26.616  28.395  1.00  0.00     0.009 A 
ATOM     71  C   UNL A   1      41.688  28.265  27.662  1.00  0.00     0.009 A 
ATOM     72  C   UNL A   1      40.082  26.095  27.091  1.00  0.00     0.001 A 
ATOM     73  C   UNL A   1      41.663  27.731  26.364  1.00  0.00     0.001 A 
ATOM     74  C   UNL A   1      40.866  26.633  26.080  1.00  0.00     0.000 A 
ENDBRANCH  55  69
BRANCH  56  75
ATOM     75  C   UNL A   1      43.626  32.218  37.649  1.00  0.00    -0.014 A 
ATOM     76  C   UNL A   1      42.267  32.526  37.407  1.00  0.00     0.009 A 
ATOM     77  C   UNL A   1      44.107  32.372  38.955  1.00  0.00     0.009 A 
ATOM     78  C   UNL A   1      41.372  32.745  38.456  1.00  0.00     0.001 A 
ATOM     79  C   UNL A   1      43.201  32.577  40.011  1.00  0.00     0.001 A 
ATOM     80  C   UNL A   1      41.834  32.720  39.765  1.00  0.00     0.000 A 
ENDBRANCH  56  75
BRANCH  68  81
ATOM     81  C   UNL A   1      44.058  25.536  34.349  1.00  0.00    -0.014 A 
ATOM     82  C   UNL A   1      45.077  24.751  33.806  1.00  0.00     0.009 A 
ATOM     83  C   UNL A   1      42.978  24.833  34.937  1.00  0.00     0.009 A 
ATOM     84  C   UNL A   1      45.083  23.357  33.969  1.00  0.00     0.001 A 
ATOM     85  C   UNL A   1      42.957  23.446  35.070  1.00  0.00     0.001 A 
ATOM     86  C   UNL A   1      44.033  22.707  34.613  1.00  0.00     0.000 A 
ENDBRANCH  68  81
ENDBRANCH  42  43
ENDBRANCH  35  37
ENDBRANCH  34  35
ENDBRANCH  33  34
ENDBRANCH  32  33
ENDBRANCH  31  32
ENDBRANCH  30  31
ENDBRANCH  29  30
ENDBRANCH  28  29
ENDBRANCH   1  28
TORSDOF 24
ENDMDL
MODEL 2
REMARK VINA RESULT:      -9.4      4.458     10.068
REMARK SMILES Cc1ccc(O[C@H](C)C(=O)Nc2ccsc2C(=O)OCCOCCOCCOCCOC(=O)c2ccc(-c3c4nc(c(-c5ccccc5)c5ccc([nH]5)c(-c5ccccc5)c5nc(c(-c6ccccc6)c6ccc3[nH]6)C=C5)C=C4)cc2)cc1
REMARK SMILES IDX 24 1 23 2 22 3 21 4 20 5 19 6 17 7 18 8 16 9 12 10 13 11
REMARK SMILES IDX 14 12 15 13 11 14 9 15 10 16 7 18 8 19 6 20 5 21 1 22 2 23
REMARK SMILES IDX 3 24 83 25 4 26 82 27 25 28 26 29 27 30 28 31 29 32 30 33
REMARK SMILES IDX 31 34 32 35 33 36 34 37 35 38 81 39 36 40 80 41 37 42 38 43
REMARK SMILES IDX 39 44 74 45 40 46 79 47 73 48 75 49 41 50 78 51 72 52 71 53
REMARK SMILES IDX 42 55 64 56 49 57 63 58 50 59 53 60 62 61 76 62 51 63 52 64
REMARK SMILES IDX 61 66 77 67 54 68 43 69 44 70 48 71 45 72 47 73 46 74 65 75
REMARK SMILES IDX 66 76 70 77 67 78 69 79 68 80 55 81 56 82 60 83 57 84 59 85
REMARK SMILES IDX 58 86
REMARK H PARENT 11 17 75 54 53 65
REMARK Flexibility Score: inf
ROOT
ATOM      1  C   UNL A   1      42.321  18.950  26.110  1.00  0.00     0.188 C 
ENDROOT
BRANCH   1   2
ATOM      2  C   UNL A   1      40.878  19.565  26.172  1.00  0.00     0.188 C 
BRANCH   2   3
ATOM      3  O   UNL A   1      40.477  20.925  26.734  1.00  0.00    -0.376 OA
BRANCH   3   4
ATOM      4  C   UNL A   1      39.468  22.085  26.163  1.00  0.00     0.202 C 
BRANCH   4   5
ATOM      5  C   UNL A   1      37.819  22.231  25.321  1.00  0.00     0.261 C 
BRANCH   5   6
ATOM      6  O   UNL A   1      36.604  23.606  25.206  1.00  0.00    -0.459 OA
BRANCH   6   7
ATOM      7  C   UNL A   1      35.001  24.004  25.381  1.00  0.00     0.350 C 
ATOM      8  O   UNL A   1      34.764  25.180  25.682  1.00  0.00    -0.245 OA
BRANCH   7   9
ATOM      9  C   UNL A   1      33.684  22.997  25.351  1.00  0.00     0.136 A 
ATOM     10  C   UNL A   1      32.279  22.846  24.986  1.00  0.00     0.066 A 
ATOM     11  C   UNL A   1      31.847  21.475  25.042  1.00  0.00     0.039 A 
ATOM     12  C   UNL A   1      32.746  20.635  25.615  1.00  0.00     0.068 A 
ATOM     13  S   UNL A   1      34.177  21.425  26.030  1.00  0.00    -0.135 S 
BRANCH  10  14
ATOM     14  N   UNL A   1      31.233  23.736  24.587  1.00  0.00    -0.321 N 
ATOM     15  C   UNL A   1      30.896  24.862  25.345  1.00  0.00     0.265 C 
ATOM     16  O   UNL A   1      30.745  24.795  26.572  1.00  0.00    -0.270 OA
ATOM     17  H   UNL A   1      30.737  23.551  23.757  1.00  0.00     0.170 HD
BRANCH  15  18
ATOM     18  C   UNL A   1      30.598  26.217  24.623  1.00  0.00     0.259 C 
ATOM     19  C   UNL A   1      29.286  26.039  23.833  1.00  0.00     0.064 C 
BRANCH  18  20
ATOM     20  O   UNL A   1      30.696  27.466  25.293  1.00  0.00    -0.481 OA
BRANCH  20  21
ATOM     21  C   UNL A   1      31.876  27.974  25.740  1.00  0.00     0.120 A 
ATOM     22  C   UNL A   1      35.485  29.489  27.571  1.00  0.00     0.044 C 
ATOM     23  C   UNL A   1      34.237  28.932  26.958  1.00  0.00    -0.051 A 
ATOM     24  C   UNL A   1      34.200  28.650  25.591  1.00  0.00     0.007 A 
ATOM     25  C   UNL A   1      33.099  28.680  27.725  1.00  0.00     0.007 A 
ATOM     26  C   UNL A   1      33.033  28.163  24.992  1.00  0.00     0.047 A 
ATOM     27  C   UNL A   1      31.938  28.188  27.119  1.00  0.00     0.047 A 
ENDBRANCH  20  21
ENDBRANCH  18  20
ENDBRANCH  15  18
ENDBRANCH  10  14
ENDBRANCH   7   9
ENDBRANCH   6   7
ENDBRANCH   5   6
ENDBRANCH   4   5
ENDBRANCH   3   4
ENDBRANCH   2   3
ENDBRANCH   1   2
BRANCH   1  28
ATOM     28  O   UNL A   1      43.450  19.740  25.816  1.00  0.00    -0.377 OA
BRANCH  28  29
ATOM     29  C   UNL A   1      44.381  19.108  24.971  1.00  0.00     0.188 C 
BRANCH  29  30
ATOM     30  C   UNL A   1      45.862  19.468  25.197  1.00  0.00     0.188 C 
BRANCH  30  31
ATOM     31  O   UNL A   1      46.076  20.812  25.608  1.00  0.00    -0.376 OA
BRANCH  31  32
ATOM     32  C   UNL A   1      46.113  21.855  24.657  1.00  0.00     0.202 C 
BRANCH  32  33
ATOM     33  C   UNL A   1      45.793  23.222  25.259  1.00  0.00     0.261 C 
BRANCH  33  34
ATOM     34  O   UNL A   1      44.611  23.789  24.650  1.00  0.00    -0.460 OA
BRANCH  34  35
ATOM     35  C   UNL A   1      43.424  23.261  25.070  1.00  0.00     0.338 C 
ATOM     36  O   UNL A   1      42.877  22.295  24.587  1.00  0.00    -0.246 OA
BRANCH  35  37
ATOM     37  C   UNL A   1      42.780  24.231  26.019  1.00  0.00     0.060 A 
ATOM     38  C   UNL A   1      42.626  25.558  25.648  1.00  0.00     0.016 A 
ATOM     39  C   UNL A   1      42.634  23.901  27.369  1.00  0.00     0.016 A 
ATOM     40  C   UNL A   1      42.533  26.535  26.658  1.00  0.00     0.010 A 
ATOM     41  C   UNL A   1      42.777  24.890  28.352  1.00  0.00     0.010 A 
ATOM     42  C   UNL A   1      42.874  26.247  28.010  1.00  0.00    -0.014 A 
BRANCH  42  43
ATOM     43  C   UNL A   1      43.197  27.319  29.208  1.00  0.00     0.031 A 
ATOM     44  C   UNL A   1      41.687  28.230  28.809  1.00  0.00     0.074 A 
ATOM     45  C   UNL A   1      44.539  27.732  30.145  1.00  0.00     0.049 A 
ATOM     46  N   UNL A   1      41.574  29.530  28.633  1.00  0.00    -0.248 NA
ATOM     47  C   UNL A   1      40.379  27.630  28.427  1.00  0.00     0.031 C 
ATOM     48  C   UNL A   1      44.887  28.947  31.287  1.00  0.00     0.029 A 
ATOM     49  N   UNL A   1      46.061  27.509  30.104  1.00  0.00    -0.354 N 
ATOM     50  C   UNL A   1      40.275  29.862  28.859  1.00  0.00     0.074 A 
ATOM     51  C   UNL A   1      39.572  28.703  28.376  1.00  0.00     0.031 C 
ATOM     52  C   UNL A   1      46.154  29.231  31.540  1.00  0.00     0.029 A 
ATOM     53  C   UNL A   1      46.842  28.663  30.468  1.00  0.00     0.049 A 
ATOM     54  H   UNL A   1      46.467  26.650  29.849  1.00  0.00     0.167 HD
ATOM     55  C   UNL A   1      39.947  30.872  29.730  1.00  0.00     0.031 A 
ATOM     56  C   UNL A   1      47.670  29.473  29.733  1.00  0.00     0.031 A 
ATOM     57  C   UNL A   1      41.117  31.492  30.438  1.00  0.00     0.049 A 
ATOM     58  C   UNL A   1      47.146  30.953  29.760  1.00  0.00     0.074 A 
ATOM     59  C   UNL A   1      41.493  31.496  31.780  1.00  0.00     0.029 A 
ATOM     60  N   UNL A   1      42.246  31.995  29.764  1.00  0.00    -0.354 N 
ATOM     61  N   UNL A   1      45.889  31.266  29.995  1.00  0.00    -0.248 NA
ATOM     62  C   UNL A   1      47.941  32.162  29.590  1.00  0.00     0.031 C 
ATOM     63  C   UNL A   1      42.806  32.033  31.909  1.00  0.00     0.029 A 
ATOM     64  C   UNL A   1      43.273  32.368  30.648  1.00  0.00     0.049 A 
ATOM     65  H   UNL A   1      42.308  32.076  28.785  1.00  0.00     0.167 HD
ATOM     66  C   UNL A   1      45.670  32.615  30.007  1.00  0.00     0.074 A 
ATOM     67  C   UNL A   1      47.011  33.134  29.735  1.00  0.00     0.031 C 
ATOM     68  C   UNL A   1      44.434  33.189  30.230  1.00  0.00     0.031 A 
BRANCH  55  69
ATOM     69  C   UNL A   1      38.506  31.000  30.236  1.00  0.00    -0.014 A 
ATOM     70  C   UNL A   1      37.846  32.241  30.267  1.00  0.00     0.009 A 
ATOM     71  C   UNL A   1      37.748  29.913  30.718  1.00  0.00     0.009 A 
ATOM     72  C   UNL A   1      36.579  32.409  30.852  1.00  0.00     0.001 A 
ATOM     73  C   UNL A   1      36.500  30.073  31.340  1.00  0.00     0.001 A 
ATOM     74  C   UNL A   1      35.918  31.329  31.418  1.00  0.00     0.000 A 
ENDBRANCH  55  69
BRANCH  56  75
ATOM     75  C   UNL A   1      48.481  28.780  28.690  1.00  0.00    -0.014 A 
ATOM     76  C   UNL A   1      49.453  27.871  29.167  1.00  0.00     0.009 A 
ATOM     77  C   UNL A   1      48.124  28.705  27.339  1.00  0.00     0.009 A 
ATOM     78  C   UNL A   1      49.874  26.785  28.397  1.00  0.00     0.001 A 
ATOM     79  C   UNL A   1      48.536  27.601  26.570  1.00  0.00     0.001 A 
ATOM     80  C   UNL A   1      49.373  26.623  27.113  1.00  0.00     0.000 A 
ENDBRANCH  56  75
BRANCH  68  81
ATOM     81  C   UNL A   1      44.147  34.679  30.155  1.00  0.00    -0.014 A 
ATOM     82  C   UNL A   1      43.795  35.375  28.998  1.00  0.00     0.009 A 
ATOM     83  C   UNL A   1      44.322  35.463  31.323  1.00  0.00     0.009 A 
ATOM     84  C   UNL A   1      43.498  36.747  29.038  1.00  0.00     0.001 A 
ATOM     85  C   UNL A   1      44.066  36.832  31.363  1.00  0.00     0.001 A 
ATOM     86  C   UNL A   1      43.619  37.470  30.221  1.00  0.00     0.000 A 
ENDBRANCH  68  81
ENDBRANCH  42  43
ENDBRANCH  35  37
ENDBRANCH  34  35
ENDBRANCH  33  34
ENDBRANCH  32  33
ENDBRANCH  31  32
ENDBRANCH  30  31
ENDBRANCH  29  30
ENDBRANCH  28  29
ENDBRANCH   1  28
TORSDOF 24
ENDMDL
MODEL 3
REMARK VINA RESULT:      -9.2      4.033      9.573
REMARK SMILES Cc1ccc(O[C@H](C)C(=O)Nc2ccsc2C(=O)OCCOCCOCCOCCOC(=O)c2ccc(-c3c4nc(c(-c5ccccc5)c5ccc([nH]5)c(-c5ccccc5)c5nc(c(-c6ccccc6)c6ccc3[nH]6)C=C5)C=C4)cc2)cc1
REMARK SMILES IDX 24 1 23 2 22 3 21 4 20 5 19 6 17 7 18 8 16 9 12 10 13 11
REMARK SMILES IDX 14 12 15 13 11 14 9 15 10 16 7 18 8 19 6 20 5 21 1 22 2 23
REMARK SMILES IDX 3 24 83 25 4 26 82 27 25 28 26 29 27 30 28 31 29 32 30 33
REMARK SMILES IDX 31 34 32 35 33 36 34 37 35 38 81 39 36 40 80 41 37 42 38 43
REMARK SMILES IDX 39 44 74 45 40 46 79 47 73 48 75 49 41 50 78 51 72 52 71 53
REMARK SMILES IDX 42 55 64 56 49 57 63 58 50 59 53 60 62 61 76 62 51 63 52 64
REMARK SMILES IDX 61 66 77 67 54 68 43 69 44 70 48 71 45 72 47 73 46 74 65 75
REMARK SMILES IDX 66 76 70 77 67 78 69 79 68 80 55 81 56 82 60 83 57 84 59 85
REMARK SMILES IDX 58 86
REMARK H PARENT 11 17 75 54 53 65
REMARK Flexibility Score: inf
ROOT
ATOM      1  C   UNL A   1      40.899  19.407  26.171  1.00  0.00     0.188 C 
ENDROOT
BRANCH   1   2
ATOM      2  C   UNL A   1      39.841  20.542  25.925  1.00  0.00     0.188 C 
BRANCH   2   3
ATOM      3  O   UNL A   1      39.685  21.842  26.707  1.00  0.00    -0.376 OA
BRANCH   3   4
ATOM      4  C   UNL A   1      38.866  23.222  26.371  1.00  0.00     0.202 C 
BRANCH   4   5
ATOM      5  C   UNL A   1      37.135  23.779  25.990  1.00  0.00     0.261 C 
BRANCH   5   6
ATOM      6  O   UNL A   1      35.810  23.071  24.931  1.00  0.00    -0.459 OA
BRANCH   6   7
ATOM      7  C   UNL A   1      34.191  22.704  24.864  1.00  0.00     0.350 C 
ATOM      8  O   UNL A   1      33.894  21.670  24.254  1.00  0.00    -0.245 OA
BRANCH   7   9
ATOM      9  C   UNL A   1      32.909  23.619  25.381  1.00  0.00     0.136 A 
ATOM     10  C   UNL A   1      32.262  24.928  25.355  1.00  0.00     0.066 A 
ATOM     11  C   UNL A   1      30.927  24.884  25.888  1.00  0.00     0.039 A 
ATOM     12  C   UNL A   1      30.612  23.712  26.495  1.00  0.00     0.068 A 
ATOM     13  S   UNL A   1      31.858  22.582  26.379  1.00  0.00    -0.135 S 
BRANCH  10  14
ATOM     14  N   UNL A   1      32.641  26.238  24.925  1.00  0.00    -0.321 N 
ATOM     15  C   UNL A   1      31.962  26.900  23.898  1.00  0.00     0.265 C 
ATOM     16  O   UNL A   1      31.685  26.332  22.832  1.00  0.00    -0.270 OA
ATOM     17  H   UNL A   1      33.400  26.685  25.364  1.00  0.00     0.170 HD
BRANCH  15  18
ATOM     18  C   UNL A   1      31.634  28.422  24.046  1.00  0.00     0.259 C 
ATOM     19  C   UNL A   1      30.635  28.789  22.930  1.00  0.00     0.064 C 
BRANCH  18  20
ATOM     20  O   UNL A   1      31.325  29.008  25.303  1.00  0.00    -0.481 OA
BRANCH  20  21
ATOM     21  C   UNL A   1      32.230  29.719  26.028  1.00  0.00     0.120 A 
ATOM     22  C   UNL A   1      34.771  32.248  28.442  1.00  0.00     0.044 C 
ATOM     23  C   UNL A   1      33.864  31.371  27.635  1.00  0.00    -0.051 A 
ATOM     24  C   UNL A   1      34.287  30.095  27.256  1.00  0.00     0.007 A 
ATOM     25  C   UNL A   1      32.591  31.796  27.249  1.00  0.00     0.007 A 
ATOM     26  C   UNL A   1      33.471  29.273  26.471  1.00  0.00     0.047 A 
ATOM     27  C   UNL A   1      31.780  30.966  26.469  1.00  0.00     0.047 A 
ENDBRANCH  20  21
ENDBRANCH  18  20
ENDBRANCH  15  18
ENDBRANCH  10  14
ENDBRANCH   7   9
ENDBRANCH   6   7
ENDBRANCH   5   6
ENDBRANCH   4   5
ENDBRANCH   3   4
ENDBRANCH   2   3
ENDBRANCH   1   2
BRANCH   1  28
ATOM     28  O   UNL A   1      42.266  19.696  26.350  1.00  0.00    -0.377 OA
BRANCH  28  29
ATOM     29  C   UNL A   1      43.117  18.614  26.059  1.00  0.00     0.188 C 
BRANCH  29  30
ATOM     30  C   UNL A   1      44.198  18.865  24.990  1.00  0.00     0.188 C 
BRANCH  30  31
ATOM     31  O   UNL A   1      45.078  19.939  25.296  1.00  0.00    -0.376 OA
BRANCH  31  32
ATOM     32  C   UNL A   1      45.434  20.878  24.304  1.00  0.00     0.202 C 
BRANCH  32  33
ATOM     33  C   UNL A   1      45.684  22.276  24.869  1.00  0.00     0.261 C 
BRANCH  33  34
ATOM     34  O   UNL A   1      44.796  23.242  24.263  1.00  0.00    -0.460 OA
BRANCH  34  35
ATOM     35  C   UNL A   1      43.557  23.338  24.830  1.00  0.00     0.338 C 
ATOM     36  O   UNL A   1      42.679  22.510  24.738  1.00  0.00    -0.246 OA
BRANCH  35  37
ATOM     37  C   UNL A   1      43.371  24.741  25.333  1.00  0.00     0.060 A 
ATOM     38  C   UNL A   1      44.295  25.720  25.001  1.00  0.00     0.016 A 
ATOM     39  C   UNL A   1      42.480  25.000  26.378  1.00  0.00     0.016 A 
ATOM     40  C   UNL A   1      44.431  26.835  25.850  1.00  0.00     0.010 A 
ATOM     41  C   UNL A   1      42.784  25.982  27.331  1.00  0.00     0.010 A 
ATOM     42  C   UNL A   1      43.872  26.851  27.159  1.00  0.00    -0.014 A 
BRANCH  42  43
ATOM     43  C   UNL A   1      44.249  27.862  28.393  1.00  0.00     0.031 A 
ATOM     44  C   UNL A   1      45.432  26.654  29.032  1.00  0.00     0.074 A 
ATOM     45  C   UNL A   1      43.565  29.238  29.094  1.00  0.00     0.049 A 
ATOM     46  N   UNL A   1      45.534  26.231  30.275  1.00  0.00    -0.248 NA
ATOM     47  C   UNL A   1      46.344  25.806  28.214  1.00  0.00     0.031 C 
ATOM     48  C   UNL A   1      43.903  30.188  30.467  1.00  0.00     0.029 A 
ATOM     49  N   UNL A   1      42.206  29.957  29.085  1.00  0.00    -0.354 N 
ATOM     50  C   UNL A   1      46.798  25.759  30.444  1.00  0.00     0.074 A 
ATOM     51  C   UNL A   1      47.095  25.203  29.151  1.00  0.00     0.031 C 
ATOM     52  C   UNL A   1      42.943  30.958  30.953  1.00  0.00     0.029 A 
ATOM     53  C   UNL A   1      41.783  30.448  30.370  1.00  0.00     0.049 A 
ATOM     54  H   UNL A   1      41.668  30.070  28.268  1.00  0.00     0.167 HD
ATOM     55  C   UNL A   1      47.578  26.191  31.489  1.00  0.00     0.031 A 
ATOM     56  C   UNL A   1      40.759  30.067  31.202  1.00  0.00     0.031 A 
ATOM     57  C   UNL A   1      46.947  27.253  32.344  1.00  0.00     0.049 A 
ATOM     58  C   UNL A   1      41.330  29.597  32.586  1.00  0.00     0.074 A 
ATOM     59  C   UNL A   1      47.274  28.591  32.551  1.00  0.00     0.029 A 
ATOM     60  N   UNL A   1      45.671  27.117  32.922  1.00  0.00    -0.354 N 
ATOM     61  N   UNL A   1      42.561  29.155  32.743  1.00  0.00    -0.248 NA
ATOM     62  C   UNL A   1      40.639  29.623  33.869  1.00  0.00     0.031 C 
ATOM     63  C   UNL A   1      46.231  29.233  33.279  1.00  0.00     0.029 A 
ATOM     64  C   UNL A   1      45.233  28.305  33.532  1.00  0.00     0.049 A 
ATOM     65  H   UNL A   1      45.145  26.285  32.899  1.00  0.00     0.167 HD
ATOM     66  C   UNL A   1      42.851  28.839  34.041  1.00  0.00     0.074 A 
ATOM     67  C   UNL A   1      41.587  29.149  34.710  1.00  0.00     0.031 C 
ATOM     68  C   UNL A   1      44.075  28.353  34.457  1.00  0.00     0.031 A 
BRANCH  55  69
ATOM     69  C   UNL A   1      49.088  25.929  31.469  1.00  0.00    -0.014 A 
ATOM     70  C   UNL A   1      49.654  24.844  32.161  1.00  0.00     0.009 A 
ATOM     71  C   UNL A   1      50.013  26.745  30.786  1.00  0.00     0.009 A 
ATOM     72  C   UNL A   1      51.044  24.661  32.272  1.00  0.00     0.001 A 
ATOM     73  C   UNL A   1      51.402  26.597  30.921  1.00  0.00     0.001 A 
ATOM     74  C   UNL A   1      51.920  25.558  31.678  1.00  0.00     0.000 A 
ENDBRANCH  55  69
BRANCH  56  75
ATOM     75  C   UNL A   1      39.497  29.662  30.517  1.00  0.00    -0.014 A 
ATOM     76  C   UNL A   1      38.774  30.701  29.888  1.00  0.00     0.009 A 
ATOM     77  C   UNL A   1      39.181  28.343  30.168  1.00  0.00     0.009 A 
ATOM     78  C   UNL A   1      37.946  30.452  28.793  1.00  0.00     0.001 A 
ATOM     79  C   UNL A   1      38.359  28.096  29.053  1.00  0.00     0.001 A 
ATOM     80  C   UNL A   1      37.779  29.149  28.344  1.00  0.00     0.000 A 
ENDBRANCH  56  75
BRANCH  68  81
ATOM     81  C   UNL A   1      44.391  27.905  35.873  1.00  0.00    -0.014 A 
ATOM     82  C   UNL A   1      43.684  26.938  36.590  1.00  0.00     0.009 A 
ATOM     83  C   UNL A   1      45.432  28.561  36.577  1.00  0.00     0.009 A 
ATOM     84  C   UNL A   1      44.084  26.553  37.879  1.00  0.00     0.001 A 
ATOM     85  C   UNL A   1      45.812  28.212  37.871  1.00  0.00     0.001 A 
ATOM     86  C   UNL A   1      45.155  27.178  38.512  1.00  0.00     0.000 A 
ENDBRANCH  68  81
ENDBRANCH  42  43
ENDBRANCH  35  37
ENDBRANCH  34  35
ENDBRANCH  33  34
ENDBRANCH  32  33
ENDBRANCH  31  32
ENDBRANCH  30  31
ENDBRANCH  29  30
ENDBRANCH  28  29
ENDBRANCH   1  28
TORSDOF 24
ENDMDL
