MODEL 1
REMARK VINA RESULT:      -7.6      0.000      0.000
REMARK SMILES CCCCCCCCNC(=O)Oc1cccc(-c2ccc([C@@H](C)C(=O)OCCOCCOCCOCCOC(=O)c3ccc(-c4c5nc(c(-c6ccccc6)c6ccc([nH]6)c(-c6ccccc6)c6nc(c(-c7ccccc7)c7ccc4[nH]7)C=C6)C=C5)cc3)cc2F)c1
REMARK SMILES IDX 27 1 26 2 24 3 25 4 22 5 23 6 21 7 18 8 19 9 90 10 20 11
REMARK SMILES IDX 89 12 91 13 17 14 13 15 14 16 92 17 15 18 16 19 12 20 10 21
REMARK SMILES IDX 9 22 11 24 8 25 7 26 6 27 5 28 4 29 3 30 2 31 1 32 28 33
REMARK SMILES IDX 29 34 30 35 31 36 32 37 33 38 34 39 35 40 36 41 37 42 38 43
REMARK SMILES IDX 39 44 40 45 41 46 42 47 88 48 43 49 87 50 44 51 45 52 46 53
REMARK SMILES IDX 81 54 47 55 86 56 80 57 82 58 48 59 85 60 79 61 78 62 49 64
REMARK SMILES IDX 71 65 56 66 70 67 57 68 60 69 69 70 83 71 58 72 59 73 68 75
REMARK SMILES IDX 84 76 61 77 50 78 51 79 55 80 52 81 54 82 53 83 72 84 73 85
REMARK SMILES IDX 77 86 74 87 76 88 75 89 62 90 63 91 67 92 64 93 66 94 65 95
REMARK H PARENT 9 23 82 63 60 74
REMARK Flexibility Score: inf
ROOT
ATOM      1  C   UNL A   1      45.714  23.983  27.494  1.00  0.00     0.261 C 
ENDROOT
BRANCH   1   2
ATOM      2  O   UNL A   1      44.697  24.854  28.036  1.00  0.00    -0.463 OA
BRANCH   2   3
ATOM      3  C   UNL A   1      44.143  25.736  27.173  1.00  0.00     0.313 C 
ATOM      4  O   UNL A   1      44.733  26.730  26.750  1.00  0.00    -0.252 OA
BRANCH   3   5
ATOM      5  C   UNL A   1      42.698  25.455  26.758  1.00  0.00     0.126 C 
ATOM      6  C   UNL A   1      42.633  25.418  25.236  1.00  0.00     0.025 C 
BRANCH   5   7
ATOM      7  C   UNL A   1      41.531  26.253  27.339  1.00  0.00    -0.031 A 
ATOM      8  C   UNL A   1      39.334  27.833  28.312  1.00  0.00     0.018 A 
ATOM      9  C   UNL A   1      39.677  26.600  28.898  1.00  0.00     0.012 A 
ATOM     10  C   UNL A   1      40.116  28.254  27.232  1.00  0.00     0.131 A 
ATOM     11  C   UNL A   1      40.756  25.823  28.424  1.00  0.00     0.005 A 
ATOM     12  C   UNL A   1      41.197  27.496  26.762  1.00  0.00     0.044 A 
ATOM     13  F   UNL A   1      39.850  29.417  26.616  1.00  0.00    -0.206 F 
BRANCH   8  14
ATOM     14  C   UNL A   1      38.226  28.656  28.838  1.00  0.00    -0.012 A 
ATOM     15  C   UNL A   1      36.486  30.340  28.564  1.00  0.00     0.133 A 
ATOM     16  C   UNL A   1      36.142  30.251  29.909  1.00  0.00     0.047 A 
ATOM     17  C   UNL A   1      37.525  29.568  28.028  1.00  0.00     0.056 A 
ATOM     18  C   UNL A   1      36.829  29.358  30.726  1.00  0.00     0.004 A 
ATOM     19  C   UNL A   1      37.857  28.569  30.194  1.00  0.00     0.009 A 
BRANCH  15  20
ATOM     20  O   UNL A   1      35.835  31.320  27.799  1.00  0.00    -0.410 OA
BRANCH  20  21
ATOM     21  C   UNL A   1      34.623  31.778  28.289  1.00  0.00     0.412 C 
ATOM     22  N   UNL A   1      33.539  31.131  27.765  1.00  0.00    -0.321 N 
ATOM     23  H   UNL A   1      32.661  31.376  28.136  1.00  0.00     0.167 HD
ATOM     24  O   UNL A   1      34.472  32.679  29.106  1.00  0.00    -0.224 OA
BRANCH  22  25
ATOM     25  C   UNL A   1      33.540  30.125  26.722  1.00  0.00     0.119 C 
BRANCH  25  26
ATOM     26  C   UNL A   1      33.033  28.772  27.223  1.00  0.00     0.021 C 
BRANCH  26  27
ATOM     27  C   UNL A   1      31.720  28.296  26.588  1.00  0.00     0.002 C 
BRANCH  27  28
ATOM     28  C   UNL A   1      31.594  28.537  25.079  1.00  0.00     0.000 C 
BRANCH  28  29
ATOM     29  C   UNL A   1      30.906  27.411  24.300  1.00  0.00    -0.000 C 
BRANCH  29  30
ATOM     30  C   UNL A   1      29.567  27.789  23.657  1.00  0.00    -0.000 C 
BRANCH  30  31
ATOM     31  C   UNL A   1      29.456  29.241  23.183  1.00  0.00    -0.003 C 
ATOM     32  C   UNL A   1      28.353  29.459  22.159  1.00  0.00     0.004 C 
ENDBRANCH  30  31
ENDBRANCH  29  30
ENDBRANCH  28  29
ENDBRANCH  27  28
ENDBRANCH  26  27
ENDBRANCH  25  26
ENDBRANCH  22  25
ENDBRANCH  20  21
ENDBRANCH  15  20
ENDBRANCH   8  14
ENDBRANCH   5   7
ENDBRANCH   3   5
ENDBRANCH   2   3
ENDBRANCH   1   2
BRANCH   1  33
ATOM     33  C   UNL A   1      47.169  24.488  27.542  1.00  0.00     0.202 C 
BRANCH  33  34
ATOM     34  O   UNL A   1      47.942  24.595  26.358  1.00  0.00    -0.376 OA
BRANCH  34  35
ATOM     35  C   UNL A   1      47.403  25.204  25.191  1.00  0.00     0.188 C 
BRANCH  35  36
ATOM     36  C   UNL A   1      48.300  25.571  23.999  1.00  0.00     0.188 C 
BRANCH  36  37
ATOM     37  O   UNL A   1      47.919  26.730  23.289  1.00  0.00    -0.377 OA
BRANCH  37  38
ATOM     38  C   UNL A   1      48.766  27.123  22.222  1.00  0.00     0.188 C 
BRANCH  38  39
ATOM     39  C   UNL A   1      50.092  27.812  22.598  1.00  0.00     0.188 C 
BRANCH  39  40
ATOM     40  O   UNL A   1      51.233  26.961  22.542  1.00  0.00    -0.376 OA
BRANCH  40  41
ATOM     41  C   UNL A   1      52.266  27.144  23.501  1.00  0.00     0.202 C 
BRANCH  41  42
ATOM     42  C   UNL A   1      52.193  26.326  24.802  1.00  0.00     0.261 C 
BRANCH  42  43
ATOM     43  O   UNL A   1      51.187  26.732  25.737  1.00  0.00    -0.460 OA
BRANCH  43  44
ATOM     44  C   UNL A   1      51.516  27.692  26.626  1.00  0.00     0.338 C 
ATOM     45  O   UNL A   1      52.630  28.021  26.972  1.00  0.00    -0.246 OA
BRANCH  44  46
ATOM     46  C   UNL A   1      50.288  28.457  26.949  1.00  0.00     0.060 A 
ATOM     47  C   UNL A   1      50.310  29.302  28.065  1.00  0.00     0.016 A 
ATOM     48  C   UNL A   1      49.120  28.314  26.195  1.00  0.00     0.016 A 
ATOM     49  C   UNL A   1      49.143  29.936  28.484  1.00  0.00     0.010 A 
ATOM     50  C   UNL A   1      47.943  28.934  26.628  1.00  0.00     0.010 A 
ATOM     51  C   UNL A   1      47.939  29.693  27.811  1.00  0.00    -0.014 A 
BRANCH  51  52
ATOM     52  C   UNL A   1      46.669  30.002  28.514  1.00  0.00     0.031 A 
ATOM     53  C   UNL A   1      46.109  28.964  29.452  1.00  0.00     0.074 A 
ATOM     54  C   UNL A   1      46.073  31.201  28.403  1.00  0.00     0.049 A 
ATOM     55  N   UNL A   1      45.058  29.023  30.231  1.00  0.00    -0.248 NA
ATOM     56  C   UNL A   1      46.838  27.686  29.524  1.00  0.00     0.031 C 
ATOM     57  C   UNL A   1      46.540  32.309  27.573  1.00  0.00     0.029 A 
ATOM     58  N   UNL A   1      44.941  31.687  29.012  1.00  0.00    -0.354 N 
ATOM     59  C   UNL A   1      44.997  27.793  30.874  1.00  0.00     0.074 A 
ATOM     60  C   UNL A   1      46.091  26.994  30.370  1.00  0.00     0.031 C 
ATOM     61  C   UNL A   1      45.702  33.350  27.727  1.00  0.00     0.029 A 
ATOM     62  C   UNL A   1      44.630  32.972  28.646  1.00  0.00     0.049 A 
ATOM     63  H   UNL A   1      44.407  31.163  29.652  1.00  0.00     0.167 HD
ATOM     64  C   UNL A   1      44.117  27.365  31.811  1.00  0.00     0.031 A 
ATOM     65  C   UNL A   1      43.590  33.750  29.005  1.00  0.00     0.031 A 
ATOM     66  C   UNL A   1      43.018  28.150  32.303  1.00  0.00     0.049 A 
ATOM     67  C   UNL A   1      42.582  33.228  29.996  1.00  0.00     0.074 A 
ATOM     68  C   UNL A   1      42.077  27.812  33.258  1.00  0.00     0.029 A 
ATOM     69  N   UNL A   1      42.707  29.428  31.867  1.00  0.00    -0.354 N 
ATOM     70  N   UNL A   1      42.551  32.074  30.619  1.00  0.00    -0.248 NA
ATOM     71  C   UNL A   1      41.476  34.130  30.349  1.00  0.00     0.031 C 
ATOM     72  C   UNL A   1      41.155  28.861  33.351  1.00  0.00     0.029 A 
ATOM     73  C   UNL A   1      41.570  29.883  32.513  1.00  0.00     0.049 A 
ATOM     74  H   UNL A   1      43.218  29.938  31.197  1.00  0.00     0.167 HD
ATOM     75  C   UNL A   1      41.447  32.126  31.463  1.00  0.00     0.074 A 
ATOM     76  C   UNL A   1      40.846  33.432  31.282  1.00  0.00     0.031 C 
ATOM     77  C   UNL A   1      40.977  31.182  32.318  1.00  0.00     0.031 A 
BRANCH  64  78
ATOM     78  C   UNL A   1      44.288  25.958  32.320  1.00  0.00    -0.014 A 
ATOM     79  C   UNL A   1      44.667  25.694  33.646  1.00  0.00     0.009 A 
ATOM     80  C   UNL A   1      44.061  24.877  31.454  1.00  0.00     0.009 A 
ATOM     81  C   UNL A   1      44.859  24.380  34.080  1.00  0.00     0.001 A 
ATOM     82  C   UNL A   1      44.220  23.564  31.899  1.00  0.00     0.001 A 
ATOM     83  C   UNL A   1      44.631  23.316  33.208  1.00  0.00     0.000 A 
ENDBRANCH  64  78
BRANCH  65  84
ATOM     84  C   UNL A   1      43.441  35.109  28.418  1.00  0.00    -0.014 A 
ATOM     85  C   UNL A   1      42.748  35.304  27.214  1.00  0.00     0.009 A 
ATOM     86  C   UNL A   1      44.015  36.221  29.055  1.00  0.00     0.009 A 
ATOM     87  C   UNL A   1      42.654  36.579  26.648  1.00  0.00     0.001 A 
ATOM     88  C   UNL A   1      43.893  37.498  28.505  1.00  0.00     0.001 A 
ATOM     89  C   UNL A   1      43.222  37.674  27.296  1.00  0.00     0.000 A 
ENDBRANCH  65  84
BRANCH  77  90
ATOM     90  C   UNL A   1      39.784  31.549  33.161  1.00  0.00    -0.014 A 
ATOM     91  C   UNL A   1      38.483  31.571  32.634  1.00  0.00     0.009 A 
ATOM     92  C   UNL A   1      39.968  31.858  34.519  1.00  0.00     0.009 A 
ATOM     93  C   UNL A   1      37.402  31.948  33.434  1.00  0.00     0.001 A 
ATOM     94  C   UNL A   1      38.882  32.197  35.326  1.00  0.00     0.001 A 
ATOM     95  C   UNL A   1      37.602  32.257  34.780  1.00  0.00     0.000 A 
ENDBRANCH  77  90
ENDBRANCH  51  52
ENDBRANCH  44  46
ENDBRANCH  43  44
ENDBRANCH  42  43
ENDBRANCH  41  42
ENDBRANCH  40  41
ENDBRANCH  39  40
ENDBRANCH  38  39
ENDBRANCH  37  38
ENDBRANCH  36  37
ENDBRANCH  35  36
ENDBRANCH  34  35
ENDBRANCH  33  34
ENDBRANCH   1  33
TORSDOF 31
ENDMDL
MODEL 2
REMARK VINA RESULT:      -7.4      3.698      7.325
REMARK SMILES CCCCCCCCNC(=O)Oc1cccc(-c2ccc([C@@H](C)C(=O)OCCOCCOCCOCCOC(=O)c3ccc(-c4c5nc(c(-c6ccccc6)c6ccc([nH]6)c(-c6ccccc6)c6nc(c(-c7ccccc7)c7ccc4[nH]7)C=C6)C=C5)cc3)cc2F)c1
REMARK SMILES IDX 27 1 26 2 24 3 25 4 22 5 23 6 21 7 18 8 19 9 90 10 20 11
REMARK SMILES IDX 89 12 91 13 17 14 13 15 14 16 92 17 15 18 16 19 12 20 10 21
REMARK SMILES IDX 9 22 11 24 8 25 7 26 6 27 5 28 4 29 3 30 2 31 1 32 28 33
REMARK SMILES IDX 29 34 30 35 31 36 32 37 33 38 34 39 35 40 36 41 37 42 38 43
REMARK SMILES IDX 39 44 40 45 41 46 42 47 88 48 43 49 87 50 44 51 45 52 46 53
REMARK SMILES IDX 81 54 47 55 86 56 80 57 82 58 48 59 85 60 79 61 78 62 49 64
REMARK SMILES IDX 71 65 56 66 70 67 57 68 60 69 69 70 83 71 58 72 59 73 68 75
REMARK SMILES IDX 84 76 61 77 50 78 51 79 55 80 52 81 54 82 53 83 72 84 73 85
REMARK SMILES IDX 77 86 74 87 76 88 75 89 62 90 63 91 67 92 64 93 66 94 65 95
REMARK H PARENT 9 23 82 63 60 74
REMARK Flexibility Score: inf
ROOT
ATOM      1  C   UNL A   1      33.824  21.320  25.672  1.00  0.00     0.261 C 
ENDROOT
BRANCH   1   2
ATOM      2  O   UNL A   1      33.285  22.649  25.503  1.00  0.00    -0.463 OA
BRANCH   2   3
ATOM      3  C   UNL A   1      32.525  22.851  24.402  1.00  0.00     0.313 C 
ATOM      4  O   UNL A   1      32.604  22.155  23.391  1.00  0.00    -0.252 OA
BRANCH   3   5
ATOM      5  C   UNL A   1      31.562  24.037  24.457  1.00  0.00     0.126 C 
ATOM      6  C   UNL A   1      30.974  24.244  23.065  1.00  0.00     0.025 C 
BRANCH   5   7
ATOM      7  C   UNL A   1      31.970  25.370  25.084  1.00  0.00    -0.031 A 
ATOM      8  C   UNL A   1      32.807  27.909  26.144  1.00  0.00     0.018 A 
ATOM      9  C   UNL A   1      31.784  27.155  26.749  1.00  0.00     0.012 A 
ATOM     10  C   UNL A   1      33.399  27.363  25.001  1.00  0.00     0.131 A 
ATOM     11  C   UNL A   1      31.373  25.907  26.232  1.00  0.00     0.005 A 
ATOM     12  C   UNL A   1      33.006  26.119  24.489  1.00  0.00     0.044 A 
ATOM     13  F   UNL A   1      34.379  28.024  24.365  1.00  0.00    -0.206 F 
BRANCH   8  14
ATOM     14  C   UNL A   1      33.255  29.197  26.713  1.00  0.00    -0.012 A 
ATOM     15  C   UNL A   1      34.878  30.568  27.905  1.00  0.00     0.133 A 
ATOM     16  C   UNL A   1      34.043  31.678  27.833  1.00  0.00     0.047 A 
ATOM     17  C   UNL A   1      34.492  29.333  27.369  1.00  0.00     0.056 A 
ATOM     18  C   UNL A   1      32.814  31.560  27.193  1.00  0.00     0.004 A 
ATOM     19  C   UNL A   1      32.427  30.334  26.637  1.00  0.00     0.009 A 
BRANCH  15  20
ATOM     20  O   UNL A   1      36.065  30.704  28.642  1.00  0.00    -0.410 OA
BRANCH  20  21
ATOM     21  C   UNL A   1      35.944  31.261  29.905  1.00  0.00     0.412 C 
ATOM     22  N   UNL A   1      36.977  30.947  30.744  1.00  0.00    -0.321 N 
ATOM     23  H   UNL A   1      36.969  31.379  31.629  1.00  0.00     0.167 HD
ATOM     24  O   UNL A   1      35.021  31.967  30.295  1.00  0.00    -0.224 OA
BRANCH  22  25
ATOM     25  C   UNL A   1      38.083  30.050  30.475  1.00  0.00     0.119 C 
BRANCH  25  26
ATOM     26  C   UNL A   1      38.383  29.131  31.660  1.00  0.00     0.021 C 
BRANCH  26  27
ATOM     27  C   UNL A   1      39.247  27.907  31.327  1.00  0.00     0.002 C 
BRANCH  27  28
ATOM     28  C   UNL A   1      39.218  27.460  29.861  1.00  0.00     0.000 C 
BRANCH  28  29
ATOM     29  C   UNL A   1      40.590  27.156  29.250  1.00  0.00    -0.000 C 
BRANCH  29  30
ATOM     30  C   UNL A   1      41.248  28.328  28.513  1.00  0.00    -0.000 C 
BRANCH  30  31
ATOM     31  C   UNL A   1      40.457  28.877  27.322  1.00  0.00    -0.003 C 
ATOM     32  C   UNL A   1      41.120  28.604  25.980  1.00  0.00     0.004 C 
ENDBRANCH  30  31
ENDBRANCH  29  30
ENDBRANCH  28  29
ENDBRANCH  27  28
ENDBRANCH  26  27
ENDBRANCH  25  26
ENDBRANCH  22  25
ENDBRANCH  20  21
ENDBRANCH  15  20
ENDBRANCH   8  14
ENDBRANCH   5   7
ENDBRANCH   3   5
ENDBRANCH   2   3
ENDBRANCH   1   2
BRANCH   1  33
ATOM     33  C   UNL A   1      35.326  21.130  25.382  1.00  0.00     0.202 C 
BRANCH  33  34
ATOM     34  O   UNL A   1      36.298  21.941  26.022  1.00  0.00    -0.376 OA
BRANCH  34  35
ATOM     35  C   UNL A   1      37.535  22.234  25.385  1.00  0.00     0.188 C 
BRANCH  35  36
ATOM     36  C   UNL A   1      38.821  21.485  25.764  1.00  0.00     0.188 C 
BRANCH  36  37
ATOM     37  O   UNL A   1      39.640  22.131  26.714  1.00  0.00    -0.377 OA
BRANCH  37  38
ATOM     38  C   UNL A   1      40.766  21.403  27.176  1.00  0.00     0.188 C 
BRANCH  38  39
ATOM     39  C   UNL A   1      41.265  20.246  26.289  1.00  0.00     0.188 C 
BRANCH  39  40
ATOM     40  O   UNL A   1      42.464  19.629  26.748  1.00  0.00    -0.376 OA
BRANCH  40  41
ATOM     41  C   UNL A   1      43.379  19.121  25.786  1.00  0.00     0.202 C 
BRANCH  41  42
ATOM     42  C   UNL A   1      44.267  20.129  25.035  1.00  0.00     0.261 C 
BRANCH  42  43
ATOM     43  O   UNL A   1      44.219  21.478  25.514  1.00  0.00    -0.460 OA
BRANCH  43  44
ATOM     44  C   UNL A   1      44.319  22.466  24.600  1.00  0.00     0.338 C 
ATOM     45  O   UNL A   1      44.230  22.363  23.395  1.00  0.00    -0.246 OA
BRANCH  44  46
ATOM     46  C   UNL A   1      44.324  23.759  25.323  1.00  0.00     0.060 A 
ATOM     47  C   UNL A   1      45.560  24.348  25.615  1.00  0.00     0.016 A 
ATOM     48  C   UNL A   1      43.137  24.362  25.748  1.00  0.00     0.016 A 
ATOM     49  C   UNL A   1      45.619  25.491  26.408  1.00  0.00     0.010 A 
ATOM     50  C   UNL A   1      43.197  25.498  26.562  1.00  0.00     0.010 A 
ATOM     51  C   UNL A   1      44.442  26.026  26.947  1.00  0.00    -0.014 A 
BRANCH  51  52
ATOM     52  C   UNL A   1      44.556  26.937  28.113  1.00  0.00     0.031 A 
ATOM     53  C   UNL A   1      44.626  26.322  29.487  1.00  0.00     0.074 A 
ATOM     54  C   UNL A   1      44.689  28.266  27.963  1.00  0.00     0.049 A 
ATOM     55  N   UNL A   1      44.797  26.896  30.651  1.00  0.00    -0.248 NA
ATOM     56  C   UNL A   1      44.491  24.857  29.555  1.00  0.00     0.031 C 
ATOM     57  C   UNL A   1      44.690  28.981  26.689  1.00  0.00     0.029 A 
ATOM     58  N   UNL A   1      44.862  29.250  28.905  1.00  0.00    -0.354 N 
ATOM     59  C   UNL A   1      44.780  25.867  31.585  1.00  0.00     0.074 A 
ATOM     60  C   UNL A   1      44.546  24.638  30.860  1.00  0.00     0.031 C 
ATOM     61  C   UNL A   1      44.860  30.293  26.928  1.00  0.00     0.029 A 
ATOM     62  C   UNL A   1      44.954  30.511  28.371  1.00  0.00     0.049 A 
ATOM     63  H   UNL A   1      44.917  29.068  29.871  1.00  0.00     0.167 HD
ATOM     64  C   UNL A   1      44.955  25.931  32.926  1.00  0.00     0.031 A 
ATOM     65  C   UNL A   1      45.090  31.705  28.980  1.00  0.00     0.031 A 
ATOM     66  C   UNL A   1      45.172  27.153  33.653  1.00  0.00     0.049 A 
ATOM     67  C   UNL A   1      45.212  31.761  30.481  1.00  0.00     0.074 A 
ATOM     68  C   UNL A   1      45.370  27.324  35.011  1.00  0.00     0.029 A 
ATOM     69  N   UNL A   1      45.207  28.414  33.079  1.00  0.00    -0.354 N 
ATOM     70  N   UNL A   1      45.223  30.779  31.350  1.00  0.00    -0.248 NA
ATOM     71  C   UNL A   1      45.363  33.095  31.081  1.00  0.00     0.031 C 
ATOM     72  C   UNL A   1      45.457  28.697  35.268  1.00  0.00     0.029 A 
ATOM     73  C   UNL A   1      45.395  29.373  34.060  1.00  0.00     0.049 A 
ATOM     74  H   UNL A   1      45.112  28.601  32.117  1.00  0.00     0.167 HD
ATOM     75  C   UNL A   1      45.419  31.372  32.593  1.00  0.00     0.074 A 
ATOM     76  C   UNL A   1      45.537  32.797  32.360  1.00  0.00     0.031 C 
ATOM     77  C   UNL A   1      45.502  30.790  33.816  1.00  0.00     0.031 A 
BRANCH  64  78
ATOM     78  C   UNL A   1      44.864  24.639  33.693  1.00  0.00    -0.014 A 
ATOM     79  C   UNL A   1      45.984  23.815  33.888  1.00  0.00     0.009 A 
ATOM     80  C   UNL A   1      43.631  24.242  34.233  1.00  0.00     0.009 A 
ATOM     81  C   UNL A   1      45.861  22.600  34.567  1.00  0.00     0.001 A 
ATOM     82  C   UNL A   1      43.517  23.045  34.941  1.00  0.00     0.001 A 
ATOM     83  C   UNL A   1      44.629  22.218  35.097  1.00  0.00     0.000 A 
ENDBRANCH  64  78
BRANCH  65  84
ATOM     84  C   UNL A   1      45.110  32.953  28.171  1.00  0.00    -0.014 A 
ATOM     85  C   UNL A   1      44.018  33.310  27.365  1.00  0.00     0.009 A 
ATOM     86  C   UNL A   1      46.239  33.788  28.187  1.00  0.00     0.009 A 
ATOM     87  C   UNL A   1      44.067  34.461  26.575  1.00  0.00     0.001 A 
ATOM     88  C   UNL A   1      46.273  34.955  27.421  1.00  0.00     0.001 A 
ATOM     89  C   UNL A   1      45.191  35.285  26.607  1.00  0.00     0.000 A 
ENDBRANCH  65  84
BRANCH  77  90
ATOM     90  C   UNL A   1      45.786  31.690  34.990  1.00  0.00    -0.014 A 
ATOM     91  C   UNL A   1      47.002  31.636  35.688  1.00  0.00     0.009 A 
ATOM     92  C   UNL A   1      44.818  32.626  35.390  1.00  0.00     0.009 A 
ATOM     93  C   UNL A   1      47.221  32.462  36.794  1.00  0.00     0.001 A 
ATOM     94  C   UNL A   1      45.053  33.476  36.471  1.00  0.00     0.001 A 
ATOM     95  C   UNL A   1      46.248  33.383  37.182  1.00  0.00     0.000 A 
ENDBRANCH  77  90
ENDBRANCH  51  52
ENDBRANCH  44  46
ENDBRANCH  43  44
ENDBRANCH  42  43
ENDBRANCH  41  42
ENDBRANCH  40  41
ENDBRANCH  39  40
ENDBRANCH  38  39
ENDBRANCH  37  38
ENDBRANCH  36  37
ENDBRANCH  35  36
ENDBRANCH  34  35
ENDBRANCH  33  34
ENDBRANCH   1  33
TORSDOF 31
ENDMDL
MODEL 3
REMARK VINA RESULT:      -6.9      3.861      9.112
REMARK SMILES CCCCCCCCNC(=O)Oc1cccc(-c2ccc([C@@H](C)C(=O)OCCOCCOCCOCCOC(=O)c3ccc(-c4c5nc(c(-c6ccccc6)c6ccc([nH]6)c(-c6ccccc6)c6nc(c(-c7ccccc7)c7ccc4[nH]7)C=C6)C=C5)cc3)cc2F)c1
REMARK SMILES IDX 27 1 26 2 24 3 25 4 22 5 23 6 21 7 18 8 19 9 90 10 20 11
REMARK SMILES IDX 89 12 91 13 17 14 13 15 14 16 92 17 15 18 16 19 12 20 10 21
REMARK SMILES IDX 9 22 11 24 8 25 7 26 6 27 5 28 4 29 3 30 2 31 1 32 28 33
REMARK SMILES IDX 29 34 30 35 31 36 32 37 33 38 34 39 35 40 36 41 37 42 38 43
REMARK SMILES IDX 39 44 40 45 41 46 42 47 88 48 43 49 87 50 44 51 45 52 46 53
REMARK SMILES IDX 81 54 47 55 86 56 80 57 82 58 48 59 85 60 79 61 78 62 49 64
REMARK SMILES IDX 71 65 56 66 70 67 57 68 60 69 69 70 83 71 58 72 59 73 68 75
REMARK SMILES IDX 84 76 61 77 50 78 51 79 55 80 52 81 54 82 53 83 72 84 73 85
REMARK SMILES IDX 77 86 74 87 76 88 75 89 62 90 63 91 67 92 64 93 66 94 65 95
REMARK H PARENT 9 23 82 63 60 74
REMARK Flexibility Score: inf
ROOT
ATOM      1  C   UNL A   1      33.440  20.177  25.545  1.00  0.00     0.261 C 
ENDROOT
BRANCH   1   2
ATOM      2  O   UNL A   1      32.677  21.296  25.041  1.00  0.00    -0.463 OA
BRANCH   2   3
ATOM      3  C   UNL A   1      32.244  21.197  23.763  1.00  0.00     0.313 C 
ATOM      4  O   UNL A   1      32.161  20.129  23.159  1.00  0.00    -0.252 OA
BRANCH   3   5
ATOM      5  C   UNL A   1      31.884  22.513  23.071  1.00  0.00     0.126 C 
ATOM      6  C   UNL A   1      32.578  22.547  21.714  1.00  0.00     0.025 C 
BRANCH   5   7
ATOM      7  C   UNL A   1      32.016  23.856  23.790  1.00  0.00    -0.031 A 
ATOM      8  C   UNL A   1      32.351  26.425  25.037  1.00  0.00     0.018 A 
ATOM      9  C   UNL A   1      31.314  25.549  25.410  1.00  0.00     0.012 A 
ATOM     10  C   UNL A   1      33.214  25.983  24.029  1.00  0.00     0.131 A 
ATOM     11  C   UNL A   1      31.149  24.287  24.802  1.00  0.00     0.005 A 
ATOM     12  C   UNL A   1      33.065  24.726  23.427  1.00  0.00     0.044 A 
ATOM     13  F   UNL A   1      34.225  26.762  23.614  1.00  0.00    -0.206 F 
BRANCH   8  14
ATOM     14  C   UNL A   1      32.538  27.730  25.705  1.00  0.00    -0.012 A 
ATOM     15  C   UNL A   1      33.746  29.215  27.211  1.00  0.00     0.133 A 
ATOM     16  C   UNL A   1      32.821  30.234  27.002  1.00  0.00     0.047 A 
ATOM     17  C   UNL A   1      33.607  27.969  26.588  1.00  0.00     0.056 A 
ATOM     18  C   UNL A   1      31.755  30.012  26.136  1.00  0.00     0.004 A 
ATOM     19  C   UNL A   1      31.618  28.774  25.494  1.00  0.00     0.009 A 
BRANCH  15  20
ATOM     20  O   UNL A   1      34.751  29.447  28.164  1.00  0.00    -0.410 OA
BRANCH  20  21
ATOM     21  C   UNL A   1      35.592  30.520  27.922  1.00  0.00     0.412 C 
ATOM     22  N   UNL A   1      36.919  30.218  28.056  1.00  0.00    -0.321 N 
ATOM     23  H   UNL A   1      37.557  30.932  27.825  1.00  0.00     0.167 HD
ATOM     24  O   UNL A   1      35.243  31.656  27.622  1.00  0.00    -0.224 OA
BRANCH  22  25
ATOM     25  C   UNL A   1      37.490  28.963  28.502  1.00  0.00     0.119 C 
BRANCH  25  26
ATOM     26  C   UNL A   1      39.009  29.044  28.663  1.00  0.00     0.021 C 
BRANCH  26  27
ATOM     27  C   UNL A   1      39.600  28.097  29.716  1.00  0.00     0.002 C 
BRANCH  27  28
ATOM     28  C   UNL A   1      38.835  28.028  31.042  1.00  0.00     0.000 C 
BRANCH  28  29
ATOM     29  C   UNL A   1      39.679  28.302  32.292  1.00  0.00    -0.000 C 
BRANCH  29  30
ATOM     30  C   UNL A   1      39.744  29.771  32.723  1.00  0.00    -0.000 C 
BRANCH  30  31
ATOM     31  C   UNL A   1      38.797  30.161  33.862  1.00  0.00    -0.003 C 
ATOM     32  C   UNL A   1      39.369  31.226  34.785  1.00  0.00     0.004 C 
ENDBRANCH  30  31
ENDBRANCH  29  30
ENDBRANCH  28  29
ENDBRANCH  27  28
ENDBRANCH  26  27
ENDBRANCH  25  26
ENDBRANCH  22  25
ENDBRANCH  20  21
ENDBRANCH  15  20
ENDBRANCH   8  14
ENDBRANCH   5   7
ENDBRANCH   3   5
ENDBRANCH   2   3
ENDBRANCH   1   2
BRANCH   1  33
ATOM     33  C   UNL A   1      34.968  20.232  25.362  1.00  0.00     0.202 C 
BRANCH  33  34
ATOM     34  O   UNL A   1      35.640  21.473  25.221  1.00  0.00    -0.376 OA
BRANCH  34  35
ATOM     35  C   UNL A   1      36.956  21.531  24.685  1.00  0.00     0.188 C 
BRANCH  35  36
ATOM     36  C   UNL A   1      38.187  21.558  25.603  1.00  0.00     0.188 C 
BRANCH  36  37
ATOM     37  O   UNL A   1      38.527  22.826  26.123  1.00  0.00    -0.377 OA
BRANCH  37  38
ATOM     38  C   UNL A   1      39.698  22.887  26.920  1.00  0.00     0.188 C 
BRANCH  38  39
ATOM     39  C   UNL A   1      40.967  22.221  26.355  1.00  0.00     0.188 C 
BRANCH  39  40
ATOM     40  O   UNL A   1      41.971  21.950  27.329  1.00  0.00    -0.376 OA
BRANCH  40  41
ATOM     41  C   UNL A   1      43.305  21.734  26.888  1.00  0.00     0.202 C 
BRANCH  41  42
ATOM     42  C   UNL A   1      44.038  22.906  26.212  1.00  0.00     0.261 C 
BRANCH  42  43
ATOM     43  O   UNL A   1      43.826  24.195  26.799  1.00  0.00    -0.460 OA
BRANCH  43  44
ATOM     44  C   UNL A   1      43.500  25.209  25.971  1.00  0.00     0.338 C 
ATOM     45  O   UNL A   1      43.044  25.124  24.851  1.00  0.00    -0.246 OA
BRANCH  44  46
ATOM     46  C   UNL A   1      43.567  26.471  26.745  1.00  0.00     0.060 A 
ATOM     47  C   UNL A   1      44.754  26.766  27.426  1.00  0.00     0.016 A 
ATOM     48  C   UNL A   1      42.468  27.329  26.838  1.00  0.00     0.016 A 
ATOM     49  C   UNL A   1      44.817  27.870  28.273  1.00  0.00     0.010 A 
ATOM     50  C   UNL A   1      42.523  28.426  27.705  1.00  0.00     0.010 A 
ATOM     51  C   UNL A   1      43.678  28.659  28.473  1.00  0.00    -0.014 A 
BRANCH  51  52
ATOM     52  C   UNL A   1      43.629  29.526  29.677  1.00  0.00     0.031 A 
ATOM     53  C   UNL A   1      43.670  31.019  29.475  1.00  0.00     0.074 A 
ATOM     54  C   UNL A   1      43.457  29.018  30.909  1.00  0.00     0.049 A 
ATOM     55  N   UNL A   1      43.570  31.984  30.355  1.00  0.00    -0.248 NA
ATOM     56  C   UNL A   1      43.842  31.487  28.089  1.00  0.00     0.031 C 
ATOM     57  C   UNL A   1      43.348  27.599  31.235  1.00  0.00     0.029 A 
ATOM     58  N   UNL A   1      43.330  29.655  32.119  1.00  0.00    -0.354 N 
ATOM     59  C   UNL A   1      43.677  33.165  29.631  1.00  0.00     0.074 A 
ATOM     60  C   UNL A   1      43.885  32.800  28.248  1.00  0.00     0.031 C 
ATOM     61  C   UNL A   1      43.167  27.471  32.562  1.00  0.00     0.029 A 
ATOM     62  C   UNL A   1      43.172  28.796  33.178  1.00  0.00     0.049 A 
ATOM     63  H   UNL A   1      43.349  30.634  32.217  1.00  0.00     0.167 HD
ATOM     64  C   UNL A   1      43.597  34.444  30.072  1.00  0.00     0.031 A 
ATOM     65  C   UNL A   1      43.055  29.053  34.496  1.00  0.00     0.031 A 
ATOM     66  C   UNL A   1      43.406  34.811  31.448  1.00  0.00     0.049 A 
ATOM     67  C   UNL A   1      43.040  30.482  34.973  1.00  0.00     0.074 A 
ATOM     68  C   UNL A   1      43.303  36.076  31.996  1.00  0.00     0.029 A 
ATOM     69  N   UNL A   1      43.304  33.910  32.496  1.00  0.00    -0.354 N 
ATOM     70  N   UNL A   1      43.112  31.591  34.276  1.00  0.00    -0.248 NA
ATOM     71  C   UNL A   1      42.904  30.691  36.422  1.00  0.00     0.031 C 
ATOM     72  C   UNL A   1      43.205  35.942  33.386  1.00  0.00     0.029 A 
ATOM     73  C   UNL A   1      43.166  34.592  33.693  1.00  0.00     0.049 A 
ATOM     74  H   UNL A   1      43.325  32.930  32.404  1.00  0.00     0.167 HD
ATOM     75  C   UNL A   1      42.993  32.627  35.196  1.00  0.00     0.074 A 
ATOM     76  C   UNL A   1      42.828  32.012  36.498  1.00  0.00     0.031 C 
ATOM     77  C   UNL A   1      43.010  33.968  34.983  1.00  0.00     0.031 A 
BRANCH  64  78
ATOM     78  C   UNL A   1      43.771  35.534  29.049  1.00  0.00    -0.014 A 
ATOM     79  C   UNL A   1      45.038  35.896  28.563  1.00  0.00     0.009 A 
ATOM     80  C   UNL A   1      42.642  36.210  28.560  1.00  0.00     0.009 A 
ATOM     81  C   UNL A   1      45.174  36.941  27.645  1.00  0.00     0.001 A 
ATOM     82  C   UNL A   1      42.776  37.230  27.618  1.00  0.00     0.001 A 
ATOM     83  C   UNL A   1      44.043  37.604  27.170  1.00  0.00     0.000 A 
ENDBRANCH  64  78
BRANCH  65  84
ATOM     84  C   UNL A   1      42.950  27.929  35.464  1.00  0.00    -0.014 A 
ATOM     85  C   UNL A   1      44.061  27.518  36.218  1.00  0.00     0.009 A 
ATOM     86  C   UNL A   1      41.734  27.245  35.625  1.00  0.00     0.009 A 
ATOM     87  C   UNL A   1      43.961  26.432  37.092  1.00  0.00     0.001 A 
ATOM     88  C   UNL A   1      41.629  26.180  36.521  1.00  0.00     0.001 A 
ATOM     89  C   UNL A   1      42.746  25.768  37.246  1.00  0.00     0.000 A 
ENDBRANCH  65  84
BRANCH  77  90
ATOM     90  C   UNL A   1      42.792  34.858  36.178  1.00  0.00    -0.014 A 
ATOM     91  C   UNL A   1      43.832  35.173  37.067  1.00  0.00     0.009 A 
ATOM     92  C   UNL A   1      41.521  35.410  36.404  1.00  0.00     0.009 A 
ATOM     93  C   UNL A   1      43.589  35.975  38.185  1.00  0.00     0.001 A 
ATOM     94  C   UNL A   1      41.289  36.241  37.500  1.00  0.00     0.001 A 
ATOM     95  C   UNL A   1      42.319  36.511  38.398  1.00  0.00     0.000 A 
ENDBRANCH  77  90
ENDBRANCH  51  52
ENDBRANCH  44  46
ENDBRANCH  43  44
ENDBRANCH  42  43
ENDBRANCH  41  42
ENDBRANCH  40  41
ENDBRANCH  39  40
ENDBRANCH  38  39
ENDBRANCH  37  38
ENDBRANCH  36  37
ENDBRANCH  35  36
ENDBRANCH  34  35
ENDBRANCH  33  34
ENDBRANCH   1  33
TORSDOF 31
ENDMDL
