MODEL 1
REMARK VINA RESULT:      -9.6      0.000      0.000
REMARK SMILES C[C@@](COc1ccccc1)(NC(=O)CN1CSCC1=O)C(=O)OCCOCCOCCOCCOC(=O)c1ccc(-c2c3nc(c(-c4ccccc4)c4ccc([nH]4)c(-c4ccccc4)c4nc(c(-c5ccccc5)c5ccc2[nH]5)C=C4)C=C3)cc1
REMARK SMILES IDX 28 1 27 2 26 3 25 4 24 5 23 6 21 7 22 8 2 9 1 10 3 11 4 12
REMARK SMILES IDX 5 13 6 14 10 15 7 16 9 17 8 18 11 19 12 20 13 22 14 23 15 24
REMARK SMILES IDX 16 25 19 26 17 27 18 28 20 29 29 30 30 31 31 32 32 33 33 34
REMARK SMILES IDX 34 35 35 36 36 37 37 38 38 39 39 40 85 41 40 42 84 43 41 44
REMARK SMILES IDX 42 45 43 46 78 47 44 48 83 49 77 50 79 51 45 52 82 53 76 54
REMARK SMILES IDX 75 55 46 57 68 58 53 59 67 60 54 61 57 62 66 63 80 64 55 65
REMARK SMILES IDX 56 66 65 68 81 69 58 70 47 71 48 72 52 73 49 74 51 75 50 76
REMARK SMILES IDX 69 77 70 78 74 79 71 80 73 81 72 82 59 83 60 84 64 85 61 86
REMARK SMILES IDX 63 87 62 88
REMARK H PARENT 11 21 79 56 57 67
REMARK Flexibility Score: inf
ROOT
ATOM      1  C   UNL A   1      40.862  21.734  27.409  1.00  0.00     0.188 C 
ENDROOT
BRANCH   1   2
ATOM      2  C   UNL A   1      39.581  22.474  26.831  1.00  0.00     0.188 C 
BRANCH   2   3
ATOM      3  O   UNL A   1      38.624  21.993  25.864  1.00  0.00    -0.376 OA
BRANCH   3   4
ATOM      4  C   UNL A   1      37.456  22.635  25.283  1.00  0.00     0.202 C 
BRANCH   4   5
ATOM      5  C   UNL A   1      36.239  23.400  25.897  1.00  0.00     0.261 C 
BRANCH   5   6
ATOM      6  O   UNL A   1      35.117  23.569  25.043  1.00  0.00    -0.461 OA
BRANCH   6   7
ATOM      7  C   UNL A   1      33.913  23.277  25.608  1.00  0.00     0.335 C 
ATOM      8  O   UNL A   1      33.413  23.895  26.535  1.00  0.00    -0.249 OA
BRANCH   7   9
ATOM      9  C   UNL A   1      33.174  22.403  24.612  1.00  0.00     0.169 C 
ATOM     10  C   UNL A   1      31.777  22.275  25.266  1.00  0.00     0.051 C 
BRANCH   9  11
ATOM     11  C   UNL A   1      33.746  20.941  24.606  1.00  0.00     0.269 C 
BRANCH  11  12
ATOM     12  O   UNL A   1      32.785  19.962  24.118  1.00  0.00    -0.491 OA
BRANCH  12  13
ATOM     13  C   UNL A   1      33.020  18.641  24.424  1.00  0.00     0.119 A 
ATOM     14  C   UNL A   1      32.628  18.019  25.610  1.00  0.00     0.046 A 
ATOM     15  C   UNL A   1      33.670  17.885  23.440  1.00  0.00     0.046 A 
ATOM     16  C   UNL A   1      32.799  16.635  25.766  1.00  0.00     0.004 A 
ATOM     17  C   UNL A   1      33.819  16.502  23.586  1.00  0.00     0.004 A 
ATOM     18  C   UNL A   1      33.372  15.874  24.745  1.00  0.00     0.000 A 
ENDBRANCH  12  13
ENDBRANCH  11  12
ENDBRANCH   9  11
BRANCH   9  19
ATOM     19  N   UNL A   1      33.295  23.026  23.186  1.00  0.00    -0.336 N 
ATOM     20  C   UNL A   1      32.808  23.955  22.285  1.00  0.00     0.240 C 
ATOM     21  H   UNL A   1      34.034  22.556  22.736  1.00  0.00     0.164 HD
ATOM     22  O   UNL A   1      33.418  23.845  21.198  1.00  0.00    -0.273 OA
BRANCH  20  23
ATOM     23  C   UNL A   1      31.701  25.231  22.413  1.00  0.00     0.220 C 
BRANCH  23  24
ATOM     24  N   UNL A   1      31.446  26.700  22.936  1.00  0.00    -0.323 N 
ATOM     25  C   UNL A   1      30.342  27.639  22.680  1.00  0.00     0.190 C 
ATOM     26  C   UNL A   1      32.265  27.151  23.982  1.00  0.00     0.233 C 
ATOM     27  S   UNL A   1      30.619  29.189  23.533  1.00  0.00    -0.130 SA
ATOM     28  C   UNL A   1      31.783  28.434  24.637  1.00  0.00     0.171 C 
ATOM     29  O   UNL A   1      33.239  26.533  24.400  1.00  0.00    -0.274 OA
ENDBRANCH  23  24
ENDBRANCH  20  23
ENDBRANCH   9  19
ENDBRANCH   7   9
ENDBRANCH   6   7
ENDBRANCH   5   6
ENDBRANCH   4   5
ENDBRANCH   3   4
ENDBRANCH   2   3
ENDBRANCH   1   2
BRANCH   1  30
ATOM     30  O   UNL A   1      40.764  20.364  27.051  1.00  0.00    -0.377 OA
BRANCH  30  31
ATOM     31  C   UNL A   1      41.555  19.683  26.078  1.00  0.00     0.188 C 
BRANCH  31  32
ATOM     32  C   UNL A   1      42.646  18.723  26.572  1.00  0.00     0.188 C 
BRANCH  32  33
ATOM     33  O   UNL A   1      43.347  18.051  25.538  1.00  0.00    -0.376 OA
BRANCH  33  34
ATOM     34  C   UNL A   1      44.653  18.558  25.269  1.00  0.00     0.202 C 
BRANCH  34  35
ATOM     35  C   UNL A   1      44.809  19.367  23.970  1.00  0.00     0.261 C 
BRANCH  35  36
ATOM     36  O   UNL A   1      44.438  20.761  24.110  1.00  0.00    -0.460 OA
BRANCH  36  37
ATOM     37  C   UNL A   1      45.293  21.518  24.854  1.00  0.00     0.338 C 
ATOM     38  O   UNL A   1      46.495  21.359  24.967  1.00  0.00    -0.246 OA
BRANCH  37  39
ATOM     39  C   UNL A   1      44.605  22.688  25.452  1.00  0.00     0.060 A 
ATOM     40  C   UNL A   1      44.283  23.767  24.614  1.00  0.00     0.016 A 
ATOM     41  C   UNL A   1      44.427  22.796  26.831  1.00  0.00     0.016 A 
ATOM     42  C   UNL A   1      43.859  24.983  25.160  1.00  0.00     0.010 A 
ATOM     43  C   UNL A   1      44.014  24.018  27.378  1.00  0.00     0.010 A 
ATOM     44  C   UNL A   1      43.783  25.132  26.550  1.00  0.00    -0.014 A 
BRANCH  44  45
ATOM     45  C   UNL A   1      43.717  26.489  27.153  1.00  0.00     0.031 A 
ATOM     46  C   UNL A   1      45.012  27.203  27.444  1.00  0.00     0.074 A 
ATOM     47  C   UNL A   1      42.548  27.085  27.452  1.00  0.00     0.049 A 
ATOM     48  N   UNL A   1      45.217  28.345  28.051  1.00  0.00    -0.248 NA
ATOM     49  C   UNL A   1      46.242  26.533  26.990  1.00  0.00     0.031 C 
ATOM     50  C   UNL A   1      41.221  26.542  27.177  1.00  0.00     0.029 A 
ATOM     51  N   UNL A   1      42.302  28.287  28.071  1.00  0.00    -0.354 N 
ATOM     52  C   UNL A   1      46.595  28.524  28.059  1.00  0.00     0.074 A 
ATOM     53  C   UNL A   1      47.178  27.368  27.416  1.00  0.00     0.031 C 
ATOM     54  C   UNL A   1      40.296  27.401  27.644  1.00  0.00     0.029 A 
ATOM     55  C   UNL A   1      40.967  28.535  28.277  1.00  0.00     0.049 A 
ATOM     56  H   UNL A   1      43.015  28.910  28.341  1.00  0.00     0.167 HD
ATOM     57  C   UNL A   1      47.317  29.555  28.558  1.00  0.00     0.031 A 
ATOM     58  C   UNL A   1      40.360  29.547  28.928  1.00  0.00     0.031 A 
ATOM     59  C   UNL A   1      46.754  30.700  29.219  1.00  0.00     0.049 A 
ATOM     60  C   UNL A   1      41.188  30.638  29.558  1.00  0.00     0.074 A 
ATOM     61  C   UNL A   1      47.407  31.795  29.755  1.00  0.00     0.029 A 
ATOM     62  N   UNL A   1      45.401  30.890  29.441  1.00  0.00    -0.354 N 
ATOM     63  N   UNL A   1      42.488  30.801  29.552  1.00  0.00    -0.248 NA
ATOM     64  C   UNL A   1      40.457  31.686  30.288  1.00  0.00     0.031 C 
ATOM     65  C   UNL A   1      46.450  32.629  30.344  1.00  0.00     0.029 A 
ATOM     66  C   UNL A   1      45.199  32.073  30.131  1.00  0.00     0.049 A 
ATOM     67  H   UNL A   1      44.688  30.276  29.151  1.00  0.00     0.167 HD
ATOM     68  C   UNL A   1      42.729  31.976  30.253  1.00  0.00     0.074 A 
ATOM     69  C   UNL A   1      41.441  32.493  30.663  1.00  0.00     0.031 C 
ATOM     70  C   UNL A   1      43.913  32.576  30.533  1.00  0.00     0.031 A 
BRANCH  57  71
ATOM     71  C   UNL A   1      48.811  29.463  28.440  1.00  0.00    -0.014 A 
ATOM     72  C   UNL A   1      49.576  28.783  29.402  1.00  0.00     0.009 A 
ATOM     73  C   UNL A   1      49.461  30.052  27.346  1.00  0.00     0.009 A 
ATOM     74  C   UNL A   1      50.966  28.725  29.285  1.00  0.00     0.001 A 
ATOM     75  C   UNL A   1      50.848  29.973  27.219  1.00  0.00     0.001 A 
ATOM     76  C   UNL A   1      51.600  29.318  28.194  1.00  0.00     0.000 A 
ENDBRANCH  57  71
BRANCH  58  77
ATOM     77  C   UNL A   1      38.880  29.570  29.056  1.00  0.00    -0.014 A 
ATOM     78  C   UNL A   1      38.078  30.035  28.004  1.00  0.00     0.009 A 
ATOM     79  C   UNL A   1      38.265  29.160  30.250  1.00  0.00     0.009 A 
ATOM     80  C   UNL A   1      36.690  30.109  28.152  1.00  0.00     0.001 A 
ATOM     81  C   UNL A   1      36.877  29.212  30.386  1.00  0.00     0.001 A 
ATOM     82  C   UNL A   1      36.091  29.694  29.340  1.00  0.00     0.000 A 
ENDBRANCH  58  77
BRANCH  70  83
ATOM     83  C   UNL A   1      43.871  33.872  31.291  1.00  0.00    -0.014 A 
ATOM     84  C   UNL A   1      43.896  33.895  32.693  1.00  0.00     0.009 A 
ATOM     85  C   UNL A   1      43.859  35.087  30.589  1.00  0.00     0.009 A 
ATOM     86  C   UNL A   1      43.882  35.112  33.378  1.00  0.00     0.001 A 
ATOM     87  C   UNL A   1      43.869  36.302  31.276  1.00  0.00     0.001 A 
ATOM     88  C   UNL A   1      43.873  36.313  32.670  1.00  0.00     0.000 A 
ENDBRANCH  70  83
ENDBRANCH  44  45
ENDBRANCH  37  39
ENDBRANCH  36  37
ENDBRANCH  35  36
ENDBRANCH  34  35
ENDBRANCH  33  34
ENDBRANCH  32  33
ENDBRANCH  31  32
ENDBRANCH  30  31
ENDBRANCH   1  30
TORSDOF 26
ENDMDL
MODEL 2
REMARK VINA RESULT:      -9.6      3.815      6.089
REMARK SMILES C[C@@](COc1ccccc1)(NC(=O)CN1CSCC1=O)C(=O)OCCOCCOCCOCCOC(=O)c1ccc(-c2c3nc(c(-c4ccccc4)c4ccc([nH]4)c(-c4ccccc4)c4nc(c(-c5ccccc5)c5ccc2[nH]5)C=C4)C=C3)cc1
REMARK SMILES IDX 28 1 27 2 26 3 25 4 24 5 23 6 21 7 22 8 2 9 1 10 3 11 4 12
REMARK SMILES IDX 5 13 6 14 10 15 7 16 9 17 8 18 11 19 12 20 13 22 14 23 15 24
REMARK SMILES IDX 16 25 19 26 17 27 18 28 20 29 29 30 30 31 31 32 32 33 33 34
REMARK SMILES IDX 34 35 35 36 36 37 37 38 38 39 39 40 85 41 40 42 84 43 41 44
REMARK SMILES IDX 42 45 43 46 78 47 44 48 83 49 77 50 79 51 45 52 82 53 76 54
REMARK SMILES IDX 75 55 46 57 68 58 53 59 67 60 54 61 57 62 66 63 80 64 55 65
REMARK SMILES IDX 56 66 65 68 81 69 58 70 47 71 48 72 52 73 49 74 51 75 50 76
REMARK SMILES IDX 69 77 70 78 74 79 71 80 73 81 72 82 59 83 60 84 64 85 61 86
REMARK SMILES IDX 63 87 62 88
REMARK H PARENT 11 21 79 56 57 67
REMARK Flexibility Score: inf
ROOT
ATOM      1  C   UNL A   1      41.860  20.820  27.180  1.00  0.00     0.188 C 
ENDROOT
BRANCH   1   2
ATOM      2  C   UNL A   1      40.429  20.982  26.512  1.00  0.00     0.188 C 
BRANCH   2   3
ATOM      3  O   UNL A   1      39.719  22.196  26.189  1.00  0.00    -0.376 OA
BRANCH   3   4
ATOM      4  C   UNL A   1      38.310  22.428  25.917  1.00  0.00     0.202 C 
BRANCH   4   5
ATOM      5  C   UNL A   1      37.431  23.720  25.861  1.00  0.00     0.261 C 
BRANCH   5   6
ATOM      6  O   UNL A   1      36.283  23.654  25.027  1.00  0.00    -0.461 OA
BRANCH   6   7
ATOM      7  C   UNL A   1      35.102  23.485  25.682  1.00  0.00     0.335 C 
ATOM      8  O   UNL A   1      34.989  23.376  26.893  1.00  0.00    -0.249 OA
BRANCH   7   9
ATOM      9  C   UNL A   1      34.012  23.909  24.716  1.00  0.00     0.169 C 
ATOM     10  C   UNL A   1      34.651  23.590  23.343  1.00  0.00     0.051 C 
BRANCH   9  11
ATOM     11  C   UNL A   1      33.830  25.469  24.717  1.00  0.00     0.269 C 
BRANCH  11  12
ATOM     12  O   UNL A   1      32.830  25.919  25.676  1.00  0.00    -0.491 OA
BRANCH  12  13
ATOM     13  C   UNL A   1      32.679  27.278  25.838  1.00  0.00     0.119 A 
ATOM     14  C   UNL A   1      33.015  28.234  24.879  1.00  0.00     0.046 A 
ATOM     15  C   UNL A   1      32.111  27.696  27.049  1.00  0.00     0.046 A 
ATOM     16  C   UNL A   1      32.696  29.583  25.092  1.00  0.00     0.004 A 
ATOM     17  C   UNL A   1      31.773  29.038  27.250  1.00  0.00     0.004 A 
ATOM     18  C   UNL A   1      32.055  29.981  26.266  1.00  0.00     0.000 A 
ENDBRANCH  12  13
ENDBRANCH  11  12
ENDBRANCH   9  11
BRANCH   9  19
ATOM     19  N   UNL A   1      32.670  23.219  25.113  1.00  0.00    -0.336 N 
ATOM     20  C   UNL A   1      32.007  22.028  25.348  1.00  0.00     0.240 C 
ATOM     21  H   UNL A   1      32.014  23.940  25.258  1.00  0.00     0.164 HD
ATOM     22  O   UNL A   1      30.803  22.260  25.600  1.00  0.00    -0.273 OA
BRANCH  20  23
ATOM     23  C   UNL A   1      32.519  20.419  25.486  1.00  0.00     0.220 C 
BRANCH  23  24
ATOM     24  N   UNL A   1      32.840  19.074  24.722  1.00  0.00    -0.323 N 
ATOM     25  C   UNL A   1      33.217  17.743  25.226  1.00  0.00     0.190 C 
ATOM     26  C   UNL A   1      32.525  19.031  23.356  1.00  0.00     0.233 C 
ATOM     27  S   UNL A   1      33.488  16.607  23.868  1.00  0.00    -0.130 SA
ATOM     28  C   UNL A   1      32.572  17.636  22.754  1.00  0.00     0.171 C 
ATOM     29  O   UNL A   1      32.160  20.007  22.709  1.00  0.00    -0.274 OA
ENDBRANCH  23  24
ENDBRANCH  20  23
ENDBRANCH   9  19
ENDBRANCH   7   9
ENDBRANCH   6   7
ENDBRANCH   5   6
ENDBRANCH   4   5
ENDBRANCH   3   4
ENDBRANCH   2   3
ENDBRANCH   1   2
BRANCH   1  30
ATOM     30  O   UNL A   1      42.348  19.529  26.843  1.00  0.00    -0.377 OA
BRANCH  30  31
ATOM     31  C   UNL A   1      42.672  19.059  25.535  1.00  0.00     0.188 C 
BRANCH  31  32
ATOM     32  C   UNL A   1      44.152  19.004  25.130  1.00  0.00     0.188 C 
BRANCH  32  33
ATOM     33  O   UNL A   1      44.871  20.200  25.375  1.00  0.00    -0.376 OA
BRANCH  33  34
ATOM     34  C   UNL A   1      44.950  21.093  24.265  1.00  0.00     0.202 C 
BRANCH  34  35
ATOM     35  C   UNL A   1      44.112  22.379  24.372  1.00  0.00     0.261 C 
BRANCH  35  36
ATOM     36  O   UNL A   1      44.880  23.535  24.789  1.00  0.00    -0.460 OA
BRANCH  36  37
ATOM     37  C   UNL A   1      45.047  23.666  26.135  1.00  0.00     0.338 C 
ATOM     38  O   UNL A   1      45.924  23.159  26.812  1.00  0.00    -0.246 OA
BRANCH  37  39
ATOM     39  C   UNL A   1      44.081  24.630  26.713  1.00  0.00     0.060 A 
ATOM     40  C   UNL A   1      44.362  26.001  26.599  1.00  0.00     0.016 A 
ATOM     41  C   UNL A   1      43.006  24.200  27.492  1.00  0.00     0.016 A 
ATOM     42  C   UNL A   1      43.621  26.937  27.327  1.00  0.00     0.010 A 
ATOM     43  C   UNL A   1      42.273  25.137  28.230  1.00  0.00     0.010 A 
ATOM     44  C   UNL A   1      42.612  26.502  28.196  1.00  0.00    -0.014 A 
BRANCH  44  45
ATOM     45  C   UNL A   1      42.087  27.413  29.246  1.00  0.00     0.031 A 
ATOM     46  C   UNL A   1      42.776  27.426  30.587  1.00  0.00     0.074 A 
ATOM     47  C   UNL A   1      41.022  28.208  29.039  1.00  0.00     0.049 A 
ATOM     48  N   UNL A   1      42.450  28.058  31.686  1.00  0.00    -0.248 NA
ATOM     49  C   UNL A   1      43.997  26.611  30.700  1.00  0.00     0.031 C 
ATOM     50  C   UNL A   1      40.293  28.344  27.781  1.00  0.00     0.029 A 
ATOM     51  N   UNL A   1      40.364  29.047  29.906  1.00  0.00    -0.354 N 
ATOM     52  C   UNL A   1      43.417  27.710  32.621  1.00  0.00     0.074 A 
ATOM     53  C   UNL A   1      44.330  26.798  31.969  1.00  0.00     0.031 C 
ATOM     54  C   UNL A   1      39.272  29.203  27.963  1.00  0.00     0.029 A 
ATOM     55  C   UNL A   1      39.259  29.649  29.355  1.00  0.00     0.049 A 
ATOM     56  H   UNL A   1      40.656  29.202  30.833  1.00  0.00     0.167 HD
ATOM     57  C   UNL A   1      43.539  28.107  33.910  1.00  0.00     0.031 A 
ATOM     58  C   UNL A   1      38.330  30.446  29.918  1.00  0.00     0.031 A 
ATOM     59  C   UNL A   1      42.629  28.995  34.577  1.00  0.00     0.049 A 
ATOM     60  C   UNL A   1      38.432  30.803  31.379  1.00  0.00     0.074 A 
ATOM     61  C   UNL A   1      42.673  29.456  35.881  1.00  0.00     0.029 A 
ATOM     62  N   UNL A   1      41.502  29.549  33.993  1.00  0.00    -0.354 N 
ATOM     63  N   UNL A   1      39.355  30.474  32.250  1.00  0.00    -0.248 NA
ATOM     64  C   UNL A   1      37.357  31.641  31.934  1.00  0.00     0.031 C 
ATOM     65  C   UNL A   1      41.544  30.255  36.100  1.00  0.00     0.029 A 
ATOM     66  C   UNL A   1      40.826  30.327  34.917  1.00  0.00     0.049 A 
ATOM     67  H   UNL A   1      41.223  29.411  33.059  1.00  0.00     0.167 HD
ATOM     68  C   UNL A   1      38.987  31.082  33.444  1.00  0.00     0.074 A 
ATOM     69  C   UNL A   1      37.762  31.808  33.186  1.00  0.00     0.031 C 
ATOM     70  C   UNL A   1      39.609  31.044  34.648  1.00  0.00     0.031 A 
BRANCH  57  71
ATOM     71  C   UNL A   1      44.689  27.542  34.693  1.00  0.00    -0.014 A 
ATOM     72  C   UNL A   1      45.923  28.208  34.755  1.00  0.00     0.009 A 
ATOM     73  C   UNL A   1      44.530  26.334  35.388  1.00  0.00     0.009 A 
ATOM     74  C   UNL A   1      46.987  27.657  35.472  1.00  0.00     0.001 A 
ATOM     75  C   UNL A   1      45.588  25.797  36.123  1.00  0.00     0.001 A 
ATOM     76  C   UNL A   1      46.817  26.454  36.156  1.00  0.00     0.000 A 
ENDBRANCH  57  71
BRANCH  58  77
ATOM     77  C   UNL A   1      37.185  30.944  29.111  1.00  0.00    -0.014 A 
ATOM     78  C   UNL A   1      37.124  32.286  28.709  1.00  0.00     0.009 A 
ATOM     79  C   UNL A   1      36.130  30.083  28.771  1.00  0.00     0.009 A 
ATOM     80  C   UNL A   1      36.017  32.762  28.000  1.00  0.00     0.001 A 
ATOM     81  C   UNL A   1      35.037  30.556  28.043  1.00  0.00     0.001 A 
ATOM     82  C   UNL A   1      34.978  31.896  27.665  1.00  0.00     0.000 A 
ENDBRANCH  58  77
BRANCH  70  83
ATOM     83  C   UNL A   1      38.995  31.831  35.771  1.00  0.00    -0.014 A 
ATOM     84  C   UNL A   1      38.116  31.230  36.684  1.00  0.00     0.009 A 
ATOM     85  C   UNL A   1      39.343  33.180  35.945  1.00  0.00     0.009 A 
ATOM     86  C   UNL A   1      37.576  31.974  37.736  1.00  0.00     0.001 A 
ATOM     87  C   UNL A   1      38.819  33.913  37.010  1.00  0.00     0.001 A 
ATOM     88  C   UNL A   1      37.931  33.312  37.901  1.00  0.00     0.000 A 
ENDBRANCH  70  83
ENDBRANCH  44  45
ENDBRANCH  37  39
ENDBRANCH  36  37
ENDBRANCH  35  36
ENDBRANCH  34  35
ENDBRANCH  33  34
ENDBRANCH  32  33
ENDBRANCH  31  32
ENDBRANCH  30  31
ENDBRANCH   1  30
TORSDOF 26
ENDMDL
MODEL 3
REMARK VINA RESULT:      -9.6      3.424      4.423
REMARK SMILES C[C@@](COc1ccccc1)(NC(=O)CN1CSCC1=O)C(=O)OCCOCCOCCOCCOC(=O)c1ccc(-c2c3nc(c(-c4ccccc4)c4ccc([nH]4)c(-c4ccccc4)c4nc(c(-c5ccccc5)c5ccc2[nH]5)C=C4)C=C3)cc1
REMARK SMILES IDX 28 1 27 2 26 3 25 4 24 5 23 6 21 7 22 8 2 9 1 10 3 11 4 12
REMARK SMILES IDX 5 13 6 14 10 15 7 16 9 17 8 18 11 19 12 20 13 22 14 23 15 24
REMARK SMILES IDX 16 25 19 26 17 27 18 28 20 29 29 30 30 31 31 32 32 33 33 34
REMARK SMILES IDX 34 35 35 36 36 37 37 38 38 39 39 40 85 41 40 42 84 43 41 44
REMARK SMILES IDX 42 45 43 46 78 47 44 48 83 49 77 50 79 51 45 52 82 53 76 54
REMARK SMILES IDX 75 55 46 57 68 58 53 59 67 60 54 61 57 62 66 63 80 64 55 65
REMARK SMILES IDX 56 66 65 68 81 69 58 70 47 71 48 72 52 73 49 74 51 75 50 76
REMARK SMILES IDX 69 77 70 78 74 79 71 80 73 81 72 82 59 83 60 84 64 85 61 86
REMARK SMILES IDX 63 87 62 88
REMARK H PARENT 11 21 79 56 57 67
REMARK Flexibility Score: inf
ROOT
ATOM      1  C   UNL A   1      42.268  20.183  27.290  1.00  0.00     0.188 C 
ENDROOT
BRANCH   1   2
ATOM      2  C   UNL A   1      41.309  20.871  26.227  1.00  0.00     0.188 C 
BRANCH   2   3
ATOM      3  O   UNL A   1      40.287  21.864  26.449  1.00  0.00    -0.376 OA
BRANCH   3   4
ATOM      4  C   UNL A   1      38.869  21.857  26.126  1.00  0.00     0.202 C 
BRANCH   4   5
ATOM      5  C   UNL A   1      37.862  22.976  25.706  1.00  0.00     0.261 C 
BRANCH   5   6
ATOM      6  O   UNL A   1      36.577  22.533  25.294  1.00  0.00    -0.461 OA
BRANCH   6   7
ATOM      7  C   UNL A   1      36.195  22.943  24.053  1.00  0.00     0.335 C 
ATOM      8  O   UNL A   1      36.815  22.718  23.026  1.00  0.00    -0.249 OA
BRANCH   7   9
ATOM      9  C   UNL A   1      34.721  23.288  24.152  1.00  0.00     0.169 C 
ATOM     10  C   UNL A   1      34.737  24.520  25.088  1.00  0.00     0.051 C 
BRANCH   9  11
ATOM     11  C   UNL A   1      33.934  22.190  24.952  1.00  0.00     0.269 C 
BRANCH  11  12
ATOM     12  O   UNL A   1      33.023  21.424  24.112  1.00  0.00    -0.491 OA
BRANCH  12  13
ATOM     13  C   UNL A   1      33.234  20.066  24.028  1.00  0.00     0.119 A 
ATOM     14  C   UNL A   1      32.410  19.176  23.339  1.00  0.00     0.046 A 
ATOM     15  C   UNL A   1      34.385  19.579  24.660  1.00  0.00     0.046 A 
ATOM     16  C   UNL A   1      32.788  17.832  23.203  1.00  0.00     0.004 A 
ATOM     17  C   UNL A   1      34.773  18.245  24.505  1.00  0.00     0.004 A 
ATOM     18  C   UNL A   1      33.979  17.372  23.766  1.00  0.00     0.000 A 
ENDBRANCH  12  13
ENDBRANCH  11  12
ENDBRANCH   9  11
BRANCH   9  19
ATOM     19  N   UNL A   1      34.124  23.427  22.717  1.00  0.00    -0.336 N 
ATOM     20  C   UNL A   1      33.150  24.003  21.920  1.00  0.00     0.240 C 
ATOM     21  H   UNL A   1      34.676  22.865  22.126  1.00  0.00     0.164 HD
ATOM     22  O   UNL A   1      33.259  23.573  20.749  1.00  0.00    -0.273 OA
BRANCH  20  23
ATOM     23  C   UNL A   1      31.995  25.212  22.186  1.00  0.00     0.220 C 
BRANCH  23  24
ATOM     24  N   UNL A   1      31.730  26.689  22.681  1.00  0.00    -0.323 N 
ATOM     25  C   UNL A   1      30.639  27.256  23.490  1.00  0.00     0.190 C 
ATOM     26  C   UNL A   1      32.782  27.605  22.531  1.00  0.00     0.233 C 
ATOM     27  S   UNL A   1      30.863  29.021  23.704  1.00  0.00    -0.130 SA
ATOM     28  C   UNL A   1      32.582  28.907  23.289  1.00  0.00     0.171 C 
ATOM     29  O   UNL A   1      33.816  27.361  21.918  1.00  0.00    -0.274 OA
ENDBRANCH  23  24
ENDBRANCH  20  23
ENDBRANCH   9  19
ENDBRANCH   7   9
ENDBRANCH   6   7
ENDBRANCH   5   6
ENDBRANCH   4   5
ENDBRANCH   3   4
ENDBRANCH   2   3
ENDBRANCH   1   2
BRANCH   1  30
ATOM     30  O   UNL A   1      42.773  18.992  26.705  1.00  0.00    -0.377 OA
BRANCH  30  31
ATOM     31  C   UNL A   1      43.202  18.826  25.354  1.00  0.00     0.188 C 
BRANCH  31  32
ATOM     32  C   UNL A   1      44.696  18.994  25.041  1.00  0.00     0.188 C 
BRANCH  32  33
ATOM     33  O   UNL A   1      45.216  20.279  25.340  1.00  0.00    -0.376 OA
BRANCH  33  34
ATOM     34  C   UNL A   1      45.241  21.188  24.241  1.00  0.00     0.202 C 
BRANCH  34  35
ATOM     35  C   UNL A   1      44.309  22.406  24.350  1.00  0.00     0.261 C 
BRANCH  35  36
ATOM     36  O   UNL A   1      44.970  23.596  24.848  1.00  0.00    -0.460 OA
BRANCH  36  37
ATOM     37  C   UNL A   1      45.082  23.674  26.204  1.00  0.00     0.338 C 
ATOM     38  O   UNL A   1      45.918  23.124  26.898  1.00  0.00    -0.246 OA
BRANCH  37  39
ATOM     39  C   UNL A   1      44.111  24.638  26.776  1.00  0.00     0.060 A 
ATOM     40  C   UNL A   1      44.361  26.009  26.610  1.00  0.00     0.016 A 
ATOM     41  C   UNL A   1      43.065  24.212  27.596  1.00  0.00     0.016 A 
ATOM     42  C   UNL A   1      43.620  26.954  27.327  1.00  0.00     0.010 A 
ATOM     43  C   UNL A   1      42.332  25.158  28.323  1.00  0.00     0.010 A 
ATOM     44  C   UNL A   1      42.643  26.528  28.235  1.00  0.00    -0.014 A 
BRANCH  44  45
ATOM     45  C   UNL A   1      42.125  27.462  29.269  1.00  0.00     0.031 A 
ATOM     46  C   UNL A   1      42.838  27.520  30.596  1.00  0.00     0.074 A 
ATOM     47  C   UNL A   1      41.048  28.240  29.059  1.00  0.00     0.049 A 
ATOM     48  N   UNL A   1      42.524  28.179  31.683  1.00  0.00    -0.248 NA
ATOM     49  C   UNL A   1      44.069  26.722  30.710  1.00  0.00     0.031 C 
ATOM     50  C   UNL A   1      40.295  28.332  27.811  1.00  0.00     0.029 A 
ATOM     51  N   UNL A   1      40.396  29.096  29.914  1.00  0.00    -0.354 N 
ATOM     52  C   UNL A   1      43.512  27.868  32.610  1.00  0.00     0.074 A 
ATOM     53  C   UNL A   1      44.423  26.948  31.967  1.00  0.00     0.031 C 
ATOM     54  C   UNL A   1      39.269  29.185  27.987  1.00  0.00     0.029 A 
ATOM     55  C   UNL A   1      39.275  29.670  29.366  1.00  0.00     0.049 A 
ATOM     56  H   UNL A   1      40.703  29.279  30.831  1.00  0.00     0.167 HD
ATOM     57  C   UNL A   1      43.651  28.303  33.884  1.00  0.00     0.031 A 
ATOM     58  C   UNL A   1      38.347  30.473  29.923  1.00  0.00     0.031 A 
ATOM     59  C   UNL A   1      42.743  29.199  34.543  1.00  0.00     0.049 A 
ATOM     60  C   UNL A   1      38.472  30.871  31.371  1.00  0.00     0.074 A 
ATOM     61  C   UNL A   1      42.805  29.697  35.833  1.00  0.00     0.029 A 
ATOM     62  N   UNL A   1      41.601  29.724  33.964  1.00  0.00    -0.354 N 
ATOM     63  N   UNL A   1      39.413  30.577  32.234  1.00  0.00    -0.248 NA
ATOM     64  C   UNL A   1      37.397  31.713  31.921  1.00  0.00     0.031 C 
ATOM     65  C   UNL A   1      41.672  30.490  36.050  1.00  0.00     0.029 A 
ATOM     66  C   UNL A   1      40.933  30.521  34.878  1.00  0.00     0.049 A 
ATOM     67  H   UNL A   1      41.307  29.557  33.039  1.00  0.00     0.167 HD
ATOM     68  C   UNL A   1      39.059  31.215  33.417  1.00  0.00     0.074 A 
ATOM     69  C   UNL A   1      37.822  31.920  33.161  1.00  0.00     0.031 C 
ATOM     70  C   UNL A   1      39.702  31.217  34.611  1.00  0.00     0.031 A 
BRANCH  57  71
ATOM     71  C   UNL A   1      44.821  27.772  34.662  1.00  0.00    -0.014 A 
ATOM     72  C   UNL A   1      46.023  28.493  34.749  1.00  0.00     0.009 A 
ATOM     73  C   UNL A   1      44.715  26.542  35.327  1.00  0.00     0.009 A 
ATOM     74  C   UNL A   1      47.107  27.974  35.461  1.00  0.00     0.001 A 
ATOM     75  C   UNL A   1      45.791  26.036  36.056  1.00  0.00     0.001 A 
ATOM     76  C   UNL A   1      46.989  26.748  36.115  1.00  0.00     0.000 A 
ENDBRANCH  57  71
BRANCH  58  77
ATOM     77  C   UNL A   1      37.183  30.935  29.123  1.00  0.00    -0.014 A 
ATOM     78  C   UNL A   1      37.081  32.274  28.717  1.00  0.00     0.009 A 
ATOM     79  C   UNL A   1      36.150  30.044  28.794  1.00  0.00     0.009 A 
ATOM     80  C   UNL A   1      35.956  32.716  28.015  1.00  0.00     0.001 A 
ATOM     81  C   UNL A   1      35.039  30.483  28.072  1.00  0.00     0.001 A 
ATOM     82  C   UNL A   1      34.939  31.820  27.690  1.00  0.00     0.000 A 
ENDBRANCH  58  77
BRANCH  70  83
ATOM     83  C   UNL A   1      39.100  32.029  35.722  1.00  0.00    -0.014 A 
ATOM     84  C   UNL A   1      39.350  33.405  35.835  1.00  0.00     0.009 A 
ATOM     85  C   UNL A   1      38.230  31.416  36.637  1.00  0.00     0.009 A 
ATOM     86  C   UNL A   1      38.760  34.146  36.861  1.00  0.00     0.001 A 
ATOM     87  C   UNL A   1      37.624  32.165  37.647  1.00  0.00     0.001 A 
ATOM     88  C   UNL A   1      37.894  33.527  37.763  1.00  0.00     0.000 A 
ENDBRANCH  70  83
ENDBRANCH  44  45
ENDBRANCH  37  39
ENDBRANCH  36  37
ENDBRANCH  35  36
ENDBRANCH  34  35
ENDBRANCH  33  34
ENDBRANCH  32  33
ENDBRANCH  31  32
ENDBRANCH  30  31
ENDBRANCH   1  30
TORSDOF 26
ENDMDL
