MODEL 1
REMARK VINA RESULT:      -8.5      0.000      0.000
REMARK SMILES CC(C)(C)C[C@@H](O)[C@@H](F)C(=O)OCCOCCOCCOCCOC(=O)c1ccc(-c2c3nc(c(-c4ccccc4)c4ccc([nH]4)c(-c4ccccc4)c4nc(c(-c5ccccc5)c5ccc2[nH]5)C=C4)C=C3)cc1
REMARK SMILES IDX 17 1 16 2 15 3 14 4 13 5 12 6 10 7 11 8 8 9 9 10 6 11 5 12
REMARK SMILES IDX 2 13 1 14 3 15 4 16 7 17 18 19 19 20 20 21 21 22 22 23 23 24
REMARK SMILES IDX 24 25 25 26 26 27 27 28 28 29 74 30 29 31 73 32 30 33 31 34
REMARK SMILES IDX 32 35 67 36 33 37 72 38 66 39 68 40 34 41 71 42 65 43 64 44
REMARK SMILES IDX 35 46 57 47 42 48 56 49 43 50 46 51 55 52 69 53 44 54 45 55
REMARK SMILES IDX 54 57 70 58 47 59 36 60 37 61 41 62 38 63 40 64 39 65 58 66
REMARK SMILES IDX 59 67 63 68 60 69 62 70 61 71 48 72 49 73 53 74 50 75 52 76
REMARK SMILES IDX 51 77
REMARK H PARENT 7 18 68 45 46 56
REMARK Flexibility Score: inf
ROOT
ATOM      1  C   UNL A   1      34.847  23.875  24.713  1.00  0.00     0.188 C 
ENDROOT
BRANCH   1   2
ATOM      2  C   UNL A   1      33.400  23.399  24.716  1.00  0.00     0.188 C 
BRANCH   2   3
ATOM      3  O   UNL A   1      32.423  24.318  25.126  1.00  0.00    -0.376 OA
BRANCH   3   4
ATOM      4  C   UNL A   1      32.697  25.254  26.152  1.00  0.00     0.202 C 
BRANCH   4   5
ATOM      5  C   UNL A   1      32.102  26.676  26.282  1.00  0.00     0.261 C 
BRANCH   5   6
ATOM      6  O   UNL A   1      32.884  27.829  25.897  1.00  0.00    -0.461 OA
BRANCH   6   7
ATOM      7  C   UNL A   1      32.776  28.216  24.596  1.00  0.00     0.343 C 
ATOM      8  O   UNL A   1      33.617  27.921  23.746  1.00  0.00    -0.249 OA
BRANCH   7   9
ATOM      9  C   UNL A   1      31.575  29.107  24.232  1.00  0.00     0.304 C 
ATOM     10  F   UNL A   1      31.078  29.663  25.385  1.00  0.00    -0.232 F 
BRANCH   9  11
ATOM     11  C   UNL A   1      30.380  28.566  23.408  1.00  0.00     0.160 C 
BRANCH  11  12
ATOM     12  C   UNL A   1      29.901  29.618  22.382  1.00  0.00     0.041 C 
BRANCH  12  13
ATOM     13  C   UNL A   1      28.443  30.169  22.514  1.00  0.00    -0.036 C 
ATOM     14  C   UNL A   1      27.385  29.122  22.911  1.00  0.00     0.011 C 
ATOM     15  C   UNL A   1      28.033  30.723  21.132  1.00  0.00     0.011 C 
ATOM     16  C   UNL A   1      28.412  31.310  23.542  1.00  0.00     0.011 C 
ENDBRANCH  12  13
ENDBRANCH  11  12
BRANCH  11  17
ATOM     17  O   UNL A   1      30.797  27.467  22.594  1.00  0.00    -0.389 OA
ATOM     18  H   UNL A   1      30.274  27.453  21.777  1.00  0.00     0.211 HD
ENDBRANCH  11  17
ENDBRANCH   9  11
ENDBRANCH   7   9
ENDBRANCH   6   7
ENDBRANCH   5   6
ENDBRANCH   4   5
ENDBRANCH   3   4
ENDBRANCH   2   3
ENDBRANCH   1   2
BRANCH   1  19
ATOM     19  O   UNL A   1      35.815  23.258  23.878  1.00  0.00    -0.377 OA
BRANCH  19  20
ATOM     20  C   UNL A   1      37.054  22.826  24.432  1.00  0.00     0.188 C 
BRANCH  20  21
ATOM     21  C   UNL A   1      37.359  21.323  24.542  1.00  0.00     0.188 C 
BRANCH  21  22
ATOM     22  O   UNL A   1      38.434  21.020  25.410  1.00  0.00    -0.376 OA
BRANCH  22  23
ATOM     23  C   UNL A   1      39.047  19.743  25.322  1.00  0.00     0.202 C 
BRANCH  23  24
ATOM     24  C   UNL A   1      40.231  19.430  26.250  1.00  0.00     0.261 C 
BRANCH  24  25
ATOM     25  O   UNL A   1      41.330  18.698  25.681  1.00  0.00    -0.460 OA
BRANCH  25  26
ATOM     26  C   UNL A   1      42.585  19.030  26.057  1.00  0.00     0.338 C 
ATOM     27  O   UNL A   1      43.584  18.349  25.983  1.00  0.00    -0.246 OA
BRANCH  26  28
ATOM     28  C   UNL A   1      42.567  20.463  26.419  1.00  0.00     0.060 A 
ATOM     29  C   UNL A   1      42.714  21.424  25.409  1.00  0.00     0.016 A 
ATOM     30  C   UNL A   1      42.417  20.854  27.751  1.00  0.00     0.016 A 
ATOM     31  C   UNL A   1      42.744  22.780  25.733  1.00  0.00     0.010 A 
ATOM     32  C   UNL A   1      42.468  22.213  28.077  1.00  0.00     0.010 A 
ATOM     33  C   UNL A   1      42.666  23.179  27.074  1.00  0.00    -0.014 A 
BRANCH  33  34
ATOM     34  C   UNL A   1      42.989  24.578  27.445  1.00  0.00     0.031 A 
ATOM     35  C   UNL A   1      44.433  25.001  27.444  1.00  0.00     0.074 A 
ATOM     36  C   UNL A   1      42.025  25.463  27.751  1.00  0.00     0.049 A 
ATOM     37  N   UNL A   1      44.964  26.151  27.772  1.00  0.00    -0.248 NA
ATOM     38  C   UNL A   1      45.412  23.986  27.016  1.00  0.00     0.031 C 
ATOM     39  C   UNL A   1      40.589  25.195  27.732  1.00  0.00     0.029 A 
ATOM     40  N   UNL A   1      42.118  26.775  28.145  1.00  0.00    -0.354 N 
ATOM     41  C   UNL A   1      46.334  25.994  27.604  1.00  0.00     0.074 A 
ATOM     42  C   UNL A   1      46.557  24.631  27.173  1.00  0.00     0.031 C 
ATOM     43  C   UNL A   1      39.933  26.310  28.101  1.00  0.00     0.029 A 
ATOM     44  C   UNL A   1      40.903  27.355  28.421  1.00  0.00     0.049 A 
ATOM     45  H   UNL A   1      42.974  27.256  28.221  1.00  0.00     0.167 HD
ATOM     46  C   UNL A   1      47.320  26.902  27.792  1.00  0.00     0.031 A 
ATOM     47  C   UNL A   1      40.614  28.580  28.901  1.00  0.00     0.031 A 
ATOM     48  C   UNL A   1      47.099  28.252  28.236  1.00  0.00     0.049 A 
ATOM     49  C   UNL A   1      41.737  29.543  29.192  1.00  0.00     0.074 A 
ATOM     50  C   UNL A   1      48.029  29.255  28.443  1.00  0.00     0.029 A 
ATOM     51  N   UNL A   1      45.858  28.783  28.554  1.00  0.00    -0.354 N 
ATOM     52  N   UNL A   1      43.027  29.393  29.005  1.00  0.00    -0.248 NA
ATOM     53  C   UNL A   1      41.360  30.849  29.752  1.00  0.00     0.031 C 
ATOM     54  C   UNL A   1      47.360  30.370  28.953  1.00  0.00     0.029 A 
ATOM     55  C   UNL A   1      46.003  30.089  28.990  1.00  0.00     0.049 A 
ATOM     56  H   UNL A   1      45.002  28.302  28.481  1.00  0.00     0.167 HD
ATOM     57  C   UNL A   1      43.610  30.595  29.392  1.00  0.00     0.074 A 
ATOM     58  C   UNL A   1      42.532  31.467  29.808  1.00  0.00     0.031 C 
ATOM     59  C   UNL A   1      44.919  30.945  29.399  1.00  0.00     0.031 A 
BRANCH  46  60
ATOM     60  C   UNL A   1      48.735  26.447  27.564  1.00  0.00    -0.014 A 
ATOM     61  C   UNL A   1      49.347  26.546  26.304  1.00  0.00     0.009 A 
ATOM     62  C   UNL A   1      49.479  25.938  28.640  1.00  0.00     0.009 A 
ATOM     63  C   UNL A   1      50.661  26.110  26.120  1.00  0.00     0.001 A 
ATOM     64  C   UNL A   1      50.803  25.534  28.460  1.00  0.00     0.001 A 
ATOM     65  C   UNL A   1      51.390  25.611  27.198  1.00  0.00     0.000 A 
ENDBRANCH  46  60
BRANCH  47  66
ATOM     66  C   UNL A   1      39.202  28.970  29.165  1.00  0.00    -0.014 A 
ATOM     67  C   UNL A   1      38.602  28.699  30.405  1.00  0.00     0.009 A 
ATOM     68  C   UNL A   1      38.434  29.585  28.163  1.00  0.00     0.009 A 
ATOM     69  C   UNL A   1      37.257  29.009  30.625  1.00  0.00     0.001 A 
ATOM     70  C   UNL A   1      37.099  29.924  28.397  1.00  0.00     0.001 A 
ATOM     71  C   UNL A   1      36.508  29.625  29.624  1.00  0.00     0.000 A 
ENDBRANCH  47  66
BRANCH  59  72
ATOM     72  C   UNL A   1      45.259  32.349  29.823  1.00  0.00    -0.014 A 
ATOM     73  C   UNL A   1      45.499  32.675  31.167  1.00  0.00     0.009 A 
ATOM     74  C   UNL A   1      45.386  33.354  28.849  1.00  0.00     0.009 A 
ATOM     75  C   UNL A   1      45.821  33.985  31.530  1.00  0.00     0.001 A 
ATOM     76  C   UNL A   1      45.743  34.654  29.210  1.00  0.00     0.001 A 
ATOM     77  C   UNL A   1      45.950  34.971  30.551  1.00  0.00     0.000 A 
ENDBRANCH  59  72
ENDBRANCH  33  34
ENDBRANCH  26  28
ENDBRANCH  25  26
ENDBRANCH  24  25
ENDBRANCH  23  24
ENDBRANCH  22  23
ENDBRANCH  21  22
ENDBRANCH  20  21
ENDBRANCH  19  20
ENDBRANCH   1  19
TORSDOF 24
ENDMDL
MODEL 2
REMARK VINA RESULT:      -8.2      3.100      8.256
REMARK SMILES CC(C)(C)C[C@@H](O)[C@@H](F)C(=O)OCCOCCOCCOCCOC(=O)c1ccc(-c2c3nc(c(-c4ccccc4)c4ccc([nH]4)c(-c4ccccc4)c4nc(c(-c5ccccc5)c5ccc2[nH]5)C=C4)C=C3)cc1
REMARK SMILES IDX 17 1 16 2 15 3 14 4 13 5 12 6 10 7 11 8 8 9 9 10 6 11 5 12
REMARK SMILES IDX 2 13 1 14 3 15 4 16 7 17 18 19 19 20 20 21 21 22 22 23 23 24
REMARK SMILES IDX 24 25 25 26 26 27 27 28 28 29 74 30 29 31 73 32 30 33 31 34
REMARK SMILES IDX 32 35 67 36 33 37 72 38 66 39 68 40 34 41 71 42 65 43 64 44
REMARK SMILES IDX 35 46 57 47 42 48 56 49 43 50 46 51 55 52 69 53 44 54 45 55
REMARK SMILES IDX 54 57 70 58 47 59 36 60 37 61 41 62 38 63 40 64 39 65 58 66
REMARK SMILES IDX 59 67 63 68 60 69 62 70 61 71 48 72 49 73 53 74 50 75 52 76
REMARK SMILES IDX 51 77
REMARK H PARENT 7 18 68 45 46 56
REMARK Flexibility Score: inf
ROOT
ATOM      1  C   UNL A   1      32.327  28.883  22.707  1.00  0.00     0.188 C 
ENDROOT
BRANCH   1   2
ATOM      2  C   UNL A   1      33.517  28.067  23.196  1.00  0.00     0.188 C 
BRANCH   2   3
ATOM      3  O   UNL A   1      33.747  28.033  24.579  1.00  0.00    -0.376 OA
BRANCH   3   4
ATOM      4  C   UNL A   1      33.300  26.941  25.360  1.00  0.00     0.202 C 
BRANCH   4   5
ATOM      5  C   UNL A   1      32.163  26.965  26.409  1.00  0.00     0.261 C 
BRANCH   5   6
ATOM      6  O   UNL A   1      31.576  25.728  26.874  1.00  0.00    -0.461 OA
BRANCH   6   7
ATOM      7  C   UNL A   1      30.527  25.255  26.146  1.00  0.00     0.343 C 
ATOM      8  O   UNL A   1      29.567  24.683  26.664  1.00  0.00    -0.249 OA
BRANCH   7   9
ATOM      9  C   UNL A   1      30.615  25.406  24.617  1.00  0.00     0.304 C 
ATOM     10  F   UNL A   1      29.387  25.798  24.146  1.00  0.00    -0.232 F 
BRANCH   9  11
ATOM     11  C   UNL A   1      31.129  24.257  23.714  1.00  0.00     0.160 C 
BRANCH  11  12
ATOM     12  C   UNL A   1      31.698  23.101  24.568  1.00  0.00     0.041 C 
BRANCH  12  13
ATOM     13  C   UNL A   1      33.234  22.815  24.497  1.00  0.00    -0.036 C 
ATOM     14  C   UNL A   1      33.611  21.342  24.248  1.00  0.00     0.011 C 
ATOM     15  C   UNL A   1      33.839  23.211  25.862  1.00  0.00     0.011 C 
ATOM     16  C   UNL A   1      33.871  23.676  23.396  1.00  0.00     0.011 C 
ENDBRANCH  12  13
ENDBRANCH  11  12
BRANCH  11  17
ATOM     17  O   UNL A   1      30.039  23.653  23.013  1.00  0.00    -0.389 OA
ATOM     18  H   UNL A   1      29.849  24.164  22.210  1.00  0.00     0.211 HD
ENDBRANCH  11  17
ENDBRANCH   9  11
ENDBRANCH   7   9
ENDBRANCH   6   7
ENDBRANCH   5   6
ENDBRANCH   4   5
ENDBRANCH   3   4
ENDBRANCH   2   3
ENDBRANCH   1   2
BRANCH   1  19
ATOM     19  O   UNL A   1      30.998  28.438  22.930  1.00  0.00    -0.377 OA
BRANCH  19  20
ATOM     20  C   UNL A   1      30.025  29.346  23.438  1.00  0.00     0.188 C 
BRANCH  20  21
ATOM     21  C   UNL A   1      30.465  30.520  24.327  1.00  0.00     0.188 C 
BRANCH  21  22
ATOM     22  O   UNL A   1      31.009  30.122  25.571  1.00  0.00    -0.376 OA
BRANCH  22  23
ATOM     23  C   UNL A   1      31.935  30.979  26.220  1.00  0.00     0.202 C 
BRANCH  23  24
ATOM     24  C   UNL A   1      32.884  30.378  27.269  1.00  0.00     0.261 C 
BRANCH  24  25
ATOM     25  O   UNL A   1      34.270  30.750  27.183  1.00  0.00    -0.460 OA
BRANCH  25  26
ATOM     26  C   UNL A   1      34.886  31.196  28.300  1.00  0.00     0.338 C 
ATOM     27  O   UNL A   1      34.452  31.968  29.126  1.00  0.00    -0.246 OA
BRANCH  26  28
ATOM     28  C   UNL A   1      36.142  30.428  28.442  1.00  0.00     0.060 A 
ATOM     29  C   UNL A   1      36.401  29.761  29.647  1.00  0.00     0.016 A 
ATOM     30  C   UNL A   1      37.062  30.378  27.393  1.00  0.00     0.016 A 
ATOM     31  C   UNL A   1      37.599  29.067  29.818  1.00  0.00     0.010 A 
ATOM     32  C   UNL A   1      38.271  29.700  27.573  1.00  0.00     0.010 A 
ATOM     33  C   UNL A   1      38.559  29.072  28.798  1.00  0.00    -0.014 A 
BRANCH  33  34
ATOM     34  C   UNL A   1      39.935  28.593  29.081  1.00  0.00     0.031 A 
ATOM     35  C   UNL A   1      40.872  29.510  29.819  1.00  0.00     0.074 A 
ATOM     36  C   UNL A   1      40.339  27.364  28.715  1.00  0.00     0.049 A 
ATOM     37  N   UNL A   1      42.127  29.333  30.141  1.00  0.00    -0.248 NA
ATOM     38  C   UNL A   1      40.315  30.804  30.250  1.00  0.00     0.031 C 
ATOM     39  C   UNL A   1      39.511  26.361  28.049  1.00  0.00     0.029 A 
ATOM     40  N   UNL A   1      41.561  26.754  28.855  1.00  0.00    -0.354 N 
ATOM     41  C   UNL A   1      42.513  30.495  30.798  1.00  0.00     0.074 A 
ATOM     42  C   UNL A   1      41.370  31.381  30.805  1.00  0.00     0.031 C 
ATOM     43  C   UNL A   1      40.252  25.259  27.833  1.00  0.00     0.029 A 
ATOM     44  C   UNL A   1      41.613  25.494  28.310  1.00  0.00     0.049 A 
ATOM     45  H   UNL A   1      42.328  27.179  29.304  1.00  0.00     0.167 HD
ATOM     46  C   UNL A   1      43.712  30.799  31.347  1.00  0.00     0.031 A 
ATOM     47  C   UNL A   1      42.650  24.642  28.189  1.00  0.00     0.031 A 
ATOM     48  C   UNL A   1      44.853  29.924  31.327  1.00  0.00     0.049 A 
ATOM     49  C   UNL A   1      44.000  25.041  28.727  1.00  0.00     0.074 A 
ATOM     50  C   UNL A   1      46.109  30.131  31.868  1.00  0.00     0.029 A 
ATOM     51  N   UNL A   1      44.879  28.677  30.719  1.00  0.00    -0.354 N 
ATOM     52  N   UNL A   1      44.348  26.131  29.368  1.00  0.00    -0.248 NA
ATOM     53  C   UNL A   1      45.100  24.086  28.528  1.00  0.00     0.031 C 
ATOM     54  C   UNL A   1      46.915  29.042  31.529  1.00  0.00     0.029 A 
ATOM     55  C   UNL A   1      46.140  28.120  30.842  1.00  0.00     0.049 A 
ATOM     56  H   UNL A   1      44.114  28.252  30.268  1.00  0.00     0.167 HD
ATOM     57  C   UNL A   1      45.694  25.977  29.679  1.00  0.00     0.074 A 
ATOM     58  C   UNL A   1      46.095  24.682  29.170  1.00  0.00     0.031 C 
ATOM     59  C   UNL A   1      46.523  26.829  30.331  1.00  0.00     0.031 A 
BRANCH  46  60
ATOM     60  C   UNL A   1      43.864  32.157  31.976  1.00  0.00    -0.014 A 
ATOM     61  C   UNL A   1      43.747  32.344  33.362  1.00  0.00     0.009 A 
ATOM     62  C   UNL A   1      44.160  33.264  31.165  1.00  0.00     0.009 A 
ATOM     63  C   UNL A   1      43.887  33.619  33.918  1.00  0.00     0.001 A 
ATOM     64  C   UNL A   1      44.332  34.530  31.727  1.00  0.00     0.001 A 
ATOM     65  C   UNL A   1      44.185  34.708  33.101  1.00  0.00     0.000 A 
ENDBRANCH  46  60
BRANCH  47  66
ATOM     66  C   UNL A   1      42.469  23.329  27.510  1.00  0.00    -0.014 A 
ATOM     67  C   UNL A   1      41.977  22.218  28.214  1.00  0.00     0.009 A 
ATOM     68  C   UNL A   1      42.820  23.171  26.160  1.00  0.00     0.009 A 
ATOM     69  C   UNL A   1      41.871  20.973  27.589  1.00  0.00     0.001 A 
ATOM     70  C   UNL A   1      42.680  21.933  25.528  1.00  0.00     0.001 A 
ATOM     71  C   UNL A   1      42.218  20.832  26.247  1.00  0.00     0.000 A 
ENDBRANCH  47  66
BRANCH  59  72
ATOM     72  C   UNL A   1      47.936  26.370  30.577  1.00  0.00    -0.014 A 
ATOM     73  C   UNL A   1      48.968  26.640  29.665  1.00  0.00     0.009 A 
ATOM     74  C   UNL A   1      48.245  25.694  31.770  1.00  0.00     0.009 A 
ATOM     75  C   UNL A   1      50.270  26.209  29.924  1.00  0.00     0.001 A 
ATOM     76  C   UNL A   1      49.555  25.297  32.043  1.00  0.00     0.001 A 
ATOM     77  C   UNL A   1      50.564  25.544  31.115  1.00  0.00     0.000 A 
ENDBRANCH  59  72
ENDBRANCH  33  34
ENDBRANCH  26  28
ENDBRANCH  25  26
ENDBRANCH  24  25
ENDBRANCH  23  24
ENDBRANCH  22  23
ENDBRANCH  21  22
ENDBRANCH  20  21
ENDBRANCH  19  20
ENDBRANCH   1  19
TORSDOF 24
ENDMDL
MODEL 3
REMARK VINA RESULT:      -8.0      3.150      8.633
REMARK SMILES CC(C)(C)C[C@@H](O)[C@@H](F)C(=O)OCCOCCOCCOCCOC(=O)c1ccc(-c2c3nc(c(-c4ccccc4)c4ccc([nH]4)c(-c4ccccc4)c4nc(c(-c5ccccc5)c5ccc2[nH]5)C=C4)C=C3)cc1
REMARK SMILES IDX 17 1 16 2 15 3 14 4 13 5 12 6 10 7 11 8 8 9 9 10 6 11 5 12
REMARK SMILES IDX 2 13 1 14 3 15 4 16 7 17 18 19 19 20 20 21 21 22 22 23 23 24
REMARK SMILES IDX 24 25 25 26 26 27 27 28 28 29 74 30 29 31 73 32 30 33 31 34
REMARK SMILES IDX 32 35 67 36 33 37 72 38 66 39 68 40 34 41 71 42 65 43 64 44
REMARK SMILES IDX 35 46 57 47 42 48 56 49 43 50 46 51 55 52 69 53 44 54 45 55
REMARK SMILES IDX 54 57 70 58 47 59 36 60 37 61 41 62 38 63 40 64 39 65 58 66
REMARK SMILES IDX 59 67 63 68 60 69 62 70 61 71 48 72 49 73 53 74 50 75 52 76
REMARK SMILES IDX 51 77
REMARK H PARENT 7 18 68 45 46 56
REMARK Flexibility Score: inf
ROOT
ATOM      1  C   UNL A   1      32.630  30.133  26.553  1.00  0.00     0.188 C 
ENDROOT
BRANCH   1   2
ATOM      2  C   UNL A   1      33.827  29.200  26.419  1.00  0.00     0.188 C 
BRANCH   2   3
ATOM      3  O   UNL A   1      34.037  28.601  25.169  1.00  0.00    -0.376 OA
BRANCH   3   4
ATOM      4  C   UNL A   1      33.208  28.919  24.067  1.00  0.00     0.202 C 
BRANCH   4   5
ATOM      5  C   UNL A   1      32.258  27.952  23.321  1.00  0.00     0.261 C 
BRANCH   5   6
ATOM      6  O   UNL A   1      31.239  27.228  24.047  1.00  0.00    -0.461 OA
BRANCH   6   7
ATOM      7  C   UNL A   1      31.392  25.877  24.102  1.00  0.00     0.343 C 
ATOM      8  O   UNL A   1      30.877  25.118  23.280  1.00  0.00    -0.249 OA
BRANCH   7   9
ATOM      9  C   UNL A   1      32.195  25.314  25.289  1.00  0.00     0.304 C 
ATOM     10  F   UNL A   1      33.532  25.399  24.991  1.00  0.00    -0.232 F 
BRANCH   9  11
ATOM     11  C   UNL A   1      31.921  23.900  25.860  1.00  0.00     0.160 C 
BRANCH  11  12
ATOM     12  C   UNL A   1      33.213  23.053  25.869  1.00  0.00     0.041 C 
BRANCH  12  13
ATOM     13  C   UNL A   1      33.325  21.864  24.859  1.00  0.00    -0.036 C 
ATOM     14  C   UNL A   1      34.624  21.043  24.961  1.00  0.00     0.011 C 
ATOM     15  C   UNL A   1      33.280  22.462  23.436  1.00  0.00     0.011 C 
ATOM     16  C   UNL A   1      32.131  20.915  25.042  1.00  0.00     0.011 C 
ENDBRANCH  12  13
ENDBRANCH  11  12
BRANCH  11  17
ATOM     17  O   UNL A   1      31.564  23.985  27.242  1.00  0.00    -0.389 OA
ATOM     18  H   UNL A   1      32.223  24.521  27.713  1.00  0.00     0.211 HD
ENDBRANCH  11  17
ENDBRANCH   9  11
ENDBRANCH   7   9
ENDBRANCH   6   7
ENDBRANCH   5   6
ENDBRANCH   4   5
ENDBRANCH   3   4
ENDBRANCH   2   3
ENDBRANCH   1   2
BRANCH   1  19
ATOM     19  O   UNL A   1      32.697  31.291  27.371  1.00  0.00    -0.377 OA
BRANCH  19  20
ATOM     20  C   UNL A   1      33.948  31.696  27.918  1.00  0.00     0.188 C 
BRANCH  20  21
ATOM     21  C   UNL A   1      34.230  33.188  28.158  1.00  0.00     0.188 C 
BRANCH  21  22
ATOM     22  O   UNL A   1      35.208  33.433  29.150  1.00  0.00    -0.376 OA
BRANCH  22  23
ATOM     23  C   UNL A   1      34.800  33.969  30.399  1.00  0.00     0.202 C 
BRANCH  23  24
ATOM     24  C   UNL A   1      34.274  33.008  31.476  1.00  0.00     0.261 C 
BRANCH  24  25
ATOM     25  O   UNL A   1      35.174  31.982  31.931  1.00  0.00    -0.460 OA
BRANCH  25  26
ATOM     26  C   UNL A   1      36.381  32.354  32.412  1.00  0.00     0.338 C 
ATOM     27  O   UNL A   1      36.611  33.092  33.344  1.00  0.00    -0.246 OA
BRANCH  26  28
ATOM     28  C   UNL A   1      37.399  31.551  31.701  1.00  0.00     0.060 A 
ATOM     29  C   UNL A   1      38.390  30.894  32.444  1.00  0.00     0.016 A 
ATOM     30  C   UNL A   1      37.380  31.457  30.308  1.00  0.00     0.016 A 
ATOM     31  C   UNL A   1      39.386  30.167  31.791  1.00  0.00     0.010 A 
ATOM     32  C   UNL A   1      38.390  30.745  29.654  1.00  0.00     0.010 A 
ATOM     33  C   UNL A   1      39.416  30.127  30.392  1.00  0.00    -0.014 A 
BRANCH  33  34
ATOM     34  C   UNL A   1      40.621  29.610  29.697  1.00  0.00     0.031 A 
ATOM     35  C   UNL A   1      41.761  30.559  29.446  1.00  0.00     0.074 A 
ATOM     36  C   UNL A   1      40.716  28.324  29.319  1.00  0.00     0.049 A 
ATOM     37  N   UNL A   1      42.893  30.354  28.823  1.00  0.00    -0.248 NA
ATOM     38  C   UNL A   1      41.600  31.927  29.968  1.00  0.00     0.031 C 
ATOM     39  C   UNL A   1      39.708  27.292  29.556  1.00  0.00     0.029 A 
ATOM     40  N   UNL A   1      41.717  27.668  28.647  1.00  0.00    -0.354 N 
ATOM     41  C   UNL A   1      43.570  31.566  28.865  1.00  0.00     0.074 A 
ATOM     42  C   UNL A   1      42.713  32.510  29.550  1.00  0.00     0.031 C 
ATOM     43  C   UNL A   1      40.141  26.132  29.033  1.00  0.00     0.029 A 
ATOM     44  C   UNL A   1      41.436  26.348  28.391  1.00  0.00     0.049 A 
ATOM     45  H   UNL A   1      42.558  28.103  28.374  1.00  0.00     0.167 HD
ATOM     46  C   UNL A   1      44.796  31.869  28.379  1.00  0.00     0.031 A 
ATOM     47  C   UNL A   1      42.136  25.429  27.696  1.00  0.00     0.031 A 
ATOM     48  C   UNL A   1      45.641  30.935  27.685  1.00  0.00     0.049 A 
ATOM     49  C   UNL A   1      43.458  25.817  27.083  1.00  0.00     0.074 A 
ATOM     50  C   UNL A   1      46.908  31.138  27.167  1.00  0.00     0.029 A 
ATOM     51  N   UNL A   1      45.298  29.621  27.402  1.00  0.00    -0.354 N 
ATOM     52  N   UNL A   1      44.101  26.958  27.151  1.00  0.00    -0.248 NA
ATOM     53  C   UNL A   1      44.153  24.782  26.303  1.00  0.00     0.031 C 
ATOM     54  C   UNL A   1      47.301  29.970  26.509  1.00  0.00     0.029 A 
ATOM     55  C   UNL A   1      46.313  29.013  26.684  1.00  0.00     0.049 A 
ATOM     56  H   UNL A   1      44.456  29.187  27.672  1.00  0.00     0.167 HD
ATOM     57  C   UNL A   1      45.289  26.769  26.454  1.00  0.00     0.074 A 
ATOM     58  C   UNL A   1      45.284  25.398  25.986  1.00  0.00     0.031 C 
ATOM     59  C   UNL A   1      46.295  27.648  26.226  1.00  0.00     0.031 A 
BRANCH  46  60
ATOM     60  C   UNL A   1      45.277  33.285  28.539  1.00  0.00    -0.014 A 
ATOM     61  C   UNL A   1      46.036  33.685  29.650  1.00  0.00     0.009 A 
ATOM     62  C   UNL A   1      44.988  34.230  27.541  1.00  0.00     0.009 A 
ATOM     63  C   UNL A   1      46.463  35.009  29.776  1.00  0.00     0.001 A 
ATOM     64  C   UNL A   1      45.444  35.544  27.653  1.00  0.00     0.001 A 
ATOM     65  C   UNL A   1      46.173  35.935  28.775  1.00  0.00     0.000 A 
ENDBRANCH  46  60
BRANCH  47  66
ATOM     66  C   UNL A   1      41.597  24.053  27.515  1.00  0.00    -0.014 A 
ATOM     67  C   UNL A   1      40.606  23.790  26.557  1.00  0.00     0.009 A 
ATOM     68  C   UNL A   1      42.049  22.999  28.326  1.00  0.00     0.009 A 
ATOM     69  C   UNL A   1      40.058  22.511  26.436  1.00  0.00     0.001 A 
ATOM     70  C   UNL A   1      41.523  21.713  28.180  1.00  0.00     0.001 A 
ATOM     71  C   UNL A   1      40.520  21.473  27.244  1.00  0.00     0.000 A 
ENDBRANCH  47  66
BRANCH  59  72
ATOM     72  C   UNL A   1      47.499  27.144  25.477  1.00  0.00    -0.014 A 
ATOM     73  C   UNL A   1      47.653  27.360  24.099  1.00  0.00     0.009 A 
ATOM     74  C   UNL A   1      48.522  26.482  26.178  1.00  0.00     0.009 A 
ATOM     75  C   UNL A   1      48.786  26.889  23.432  1.00  0.00     0.001 A 
ATOM     76  C   UNL A   1      49.669  26.044  25.516  1.00  0.00     0.001 A 
ATOM     77  C   UNL A   1      49.796  26.238  24.142  1.00  0.00     0.000 A 
ENDBRANCH  59  72
ENDBRANCH  33  34
ENDBRANCH  26  28
ENDBRANCH  25  26
ENDBRANCH  24  25
ENDBRANCH  23  24
ENDBRANCH  22  23
ENDBRANCH  21  22
ENDBRANCH  20  21
ENDBRANCH  19  20
ENDBRANCH   1  19
TORSDOF 24
ENDMDL
