MODEL 1
REMARK VINA RESULT:      -9.9      0.000      0.000
REMARK SMILES COc1ccc(-c2nc3ccc(C)cc3[nH]2)c(C(=O)OCCOCCOCCOCCOC(=O)c2ccc(-c3c4nc(c(-c5ccccc5)c5ccc([nH]5)c(-c5ccccc5)c5nc(c(-c6ccccc6)c6ccc3[nH]6)C=C5)C=C4)cc2)c1OC
REMARK SMILES IDX 27 1 26 2 25 3 24 4 23 5 22 6 21 7 20 8 18 9 19 10 17 11
REMARK SMILES IDX 3 12 4 13 83 14 5 15 6 16 2 17 1 18 84 19 85 20 7 21 8 22
REMARK SMILES IDX 16 23 9 24 15 25 10 27 14 28 11 29 12 30 13 31 28 32 29 33
REMARK SMILES IDX 30 34 31 35 32 36 33 37 34 38 35 39 36 40 82 41 37 42 81 43
REMARK SMILES IDX 38 44 39 45 40 46 75 47 41 48 80 49 74 50 76 51 42 52 79 53
REMARK SMILES IDX 73 54 72 55 43 57 65 58 50 59 64 60 51 61 54 62 63 63 77 64
REMARK SMILES IDX 52 65 53 66 62 68 78 69 55 70 44 71 45 72 49 73 46 74 48 75
REMARK SMILES IDX 47 76 66 77 67 78 71 79 68 80 70 81 69 82 56 83 57 84 61 85
REMARK SMILES IDX 58 86 60 87 59 88
REMARK H PARENT 16 26 76 56 54 67
REMARK Flexibility Score: inf
ROOT
ATOM      1  C   UNL A   1      34.447  31.826  27.774  1.00  0.00     0.188 C 
ENDROOT
BRANCH   1   2
ATOM      2  O   UNL A   1      35.195  30.621  27.740  1.00  0.00    -0.377 OA
BRANCH   2   3
ATOM      3  C   UNL A   1      34.484  29.488  27.262  1.00  0.00     0.188 C 
BRANCH   3   4
ATOM      4  C   UNL A   1      33.553  29.632  26.052  1.00  0.00     0.188 C 
BRANCH   4   5
ATOM      5  O   UNL A   1      32.182  29.308  26.307  1.00  0.00    -0.376 OA
BRANCH   5   6
ATOM      6  C   UNL A   1      31.985  28.530  27.490  1.00  0.00     0.202 C 
BRANCH   6   7
ATOM      7  C   UNL A   1      31.013  27.379  27.223  1.00  0.00     0.261 C 
BRANCH   7   8
ATOM      8  O   UNL A   1      31.694  26.238  26.679  1.00  0.00    -0.460 OA
BRANCH   8   9
ATOM      9  C   UNL A   1      30.932  25.255  26.142  1.00  0.00     0.342 C 
ATOM     10  O   UNL A   1      29.838  24.885  26.537  1.00  0.00    -0.246 OA
BRANCH   9  11
ATOM     11  C   UNL A   1      31.595  24.760  24.906  1.00  0.00     0.116 A 
ATOM     12  C   UNL A   1      33.197  23.295  23.821  1.00  0.00     0.161 A 
ATOM     13  C   UNL A   1      32.880  23.875  22.590  1.00  0.00     0.051 A 
ATOM     14  C   UNL A   1      32.565  23.735  24.992  1.00  0.00     0.176 A 
ATOM     15  C   UNL A   1      31.926  24.895  22.505  1.00  0.00     0.017 A 
ATOM     16  C   UNL A   1      31.287  25.371  23.659  1.00  0.00     0.036 A 
BRANCH  12  17
ATOM     17  O   UNL A   1      34.225  22.390  23.804  1.00  0.00    -0.493 OA
ATOM     18  C   UNL A   1      35.476  22.953  23.419  1.00  0.00     0.278 C 
ENDBRANCH  12  17
BRANCH  14  19
ATOM     19  O   UNL A   1      32.808  23.145  26.208  1.00  0.00    -0.492 OA
ATOM     20  C   UNL A   1      34.081  23.467  26.778  1.00  0.00     0.278 C 
ENDBRANCH  14  19
BRANCH  16  21
ATOM     21  C   UNL A   1      30.560  26.647  23.585  1.00  0.00     0.139 A 
ATOM     22  N   UNL A   1      29.265  26.698  23.382  1.00  0.00    -0.228 NA
ATOM     23  N   UNL A   1      31.038  27.926  23.782  1.00  0.00    -0.338 N 
ATOM     24  C   UNL A   1      28.902  28.002  23.337  1.00  0.00     0.089 A 
ATOM     25  C   UNL A   1      29.992  28.814  23.600  1.00  0.00     0.066 A 
ATOM     26  H   UNL A   1      31.965  28.166  24.013  1.00  0.00     0.168 HD
ATOM     27  C   UNL A   1      27.642  28.545  23.067  1.00  0.00     0.031 A 
ATOM     28  C   UNL A   1      29.881  30.210  23.624  1.00  0.00     0.031 A 
ATOM     29  C   UNL A   1      27.512  29.931  23.058  1.00  0.00     0.006 A 
ATOM     30  C   UNL A   1      28.611  30.759  23.331  1.00  0.00    -0.049 A 
ATOM     31  C   UNL A   1      28.395  32.245  23.305  1.00  0.00     0.044 C 
ENDBRANCH  16  21
ENDBRANCH   9  11
ENDBRANCH   8   9
ENDBRANCH   7   8
ENDBRANCH   6   7
ENDBRANCH   5   6
ENDBRANCH   4   5
ENDBRANCH   3   4
ENDBRANCH   2   3
ENDBRANCH   1   2
BRANCH   1  32
ATOM     32  C   UNL A   1      34.323  32.396  29.201  1.00  0.00     0.188 C 
BRANCH  32  33
ATOM     33  O   UNL A   1      34.542  33.804  29.263  1.00  0.00    -0.376 OA
BRANCH  33  34
ATOM     34  C   UNL A   1      34.269  34.457  30.495  1.00  0.00     0.202 C 
BRANCH  34  35
ATOM     35  C   UNL A   1      34.649  33.742  31.803  1.00  0.00     0.261 C 
BRANCH  35  36
ATOM     36  O   UNL A   1      36.048  33.699  32.128  1.00  0.00    -0.460 OA
BRANCH  36  37
ATOM     37  C   UNL A   1      36.500  32.713  32.929  1.00  0.00     0.338 C 
ATOM     38  O   UNL A   1      36.069  32.383  34.017  1.00  0.00    -0.246 OA
BRANCH  37  39
ATOM     39  C   UNL A   1      37.485  31.938  32.136  1.00  0.00     0.060 A 
ATOM     40  C   UNL A   1      38.473  31.211  32.815  1.00  0.00     0.016 A 
ATOM     41  C   UNL A   1      37.374  31.849  30.744  1.00  0.00     0.016 A 
ATOM     42  C   UNL A   1      39.365  30.410  32.100  1.00  0.00     0.010 A 
ATOM     43  C   UNL A   1      38.288  31.073  30.026  1.00  0.00     0.010 A 
ATOM     44  C   UNL A   1      39.305  30.377  30.700  1.00  0.00    -0.014 A 
BRANCH  44  45
ATOM     45  C   UNL A   1      40.462  29.849  29.939  1.00  0.00     0.031 A 
ATOM     46  C   UNL A   1      41.609  30.793  29.693  1.00  0.00     0.074 A 
ATOM     47  C   UNL A   1      40.520  28.580  29.503  1.00  0.00     0.049 A 
ATOM     48  N   UNL A   1      42.734  30.587  29.058  1.00  0.00    -0.248 NA
ATOM     49  C   UNL A   1      41.466  32.151  30.246  1.00  0.00     0.031 C 
ATOM     50  C   UNL A   1      39.500  27.555  29.718  1.00  0.00     0.029 A 
ATOM     51  N   UNL A   1      41.496  27.938  28.780  1.00  0.00    -0.354 N 
ATOM     52  C   UNL A   1      43.435  31.783  29.150  1.00  0.00     0.074 A 
ATOM     53  C   UNL A   1      42.599  32.719  29.868  1.00  0.00     0.031 C 
ATOM     54  C   UNL A   1      39.904  26.411  29.133  1.00  0.00     0.029 A 
ATOM     55  C   UNL A   1      41.195  26.631  28.484  1.00  0.00     0.049 A 
ATOM     56  H   UNL A   1      42.333  28.375  28.502  1.00  0.00     0.167 HD
ATOM     57  C   UNL A   1      44.671  32.079  28.689  1.00  0.00     0.031 A 
ATOM     58  C   UNL A   1      41.882  25.727  27.758  1.00  0.00     0.031 A 
ATOM     59  C   UNL A   1      45.488  31.170  27.938  1.00  0.00     0.049 A 
ATOM     60  C   UNL A   1      43.209  26.117  27.156  1.00  0.00     0.074 A 
ATOM     61  C   UNL A   1      46.744  31.383  27.398  1.00  0.00     0.029 A 
ATOM     62  N   UNL A   1      45.121  29.875  27.612  1.00  0.00    -0.354 N 
ATOM     63  N   UNL A   1      43.870  27.245  27.264  1.00  0.00    -0.248 NA
ATOM     64  C   UNL A   1      43.887  25.102  26.335  1.00  0.00     0.031 C 
ATOM     65  C   UNL A   1      47.119  30.226  26.705  1.00  0.00     0.029 A 
ATOM     66  C   UNL A   1      46.119  29.280  26.860  1.00  0.00     0.049 A 
ATOM     67  H   UNL A   1      44.277  29.442  27.875  1.00  0.00     0.167 HD
ATOM     68  C   UNL A   1      45.052  27.063  26.556  1.00  0.00     0.074 A 
ATOM     69  C   UNL A   1      45.023  25.713  26.032  1.00  0.00     0.031 C 
ATOM     70  C   UNL A   1      46.072  27.932  26.357  1.00  0.00     0.031 A 
BRANCH  57  71
ATOM     71  C   UNL A   1      45.189  33.459  28.967  1.00  0.00    -0.014 A 
ATOM     72  C   UNL A   1      44.809  34.548  28.166  1.00  0.00     0.009 A 
ATOM     73  C   UNL A   1      46.066  33.675  30.040  1.00  0.00     0.009 A 
ATOM     74  C   UNL A   1      45.317  35.822  28.420  1.00  0.00     0.001 A 
ATOM     75  C   UNL A   1      46.552  34.955  30.307  1.00  0.00     0.001 A 
ATOM     76  C   UNL A   1      46.185  36.026  29.492  1.00  0.00     0.000 A 
ENDBRANCH  57  71
BRANCH  58  77
ATOM     77  C   UNL A   1      41.332  24.364  27.529  1.00  0.00    -0.014 A 
ATOM     78  C   UNL A   1      40.250  24.164  26.658  1.00  0.00     0.009 A 
ATOM     79  C   UNL A   1      41.851  23.262  28.228  1.00  0.00     0.009 A 
ATOM     80  C   UNL A   1      39.679  22.896  26.516  1.00  0.00     0.001 A 
ATOM     81  C   UNL A   1      41.296  21.991  28.063  1.00  0.00     0.001 A 
ATOM     82  C   UNL A   1      40.203  21.811  27.216  1.00  0.00     0.000 A 
ENDBRANCH  58  77
BRANCH  70  83
ATOM     83  C   UNL A   1      47.260  27.438  25.580  1.00  0.00    -0.014 A 
ATOM     84  C   UNL A   1      48.323  26.777  26.215  1.00  0.00     0.009 A 
ATOM     85  C   UNL A   1      47.288  27.595  24.186  1.00  0.00     0.009 A 
ATOM     86  C   UNL A   1      49.408  26.312  25.469  1.00  0.00     0.001 A 
ATOM     87  C   UNL A   1      48.361  27.105  23.440  1.00  0.00     0.001 A 
ATOM     88  C   UNL A   1      49.424  26.472  24.083  1.00  0.00     0.000 A 
ENDBRANCH  70  83
ENDBRANCH  44  45
ENDBRANCH  37  39
ENDBRANCH  36  37
ENDBRANCH  35  36
ENDBRANCH  34  35
ENDBRANCH  33  34
ENDBRANCH  32  33
ENDBRANCH   1  32
TORSDOF 23
ENDMDL
MODEL 2
REMARK VINA RESULT:      -9.8      4.088      7.646
REMARK SMILES COc1ccc(-c2nc3ccc(C)cc3[nH]2)c(C(=O)OCCOCCOCCOCCOC(=O)c2ccc(-c3c4nc(c(-c5ccccc5)c5ccc([nH]5)c(-c5ccccc5)c5nc(c(-c6ccccc6)c6ccc3[nH]6)C=C5)C=C4)cc2)c1OC
REMARK SMILES IDX 27 1 26 2 25 3 24 4 23 5 22 6 21 7 20 8 18 9 19 10 17 11
REMARK SMILES IDX 3 12 4 13 83 14 5 15 6 16 2 17 1 18 84 19 85 20 7 21 8 22
REMARK SMILES IDX 16 23 9 24 15 25 10 27 14 28 11 29 12 30 13 31 28 32 29 33
REMARK SMILES IDX 30 34 31 35 32 36 33 37 34 38 35 39 36 40 82 41 37 42 81 43
REMARK SMILES IDX 38 44 39 45 40 46 75 47 41 48 80 49 74 50 76 51 42 52 79 53
REMARK SMILES IDX 73 54 72 55 43 57 65 58 50 59 64 60 51 61 54 62 63 63 77 64
REMARK SMILES IDX 52 65 53 66 62 68 78 69 55 70 44 71 45 72 49 73 46 74 48 75
REMARK SMILES IDX 47 76 66 77 67 78 71 79 68 80 70 81 69 82 56 83 57 84 61 85
REMARK SMILES IDX 58 86 60 87 59 88
REMARK H PARENT 16 26 76 56 54 67
REMARK Flexibility Score: inf
ROOT
ATOM      1  C   UNL A   1      34.000  33.190  27.983  1.00  0.00     0.188 C 
ENDROOT
BRANCH   1   2
ATOM      2  O   UNL A   1      34.645  32.284  28.865  1.00  0.00    -0.377 OA
BRANCH   2   3
ATOM      3  C   UNL A   1      34.810  30.969  28.355  1.00  0.00     0.188 C 
BRANCH   3   4
ATOM      4  C   UNL A   1      34.038  30.537  27.102  1.00  0.00     0.188 C 
BRANCH   4   5
ATOM      5  O   UNL A   1      33.181  29.405  27.285  1.00  0.00    -0.376 OA
BRANCH   5   6
ATOM      6  C   UNL A   1      33.760  28.170  26.856  1.00  0.00     0.202 C 
BRANCH   6   7
ATOM      7  C   UNL A   1      32.693  27.256  26.250  1.00  0.00     0.261 C 
BRANCH   7   8
ATOM      8  O   UNL A   1      33.187  25.916  26.088  1.00  0.00    -0.460 OA
BRANCH   8   9
ATOM      9  C   UNL A   1      32.345  24.901  26.398  1.00  0.00     0.342 C 
ATOM     10  O   UNL A   1      31.540  24.876  27.316  1.00  0.00    -0.246 OA
BRANCH   9  11
ATOM     11  C   UNL A   1      32.475  23.842  25.361  1.00  0.00     0.116 A 
ATOM     12  C   UNL A   1      33.550  21.830  24.532  1.00  0.00     0.161 A 
ATOM     13  C   UNL A   1      32.756  21.891  23.384  1.00  0.00     0.051 A 
ATOM     14  C   UNL A   1      33.424  22.808  25.528  1.00  0.00     0.176 A 
ATOM     15  C   UNL A   1      31.821  22.918  23.213  1.00  0.00     0.017 A 
ATOM     16  C   UNL A   1      31.682  23.921  24.182  1.00  0.00     0.036 A 
BRANCH  12  17
ATOM     17  O   UNL A   1      34.508  20.852  24.541  1.00  0.00    -0.493 OA
ATOM     18  C   UNL A   1      33.982  19.537  24.700  1.00  0.00     0.278 C 
ENDBRANCH  12  17
BRANCH  14  19
ATOM     19  O   UNL A   1      34.144  22.745  26.696  1.00  0.00    -0.492 OA
ATOM     20  C   UNL A   1      33.618  21.834  27.667  1.00  0.00     0.278 C 
ENDBRANCH  14  19
BRANCH  16  21
ATOM     21  C   UNL A   1      30.954  25.149  23.825  1.00  0.00     0.139 A 
ATOM     22  N   UNL A   1      31.521  26.123  23.153  1.00  0.00    -0.228 NA
ATOM     23  N   UNL A   1      29.626  25.455  24.033  1.00  0.00    -0.338 N 
ATOM     24  C   UNL A   1      30.610  27.115  23.010  1.00  0.00     0.089 A 
ATOM     25  C   UNL A   1      29.390  26.728  23.539  1.00  0.00     0.066 A 
ATOM     26  H   UNL A   1      28.958  24.870  24.459  1.00  0.00     0.168 HD
ATOM     27  C   UNL A   1      30.782  28.376  22.432  1.00  0.00     0.031 A 
ATOM     28  C   UNL A   1      28.274  27.571  23.508  1.00  0.00     0.031 A 
ATOM     29  C   UNL A   1      29.694  29.244  22.413  1.00  0.00     0.006 A 
ATOM     30  C   UNL A   1      28.453  28.855  22.942  1.00  0.00    -0.049 A 
ATOM     31  C   UNL A   1      27.324  29.844  22.885  1.00  0.00     0.044 C 
ENDBRANCH  16  21
ENDBRANCH   9  11
ENDBRANCH   8   9
ENDBRANCH   7   8
ENDBRANCH   6   7
ENDBRANCH   5   6
ENDBRANCH   4   5
ENDBRANCH   3   4
ENDBRANCH   2   3
ENDBRANCH   1   2
BRANCH   1  32
ATOM     32  C   UNL A   1      33.416  34.409  28.725  1.00  0.00     0.188 C 
BRANCH  32  33
ATOM     33  O   UNL A   1      34.153  35.609  28.496  1.00  0.00    -0.376 OA
BRANCH  33  34
ATOM     34  C   UNL A   1      33.666  36.803  29.094  1.00  0.00     0.202 C 
BRANCH  34  35
ATOM     35  C   UNL A   1      32.655  36.684  30.246  1.00  0.00     0.261 C 
BRANCH  35  36
ATOM     36  O   UNL A   1      33.200  36.560  31.569  1.00  0.00    -0.460 OA
BRANCH  36  37
ATOM     37  C   UNL A   1      32.884  35.475  32.305  1.00  0.00     0.338 C 
ATOM     38  O   UNL A   1      31.774  35.077  32.603  1.00  0.00    -0.246 OA
BRANCH  37  39
ATOM     39  C   UNL A   1      34.139  34.710  32.497  1.00  0.00     0.060 A 
ATOM     40  C   UNL A   1      34.086  33.491  33.187  1.00  0.00     0.016 A 
ATOM     41  C   UNL A   1      35.338  35.141  31.918  1.00  0.00     0.016 A 
ATOM     42  C   UNL A   1      35.236  32.710  33.315  1.00  0.00     0.010 A 
ATOM     43  C   UNL A   1      36.496  34.375  32.075  1.00  0.00     0.010 A 
ATOM     44  C   UNL A   1      36.455  33.174  32.802  1.00  0.00    -0.014 A 
BRANCH  44  45
ATOM     45  C   UNL A   1      37.717  32.550  33.262  1.00  0.00     0.031 A 
ATOM     46  C   UNL A   1      38.325  31.495  32.376  1.00  0.00     0.074 A 
ATOM     47  C   UNL A   1      38.327  32.914  34.403  1.00  0.00     0.049 A 
ATOM     48  N   UNL A   1      39.417  30.796  32.543  1.00  0.00    -0.248 NA
ATOM     49  C   UNL A   1      37.600  31.196  31.128  1.00  0.00     0.031 C 
ATOM     50  C   UNL A   1      37.870  33.954  35.322  1.00  0.00     0.029 A 
ATOM     51  N   UNL A   1      39.479  32.436  34.979  1.00  0.00    -0.354 N 
ATOM     52  C   UNL A   1      39.516  29.989  31.416  1.00  0.00     0.074 A 
ATOM     53  C   UNL A   1      38.360  30.256  30.591  1.00  0.00     0.031 C 
ATOM     54  C   UNL A   1      38.733  34.031  36.353  1.00  0.00     0.029 A 
ATOM     55  C   UNL A   1      39.785  33.032  36.178  1.00  0.00     0.049 A 
ATOM     56  H   UNL A   1      40.033  31.732  34.570  1.00  0.00     0.167 HD
ATOM     57  C   UNL A   1      40.488  29.108  31.087  1.00  0.00     0.031 A 
ATOM     58  C   UNL A   1      40.794  32.784  37.036  1.00  0.00     0.031 A 
ATOM     59  C   UNL A   1      41.615  28.806  31.922  1.00  0.00     0.049 A 
ATOM     60  C   UNL A   1      41.804  31.715  36.700  1.00  0.00     0.074 A 
ATOM     61  C   UNL A   1      42.640  27.905  31.694  1.00  0.00     0.029 A 
ATOM     62  N   UNL A   1      41.857  29.391  33.153  1.00  0.00    -0.354 N 
ATOM     63  N   UNL A   1      41.898  30.970  35.625  1.00  0.00    -0.248 NA
ATOM     64  C   UNL A   1      42.853  31.458  37.699  1.00  0.00     0.031 C 
ATOM     65  C   UNL A   1      43.482  27.915  32.812  1.00  0.00     0.029 A 
ATOM     66  C   UNL A   1      43.007  28.859  33.708  1.00  0.00     0.049 A 
ATOM     67  H   UNL A   1      41.295  30.083  33.571  1.00  0.00     0.167 HD
ATOM     68  C   UNL A   1      43.030  30.184  35.803  1.00  0.00     0.074 A 
ATOM     69  C   UNL A   1      43.597  30.550  37.084  1.00  0.00     0.031 C 
ATOM     70  C   UNL A   1      43.557  29.245  34.981  1.00  0.00     0.031 A 
BRANCH  57  71
ATOM     71  C   UNL A   1      40.344  28.394  29.777  1.00  0.00    -0.014 A 
ATOM     72  C   UNL A   1      39.637  27.183  29.688  1.00  0.00     0.009 A 
ATOM     73  C   UNL A   1      40.918  28.935  28.617  1.00  0.00     0.009 A 
ATOM     74  C   UNL A   1      39.531  26.516  28.468  1.00  0.00     0.001 A 
ATOM     75  C   UNL A   1      40.788  28.278  27.393  1.00  0.00     0.001 A 
ATOM     76  C   UNL A   1      40.103  27.065  27.320  1.00  0.00     0.000 A 
ENDBRANCH  57  71
BRANCH  58  77
ATOM     77  C   UNL A   1      40.903  33.536  38.315  1.00  0.00    -0.014 A 
ATOM     78  C   UNL A   1      41.710  34.681  38.407  1.00  0.00     0.009 A 
ATOM     79  C   UNL A   1      40.246  33.077  39.467  1.00  0.00     0.009 A 
ATOM     80  C   UNL A   1      41.882  35.330  39.633  1.00  0.00     0.001 A 
ATOM     81  C   UNL A   1      40.398  33.744  40.685  1.00  0.00     0.001 A 
ATOM     82  C   UNL A   1      41.225  34.863  40.770  1.00  0.00     0.000 A 
ENDBRANCH  58  77
BRANCH  70  83
ATOM     83  C   UNL A   1      44.833  28.581  35.418  1.00  0.00    -0.014 A 
ATOM     84  C   UNL A   1      46.085  29.115  35.081  1.00  0.00     0.009 A 
ATOM     85  C   UNL A   1      44.773  27.431  36.220  1.00  0.00     0.009 A 
ATOM     86  C   UNL A   1      47.256  28.489  35.513  1.00  0.00     0.001 A 
ATOM     87  C   UNL A   1      45.945  26.823  36.673  1.00  0.00     0.001 A 
ATOM     88  C   UNL A   1      47.185  27.347  36.312  1.00  0.00     0.000 A 
ENDBRANCH  70  83
ENDBRANCH  44  45
ENDBRANCH  37  39
ENDBRANCH  36  37
ENDBRANCH  35  36
ENDBRANCH  34  35
ENDBRANCH  33  34
ENDBRANCH  32  33
ENDBRANCH   1  32
TORSDOF 23
ENDMDL
MODEL 3
REMARK VINA RESULT:      -9.6      1.499      5.812
REMARK SMILES COc1ccc(-c2nc3ccc(C)cc3[nH]2)c(C(=O)OCCOCCOCCOCCOC(=O)c2ccc(-c3c4nc(c(-c5ccccc5)c5ccc([nH]5)c(-c5ccccc5)c5nc(c(-c6ccccc6)c6ccc3[nH]6)C=C5)C=C4)cc2)c1OC
REMARK SMILES IDX 27 1 26 2 25 3 24 4 23 5 22 6 21 7 20 8 18 9 19 10 17 11
REMARK SMILES IDX 3 12 4 13 83 14 5 15 6 16 2 17 1 18 84 19 85 20 7 21 8 22
REMARK SMILES IDX 16 23 9 24 15 25 10 27 14 28 11 29 12 30 13 31 28 32 29 33
REMARK SMILES IDX 30 34 31 35 32 36 33 37 34 38 35 39 36 40 82 41 37 42 81 43
REMARK SMILES IDX 38 44 39 45 40 46 75 47 41 48 80 49 74 50 76 51 42 52 79 53
REMARK SMILES IDX 73 54 72 55 43 57 65 58 50 59 64 60 51 61 54 62 63 63 77 64
REMARK SMILES IDX 52 65 53 66 62 68 78 69 55 70 44 71 45 72 49 73 46 74 48 75
REMARK SMILES IDX 47 76 66 77 67 78 71 79 68 80 70 81 69 82 56 83 57 84 61 85
REMARK SMILES IDX 58 86 60 87 59 88
REMARK H PARENT 16 26 76 56 54 67
REMARK Flexibility Score: inf
ROOT
ATOM      1  C   UNL A   1      33.800  31.932  27.802  1.00  0.00     0.188 C 
ENDROOT
BRANCH   1   2
ATOM      2  O   UNL A   1      32.931  31.044  27.117  1.00  0.00    -0.377 OA
BRANCH   2   3
ATOM      3  C   UNL A   1      33.233  29.666  27.281  1.00  0.00     0.188 C 
BRANCH   3   4
ATOM      4  C   UNL A   1      32.118  28.622  27.143  1.00  0.00     0.188 C 
BRANCH   4   5
ATOM      5  O   UNL A   1      32.538  27.360  26.611  1.00  0.00    -0.376 OA
BRANCH   5   6
ATOM      6  C   UNL A   1      33.920  27.321  26.246  1.00  0.00     0.202 C 
BRANCH   6   7
ATOM      7  C   UNL A   1      34.118  26.494  24.974  1.00  0.00     0.261 C 
BRANCH   7   8
ATOM      8  O   UNL A   1      33.658  27.206  23.814  1.00  0.00    -0.460 OA
BRANCH   8   9
ATOM      9  C   UNL A   1      33.279  26.470  22.742  1.00  0.00     0.342 C 
ATOM     10  O   UNL A   1      33.584  26.670  21.577  1.00  0.00    -0.246 OA
BRANCH   9  11
ATOM     11  C   UNL A   1      32.511  25.290  23.222  1.00  0.00     0.116 A 
ATOM     12  C   UNL A   1      32.297  22.888  23.494  1.00  0.00     0.161 A 
ATOM     13  C   UNL A   1      31.038  23.075  24.072  1.00  0.00     0.051 A 
ATOM     14  C   UNL A   1      33.042  23.991  23.056  1.00  0.00     0.176 A 
ATOM     15  C   UNL A   1      30.507  24.360  24.230  1.00  0.00     0.017 A 
ATOM     16  C   UNL A   1      31.219  25.483  23.787  1.00  0.00     0.036 A 
BRANCH  12  17
ATOM     17  O   UNL A   1      32.666  21.586  23.283  1.00  0.00    -0.493 OA
ATOM     18  C   UNL A   1      31.980  20.965  22.199  1.00  0.00     0.278 C 
ENDBRANCH  12  17
BRANCH  14  19
ATOM     19  O   UNL A   1      34.307  23.847  22.540  1.00  0.00    -0.492 OA
ATOM     20  C   UNL A   1      35.306  23.508  23.507  1.00  0.00     0.278 C 
ENDBRANCH  14  19
BRANCH  16  21
ATOM     21  C   UNL A   1      30.505  26.762  23.656  1.00  0.00     0.139 A 
ATOM     22  N   UNL A   1      29.226  26.818  23.368  1.00  0.00    -0.228 NA
ATOM     23  N   UNL A   1      30.976  28.040  23.875  1.00  0.00    -0.338 N 
ATOM     24  C   UNL A   1      28.874  28.124  23.288  1.00  0.00     0.089 A 
ATOM     25  C   UNL A   1      29.949  28.933  23.617  1.00  0.00     0.066 A 
ATOM     26  H   UNL A   1      31.887  28.278  24.164  1.00  0.00     0.168 HD
ATOM     27  C   UNL A   1      27.638  28.670  22.932  1.00  0.00     0.031 A 
ATOM     28  C   UNL A   1      29.845  30.329  23.623  1.00  0.00     0.031 A 
ATOM     29  C   UNL A   1      27.517  30.057  22.904  1.00  0.00     0.006 A 
ATOM     30  C   UNL A   1      28.600  30.882  23.242  1.00  0.00    -0.049 A 
ATOM     31  C   UNL A   1      28.395  32.369  23.191  1.00  0.00     0.044 C 
ENDBRANCH  16  21
ENDBRANCH   9  11
ENDBRANCH   8   9
ENDBRANCH   7   8
ENDBRANCH   6   7
ENDBRANCH   5   6
ENDBRANCH   4   5
ENDBRANCH   3   4
ENDBRANCH   2   3
ENDBRANCH   1   2
BRANCH   1  32
ATOM     32  C   UNL A   1      33.221  33.357  27.896  1.00  0.00     0.188 C 
BRANCH  32  33
ATOM     33  O   UNL A   1      34.217  34.374  27.810  1.00  0.00    -0.376 OA
BRANCH  33  34
ATOM     34  C   UNL A   1      34.299  35.306  28.880  1.00  0.00     0.202 C 
BRANCH  34  35
ATOM     35  C   UNL A   1      34.315  34.767  30.320  1.00  0.00     0.261 C 
BRANCH  35  36
ATOM     36  O   UNL A   1      35.488  34.043  30.722  1.00  0.00    -0.460 OA
BRANCH  36  37
ATOM     37  C   UNL A   1      35.349  32.786  31.191  1.00  0.00     0.338 C 
ATOM     38  O   UNL A   1      34.365  32.290  31.707  1.00  0.00    -0.246 OA
BRANCH  37  39
ATOM     39  C   UNL A   1      36.548  32.033  30.753  1.00  0.00     0.060 A 
ATOM     40  C   UNL A   1      37.188  31.191  31.675  1.00  0.00     0.016 A 
ATOM     41  C   UNL A   1      36.978  32.078  29.423  1.00  0.00     0.016 A 
ATOM     42  C   UNL A   1      38.272  30.409  31.271  1.00  0.00     0.010 A 
ATOM     43  C   UNL A   1      38.084  31.321  29.027  1.00  0.00     0.010 A 
ATOM     44  C   UNL A   1      38.753  30.509  29.958  1.00  0.00    -0.014 A 
BRANCH  44  45
ATOM     45  C   UNL A   1      40.103  29.988  29.641  1.00  0.00     0.031 A 
ATOM     46  C   UNL A   1      40.187  28.592  29.086  1.00  0.00     0.074 A 
ATOM     47  C   UNL A   1      41.216  30.723  29.808  1.00  0.00     0.049 A 
ATOM     48  N   UNL A   1      41.239  27.900  28.729  1.00  0.00    -0.248 NA
ATOM     49  C   UNL A   1      38.908  27.884  28.904  1.00  0.00     0.031 C 
ATOM     50  C   UNL A   1      41.265  32.101  30.289  1.00  0.00     0.029 A 
ATOM     51  N   UNL A   1      42.531  30.396  29.582  1.00  0.00    -0.354 N 
ATOM     52  C   UNL A   1      40.744  26.686  28.267  1.00  0.00     0.074 A 
ATOM     53  C   UNL A   1      39.308  26.719  28.421  1.00  0.00     0.031 C 
ATOM     54  C   UNL A   1      42.551  32.502  30.328  1.00  0.00     0.029 A 
ATOM     55  C   UNL A   1      43.412  31.401  29.899  1.00  0.00     0.049 A 
ATOM     56  H   UNL A   1      42.815  29.523  29.226  1.00  0.00     0.167 HD
ATOM     57  C   UNL A   1      41.422  25.637  27.749  1.00  0.00     0.031 A 
ATOM     58  C   UNL A   1      44.759  31.417  29.857  1.00  0.00     0.031 A 
ATOM     59  C   UNL A   1      42.851  25.580  27.634  1.00  0.00     0.049 A 
ATOM     60  C   UNL A   1      45.499  30.191  29.383  1.00  0.00     0.074 A 
ATOM     61  C   UNL A   1      43.637  24.549  27.152  1.00  0.00     0.029 A 
ATOM     62  N   UNL A   1      43.708  26.597  28.019  1.00  0.00    -0.354 N 
ATOM     63  N   UNL A   1      45.021  29.056  28.933  1.00  0.00    -0.248 NA
ATOM     64  C   UNL A   1      46.968  30.255  29.406  1.00  0.00     0.031 C 
ATOM     65  C   UNL A   1      44.978  24.928  27.286  1.00  0.00     0.029 A 
ATOM     66  C   UNL A   1      45.019  26.213  27.802  1.00  0.00     0.049 A 
ATOM     67  H   UNL A   1      43.427  27.464  28.391  1.00  0.00     0.167 HD
ATOM     68  C   UNL A   1      46.126  28.287  28.589  1.00  0.00     0.074 A 
ATOM     69  C   UNL A   1      47.299  29.088  28.872  1.00  0.00     0.031 C 
ATOM     70  C   UNL A   1      46.170  27.030  28.083  1.00  0.00     0.031 A 
BRANCH  57  71
ATOM     71  C   UNL A   1      40.611  24.459  27.299  1.00  0.00    -0.014 A 
ATOM     72  C   UNL A   1      39.510  24.624  26.443  1.00  0.00     0.009 A 
ATOM     73  C   UNL A   1      40.949  23.169  27.733  1.00  0.00     0.009 A 
ATOM     74  C   UNL A   1      38.748  23.523  26.052  1.00  0.00     0.001 A 
ATOM     75  C   UNL A   1      40.200  22.066  27.320  1.00  0.00     0.001 A 
ATOM     76  C   UNL A   1      39.095  22.245  26.487  1.00  0.00     0.000 A 
ENDBRANCH  57  71
BRANCH  58  77
ATOM     77  C   UNL A   1      45.516  32.620  30.296  1.00  0.00    -0.014 A 
ATOM     78  C   UNL A   1      45.890  33.609  29.372  1.00  0.00     0.009 A 
ATOM     79  C   UNL A   1      45.920  32.757  31.633  1.00  0.00     0.009 A 
ATOM     80  C   UNL A   1      46.679  34.691  29.772  1.00  0.00     0.001 A 
ATOM     81  C   UNL A   1      46.687  33.853  32.035  1.00  0.00     0.001 A 
ATOM     82  C   UNL A   1      47.075  34.814  31.103  1.00  0.00     0.000 A 
ENDBRANCH  58  77
BRANCH  70  83
ATOM     83  C   UNL A   1      47.523  26.462  27.759  1.00  0.00    -0.014 A 
ATOM     84  C   UNL A   1      48.182  25.598  28.646  1.00  0.00     0.009 A 
ATOM     85  C   UNL A   1      48.121  26.762  26.525  1.00  0.00     0.009 A 
ATOM     86  C   UNL A   1      49.432  25.070  28.314  1.00  0.00     0.001 A 
ATOM     87  C   UNL A   1      49.357  26.211  26.186  1.00  0.00     0.001 A 
ATOM     88  C   UNL A   1      50.016  25.373  27.084  1.00  0.00     0.000 A 
ENDBRANCH  70  83
ENDBRANCH  44  45
ENDBRANCH  37  39
ENDBRANCH  36  37
ENDBRANCH  35  36
ENDBRANCH  34  35
ENDBRANCH  33  34
ENDBRANCH  32  33
ENDBRANCH   1  32
TORSDOF 23
ENDMDL
