MODEL 1
REMARK VINA RESULT:     -10.0      0.000      0.000
REMARK SMILES C[C@@H](C(=O)OCCOCCOCCOCCOC(=O)c1ccc(-c2c3nc(c(-c4ccccc4)c4ccc([nH]4)c(-c4ccccc4)c4nc(c(-c5ccccc5)c5ccc2[nH]5)C=C4)C=C3)cc1)c1ccc(C[C@H]2CCC[C@@H]2O)cc1Br
REMARK SMILES IDX 10 1 9 2 8 3 7 4 6 5 5 6 3 7 4 8 2 9 1 10 68 11 69 12 80 13
REMARK SMILES IDX 70 14 79 15 81 16 71 17 72 18 73 19 74 20 77 21 75 22 76 23
REMARK SMILES IDX 78 24 11 26 12 27 13 28 14 29 15 30 16 31 17 32 18 33 19 34
REMARK SMILES IDX 20 35 21 36 67 37 22 38 66 39 23 40 24 41 25 42 60 43 26 44
REMARK SMILES IDX 65 45 59 46 61 47 27 48 64 49 58 50 57 51 28 53 50 54 35 55
REMARK SMILES IDX 49 56 36 57 39 58 48 59 62 60 37 61 38 62 47 64 63 65 40 66
REMARK SMILES IDX 29 67 30 68 34 69 31 70 33 71 32 72 51 73 52 74 56 75 53 76
REMARK SMILES IDX 55 77 54 78 41 79 42 80 46 81 43 82 45 83 44 84
REMARK H PARENT 78 25 61 52 39 63
REMARK Flexibility Score: inf
ROOT
ATOM      1  C   UNL A   1      42.061  20.704  26.232  1.00  0.00     0.188 C 
ENDROOT
BRANCH   1   2
ATOM      2  C   UNL A   1      40.868  21.145  27.098  1.00  0.00     0.188 C 
BRANCH   2   3
ATOM      3  O   UNL A   1      39.743  21.770  26.501  1.00  0.00    -0.376 OA
BRANCH   3   4
ATOM      4  C   UNL A   1      39.370  23.093  26.853  1.00  0.00     0.202 C 
BRANCH   4   5
ATOM      5  C   UNL A   1      38.261  23.886  26.129  1.00  0.00     0.261 C 
BRANCH   5   6
ATOM      6  O   UNL A   1      36.946  23.304  26.065  1.00  0.00    -0.463 OA
BRANCH   6   7
ATOM      7  C   UNL A   1      36.391  23.243  24.828  1.00  0.00     0.313 C 
ATOM      8  O   UNL A   1      37.028  22.916  23.831  1.00  0.00    -0.252 OA
BRANCH   7   9
ATOM      9  C   UNL A   1      34.882  23.595  24.786  1.00  0.00     0.127 C 
ATOM     10  C   UNL A   1      34.355  24.601  25.828  1.00  0.00     0.025 C 
BRANCH   9  11
ATOM     11  C   UNL A   1      34.062  22.302  24.639  1.00  0.00    -0.020 A 
ATOM     12  C   UNL A   1      34.402  21.125  25.337  1.00  0.00     0.006 A 
ATOM     13  C   UNL A   1      33.034  22.195  23.682  1.00  0.00     0.022 A 
ATOM     14  C   UNL A   1      33.801  19.891  25.049  1.00  0.00     0.004 A 
ATOM     15  C   UNL A   1      32.454  20.954  23.378  1.00  0.00     0.019 A 
ATOM     16  Br  UNL A   1      32.336  23.691  22.729  1.00  0.00    -0.050 Br
ATOM     17  C   UNL A   1      32.850  19.783  24.035  1.00  0.00    -0.047 A 
BRANCH  17  18
ATOM     18  C   UNL A   1      32.232  18.459  23.652  1.00  0.00     0.041 C 
BRANCH  18  19
ATOM     19  C   UNL A   1      33.044  17.184  23.945  1.00  0.00     0.022 C 
ATOM     20  C   UNL A   1      34.572  17.310  23.830  1.00  0.00     0.007 C 
ATOM     21  C   UNL A   1      32.814  16.536  25.313  1.00  0.00     0.117 C 
ATOM     22  C   UNL A   1      35.154  16.373  24.894  1.00  0.00     0.003 C 
ATOM     23  C   UNL A   1      33.979  15.562  25.416  1.00  0.00     0.032 C 
BRANCH  21  24
ATOM     24  O   UNL A   1      31.585  15.838  25.376  1.00  0.00    -0.393 OA
ATOM     25  H   UNL A   1      30.859  16.471  25.493  1.00  0.00     0.210 HD
ENDBRANCH  21  24
ENDBRANCH  18  19
ENDBRANCH  17  18
ENDBRANCH   9  11
ENDBRANCH   7   9
ENDBRANCH   6   7
ENDBRANCH   5   6
ENDBRANCH   4   5
ENDBRANCH   3   4
ENDBRANCH   2   3
ENDBRANCH   1   2
BRANCH   1  26
ATOM     26  O   UNL A   1      42.481  19.369  26.428  1.00  0.00    -0.377 OA
BRANCH  26  27
ATOM     27  C   UNL A   1      43.371  18.830  25.465  1.00  0.00     0.188 C 
BRANCH  27  28
ATOM     28  C   UNL A   1      44.621  19.648  25.087  1.00  0.00     0.188 C 
BRANCH  28  29
ATOM     29  O   UNL A   1      44.528  20.297  23.824  1.00  0.00    -0.376 OA
BRANCH  29  30
ATOM     30  C   UNL A   1      45.082  21.596  23.682  1.00  0.00     0.202 C 
BRANCH  30  31
ATOM     31  C   UNL A   1      44.193  22.788  24.076  1.00  0.00     0.261 C 
BRANCH  31  32
ATOM     32  O   UNL A   1      44.835  23.856  24.790  1.00  0.00    -0.460 OA
BRANCH  32  33
ATOM     33  C   UNL A   1      45.125  23.657  26.092  1.00  0.00     0.338 C 
ATOM     34  O   UNL A   1      46.022  22.970  26.551  1.00  0.00    -0.246 OA
BRANCH  33  35
ATOM     35  C   UNL A   1      44.290  24.583  26.887  1.00  0.00     0.060 A 
ATOM     36  C   UNL A   1      44.622  25.944  26.905  1.00  0.00     0.016 A 
ATOM     37  C   UNL A   1      43.182  24.117  27.596  1.00  0.00     0.016 A 
ATOM     38  C   UNL A   1      43.867  26.838  27.665  1.00  0.00     0.010 A 
ATOM     39  C   UNL A   1      42.441  25.008  28.378  1.00  0.00     0.010 A 
ATOM     40  C   UNL A   1      42.804  26.366  28.445  1.00  0.00    -0.014 A 
BRANCH  40  41
ATOM     41  C   UNL A   1      42.212  27.241  29.484  1.00  0.00     0.031 A 
ATOM     42  C   UNL A   1      42.883  27.296  30.831  1.00  0.00     0.074 A 
ATOM     43  C   UNL A   1      41.126  27.993  29.241  1.00  0.00     0.049 A 
ATOM     44  N   UNL A   1      42.530  27.946  31.910  1.00  0.00    -0.248 NA
ATOM     45  C   UNL A   1      44.119  26.510  30.977  1.00  0.00     0.031 C 
ATOM     46  C   UNL A   1      40.416  28.073  27.966  1.00  0.00     0.029 A 
ATOM     47  N   UNL A   1      40.425  28.834  30.071  1.00  0.00    -0.354 N 
ATOM     48  C   UNL A   1      43.496  27.643  32.861  1.00  0.00     0.074 A 
ATOM     49  C   UNL A   1      44.428  26.724  32.246  1.00  0.00     0.031 C 
ATOM     50  C   UNL A   1      39.372  28.911  28.101  1.00  0.00     0.029 A 
ATOM     51  C   UNL A   1      39.319  29.394  29.480  1.00  0.00     0.049 A 
ATOM     52  H   UNL A   1      40.691  29.018  31.001  1.00  0.00     0.167 HD
ATOM     53  C   UNL A   1      43.605  28.094  34.133  1.00  0.00     0.031 A 
ATOM     54  C   UNL A   1      38.361  30.185  30.002  1.00  0.00     0.031 A 
ATOM     55  C   UNL A   1      42.666  28.988  34.754  1.00  0.00     0.049 A 
ATOM     56  C   UNL A   1      38.447  30.594  31.450  1.00  0.00     0.074 A 
ATOM     57  C   UNL A   1      42.684  29.500  36.039  1.00  0.00     0.029 A 
ATOM     58  N   UNL A   1      41.533  29.495  34.137  1.00  0.00    -0.354 N 
ATOM     59  N   UNL A   1      39.370  30.312  32.338  1.00  0.00    -0.248 NA
ATOM     60  C   UNL A   1      37.360  31.441  31.965  1.00  0.00     0.031 C 
ATOM     61  C   UNL A   1      41.528  30.267  36.219  1.00  0.00     0.029 A 
ATOM     62  C   UNL A   1      40.830  30.293  35.023  1.00  0.00     0.049 A 
ATOM     63  H   UNL A   1      41.268  29.314  33.206  1.00  0.00     0.167 HD
ATOM     64  C   UNL A   1      38.993  30.972  33.503  1.00  0.00     0.074 A 
ATOM     65  C   UNL A   1      37.766  31.679  33.204  1.00  0.00     0.031 C 
ATOM     66  C   UNL A   1      39.609  30.991  34.711  1.00  0.00     0.031 A 
BRANCH  53  67
ATOM     67  C   UNL A   1      44.765  27.590  34.947  1.00  0.00    -0.014 A 
ATOM     68  C   UNL A   1      46.021  28.216  34.897  1.00  0.00     0.009 A 
ATOM     69  C   UNL A   1      44.593  26.484  35.794  1.00  0.00     0.009 A 
ATOM     70  C   UNL A   1      47.088  27.722  35.650  1.00  0.00     0.001 A 
ATOM     71  C   UNL A   1      45.652  26.013  36.570  1.00  0.00     0.001 A 
ATOM     72  C   UNL A   1      46.902  26.625  36.490  1.00  0.00     0.000 A 
ENDBRANCH  53  67
BRANCH  54  73
ATOM     73  C   UNL A   1      37.213  30.621  29.160  1.00  0.00    -0.014 A 
ATOM     74  C   UNL A   1      37.089  31.957  28.749  1.00  0.00     0.009 A 
ATOM     75  C   UNL A   1      36.220  29.703  28.785  1.00  0.00     0.009 A 
ATOM     76  C   UNL A   1      35.982  32.367  28.001  1.00  0.00     0.001 A 
ATOM     77  C   UNL A   1      35.132  30.109  28.010  1.00  0.00     0.001 A 
ATOM     78  C   UNL A   1      35.008  31.442  27.627  1.00  0.00     0.000 A 
ENDBRANCH  54  73
BRANCH  66  79
ATOM     79  C   UNL A   1      38.993  31.839  35.791  1.00  0.00    -0.014 A 
ATOM     80  C   UNL A   1      38.124  31.295  36.749  1.00  0.00     0.009 A 
ATOM     81  C   UNL A   1      39.331  33.201  35.877  1.00  0.00     0.009 A 
ATOM     82  C   UNL A   1      37.577  32.105  37.748  1.00  0.00     0.001 A 
ATOM     83  C   UNL A   1      38.811  34.000  36.897  1.00  0.00     0.001 A 
ATOM     84  C   UNL A   1      37.926  33.453  37.825  1.00  0.00     0.000 A 
ENDBRANCH  66  79
ENDBRANCH  40  41
ENDBRANCH  33  35
ENDBRANCH  32  33
ENDBRANCH  31  32
ENDBRANCH  30  31
ENDBRANCH  29  30
ENDBRANCH  28  29
ENDBRANCH  27  28
ENDBRANCH  26  27
ENDBRANCH   1  26
TORSDOF 24
ENDMDL
MODEL 2
REMARK VINA RESULT:      -9.4      1.831      3.592
REMARK SMILES C[C@@H](C(=O)OCCOCCOCCOCCOC(=O)c1ccc(-c2c3nc(c(-c4ccccc4)c4ccc([nH]4)c(-c4ccccc4)c4nc(c(-c5ccccc5)c5ccc2[nH]5)C=C4)C=C3)cc1)c1ccc(C[C@H]2CCC[C@@H]2O)cc1Br
REMARK SMILES IDX 10 1 9 2 8 3 7 4 6 5 5 6 3 7 4 8 2 9 1 10 68 11 69 12 80 13
REMARK SMILES IDX 70 14 79 15 81 16 71 17 72 18 73 19 74 20 77 21 75 22 76 23
REMARK SMILES IDX 78 24 11 26 12 27 13 28 14 29 15 30 16 31 17 32 18 33 19 34
REMARK SMILES IDX 20 35 21 36 67 37 22 38 66 39 23 40 24 41 25 42 60 43 26 44
REMARK SMILES IDX 65 45 59 46 61 47 27 48 64 49 58 50 57 51 28 53 50 54 35 55
REMARK SMILES IDX 49 56 36 57 39 58 48 59 62 60 37 61 38 62 47 64 63 65 40 66
REMARK SMILES IDX 29 67 30 68 34 69 31 70 33 71 32 72 51 73 52 74 56 75 53 76
REMARK SMILES IDX 55 77 54 78 41 79 42 80 46 81 43 82 45 83 44 84
REMARK H PARENT 78 25 61 52 39 63
REMARK Flexibility Score: inf
ROOT
ATOM      1  C   UNL A   1      42.288  20.461  26.256  1.00  0.00     0.188 C 
ENDROOT
BRANCH   1   2
ATOM      2  C   UNL A   1      41.174  20.626  27.304  1.00  0.00     0.188 C 
BRANCH   2   3
ATOM      3  O   UNL A   1      39.886  21.075  26.914  1.00  0.00    -0.376 OA
BRANCH   3   4
ATOM      4  C   UNL A   1      39.655  22.437  26.589  1.00  0.00     0.202 C 
BRANCH   4   5
ATOM      5  C   UNL A   1      38.438  22.922  25.772  1.00  0.00     0.261 C 
BRANCH   5   6
ATOM      6  O   UNL A   1      37.148  22.364  26.084  1.00  0.00    -0.463 OA
BRANCH   6   7
ATOM      7  C   UNL A   1      36.473  21.824  25.038  1.00  0.00     0.313 C 
ATOM      8  O   UNL A   1      37.005  21.590  23.957  1.00  0.00    -0.252 OA
BRANCH   7   9
ATOM      9  C   UNL A   1      34.985  21.505  25.333  1.00  0.00     0.127 C 
ATOM     10  C   UNL A   1      34.354  20.305  24.602  1.00  0.00     0.025 C 
BRANCH   9  11
ATOM     11  C   UNL A   1      34.168  22.808  25.297  1.00  0.00    -0.020 A 
ATOM     12  C   UNL A   1      34.182  23.660  24.173  1.00  0.00     0.006 A 
ATOM     13  C   UNL A   1      33.500  23.282  26.442  1.00  0.00     0.022 A 
ATOM     14  C   UNL A   1      33.621  24.944  24.209  1.00  0.00     0.004 A 
ATOM     15  C   UNL A   1      32.963  24.578  26.482  1.00  0.00     0.019 A 
ATOM     16  Br  UNL A   1      33.254  22.235  28.015  1.00  0.00    -0.050 Br
ATOM     17  C   UNL A   1      33.043  25.436  25.379  1.00  0.00    -0.047 A 
BRANCH  17  18
ATOM     18  C   UNL A   1      32.491  26.839  25.473  1.00  0.00     0.041 C 
BRANCH  18  19
ATOM     19  C   UNL A   1      31.026  27.057  25.055  1.00  0.00     0.022 C 
ATOM     20  C   UNL A   1      30.776  28.140  23.994  1.00  0.00     0.007 C 
ATOM     21  C   UNL A   1      30.284  25.826  24.527  1.00  0.00     0.117 C 
ATOM     22  C   UNL A   1      29.592  27.647  23.155  1.00  0.00     0.003 C 
ATOM     23  C   UNL A   1      29.043  26.436  23.892  1.00  0.00     0.032 C 
BRANCH  21  24
ATOM     24  O   UNL A   1      29.917  24.935  25.563  1.00  0.00    -0.393 OA
ATOM     25  H   UNL A   1      29.541  24.127  25.179  1.00  0.00     0.210 HD
ENDBRANCH  21  24
ENDBRANCH  18  19
ENDBRANCH  17  18
ENDBRANCH   9  11
ENDBRANCH   7   9
ENDBRANCH   6   7
ENDBRANCH   5   6
ENDBRANCH   4   5
ENDBRANCH   3   4
ENDBRANCH   2   3
ENDBRANCH   1   2
BRANCH   1  26
ATOM     26  O   UNL A   1      42.957  19.217  26.284  1.00  0.00    -0.377 OA
BRANCH  26  27
ATOM     27  C   UNL A   1      43.687  18.855  25.124  1.00  0.00     0.188 C 
BRANCH  27  28
ATOM     28  C   UNL A   1      44.876  19.741  24.705  1.00  0.00     0.188 C 
BRANCH  28  29
ATOM     29  O   UNL A   1      44.614  20.565  23.575  1.00  0.00    -0.376 OA
BRANCH  29  30
ATOM     30  C   UNL A   1      44.910  21.951  23.657  1.00  0.00     0.202 C 
BRANCH  30  31
ATOM     31  C   UNL A   1      43.826  22.869  24.248  1.00  0.00     0.261 C 
BRANCH  31  32
ATOM     32  O   UNL A   1      44.287  23.980  25.033  1.00  0.00    -0.460 OA
BRANCH  32  33
ATOM     33  C   UNL A   1      44.570  23.756  26.333  1.00  0.00     0.338 C 
ATOM     34  O   UNL A   1      45.409  22.996  26.785  1.00  0.00    -0.246 OA
BRANCH  33  35
ATOM     35  C   UNL A   1      43.824  24.750  27.134  1.00  0.00     0.060 A 
ATOM     36  C   UNL A   1      44.268  26.078  27.147  1.00  0.00     0.016 A 
ATOM     37  C   UNL A   1      42.687  24.379  27.855  1.00  0.00     0.016 A 
ATOM     38  C   UNL A   1      43.599  27.033  27.911  1.00  0.00     0.010 A 
ATOM     39  C   UNL A   1      42.032  25.331  28.642  1.00  0.00     0.010 A 
ATOM     40  C   UNL A   1      42.507  26.653  28.702  1.00  0.00    -0.014 A 
BRANCH  40  41
ATOM     41  C   UNL A   1      42.001  27.576  29.746  1.00  0.00     0.031 A 
ATOM     42  C   UNL A   1      42.698  27.588  31.080  1.00  0.00     0.074 A 
ATOM     43  C   UNL A   1      40.970  28.406  29.516  1.00  0.00     0.049 A 
ATOM     44  N   UNL A   1      42.414  28.269  32.160  1.00  0.00    -0.248 NA
ATOM     45  C   UNL A   1      43.874  26.712  31.210  1.00  0.00     0.031 C 
ATOM     46  C   UNL A   1      40.246  28.532  28.253  1.00  0.00     0.029 A 
ATOM     47  N   UNL A   1      40.349  29.302  30.353  1.00  0.00    -0.354 N 
ATOM     48  C   UNL A   1      43.371  27.900  33.097  1.00  0.00     0.074 A 
ATOM     49  C   UNL A   1      44.220  26.910  32.473  1.00  0.00     0.031 C 
ATOM     50  C   UNL A   1      39.270  29.446  28.400  1.00  0.00     0.029 A 
ATOM     51  C   UNL A   1      39.277  29.940  29.777  1.00  0.00     0.049 A 
ATOM     52  H   UNL A   1      40.644  29.470  31.276  1.00  0.00     0.167 HD
ATOM     53  C   UNL A   1      43.536  28.348  34.364  1.00  0.00     0.031 A 
ATOM     54  C   UNL A   1      38.391  30.803  30.309  1.00  0.00     0.031 A 
ATOM     55  C   UNL A   1      42.678  29.313  34.995  1.00  0.00     0.049 A 
ATOM     56  C   UNL A   1      38.533  31.213  31.753  1.00  0.00     0.074 A 
ATOM     57  C   UNL A   1      42.757  29.830  36.276  1.00  0.00     0.029 A 
ATOM     58  N   UNL A   1      41.575  29.901  34.394  1.00  0.00    -0.354 N 
ATOM     59  N   UNL A   1      39.448  30.868  32.627  1.00  0.00    -0.248 NA
ATOM     60  C   UNL A   1      37.521  32.142  32.280  1.00  0.00     0.031 C 
ATOM     61  C   UNL A   1      41.665  30.683  36.470  1.00  0.00     0.029 A 
ATOM     62  C   UNL A   1      40.950  30.754  35.286  1.00  0.00     0.049 A 
ATOM     63  H   UNL A   1      41.281  29.735  33.469  1.00  0.00     0.167 HD
ATOM     64  C   UNL A   1      39.142  31.560  33.794  1.00  0.00     0.074 A 
ATOM     65  C   UNL A   1      37.966  32.356  33.511  1.00  0.00     0.031 C 
ATOM     66  C   UNL A   1      39.779  31.540  34.990  1.00  0.00     0.031 A 
BRANCH  53  67
ATOM     67  C   UNL A   1      44.669  27.763  35.161  1.00  0.00    -0.014 A 
ATOM     68  C   UNL A   1      44.451  26.747  36.107  1.00  0.00     0.009 A 
ATOM     69  C   UNL A   1      45.979  28.218  34.946  1.00  0.00     0.009 A 
ATOM     70  C   UNL A   1      45.516  26.228  36.845  1.00  0.00     0.001 A 
ATOM     71  C   UNL A   1      47.046  27.674  35.663  1.00  0.00     0.001 A 
ATOM     72  C   UNL A   1      46.812  26.688  36.620  1.00  0.00     0.000 A 
ENDBRANCH  53  67
BRANCH  54  73
ATOM     73  C   UNL A   1      37.265  31.319  29.485  1.00  0.00    -0.014 A 
ATOM     74  C   UNL A   1      36.128  30.532  29.245  1.00  0.00     0.009 A 
ATOM     75  C   UNL A   1      37.334  32.598  28.911  1.00  0.00     0.009 A 
ATOM     76  C   UNL A   1      35.098  31.006  28.427  1.00  0.00     0.001 A 
ATOM     77  C   UNL A   1      36.289  33.082  28.121  1.00  0.00     0.001 A 
ATOM     78  C   UNL A   1      35.177  32.283  27.871  1.00  0.00     0.000 A 
ENDBRANCH  54  73
BRANCH  66  79
ATOM     79  C   UNL A   1      39.247  32.438  36.075  1.00  0.00    -0.014 A 
ATOM     80  C   UNL A   1      39.715  33.751  36.239  1.00  0.00     0.009 A 
ATOM     81  C   UNL A   1      38.222  31.974  36.916  1.00  0.00     0.009 A 
ATOM     82  C   UNL A   1      39.193  34.566  37.247  1.00  0.00     0.001 A 
ATOM     83  C   UNL A   1      37.677  32.803  37.899  1.00  0.00     0.001 A 
ATOM     84  C   UNL A   1      38.172  34.094  38.070  1.00  0.00     0.000 A 
ENDBRANCH  66  79
ENDBRANCH  40  41
ENDBRANCH  33  35
ENDBRANCH  32  33
ENDBRANCH  31  32
ENDBRANCH  30  31
ENDBRANCH  29  30
ENDBRANCH  28  29
ENDBRANCH  27  28
ENDBRANCH  26  27
ENDBRANCH   1  26
TORSDOF 24
ENDMDL
MODEL 3
REMARK VINA RESULT:      -9.3      3.856      6.297
REMARK SMILES C[C@@H](C(=O)OCCOCCOCCOCCOC(=O)c1ccc(-c2c3nc(c(-c4ccccc4)c4ccc([nH]4)c(-c4ccccc4)c4nc(c(-c5ccccc5)c5ccc2[nH]5)C=C4)C=C3)cc1)c1ccc(C[C@H]2CCC[C@@H]2O)cc1Br
REMARK SMILES IDX 10 1 9 2 8 3 7 4 6 5 5 6 3 7 4 8 2 9 1 10 68 11 69 12 80 13
REMARK SMILES IDX 70 14 79 15 81 16 71 17 72 18 73 19 74 20 77 21 75 22 76 23
REMARK SMILES IDX 78 24 11 26 12 27 13 28 14 29 15 30 16 31 17 32 18 33 19 34
REMARK SMILES IDX 20 35 21 36 67 37 22 38 66 39 23 40 24 41 25 42 60 43 26 44
REMARK SMILES IDX 65 45 59 46 61 47 27 48 64 49 58 50 57 51 28 53 50 54 35 55
REMARK SMILES IDX 49 56 36 57 39 58 48 59 62 60 37 61 38 62 47 64 63 65 40 66
REMARK SMILES IDX 29 67 30 68 34 69 31 70 33 71 32 72 51 73 52 74 56 75 53 76
REMARK SMILES IDX 55 77 54 78 41 79 42 80 46 81 43 82 45 83 44 84
REMARK H PARENT 78 25 61 52 39 63
REMARK Flexibility Score: inf
ROOT
ATOM      1  C   UNL A   1      38.372  23.486  26.109  1.00  0.00     0.188 C 
ENDROOT
BRANCH   1   2
ATOM      2  C   UNL A   1      37.684  22.319  25.379  1.00  0.00     0.188 C 
BRANCH   2   3
ATOM      3  O   UNL A   1      36.419  21.849  25.816  1.00  0.00    -0.376 OA
BRANCH   3   4
ATOM      4  C   UNL A   1      35.818  20.709  25.220  1.00  0.00     0.202 C 
BRANCH   4   5
ATOM      5  C   UNL A   1      34.314  20.381  25.337  1.00  0.00     0.261 C 
BRANCH   5   6
ATOM      6  O   UNL A   1      33.486  20.581  24.178  1.00  0.00    -0.463 OA
BRANCH   6   7
ATOM      7  C   UNL A   1      32.283  21.166  24.409  1.00  0.00     0.313 C 
ATOM      8  O   UNL A   1      31.683  21.047  25.473  1.00  0.00    -0.252 OA
BRANCH   7   9
ATOM      9  C   UNL A   1      31.747  22.015  23.228  1.00  0.00     0.127 C 
ATOM     10  C   UNL A   1      32.297  21.708  21.822  1.00  0.00     0.025 C 
BRANCH   9  11
ATOM     11  C   UNL A   1      31.744  23.499  23.630  1.00  0.00    -0.020 A 
ATOM     12  C   UNL A   1      30.556  24.163  24.004  1.00  0.00     0.006 A 
ATOM     13  C   UNL A   1      32.896  24.297  23.488  1.00  0.00     0.022 A 
ATOM     14  C   UNL A   1      30.503  25.555  24.160  1.00  0.00     0.004 A 
ATOM     15  C   UNL A   1      32.831  25.692  23.619  1.00  0.00     0.019 A 
ATOM     16  Br  UNL A   1      34.622  23.578  23.120  1.00  0.00    -0.050 Br
ATOM     17  C   UNL A   1      31.630  26.341  23.926  1.00  0.00    -0.047 A 
BRANCH  17  18
ATOM     18  C   UNL A   1      31.590  27.849  24.019  1.00  0.00     0.041 C 
BRANCH  18  19
ATOM     19  C   UNL A   1      31.599  28.476  25.425  1.00  0.00     0.022 C 
ATOM     20  C   UNL A   1      32.451  27.759  26.484  1.00  0.00     0.007 C 
ATOM     21  C   UNL A   1      32.037  29.941  25.508  1.00  0.00     0.117 C 
ATOM     22  C   UNL A   1      33.004  28.859  27.397  1.00  0.00     0.003 C 
ATOM     23  C   UNL A   1      32.273  30.130  26.999  1.00  0.00     0.032 C 
BRANCH  21  24
ATOM     24  O   UNL A   1      31.033  30.828  25.054  1.00  0.00    -0.393 OA
ATOM     25  H   UNL A   1      31.397  31.725  24.989  1.00  0.00     0.210 HD
ENDBRANCH  21  24
ENDBRANCH  18  19
ENDBRANCH  17  18
ENDBRANCH   9  11
ENDBRANCH   7   9
ENDBRANCH   6   7
ENDBRANCH   5   6
ENDBRANCH   4   5
ENDBRANCH   3   4
ENDBRANCH   2   3
ENDBRANCH   1   2
BRANCH   1  26
ATOM     26  O   UNL A   1      39.444  23.115  26.952  1.00  0.00    -0.377 OA
BRANCH  26  27
ATOM     27  C   UNL A   1      40.033  21.847  26.719  1.00  0.00     0.188 C 
BRANCH  27  28
ATOM     28  C   UNL A   1      40.935  21.248  27.816  1.00  0.00     0.188 C 
BRANCH  28  29
ATOM     29  O   UNL A   1      41.454  19.962  27.500  1.00  0.00    -0.376 OA
BRANCH  29  30
ATOM     30  C   UNL A   1      41.560  19.585  26.135  1.00  0.00     0.202 C 
BRANCH  30  31
ATOM     31  C   UNL A   1      42.976  19.461  25.547  1.00  0.00     0.261 C 
BRANCH  31  32
ATOM     32  O   UNL A   1      43.459  20.589  24.800  1.00  0.00    -0.460 OA
BRANCH  32  33
ATOM     33  C   UNL A   1      44.589  21.189  25.228  1.00  0.00     0.338 C 
ATOM     34  O   UNL A   1      45.736  20.824  25.037  1.00  0.00    -0.246 OA
BRANCH  33  35
ATOM     35  C   UNL A   1      44.212  22.496  25.808  1.00  0.00     0.060 A 
ATOM     36  C   UNL A   1      44.001  23.581  24.946  1.00  0.00     0.016 A 
ATOM     37  C   UNL A   1      44.055  22.649  27.186  1.00  0.00     0.016 A 
ATOM     38  C   UNL A   1      43.668  24.832  25.464  1.00  0.00     0.010 A 
ATOM     39  C   UNL A   1      43.747  23.909  27.707  1.00  0.00     0.010 A 
ATOM     40  C   UNL A   1      43.589  25.014  26.851  1.00  0.00    -0.014 A 
BRANCH  40  41
ATOM     41  C   UNL A   1      43.554  26.386  27.410  1.00  0.00     0.031 A 
ATOM     42  C   UNL A   1      44.864  27.093  27.634  1.00  0.00     0.074 A 
ATOM     43  C   UNL A   1      42.396  27.008  27.685  1.00  0.00     0.049 A 
ATOM     44  N   UNL A   1      45.095  28.272  28.153  1.00  0.00    -0.248 NA
ATOM     45  C   UNL A   1      46.076  26.369  27.218  1.00  0.00     0.031 C 
ATOM     46  C   UNL A   1      41.061  26.457  27.462  1.00  0.00     0.029 A 
ATOM     47  N   UNL A   1      42.164  28.250  28.225  1.00  0.00    -0.354 N 
ATOM     48  C   UNL A   1      46.475  28.427  28.129  1.00  0.00     0.074 A 
ATOM     49  C   UNL A   1      47.032  27.211  27.580  1.00  0.00     0.031 C 
ATOM     50  C   UNL A   1      40.147  27.354  27.871  1.00  0.00     0.029 A 
ATOM     51  C   UNL A   1      40.831  28.524  28.420  1.00  0.00     0.049 A 
ATOM     52  H   UNL A   1      42.882  28.883  28.450  1.00  0.00     0.167 HD
ATOM     53  C   UNL A   1      47.216  29.490  28.521  1.00  0.00     0.031 A 
ATOM     54  C   UNL A   1      40.238  29.587  28.998  1.00  0.00     0.031 A 
ATOM     55  C   UNL A   1      46.666  30.690  29.091  1.00  0.00     0.049 A 
ATOM     56  C   UNL A   1      41.088  30.716  29.520  1.00  0.00     0.074 A 
ATOM     57  C   UNL A   1      47.332  31.822  29.525  1.00  0.00     0.029 A 
ATOM     58  N   UNL A   1      45.316  30.909  29.314  1.00  0.00    -0.354 N 
ATOM     59  N   UNL A   1      42.391  30.859  29.481  1.00  0.00    -0.248 NA
ATOM     60  C   UNL A   1      40.381  31.837  30.158  1.00  0.00     0.031 C 
ATOM     61  C   UNL A   1      46.390  32.700  30.069  1.00  0.00     0.029 A 
ATOM     62  C   UNL A   1      45.130  32.147  29.905  1.00  0.00     0.049 A 
ATOM     63  H   UNL A   1      44.595  30.278  29.086  1.00  0.00     0.167 HD
ATOM     64  C   UNL A   1      42.656  32.096  30.059  1.00  0.00     0.074 A 
ATOM     65  C   UNL A   1      41.378  32.669  30.424  1.00  0.00     0.031 C 
ATOM     66  C   UNL A   1      43.851  32.704  30.265  1.00  0.00     0.031 A 
BRANCH  53  67
ATOM     67  C   UNL A   1      48.710  29.379  28.382  1.00  0.00    -0.014 A 
ATOM     68  C   UNL A   1      49.370  29.806  27.219  1.00  0.00     0.009 A 
ATOM     69  C   UNL A   1      49.471  28.860  29.441  1.00  0.00     0.009 A 
ATOM     70  C   UNL A   1      50.756  29.680  27.105  1.00  0.00     0.001 A 
ATOM     71  C   UNL A   1      50.859  28.765  29.337  1.00  0.00     0.001 A 
ATOM     72  C   UNL A   1      51.500  29.165  28.166  1.00  0.00     0.000 A 
ENDBRANCH  53  67
BRANCH  54  73
ATOM     73  C   UNL A   1      38.757  29.625  29.145  1.00  0.00    -0.014 A 
ATOM     74  C   UNL A   1      37.939  30.057  28.090  1.00  0.00     0.009 A 
ATOM     75  C   UNL A   1      38.155  29.251  30.357  1.00  0.00     0.009 A 
ATOM     76  C   UNL A   1      36.553  30.137  28.255  1.00  0.00     0.001 A 
ATOM     77  C   UNL A   1      36.768  29.301  30.508  1.00  0.00     0.001 A 
ATOM     78  C   UNL A   1      35.969  29.754  29.461  1.00  0.00     0.000 A 
ENDBRANCH  54  73
BRANCH  66  79
ATOM     79  C   UNL A   1      43.834  34.080  30.875  1.00  0.00    -0.014 A 
ATOM     80  C   UNL A   1      43.845  34.269  32.265  1.00  0.00     0.009 A 
ATOM     81  C   UNL A   1      43.856  35.208  30.037  1.00  0.00     0.009 A 
ATOM     82  C   UNL A   1      43.842  35.559  32.802  1.00  0.00     0.001 A 
ATOM     83  C   UNL A   1      43.888  36.495  30.577  1.00  0.00     0.001 A 
ATOM     84  C   UNL A   1      43.870  36.669  31.959  1.00  0.00     0.000 A 
ENDBRANCH  66  79
ENDBRANCH  40  41
ENDBRANCH  33  35
ENDBRANCH  32  33
ENDBRANCH  31  32
ENDBRANCH  30  31
ENDBRANCH  29  30
ENDBRANCH  28  29
ENDBRANCH  27  28
ENDBRANCH  26  27
ENDBRANCH   1  26
TORSDOF 24
ENDMDL
