MODEL 1
REMARK VINA RESULT:      -8.0      0.000      0.000
REMARK SMILES CC[C@H](C)CN(CC)C(=O)NC[C@@](C)(O)C(=O)OCCOCCOCCOCCOC(=O)c1ccc(-c2c3nc(c(-c4ccccc4)c4ccc([nH]4)c(-c4ccccc4)c4nc(c(-c5ccccc5)c5ccc2[nH]5)C=C4)C=C3)cc1
REMARK SMILES IDX 22 1 21 2 20 3 19 4 18 5 16 6 17 7 13 8 14 9 12 10 11 11
REMARK SMILES IDX 9 12 10 13 6 15 5 16 3 17 4 18 2 19 1 20 7 21 8 22 15 23
REMARK SMILES IDX 23 25 24 26 25 27 26 28 27 29 28 30 29 31 30 32 31 33 32 34
REMARK SMILES IDX 33 35 34 36 80 37 35 38 79 39 36 40 37 41 38 42 73 43 39 44
REMARK SMILES IDX 78 45 72 46 74 47 40 48 77 49 71 50 70 51 41 53 63 54 48 55
REMARK SMILES IDX 62 56 49 57 52 58 61 59 75 60 50 61 51 62 60 64 76 65 53 66
REMARK SMILES IDX 42 67 43 68 47 69 44 70 46 71 45 72 64 73 65 74 69 75 66 76
REMARK SMILES IDX 68 77 67 78 54 79 55 80 59 81 56 82 58 83 57 84
REMARK H PARENT 11 14 15 24 74 52 52 63
REMARK Flexibility Score: inf
ROOT
ATOM      1  C   UNL A   1      37.645  21.459  25.356  1.00  0.00     0.188 C 
ENDROOT
BRANCH   1   2
ATOM      2  O   UNL A   1      36.313  21.539  25.850  1.00  0.00    -0.376 OA
BRANCH   2   3
ATOM      3  C   UNL A   1      35.342  20.816  25.108  1.00  0.00     0.202 C 
BRANCH   3   4
ATOM      4  C   UNL A   1      34.519  21.627  24.099  1.00  0.00     0.261 C 
BRANCH   4   5
ATOM      5  O   UNL A   1      34.002  22.866  24.609  1.00  0.00    -0.461 OA
BRANCH   5   6
ATOM      6  C   UNL A   1      32.667  23.090  24.536  1.00  0.00     0.339 C 
ATOM      7  O   UNL A   1      31.958  22.735  23.601  1.00  0.00    -0.249 OA
BRANCH   6   8
ATOM      8  C   UNL A   1      32.140  23.861  25.782  1.00  0.00     0.176 C 
ATOM      9  C   UNL A   1      32.359  22.953  26.993  1.00  0.00     0.057 C 
BRANCH   8  10
ATOM     10  C   UNL A   1      32.868  25.234  25.937  1.00  0.00     0.164 C 
BRANCH  10  11
ATOM     11  N   UNL A   1      33.438  25.768  24.716  1.00  0.00    -0.334 N 
ATOM     12  C   UNL A   1      32.969  26.595  23.762  1.00  0.00     0.317 C 
ATOM     13  O   UNL A   1      33.373  26.344  22.624  1.00  0.00    -0.249 OA
ATOM     14  H   UNL A   1      34.359  25.462  24.548  1.00  0.00     0.165 HD
BRANCH  12  15
ATOM     15  N   UNL A   1      32.154  27.666  24.025  1.00  0.00    -0.325 N 
BRANCH  15  16
ATOM     16  C   UNL A   1      32.828  28.882  24.530  1.00  0.00     0.124 C 
BRANCH  16  17
ATOM     17  C   UNL A   1      32.680  29.077  26.066  1.00  0.00     0.005 C 
ATOM     18  C   UNL A   1      33.904  28.579  26.841  1.00  0.00     0.009 C 
BRANCH  17  19
ATOM     19  C   UNL A   1      32.397  30.563  26.376  1.00  0.00     0.002 C 
ATOM     20  C   UNL A   1      31.072  31.063  25.811  1.00  0.00     0.004 C 
ENDBRANCH  17  19
ENDBRANCH  16  17
ENDBRANCH  15  16
BRANCH  15  21
ATOM     21  C   UNL A   1      30.688  27.693  24.086  1.00  0.00     0.118 C 
ATOM     22  C   UNL A   1      30.065  28.682  23.110  1.00  0.00     0.027 C 
ENDBRANCH  15  21
ENDBRANCH  12  15
ENDBRANCH  10  11
ENDBRANCH   8  10
BRANCH   8  23
ATOM     23  O   UNL A   1      30.722  24.090  25.749  1.00  0.00    -0.377 OA
ATOM     24  H   UNL A   1      30.289  23.371  25.264  1.00  0.00     0.212 HD
ENDBRANCH   8  23
ENDBRANCH   6   8
ENDBRANCH   5   6
ENDBRANCH   4   5
ENDBRANCH   3   4
ENDBRANCH   2   3
ENDBRANCH   1   2
BRANCH   1  25
ATOM     25  C   UNL A   1      38.613  22.412  26.080  1.00  0.00     0.188 C 
BRANCH  25  26
ATOM     26  O   UNL A   1      39.978  22.051  26.139  1.00  0.00    -0.377 OA
BRANCH  26  27
ATOM     27  C   UNL A   1      40.333  20.864  26.831  1.00  0.00     0.188 C 
BRANCH  27  28
ATOM     28  C   UNL A   1      41.148  19.741  26.147  1.00  0.00     0.188 C 
BRANCH  28  29
ATOM     29  O   UNL A   1      42.221  20.175  25.319  1.00  0.00    -0.376 OA
BRANCH  29  30
ATOM     30  C   UNL A   1      43.444  20.495  25.965  1.00  0.00     0.202 C 
BRANCH  30  31
ATOM     31  C   UNL A   1      43.344  21.651  26.964  1.00  0.00     0.261 C 
BRANCH  31  32
ATOM     32  O   UNL A   1      44.020  22.853  26.570  1.00  0.00    -0.460 OA
BRANCH  32  33
ATOM     33  C   UNL A   1      43.371  23.695  25.737  1.00  0.00     0.338 C 
ATOM     34  O   UNL A   1      43.133  23.539  24.552  1.00  0.00    -0.246 OA
BRANCH  33  35
ATOM     35  C   UNL A   1      42.831  24.780  26.572  1.00  0.00     0.060 A 
ATOM     36  C   UNL A   1      43.283  26.093  26.374  1.00  0.00     0.016 A 
ATOM     37  C   UNL A   1      41.828  24.498  27.502  1.00  0.00     0.016 A 
ATOM     38  C   UNL A   1      42.733  27.134  27.121  1.00  0.00     0.010 A 
ATOM     39  C   UNL A   1      41.305  25.533  28.270  1.00  0.00     0.010 A 
ATOM     40  C   UNL A   1      41.777  26.846  28.102  1.00  0.00    -0.014 A 
BRANCH  40  41
ATOM     41  C   UNL A   1      41.454  27.836  29.151  1.00  0.00     0.031 A 
ATOM     42  C   UNL A   1      42.243  27.761  30.425  1.00  0.00     0.074 A 
ATOM     43  C   UNL A   1      40.451  28.718  29.012  1.00  0.00     0.049 A 
ATOM     44  N   UNL A   1      42.056  28.381  31.559  1.00  0.00    -0.248 NA
ATOM     45  C   UNL A   1      43.394  26.840  30.422  1.00  0.00     0.031 C 
ATOM     46  C   UNL A   1      39.656  28.922  27.803  1.00  0.00     0.029 A 
ATOM     47  N   UNL A   1      39.919  29.594  29.922  1.00  0.00    -0.354 N 
ATOM     48  C   UNL A   1      43.045  27.906  32.409  1.00  0.00     0.074 A 
ATOM     49  C   UNL A   1      43.821  26.937  31.668  1.00  0.00     0.031 C 
ATOM     50  C   UNL A   1      38.725  29.862  28.053  1.00  0.00     0.029 A 
ATOM     51  C   UNL A   1      38.829  30.282  29.449  1.00  0.00     0.049 A 
ATOM     52  H   UNL A   1      40.284  29.719  30.829  1.00  0.00     0.167 HD
ATOM     53  C   UNL A   1      43.278  28.236  33.699  1.00  0.00     0.031 A 
ATOM     54  C   UNL A   1      37.996  31.126  30.089  1.00  0.00     0.031 A 
ATOM     55  C   UNL A   1      42.484  29.176  34.437  1.00  0.00     0.049 A 
ATOM     56  C   UNL A   1      38.214  31.406  31.554  1.00  0.00     0.074 A 
ATOM     57  C   UNL A   1      42.640  29.599  35.743  1.00  0.00     0.029 A 
ATOM     58  N   UNL A   1      41.368  29.826  33.931  1.00  0.00    -0.354 N 
ATOM     59  N   UNL A   1      39.163  30.972  32.348  1.00  0.00    -0.248 NA
ATOM     60  C   UNL A   1      37.240  32.288  32.213  1.00  0.00     0.031 C 
ATOM     61  C   UNL A   1      41.582  30.459  36.048  1.00  0.00     0.029 A 
ATOM     62  C   UNL A   1      40.806  30.624  34.909  1.00  0.00     0.049 A 
ATOM     63  H   UNL A   1      41.028  29.734  33.011  1.00  0.00     0.167 HD
ATOM     64  C   UNL A   1      38.926  31.560  33.585  1.00  0.00     0.074 A 
ATOM     65  C   UNL A   1      37.739  32.377  33.439  1.00  0.00     0.031 C 
ATOM     66  C   UNL A   1      39.634  31.443  34.736  1.00  0.00     0.031 A 
BRANCH  53  67
ATOM     67  C   UNL A   1      44.397  27.518  34.398  1.00  0.00    -0.014 A 
ATOM     68  C   UNL A   1      45.739  27.880  34.202  1.00  0.00     0.009 A 
ATOM     69  C   UNL A   1      44.100  26.448  35.256  1.00  0.00     0.009 A 
ATOM     70  C   UNL A   1      46.763  27.155  34.816  1.00  0.00     0.001 A 
ATOM     71  C   UNL A   1      45.123  25.746  35.893  1.00  0.00     0.001 A 
ATOM     72  C   UNL A   1      46.453  26.092  35.663  1.00  0.00     0.000 A 
ENDBRANCH  53  67
BRANCH  54  73
ATOM     73  C   UNL A   1      36.870  31.763  29.357  1.00  0.00    -0.014 A 
ATOM     74  C   UNL A   1      37.050  33.001  28.720  1.00  0.00     0.009 A 
ATOM     75  C   UNL A   1      35.609  31.148  29.296  1.00  0.00     0.009 A 
ATOM     76  C   UNL A   1      35.988  33.617  28.055  1.00  0.00     0.001 A 
ATOM     77  C   UNL A   1      34.556  31.755  28.608  1.00  0.00     0.001 A 
ATOM     78  C   UNL A   1      34.745  32.992  27.993  1.00  0.00     0.000 A 
ENDBRANCH  54  73
BRANCH  66  79
ATOM     79  C   UNL A   1      39.195  32.264  35.915  1.00  0.00    -0.014 A 
ATOM     80  C   UNL A   1      38.323  31.747  36.886  1.00  0.00     0.009 A 
ATOM     81  C   UNL A   1      39.747  33.541  36.104  1.00  0.00     0.009 A 
ATOM     82  C   UNL A   1      38.003  32.504  38.015  1.00  0.00     0.001 A 
ATOM     83  C   UNL A   1      39.447  34.283  37.247  1.00  0.00     0.001 A 
ATOM     84  C   UNL A   1      38.572  33.765  38.199  1.00  0.00     0.000 A 
ENDBRANCH  66  79
ENDBRANCH  40  41
ENDBRANCH  33  35
ENDBRANCH  32  33
ENDBRANCH  31  32
ENDBRANCH  30  31
ENDBRANCH  29  30
ENDBRANCH  28  29
ENDBRANCH  27  28
ENDBRANCH  26  27
ENDBRANCH  25  26
ENDBRANCH   1  25
TORSDOF 28
ENDMDL
MODEL 2
REMARK VINA RESULT:      -7.7      3.469      6.247
REMARK SMILES CC[C@H](C)CN(CC)C(=O)NC[C@@](C)(O)C(=O)OCCOCCOCCOCCOC(=O)c1ccc(-c2c3nc(c(-c4ccccc4)c4ccc([nH]4)c(-c4ccccc4)c4nc(c(-c5ccccc5)c5ccc2[nH]5)C=C4)C=C3)cc1
REMARK SMILES IDX 22 1 21 2 20 3 19 4 18 5 16 6 17 7 13 8 14 9 12 10 11 11
REMARK SMILES IDX 9 12 10 13 6 15 5 16 3 17 4 18 2 19 1 20 7 21 8 22 15 23
REMARK SMILES IDX 23 25 24 26 25 27 26 28 27 29 28 30 29 31 30 32 31 33 32 34
REMARK SMILES IDX 33 35 34 36 80 37 35 38 79 39 36 40 37 41 38 42 73 43 39 44
REMARK SMILES IDX 78 45 72 46 74 47 40 48 77 49 71 50 70 51 41 53 63 54 48 55
REMARK SMILES IDX 62 56 49 57 52 58 61 59 75 60 50 61 51 62 60 64 76 65 53 66
REMARK SMILES IDX 42 67 43 68 47 69 44 70 46 71 45 72 64 73 65 74 69 75 66 76
REMARK SMILES IDX 68 77 67 78 54 79 55 80 59 81 56 82 58 83 57 84
REMARK H PARENT 11 14 15 24 74 52 52 63
REMARK Flexibility Score: inf
ROOT
ATOM      1  C   UNL A   1      32.338  22.569  27.007  1.00  0.00     0.188 C 
ENDROOT
BRANCH   1   2
ATOM      2  O   UNL A   1      32.723  23.903  26.694  1.00  0.00    -0.376 OA
BRANCH   2   3
ATOM      3  C   UNL A   1      31.653  24.800  26.432  1.00  0.00     0.202 C 
BRANCH   3   4
ATOM      4  C   UNL A   1      31.727  26.164  27.130  1.00  0.00     0.261 C 
BRANCH   4   5
ATOM      5  O   UNL A   1      31.542  27.292  26.260  1.00  0.00    -0.461 OA
BRANCH   5   6
ATOM      6  C   UNL A   1      32.012  28.500  26.656  1.00  0.00     0.339 C 
ATOM      7  O   UNL A   1      31.438  29.237  27.449  1.00  0.00    -0.249 OA
BRANCH   6   8
ATOM      8  C   UNL A   1      33.371  28.844  25.977  1.00  0.00     0.176 C 
ATOM      9  C   UNL A   1      34.377  29.099  27.099  1.00  0.00     0.057 C 
BRANCH   8  10
ATOM     10  C   UNL A   1      33.828  27.689  25.029  1.00  0.00     0.164 C 
BRANCH  10  11
ATOM     11  N   UNL A   1      33.801  28.008  23.615  1.00  0.00    -0.334 N 
ATOM     12  C   UNL A   1      33.536  27.286  22.510  1.00  0.00     0.317 C 
ATOM     13  O   UNL A   1      34.196  27.608  21.518  1.00  0.00    -0.249 OA
ATOM     14  H   UNL A   1      34.023  28.949  23.423  1.00  0.00     0.165 HD
BRANCH  12  15
ATOM     15  N   UNL A   1      32.576  26.308  22.459  1.00  0.00    -0.325 N 
BRANCH  15  16
ATOM     16  C   UNL A   1      31.236  26.742  22.009  1.00  0.00     0.124 C 
BRANCH  16  17
ATOM     17  C   UNL A   1      30.301  27.171  23.176  1.00  0.00     0.005 C 
ATOM     18  C   UNL A   1      29.572  28.488  22.890  1.00  0.00     0.009 C 
BRANCH  17  19
ATOM     19  C   UNL A   1      29.297  26.038  23.482  1.00  0.00     0.002 C 
ATOM     20  C   UNL A   1      28.052  26.510  24.224  1.00  0.00     0.004 C 
ENDBRANCH  17  19
ENDBRANCH  16  17
ENDBRANCH  15  16
BRANCH  15  21
ATOM     21  C   UNL A   1      32.643  24.946  23.002  1.00  0.00     0.118 C 
ATOM     22  C   UNL A   1      34.003  24.289  22.810  1.00  0.00     0.027 C 
ENDBRANCH  15  21
ENDBRANCH  12  15
ENDBRANCH  10  11
ENDBRANCH   8  10
BRANCH   8  23
ATOM     23  O   UNL A   1      33.338  30.070  25.230  1.00  0.00    -0.377 OA
ATOM     24  H   UNL A   1      33.479  30.818  25.830  1.00  0.00     0.212 HD
ENDBRANCH   8  23
ENDBRANCH   6   8
ENDBRANCH   5   6
ENDBRANCH   4   5
ENDBRANCH   3   4
ENDBRANCH   2   3
ENDBRANCH   1   2
BRANCH   1  25
ATOM     25  C   UNL A   1      33.368  21.522  26.544  1.00  0.00     0.188 C 
BRANCH  25  26
ATOM     26  O   UNL A   1      34.719  21.713  26.911  1.00  0.00    -0.377 OA
BRANCH  26  27
ATOM     27  C   UNL A   1      35.654  22.044  25.897  1.00  0.00     0.188 C 
BRANCH  27  28
ATOM     28  C   UNL A   1      36.275  20.961  24.983  1.00  0.00     0.188 C 
BRANCH  28  29
ATOM     29  O   UNL A   1      37.687  20.813  25.075  1.00  0.00    -0.376 OA
BRANCH  29  30
ATOM     30  C   UNL A   1      38.210  19.505  24.901  1.00  0.00     0.202 C 
BRANCH  30  31
ATOM     31  C   UNL A   1      39.533  19.255  25.632  1.00  0.00     0.261 C 
BRANCH  31  32
ATOM     32  O   UNL A   1      39.741  20.060  26.800  1.00  0.00    -0.460 OA
BRANCH  32  33
ATOM     33  C   UNL A   1      41.014  20.299  27.180  1.00  0.00     0.338 C 
ATOM     34  O   UNL A   1      41.954  19.523  27.178  1.00  0.00    -0.246 OA
BRANCH  33  35
ATOM     35  C   UNL A   1      41.114  21.746  27.433  1.00  0.00     0.060 A 
ATOM     36  C   UNL A   1      40.210  22.618  26.809  1.00  0.00     0.016 A 
ATOM     37  C   UNL A   1      42.060  22.222  28.342  1.00  0.00     0.016 A 
ATOM     38  C   UNL A   1      40.260  23.984  27.089  1.00  0.00     0.010 A 
ATOM     39  C   UNL A   1      42.132  23.588  28.594  1.00  0.00     0.010 A 
ATOM     40  C   UNL A   1      41.253  24.473  27.947  1.00  0.00    -0.014 A 
BRANCH  40  41
ATOM     41  C   UNL A   1      41.579  25.914  27.974  1.00  0.00     0.031 A 
ATOM     42  C   UNL A   1      42.847  26.340  27.293  1.00  0.00     0.074 A 
ATOM     43  C   UNL A   1      40.823  26.802  28.642  1.00  0.00     0.049 A 
ATOM     44  N   UNL A   1      43.455  27.495  27.312  1.00  0.00    -0.248 NA
ATOM     45  C   UNL A   1      43.531  25.308  26.495  1.00  0.00     0.031 C 
ATOM     46  C   UNL A   1      39.545  26.517  29.289  1.00  0.00     0.029 A 
ATOM     47  N   UNL A   1      41.048  28.130  28.899  1.00  0.00    -0.354 N 
ATOM     48  C   UNL A   1      44.605  27.320  26.554  1.00  0.00     0.074 A 
ATOM     49  C   UNL A   1      44.617  25.948  26.100  1.00  0.00     0.031 C 
ATOM     50  C   UNL A   1      39.102  27.641  29.882  1.00  0.00     0.029 A 
ATOM     51  C   UNL A   1      40.090  28.703  29.698  1.00  0.00     0.049 A 
ATOM     52  H   UNL A   1      41.821  28.625  28.543  1.00  0.00     0.167 HD
ATOM     53  C   UNL A   1      45.573  28.220  26.271  1.00  0.00     0.031 A 
ATOM     54  C   UNL A   1      40.043  29.935  30.242  1.00  0.00     0.031 A 
ATOM     55  C   UNL A   1      45.569  29.572  26.752  1.00  0.00     0.049 A 
ATOM     56  C   UNL A   1      41.181  30.892  29.995  1.00  0.00     0.074 A 
ATOM     57  C   UNL A   1      46.490  30.575  26.513  1.00  0.00     0.029 A 
ATOM     58  N   UNL A   1      44.597  30.104  27.586  1.00  0.00    -0.354 N 
ATOM     59  N   UNL A   1      42.255  30.730  29.260  1.00  0.00    -0.248 NA
ATOM     60  C   UNL A   1      41.104  32.201  30.661  1.00  0.00     0.031 C 
ATOM     61  C   UNL A   1      46.108  31.697  27.254  1.00  0.00     0.029 A 
ATOM     62  C   UNL A   1      44.913  31.413  27.899  1.00  0.00     0.049 A 
ATOM     63  H   UNL A   1      43.801  29.621  27.907  1.00  0.00     0.167 HD
ATOM     64  C   UNL A   1      42.958  31.928  29.340  1.00  0.00     0.074 A 
ATOM     65  C   UNL A   1      42.191  32.805  30.201  1.00  0.00     0.031 C 
ATOM     66  C   UNL A   1      44.126  32.273  28.745  1.00  0.00     0.031 A 
BRANCH  53  67
ATOM     67  C   UNL A   1      46.742  27.737  25.462  1.00  0.00    -0.014 A 
ATOM     68  C   UNL A   1      46.833  27.982  24.082  1.00  0.00     0.009 A 
ATOM     69  C   UNL A   1      47.762  27.007  26.092  1.00  0.00     0.009 A 
ATOM     70  C   UNL A   1      47.901  27.467  23.343  1.00  0.00     0.001 A 
ATOM     71  C   UNL A   1      48.843  26.521  25.356  1.00  0.00     0.001 A 
ATOM     72  C   UNL A   1      48.905  26.740  23.981  1.00  0.00     0.000 A 
ENDBRANCH  53  67
BRANCH  54  73
ATOM     73  C   UNL A   1      38.885  30.338  31.083  1.00  0.00    -0.014 A 
ATOM     74  C   UNL A   1      38.906  30.113  32.468  1.00  0.00     0.009 A 
ATOM     75  C   UNL A   1      37.752  30.939  30.511  1.00  0.00     0.009 A 
ATOM     76  C   UNL A   1      37.810  30.465  33.259  1.00  0.00     0.001 A 
ATOM     77  C   UNL A   1      36.668  31.313  31.309  1.00  0.00     0.001 A 
ATOM     78  C   UNL A   1      36.696  31.070  32.681  1.00  0.00     0.000 A 
ENDBRANCH  54  73
BRANCH  66  79
ATOM     79  C   UNL A   1      44.624  33.677  28.941  1.00  0.00    -0.014 A 
ATOM     80  C   UNL A   1      45.152  34.105  30.168  1.00  0.00     0.009 A 
ATOM     81  C   UNL A   1      44.653  34.553  27.843  1.00  0.00     0.009 A 
ATOM     82  C   UNL A   1      45.686  35.389  30.293  1.00  0.00     0.001 A 
ATOM     83  C   UNL A   1      45.212  35.825  27.964  1.00  0.00     0.001 A 
ATOM     84  C   UNL A   1      45.725  36.244  29.189  1.00  0.00     0.000 A 
ENDBRANCH  66  79
ENDBRANCH  40  41
ENDBRANCH  33  35
ENDBRANCH  32  33
ENDBRANCH  31  32
ENDBRANCH  30  31
ENDBRANCH  29  30
ENDBRANCH  28  29
ENDBRANCH  27  28
ENDBRANCH  26  27
ENDBRANCH  25  26
ENDBRANCH   1  25
TORSDOF 28
ENDMDL
MODEL 3
REMARK VINA RESULT:      -7.2      6.701     10.178
REMARK SMILES CC[C@H](C)CN(CC)C(=O)NC[C@@](C)(O)C(=O)OCCOCCOCCOCCOC(=O)c1ccc(-c2c3nc(c(-c4ccccc4)c4ccc([nH]4)c(-c4ccccc4)c4nc(c(-c5ccccc5)c5ccc2[nH]5)C=C4)C=C3)cc1
REMARK SMILES IDX 22 1 21 2 20 3 19 4 18 5 16 6 17 7 13 8 14 9 12 10 11 11
REMARK SMILES IDX 9 12 10 13 6 15 5 16 3 17 4 18 2 19 1 20 7 21 8 22 15 23
REMARK SMILES IDX 23 25 24 26 25 27 26 28 27 29 28 30 29 31 30 32 31 33 32 34
REMARK SMILES IDX 33 35 34 36 80 37 35 38 79 39 36 40 37 41 38 42 73 43 39 44
REMARK SMILES IDX 78 45 72 46 74 47 40 48 77 49 71 50 70 51 41 53 63 54 48 55
REMARK SMILES IDX 62 56 49 57 52 58 61 59 75 60 50 61 51 62 60 64 76 65 53 66
REMARK SMILES IDX 42 67 43 68 47 69 44 70 46 71 45 72 64 73 65 74 69 75 66 76
REMARK SMILES IDX 68 77 67 78 54 79 55 80 59 81 56 82 58 83 57 84
REMARK H PARENT 11 14 15 24 74 52 52 63
REMARK Flexibility Score: inf
ROOT
ATOM      1  C   UNL A   1      36.574  21.056  25.397  1.00  0.00     0.188 C 
ENDROOT
BRANCH   1   2
ATOM      2  O   UNL A   1      35.264  21.072  25.954  1.00  0.00    -0.376 OA
BRANCH   2   3
ATOM      3  C   UNL A   1      34.221  20.685  25.071  1.00  0.00     0.202 C 
BRANCH   3   4
ATOM      4  C   UNL A   1      33.546  21.815  24.283  1.00  0.00     0.261 C 
BRANCH   4   5
ATOM      5  O   UNL A   1      32.860  22.782  25.095  1.00  0.00    -0.461 OA
BRANCH   5   6
ATOM      6  C   UNL A   1      31.806  23.444  24.561  1.00  0.00     0.339 C 
ATOM      7  O   UNL A   1      31.479  23.385  23.382  1.00  0.00    -0.249 OA
BRANCH   6   8
ATOM      8  C   UNL A   1      31.057  24.298  25.628  1.00  0.00     0.176 C 
ATOM      9  C   UNL A   1      30.460  23.321  26.641  1.00  0.00     0.057 C 
BRANCH   8  10
ATOM     10  C   UNL A   1      32.026  25.323  26.301  1.00  0.00     0.164 C 
BRANCH  10  11
ATOM     11  N   UNL A   1      33.108  25.790  25.456  1.00  0.00    -0.334 N 
ATOM     12  C   UNL A   1      33.391  26.979  24.892  1.00  0.00     0.317 C 
ATOM     13  O   UNL A   1      33.936  26.904  23.787  1.00  0.00    -0.249 OA
ATOM     14  H   UNL A   1      33.773  25.093  25.252  1.00  0.00     0.165 HD
BRANCH  12  15
ATOM     15  N   UNL A   1      33.152  28.182  25.504  1.00  0.00    -0.325 N 
BRANCH  15  16
ATOM     16  C   UNL A   1      33.743  28.350  26.850  1.00  0.00     0.124 C 
BRANCH  16  17
ATOM     17  C   UNL A   1      34.530  29.681  27.017  1.00  0.00     0.005 C 
ATOM     18  C   UNL A   1      33.614  30.872  27.318  1.00  0.00     0.009 C 
BRANCH  17  19
ATOM     19  C   UNL A   1      35.602  29.517  28.118  1.00  0.00     0.002 C 
ATOM     20  C   UNL A   1      36.999  29.941  27.678  1.00  0.00     0.004 C 
ENDBRANCH  17  19
ENDBRANCH  16  17
ENDBRANCH  15  16
BRANCH  15  21
ATOM     21  C   UNL A   1      32.207  29.231  25.102  1.00  0.00     0.118 C 
ATOM     22  C   UNL A   1      30.970  28.686  24.401  1.00  0.00     0.027 C 
ENDBRANCH  15  21
ENDBRANCH  12  15
ENDBRANCH  10  11
ENDBRANCH   8  10
BRANCH   8  23
ATOM     23  O   UNL A   1      29.928  25.008  25.096  1.00  0.00    -0.377 OA
ATOM     24  H   UNL A   1      29.134  24.458  25.173  1.00  0.00     0.212 HD
ENDBRANCH   8  23
ENDBRANCH   6   8
ENDBRANCH   5   6
ENDBRANCH   4   5
ENDBRANCH   3   4
ENDBRANCH   2   3
ENDBRANCH   1   2
BRANCH   1  25
ATOM     25  C   UNL A   1      37.229  22.448  25.360  1.00  0.00     0.188 C 
BRANCH  25  26
ATOM     26  O   UNL A   1      38.639  22.519  25.413  1.00  0.00    -0.377 OA
BRANCH  26  27
ATOM     27  C   UNL A   1      39.308  21.874  26.485  1.00  0.00     0.188 C 
BRANCH  27  28
ATOM     28  C   UNL A   1      40.043  20.527  26.287  1.00  0.00     0.188 C 
BRANCH  28  29
ATOM     29  O   UNL A   1      41.461  20.605  26.207  1.00  0.00    -0.376 OA
BRANCH  29  30
ATOM     30  C   UNL A   1      42.170  20.719  27.431  1.00  0.00     0.202 C 
BRANCH  30  31
ATOM     31  C   UNL A   1      42.299  22.155  27.950  1.00  0.00     0.261 C 
BRANCH  31  32
ATOM     32  O   UNL A   1      43.376  22.911  27.381  1.00  0.00    -0.460 OA
BRANCH  32  33
ATOM     33  C   UNL A   1      43.122  23.619  26.259  1.00  0.00     0.338 C 
ATOM     34  O   UNL A   1      42.290  23.387  25.400  1.00  0.00    -0.246 OA
BRANCH  33  35
ATOM     35  C   UNL A   1      43.924  24.850  26.348  1.00  0.00     0.060 A 
ATOM     36  C   UNL A   1      44.138  25.618  25.195  1.00  0.00     0.016 A 
ATOM     37  C   UNL A   1      44.402  25.271  27.591  1.00  0.00     0.016 A 
ATOM     38  C   UNL A   1      44.847  26.817  25.283  1.00  0.00     0.010 A 
ATOM     39  C   UNL A   1      45.138  26.449  27.671  1.00  0.00     0.010 A 
ATOM     40  C   UNL A   1      45.386  27.207  26.514  1.00  0.00    -0.014 A 
BRANCH  40  41
ATOM     41  C   UNL A   1      46.440  28.242  26.580  1.00  0.00     0.031 A 
ATOM     42  C   UNL A   1      45.988  29.668  26.699  1.00  0.00     0.074 A 
ATOM     43  C   UNL A   1      47.743  27.939  26.460  1.00  0.00     0.049 A 
ATOM     44  N   UNL A   1      46.680  30.772  26.603  1.00  0.00    -0.248 NA
ATOM     45  C   UNL A   1      44.549  29.874  26.943  1.00  0.00     0.031 C 
ATOM     46  C   UNL A   1      48.302  26.591  26.398  1.00  0.00     0.029 A 
ATOM     47  N   UNL A   1      48.830  28.765  26.349  1.00  0.00    -0.354 N 
ATOM     48  C   UNL A   1      45.757  31.800  26.746  1.00  0.00     0.074 A 
ATOM     49  C   UNL A   1      44.458  31.192  26.922  1.00  0.00     0.031 C 
ATOM     50  C   UNL A   1      49.637  26.684  26.246  1.00  0.00     0.029 A 
ATOM     51  C   UNL A   1      50.011  28.094  26.150  1.00  0.00     0.049 A 
ATOM     52  H   UNL A   1      48.771  29.747  26.406  1.00  0.00     0.167 HD
ATOM     53  C   UNL A   1      45.972  33.134  26.720  1.00  0.00     0.031 A 
ATOM     54  C   UNL A   1      51.243  28.572  25.887  1.00  0.00     0.031 A 
ATOM     55  C   UNL A   1      47.261  33.730  26.513  1.00  0.00     0.049 A 
ATOM     56  C   UNL A   1      51.444  30.061  25.764  1.00  0.00     0.074 A 
ATOM     57  C   UNL A   1      47.597  35.070  26.485  1.00  0.00     0.029 A 
ATOM     58  N   UNL A   1      48.427  33.015  26.283  1.00  0.00    -0.354 N 
ATOM     59  N   UNL A   1      50.574  31.030  25.921  1.00  0.00    -0.248 NA
ATOM     60  C   UNL A   1      52.797  30.522  25.418  1.00  0.00     0.031 C 
ATOM     61  C   UNL A   1      48.957  35.168  26.176  1.00  0.00     0.029 A 
ATOM     62  C   UNL A   1      49.480  33.886  26.080  1.00  0.00     0.049 A 
ATOM     63  H   UNL A   1      48.494  32.032  26.268  1.00  0.00     0.167 HD
ATOM     64  C   UNL A   1      51.282  32.213  25.737  1.00  0.00     0.074 A 
ATOM     65  C   UNL A   1      52.651  31.840  25.449  1.00  0.00     0.031 C 
ATOM     66  C   UNL A   1      50.839  33.493  25.811  1.00  0.00     0.031 A 
BRANCH  53  67
ATOM     67  C   UNL A   1      44.769  34.023  26.850  1.00  0.00    -0.014 A 
ATOM     68  C   UNL A   1      44.316  34.470  28.102  1.00  0.00     0.009 A 
ATOM     69  C   UNL A   1      44.068  34.407  25.697  1.00  0.00     0.009 A 
ATOM     70  C   UNL A   1      43.158  35.245  28.198  1.00  0.00     0.001 A 
ATOM     71  C   UNL A   1      42.929  35.208  25.793  1.00  0.00     0.001 A 
ATOM     72  C   UNL A   1      42.469  35.615  27.044  1.00  0.00     0.000 A 
ENDBRANCH  53  67
BRANCH  54  73
ATOM     73  C   UNL A   1      52.387  27.638  25.711  1.00  0.00    -0.014 A 
ATOM     74  C   UNL A   1      52.476  26.839  24.561  1.00  0.00     0.009 A 
ATOM     75  C   UNL A   1      53.389  27.532  26.689  1.00  0.00     0.009 A 
ATOM     76  C   UNL A   1      53.533  25.940  24.403  1.00  0.00     0.001 A 
ATOM     77  C   UNL A   1      54.459  26.651  26.516  1.00  0.00     0.001 A 
ATOM     78  C   UNL A   1      54.526  25.851  25.376  1.00  0.00     0.000 A 
ENDBRANCH  54  73
BRANCH  66  79
ATOM     79  C   UNL A   1      51.848  34.594  25.647  1.00  0.00    -0.014 A 
ATOM     80  C   UNL A   1      52.251  35.037  24.379  1.00  0.00     0.009 A 
ATOM     81  C   UNL A   1      52.324  35.261  26.787  1.00  0.00     0.009 A 
ATOM     82  C   UNL A   1      53.125  36.121  24.259  1.00  0.00     0.001 A 
ATOM     83  C   UNL A   1      53.175  36.360  26.663  1.00  0.00     0.001 A 
ATOM     84  C   UNL A   1      53.577  36.787  25.400  1.00  0.00     0.000 A 
ENDBRANCH  66  79
ENDBRANCH  40  41
ENDBRANCH  33  35
ENDBRANCH  32  33
ENDBRANCH  31  32
ENDBRANCH  30  31
ENDBRANCH  29  30
ENDBRANCH  28  29
ENDBRANCH  27  28
ENDBRANCH  26  27
ENDBRANCH  25  26
ENDBRANCH   1  25
TORSDOF 28
ENDMDL
