MODEL 1
REMARK VINA RESULT:      -9.5      0.000      0.000
REMARK SMILES O=C(COc1ccccc1Br)Nc1ccc(C(=O)OCCOCCOCCOCCOC(=O)c2ccc(-c3c4nc(c(-c5ccccc5)c5ccc([nH]5)c(-c5ccccc5)c5nc(c(-c6ccccc6)c6ccc3[nH]6)C=C5)C=C4)cc2)c(O)c1
REMARK SMILES IDX 24 1 23 2 22 3 21 4 20 5 19 6 17 7 18 8 16 9 13 10 14 11
REMARK SMILES IDX 84 12 15 13 82 14 12 15 1 16 2 17 3 19 4 20 5 21 6 22 10 23
REMARK SMILES IDX 7 24 9 25 11 26 8 27 83 28 25 30 26 31 27 32 28 33 29 34
REMARK SMILES IDX 30 35 31 36 32 37 33 38 34 39 35 40 81 41 36 42 80 43 37 44
REMARK SMILES IDX 38 45 39 46 74 47 40 48 79 49 73 50 75 51 41 52 78 53 72 54
REMARK SMILES IDX 71 55 42 57 64 58 49 59 63 60 50 61 53 62 62 63 76 64 51 65
REMARK SMILES IDX 52 66 61 68 77 69 54 70 43 71 44 72 48 73 45 74 47 75 46 76
REMARK SMILES IDX 65 77 66 78 70 79 67 80 69 81 68 82 55 83 56 84 60 85 57 86
REMARK SMILES IDX 59 87 58 88
REMARK H PARENT 12 18 83 29 75 56 53 67
REMARK Flexibility Score: inf
ROOT
ATOM      1  C   UNL A   1      34.322  23.649  23.373  1.00  0.00     0.188 C 
ENDROOT
BRANCH   1   2
ATOM      2  C   UNL A   1      33.026  23.307  22.612  1.00  0.00     0.188 C 
BRANCH   2   3
ATOM      3  O   UNL A   1      32.013  24.290  22.785  1.00  0.00    -0.376 OA
BRANCH   3   4
ATOM      4  C   UNL A   1      30.989  24.069  23.740  1.00  0.00     0.202 C 
BRANCH   4   5
ATOM      5  C   UNL A   1      31.045  24.748  25.121  1.00  0.00     0.261 C 
BRANCH   5   6
ATOM      6  O   UNL A   1      30.189  25.882  25.320  1.00  0.00    -0.460 OA
BRANCH   6   7
ATOM      7  C   UNL A   1      30.420  26.972  24.557  1.00  0.00     0.341 C 
ATOM      8  O   UNL A   1      29.940  27.203  23.462  1.00  0.00    -0.246 OA
BRANCH   7   9
ATOM      9  C   UNL A   1      31.194  27.946  25.365  1.00  0.00     0.101 A 
ATOM     10  C   UNL A   1      32.677  29.682  27.005  1.00  0.00     0.045 A 
ATOM     11  C   UNL A   1      32.219  28.466  27.509  1.00  0.00     0.027 A 
ATOM     12  C   UNL A   1      32.408  30.018  25.671  1.00  0.00     0.073 A 
ATOM     13  C   UNL A   1      31.458  27.614  26.701  1.00  0.00     0.022 A 
ATOM     14  C   UNL A   1      31.715  29.134  24.845  1.00  0.00     0.132 A 
BRANCH  10  15
ATOM     15  N   UNL A   1      33.477  30.580  27.729  1.00  0.00    -0.323 N 
ATOM     16  O   UNL A   1      35.664  29.900  27.257  1.00  0.00    -0.271 OA
ATOM     17  C   UNL A   1      34.858  30.694  27.729  1.00  0.00     0.262 C 
ATOM     18  H   UNL A   1      32.994  31.209  28.311  1.00  0.00     0.170 HD
BRANCH  17  19
ATOM     19  C   UNL A   1      35.314  31.998  28.398  1.00  0.00     0.329 C 
BRANCH  19  20
ATOM     20  O   UNL A   1      34.230  32.579  29.137  1.00  0.00    -0.483 OA
BRANCH  20  21
ATOM     21  C   UNL A   1      34.582  33.023  30.383  1.00  0.00     0.134 A 
ATOM     22  C   UNL A   1      35.256  32.106  31.195  1.00  0.00     0.047 A 
ATOM     23  C   UNL A   1      34.149  34.240  30.928  1.00  0.00     0.060 A 
ATOM     24  C   UNL A   1      35.498  32.401  32.539  1.00  0.00     0.004 A 
ATOM     25  C   UNL A   1      34.390  34.526  32.274  1.00  0.00     0.019 A 
ATOM     26  Br  UNL A   1      33.191  35.554  29.959  1.00  0.00    -0.047 Br
ATOM     27  C   UNL A   1      35.056  33.605  33.080  1.00  0.00     0.001 A 
ENDBRANCH  20  21
ENDBRANCH  19  20
ENDBRANCH  17  19
ENDBRANCH  10  15
BRANCH  14  28
ATOM     28  O   UNL A   1      31.637  29.479  23.524  1.00  0.00    -0.507 OA
ATOM     29  H   UNL A   1      32.355  29.297  22.949  1.00  0.00     0.293 HD
ENDBRANCH  14  28
ENDBRANCH   7   9
ENDBRANCH   6   7
ENDBRANCH   5   6
ENDBRANCH   4   5
ENDBRANCH   3   4
ENDBRANCH   2   3
ENDBRANCH   1   2
BRANCH   1  30
ATOM     30  O   UNL A   1      34.315  23.191  24.720  1.00  0.00    -0.377 OA
BRANCH  30  31
ATOM     31  C   UNL A   1      34.135  21.791  24.954  1.00  0.00     0.188 C 
BRANCH  31  32
ATOM     32  C   UNL A   1      35.308  20.777  24.927  1.00  0.00     0.188 C 
BRANCH  32  33
ATOM     33  O   UNL A   1      36.577  21.362  24.672  1.00  0.00    -0.376 OA
BRANCH  33  34
ATOM     34  C   UNL A   1      37.740  20.631  25.018  1.00  0.00     0.202 C 
BRANCH  34  35
ATOM     35  C   UNL A   1      38.848  21.430  25.712  1.00  0.00     0.261 C 
BRANCH  35  36
ATOM     36  O   UNL A   1      39.623  20.710  26.681  1.00  0.00    -0.460 OA
BRANCH  36  37
ATOM     37  C   UNL A   1      40.871  20.334  26.333  1.00  0.00     0.338 C 
ATOM     38  O   UNL A   1      41.203  19.335  25.719  1.00  0.00    -0.246 OA
BRANCH  37  39
ATOM     39  C   UNL A   1      41.771  21.449  26.688  1.00  0.00     0.060 A 
ATOM     40  C   UNL A   1      42.160  21.634  28.022  1.00  0.00     0.016 A 
ATOM     41  C   UNL A   1      42.251  22.292  25.684  1.00  0.00     0.016 A 
ATOM     42  C   UNL A   1      43.014  22.687  28.359  1.00  0.00     0.010 A 
ATOM     43  C   UNL A   1      43.087  23.354  26.025  1.00  0.00     0.010 A 
ATOM     44  C   UNL A   1      43.448  23.574  27.366  1.00  0.00    -0.014 A 
BRANCH  44  45
ATOM     45  C   UNL A   1      44.103  24.855  27.719  1.00  0.00     0.031 A 
ATOM     46  C   UNL A   1      43.232  25.966  28.238  1.00  0.00     0.074 A 
ATOM     47  C   UNL A   1      45.418  25.053  27.533  1.00  0.00     0.049 A 
ATOM     48  N   UNL A   1      43.527  27.221  28.455  1.00  0.00    -0.248 NA
ATOM     49  C   UNL A   1      41.835  25.611  28.539  1.00  0.00     0.031 C 
ATOM     50  C   UNL A   1      46.376  24.045  27.085  1.00  0.00     0.029 A 
ATOM     51  N   UNL A   1      46.170  26.193  27.678  1.00  0.00    -0.354 N 
ATOM     52  C   UNL A   1      42.348  27.810  28.895  1.00  0.00     0.074 A 
ATOM     53  C   UNL A   1      41.331  26.783  28.896  1.00  0.00     0.031 C 
ATOM     54  C   UNL A   1      47.588  24.617  26.970  1.00  0.00     0.029 A 
ATOM     55  C   UNL A   1      47.478  26.041  27.289  1.00  0.00     0.049 A 
ATOM     56  H   UNL A   1      45.806  27.039  28.028  1.00  0.00     0.167 HD
ATOM     57  C   UNL A   1      42.132  29.093  29.264  1.00  0.00     0.031 A 
ATOM     58  C   UNL A   1      48.461  26.955  27.165  1.00  0.00     0.031 A 
ATOM     59  C   UNL A   1      43.140  30.116  29.246  1.00  0.00     0.049 A 
ATOM     60  C   UNL A   1      48.172  28.400  27.494  1.00  0.00     0.074 A 
ATOM     61  C   UNL A   1      43.027  31.445  29.612  1.00  0.00     0.029 A 
ATOM     62  N   UNL A   1      44.448  29.924  28.827  1.00  0.00    -0.354 N 
ATOM     63  N   UNL A   1      47.062  28.945  27.928  1.00  0.00    -0.248 NA
ATOM     64  C   UNL A   1      49.277  29.355  27.315  1.00  0.00     0.031 C 
ATOM     65  C   UNL A   1      44.248  32.072  29.356  1.00  0.00     0.029 A 
ATOM     66  C   UNL A   1      45.144  31.117  28.899  1.00  0.00     0.049 A 
ATOM     67  H   UNL A   1      44.824  29.066  28.524  1.00  0.00     0.167 HD
ATOM     68  C   UNL A   1      47.345  30.294  28.111  1.00  0.00     0.074 A 
ATOM     69  C   UNL A   1      48.733  30.484  27.747  1.00  0.00     0.031 C 
ATOM     70  C   UNL A   1      46.529  31.286  28.547  1.00  0.00     0.031 A 
BRANCH  57  71
ATOM     71  C   UNL A   1      40.736  29.470  29.675  1.00  0.00    -0.014 A 
ATOM     72  C   UNL A   1      39.802  29.951  28.742  1.00  0.00     0.009 A 
ATOM     73  C   UNL A   1      40.341  29.313  31.012  1.00  0.00     0.009 A 
ATOM     74  C   UNL A   1      38.512  30.298  29.150  1.00  0.00     0.001 A 
ATOM     75  C   UNL A   1      39.042  29.630  31.411  1.00  0.00     0.001 A 
ATOM     76  C   UNL A   1      38.132  30.131  30.482  1.00  0.00     0.000 A 
ENDBRANCH  57  71
BRANCH  58  77
ATOM     77  C   UNL A   1      49.807  26.551  26.676  1.00  0.00    -0.014 A 
ATOM     78  C   UNL A   1      50.098  26.545  25.303  1.00  0.00     0.009 A 
ATOM     79  C   UNL A   1      50.800  26.136  27.578  1.00  0.00     0.009 A 
ATOM     80  C   UNL A   1      51.341  26.105  24.842  1.00  0.00     0.001 A 
ATOM     81  C   UNL A   1      52.053  25.727  27.117  1.00  0.00     0.001 A 
ATOM     82  C   UNL A   1      52.319  25.700  25.750  1.00  0.00     0.000 A 
ENDBRANCH  58  77
BRANCH  70  83
ATOM     83  C   UNL A   1      47.123  32.658  28.717  1.00  0.00    -0.014 A 
ATOM     84  C   UNL A   1      47.642  33.088  29.947  1.00  0.00     0.009 A 
ATOM     85  C   UNL A   1      47.235  33.501  27.600  1.00  0.00     0.009 A 
ATOM     86  C   UNL A   1      48.239  34.347  30.059  1.00  0.00     0.001 A 
ATOM     87  C   UNL A   1      47.859  34.743  27.707  1.00  0.00     0.001 A 
ATOM     88  C   UNL A   1      48.355  35.168  28.937  1.00  0.00     0.000 A 
ENDBRANCH  70  83
ENDBRANCH  44  45
ENDBRANCH  37  39
ENDBRANCH  36  37
ENDBRANCH  35  36
ENDBRANCH  34  35
ENDBRANCH  33  34
ENDBRANCH  32  33
ENDBRANCH  31  32
ENDBRANCH  30  31
ENDBRANCH   1  30
TORSDOF 25
ENDMDL
MODEL 2
REMARK VINA RESULT:      -8.8      2.486      3.982
REMARK SMILES O=C(COc1ccccc1Br)Nc1ccc(C(=O)OCCOCCOCCOCCOC(=O)c2ccc(-c3c4nc(c(-c5ccccc5)c5ccc([nH]5)c(-c5ccccc5)c5nc(c(-c6ccccc6)c6ccc3[nH]6)C=C5)C=C4)cc2)c(O)c1
REMARK SMILES IDX 24 1 23 2 22 3 21 4 20 5 19 6 17 7 18 8 16 9 13 10 14 11
REMARK SMILES IDX 84 12 15 13 82 14 12 15 1 16 2 17 3 19 4 20 5 21 6 22 10 23
REMARK SMILES IDX 7 24 9 25 11 26 8 27 83 28 25 30 26 31 27 32 28 33 29 34
REMARK SMILES IDX 30 35 31 36 32 37 33 38 34 39 35 40 81 41 36 42 80 43 37 44
REMARK SMILES IDX 38 45 39 46 74 47 40 48 79 49 73 50 75 51 41 52 78 53 72 54
REMARK SMILES IDX 71 55 42 57 64 58 49 59 63 60 50 61 53 62 62 63 76 64 51 65
REMARK SMILES IDX 52 66 61 68 77 69 54 70 43 71 44 72 48 73 45 74 47 75 46 76
REMARK SMILES IDX 65 77 66 78 70 79 67 80 69 81 68 82 55 83 56 84 60 85 57 86
REMARK SMILES IDX 59 87 58 88
REMARK H PARENT 12 18 83 29 75 56 53 67
REMARK Flexibility Score: inf
ROOT
ATOM      1  C   UNL A   1      34.898  22.657  23.814  1.00  0.00     0.188 C 
ENDROOT
BRANCH   1   2
ATOM      2  C   UNL A   1      33.962  22.142  24.925  1.00  0.00     0.188 C 
BRANCH   2   3
ATOM      3  O   UNL A   1      33.200  23.182  25.526  1.00  0.00    -0.376 OA
BRANCH   3   4
ATOM      4  C   UNL A   1      31.992  23.600  24.911  1.00  0.00     0.202 C 
BRANCH   4   5
ATOM      5  C   UNL A   1      31.245  24.846  25.419  1.00  0.00     0.261 C 
BRANCH   5   6
ATOM      6  O   UNL A   1      31.321  26.024  24.603  1.00  0.00    -0.460 OA
BRANCH   6   7
ATOM      7  C   UNL A   1      32.549  26.540  24.376  1.00  0.00     0.341 C 
ATOM      8  O   UNL A   1      33.327  26.197  23.505  1.00  0.00    -0.246 OA
BRANCH   7   9
ATOM      9  C   UNL A   1      32.712  27.740  25.233  1.00  0.00     0.101 A 
ATOM     10  C   UNL A   1      33.068  29.919  26.972  1.00  0.00     0.045 A 
ATOM     11  C   UNL A   1      33.118  28.617  27.465  1.00  0.00     0.027 A 
ATOM     12  C   UNL A   1      32.860  30.127  25.602  1.00  0.00     0.073 A 
ATOM     13  C   UNL A   1      32.914  27.533  26.605  1.00  0.00     0.022 A 
ATOM     14  C   UNL A   1      32.733  29.044  24.733  1.00  0.00     0.132 A 
BRANCH  10  15
ATOM     15  N   UNL A   1      33.299  31.063  27.752  1.00  0.00    -0.323 N 
ATOM     16  O   UNL A   1      35.601  31.425  27.563  1.00  0.00    -0.271 OA
ATOM     17  C   UNL A   1      34.478  31.774  27.910  1.00  0.00     0.262 C 
ATOM     18  H   UNL A   1      32.522  31.404  28.251  1.00  0.00     0.170 HD
BRANCH  17  19
ATOM     19  C   UNL A   1      34.230  33.132  28.580  1.00  0.00     0.329 C 
BRANCH  19  20
ATOM     20  O   UNL A   1      34.508  33.047  29.985  1.00  0.00    -0.483 OA
BRANCH  20  21
ATOM     21  C   UNL A   1      34.116  34.149  30.697  1.00  0.00     0.134 A 
ATOM     22  C   UNL A   1      33.400  35.117  29.987  1.00  0.00     0.047 A 
ATOM     23  C   UNL A   1      34.545  34.426  32.002  1.00  0.00     0.060 A 
ATOM     24  C   UNL A   1      33.112  36.351  30.575  1.00  0.00     0.004 A 
ATOM     25  C   UNL A   1      34.259  35.665  32.582  1.00  0.00     0.019 A 
ATOM     26  Br  UNL A   1      35.557  33.229  33.063  1.00  0.00    -0.047 Br
ATOM     27  C   UNL A   1      33.550  36.628  31.867  1.00  0.00     0.001 A 
ENDBRANCH  20  21
ENDBRANCH  19  20
ENDBRANCH  17  19
ENDBRANCH  10  15
BRANCH  14  28
ATOM     28  O   UNL A   1      32.690  29.343  23.399  1.00  0.00    -0.507 OA
ATOM     29  H   UNL A   1      33.460  29.251  22.873  1.00  0.00     0.293 HD
ENDBRANCH  14  28
ENDBRANCH   7   9
ENDBRANCH   6   7
ENDBRANCH   5   6
ENDBRANCH   4   5
ENDBRANCH   3   4
ENDBRANCH   2   3
ENDBRANCH   1   2
BRANCH   1  30
ATOM     30  O   UNL A   1      36.271  22.631  24.185  1.00  0.00    -0.377 OA
BRANCH  30  31
ATOM     31  C   UNL A   1      36.692  21.651  25.139  1.00  0.00     0.188 C 
BRANCH  31  32
ATOM     32  C   UNL A   1      38.185  21.330  25.410  1.00  0.00     0.188 C 
BRANCH  32  33
ATOM     33  O   UNL A   1      38.772  22.115  26.438  1.00  0.00    -0.376 OA
BRANCH  33  34
ATOM     34  C   UNL A   1      39.038  23.481  26.177  1.00  0.00     0.202 C 
BRANCH  34  35
ATOM     35  C   UNL A   1      40.093  24.137  27.074  1.00  0.00     0.261 C 
BRANCH  35  36
ATOM     36  O   UNL A   1      41.309  23.396  27.251  1.00  0.00    -0.460 OA
BRANCH  36  37
ATOM     37  C   UNL A   1      42.180  23.360  26.221  1.00  0.00     0.338 C 
ATOM     38  O   UNL A   1      42.179  22.595  25.273  1.00  0.00    -0.246 OA
BRANCH  37  39
ATOM     39  C   UNL A   1      43.055  24.542  26.357  1.00  0.00     0.060 A 
ATOM     40  C   UNL A   1      43.330  25.338  25.237  1.00  0.00     0.016 A 
ATOM     41  C   UNL A   1      43.575  24.873  27.610  1.00  0.00     0.016 A 
ATOM     42  C   UNL A   1      44.155  26.458  25.365  1.00  0.00     0.010 A 
ATOM     43  C   UNL A   1      44.413  25.979  27.732  1.00  0.00     0.010 A 
ATOM     44  C   UNL A   1      44.731  26.759  26.605  1.00  0.00    -0.014 A 
BRANCH  44  45
ATOM     45  C   UNL A   1      45.829  27.747  26.719  1.00  0.00     0.031 A 
ATOM     46  C   UNL A   1      45.455  29.202  26.801  1.00  0.00     0.074 A 
ATOM     47  C   UNL A   1      47.120  27.378  26.693  1.00  0.00     0.049 A 
ATOM     48  N   UNL A   1      46.218  30.261  26.736  1.00  0.00    -0.248 NA
ATOM     49  C   UNL A   1      44.020  29.496  26.965  1.00  0.00     0.031 C 
ATOM     50  C   UNL A   1      47.611  26.003  26.667  1.00  0.00     0.029 A 
ATOM     51  N   UNL A   1      48.258  28.145  26.658  1.00  0.00    -0.354 N 
ATOM     52  C   UNL A   1      45.356  31.347  26.828  1.00  0.00     0.074 A 
ATOM     53  C   UNL A   1      44.013  30.820  26.932  1.00  0.00     0.031 C 
ATOM     54  C   UNL A   1      48.955  26.023  26.598  1.00  0.00     0.029 A 
ATOM     55  C   UNL A   1      49.411  27.410  26.526  1.00  0.00     0.049 A 
ATOM     56  H   UNL A   1      48.249  29.128  26.723  1.00  0.00     0.167 HD
ATOM     57  C   UNL A   1      45.656  32.666  26.822  1.00  0.00     0.031 A 
ATOM     58  C   UNL A   1      50.682  27.814  26.327  1.00  0.00     0.031 A 
ATOM     59  C   UNL A   1      46.989  33.186  26.701  1.00  0.00     0.049 A 
ATOM     60  C   UNL A   1      50.982  29.291  26.233  1.00  0.00     0.074 A 
ATOM     61  C   UNL A   1      47.402  34.507  26.698  1.00  0.00     0.029 A 
ATOM     62  N   UNL A   1      48.127  32.409  26.550  1.00  0.00    -0.354 N 
ATOM     63  N   UNL A   1      50.165  30.311  26.339  1.00  0.00    -0.248 NA
ATOM     64  C   UNL A   1      52.383  29.669  25.988  1.00  0.00     0.031 C 
ATOM     65  C   UNL A   1      48.782  34.530  26.482  1.00  0.00     0.029 A 
ATOM     66  C   UNL A   1      49.239  33.222  26.424  1.00  0.00     0.049 A 
ATOM     67  H   UNL A   1      48.141  31.424  26.535  1.00  0.00     0.167 HD
ATOM     68  C   UNL A   1      50.957  31.447  26.216  1.00  0.00     0.074 A 
ATOM     69  C   UNL A   1      52.319  30.992  26.033  1.00  0.00     0.031 C 
ATOM     70  C   UNL A   1      50.589  32.752  26.258  1.00  0.00     0.031 A 
BRANCH  57  71
ATOM     71  C   UNL A   1      44.512  33.637  26.906  1.00  0.00    -0.014 A 
ATOM     72  C   UNL A   1      44.015  34.079  28.142  1.00  0.00     0.009 A 
ATOM     73  C   UNL A   1      43.942  34.139  25.726  1.00  0.00     0.009 A 
ATOM     74  C   UNL A   1      42.948  34.979  28.193  1.00  0.00     0.001 A 
ATOM     75  C   UNL A   1      42.898  35.063  25.779  1.00  0.00     0.001 A 
ATOM     76  C   UNL A   1      42.395  35.475  27.012  1.00  0.00     0.000 A 
ENDBRANCH  57  71
BRANCH  58  77
ATOM     77  C   UNL A   1      51.773  26.815  26.168  1.00  0.00    -0.014 A 
ATOM     78  C   UNL A   1      52.600  26.479  27.252  1.00  0.00     0.009 A 
ATOM     79  C   UNL A   1      52.016  26.214  24.923  1.00  0.00     0.009 A 
ATOM     80  C   UNL A   1      53.663  25.589  27.084  1.00  0.00     0.001 A 
ATOM     81  C   UNL A   1      53.058  25.300  24.766  1.00  0.00     0.001 A 
ATOM     82  C   UNL A   1      53.888  24.996  25.842  1.00  0.00     0.000 A 
ENDBRANCH  58  77
BRANCH  70  83
ATOM     83  C   UNL A   1      51.675  33.790  26.164  1.00  0.00    -0.014 A 
ATOM     84  C   UNL A   1      52.029  34.376  24.940  1.00  0.00     0.009 A 
ATOM     85  C   UNL A   1      52.295  34.243  27.340  1.00  0.00     0.009 A 
ATOM     86  C   UNL A   1      53.002  35.378  24.895  1.00  0.00     0.001 A 
ATOM     87  C   UNL A   1      53.242  35.265  27.295  1.00  0.00     0.001 A 
ATOM     88  C   UNL A   1      53.600  35.828  26.072  1.00  0.00     0.000 A 
ENDBRANCH  70  83
ENDBRANCH  44  45
ENDBRANCH  37  39
ENDBRANCH  36  37
ENDBRANCH  35  36
ENDBRANCH  34  35
ENDBRANCH  33  34
ENDBRANCH  32  33
ENDBRANCH  31  32
ENDBRANCH  30  31
ENDBRANCH   1  30
TORSDOF 25
ENDMDL
MODEL 3
REMARK VINA RESULT:      -8.2      5.796     11.741
REMARK SMILES O=C(COc1ccccc1Br)Nc1ccc(C(=O)OCCOCCOCCOCCOC(=O)c2ccc(-c3c4nc(c(-c5ccccc5)c5ccc([nH]5)c(-c5ccccc5)c5nc(c(-c6ccccc6)c6ccc3[nH]6)C=C5)C=C4)cc2)c(O)c1
REMARK SMILES IDX 24 1 23 2 22 3 21 4 20 5 19 6 17 7 18 8 16 9 13 10 14 11
REMARK SMILES IDX 84 12 15 13 82 14 12 15 1 16 2 17 3 19 4 20 5 21 6 22 10 23
REMARK SMILES IDX 7 24 9 25 11 26 8 27 83 28 25 30 26 31 27 32 28 33 29 34
REMARK SMILES IDX 30 35 31 36 32 37 33 38 34 39 35 40 81 41 36 42 80 43 37 44
REMARK SMILES IDX 38 45 39 46 74 47 40 48 79 49 73 50 75 51 41 52 78 53 72 54
REMARK SMILES IDX 71 55 42 57 64 58 49 59 63 60 50 61 53 62 62 63 76 64 51 65
REMARK SMILES IDX 52 66 61 68 77 69 54 70 43 71 44 72 48 73 45 74 47 75 46 76
REMARK SMILES IDX 65 77 66 78 70 79 67 80 69 81 68 82 55 83 56 84 60 85 57 86
REMARK SMILES IDX 59 87 58 88
REMARK H PARENT 12 18 83 29 75 56 53 67
REMARK Flexibility Score: inf
ROOT
ATOM      1  C   UNL A   1      30.973  26.695  26.023  1.00  0.00     0.188 C 
ENDROOT
BRANCH   1   2
ATOM      2  C   UNL A   1      30.523  26.270  24.612  1.00  0.00     0.188 C 
BRANCH   2   3
ATOM      3  O   UNL A   1      30.899  24.936  24.294  1.00  0.00    -0.376 OA
BRANCH   3   4
ATOM      4  C   UNL A   1      31.209  24.604  22.951  1.00  0.00     0.202 C 
BRANCH   4   5
ATOM      5  C   UNL A   1      32.668  24.613  22.459  1.00  0.00     0.261 C 
BRANCH   5   6
ATOM      6  O   UNL A   1      33.273  23.338  22.203  1.00  0.00    -0.460 OA
BRANCH   6   7
ATOM      7  C   UNL A   1      33.287  22.446  23.218  1.00  0.00     0.341 C 
ATOM      8  O   UNL A   1      32.593  21.450  23.314  1.00  0.00    -0.246 OA
BRANCH   7   9
ATOM      9  C   UNL A   1      34.436  22.766  24.099  1.00  0.00     0.101 A 
ATOM     10  C   UNL A   1      36.692  23.422  25.643  1.00  0.00     0.045 A 
ATOM     11  C   UNL A   1      36.779  23.402  24.252  1.00  0.00     0.027 A 
ATOM     12  C   UNL A   1      35.466  23.132  26.258  1.00  0.00     0.073 A 
ATOM     13  C   UNL A   1      35.664  23.050  23.485  1.00  0.00     0.022 A 
ATOM     14  C   UNL A   1      34.336  22.856  25.490  1.00  0.00     0.132 A 
BRANCH  10  15
ATOM     15  N   UNL A   1      37.745  23.799  26.490  1.00  0.00    -0.323 N 
ATOM     16  O   UNL A   1      39.347  22.123  26.186  1.00  0.00    -0.271 OA
ATOM     17  C   UNL A   1      38.993  23.211  26.627  1.00  0.00     0.262 C 
ATOM     18  H   UNL A   1      37.576  24.583  27.060  1.00  0.00     0.170 HD
BRANCH  17  19
ATOM     19  C   UNL A   1      39.956  24.112  27.410  1.00  0.00     0.329 C 
BRANCH  19  20
ATOM     20  O   UNL A   1      40.515  25.109  26.543  1.00  0.00    -0.483 OA
BRANCH  20  21
ATOM     21  C   UNL A   1      40.401  26.388  27.019  1.00  0.00     0.134 A 
ATOM     22  C   UNL A   1      39.396  26.603  27.967  1.00  0.00     0.047 A 
ATOM     23  C   UNL A   1      41.091  27.483  26.483  1.00  0.00     0.060 A 
ATOM     24  C   UNL A   1      39.083  27.902  28.377  1.00  0.00     0.004 A 
ATOM     25  C   UNL A   1      40.770  28.780  26.895  1.00  0.00     0.019 A 
ATOM     26  Br  UNL A   1      42.443  27.344  25.165  1.00  0.00    -0.047 Br
ATOM     27  C   UNL A   1      39.762  28.989  27.835  1.00  0.00     0.001 A 
ENDBRANCH  20  21
ENDBRANCH  19  20
ENDBRANCH  17  19
ENDBRANCH  10  15
BRANCH  14  28
ATOM     28  O   UNL A   1      33.157  22.740  26.173  1.00  0.00    -0.507 OA
ATOM     29  H   UNL A   1      32.351  22.980  25.759  1.00  0.00     0.293 HD
ENDBRANCH  14  28
ENDBRANCH   7   9
ENDBRANCH   6   7
ENDBRANCH   5   6
ENDBRANCH   4   5
ENDBRANCH   3   4
ENDBRANCH   2   3
ENDBRANCH   1   2
BRANCH   1  30
ATOM     30  O   UNL A   1      31.612  27.965  26.046  1.00  0.00    -0.377 OA
BRANCH  30  31
ATOM     31  C   UNL A   1      32.797  28.107  26.836  1.00  0.00     0.188 C 
BRANCH  31  32
ATOM     32  C   UNL A   1      33.135  29.405  27.616  1.00  0.00     0.188 C 
BRANCH  32  33
ATOM     33  O   UNL A   1      33.947  30.322  26.896  1.00  0.00    -0.376 OA
BRANCH  33  34
ATOM     34  C   UNL A   1      35.114  30.825  27.520  1.00  0.00     0.202 C 
BRANCH  34  35
ATOM     35  C   UNL A   1      34.986  32.219  28.145  1.00  0.00     0.261 C 
BRANCH  35  36
ATOM     36  O   UNL A   1      34.553  32.252  29.512  1.00  0.00    -0.460 OA
BRANCH  36  37
ATOM     37  C   UNL A   1      34.351  33.460  30.079  1.00  0.00     0.338 C 
ATOM     38  O   UNL A   1      33.503  34.286  29.789  1.00  0.00    -0.246 OA
BRANCH  37  39
ATOM     39  C   UNL A   1      35.248  33.540  31.250  1.00  0.00     0.060 A 
ATOM     40  C   UNL A   1      35.249  34.692  32.049  1.00  0.00     0.016 A 
ATOM     41  C   UNL A   1      36.064  32.453  31.568  1.00  0.00     0.016 A 
ATOM     42  C   UNL A   1      36.093  34.768  33.159  1.00  0.00     0.010 A 
ATOM     43  C   UNL A   1      36.920  32.538  32.664  1.00  0.00     0.010 A 
ATOM     44  C   UNL A   1      36.961  33.706  33.447  1.00  0.00    -0.014 A 
BRANCH  44  45
ATOM     45  C   UNL A   1      38.065  33.863  34.422  1.00  0.00     0.031 A 
ATOM     46  C   UNL A   1      39.444  34.122  33.881  1.00  0.00     0.074 A 
ATOM     47  C   UNL A   1      37.867  33.726  35.743  1.00  0.00     0.049 A 
ATOM     48  N   UNL A   1      40.593  34.129  34.504  1.00  0.00    -0.248 NA
ATOM     49  C   UNL A   1      39.536  34.396  32.436  1.00  0.00     0.031 C 
ATOM     50  C   UNL A   1      36.576  33.525  36.394  1.00  0.00     0.029 A 
ATOM     51  N   UNL A   1      38.773  33.710  36.775  1.00  0.00    -0.354 N 
ATOM     52  C   UNL A   1      41.546  34.384  33.526  1.00  0.00     0.074 A 
ATOM     53  C   UNL A   1      40.845  34.506  32.267  1.00  0.00     0.031 C 
ATOM     54  C   UNL A   1      36.773  33.383  37.718  1.00  0.00     0.029 A 
ATOM     55  C   UNL A   1      38.208  33.435  37.997  1.00  0.00     0.049 A 
ATOM     56  H   UNL A   1      39.736  33.880  36.652  1.00  0.00     0.167 HD
ATOM     57  C   UNL A   1      42.886  34.503  33.663  1.00  0.00     0.031 A 
ATOM     58  C   UNL A   1      38.789  33.210  39.192  1.00  0.00     0.031 A 
ATOM     59  C   UNL A   1      43.582  34.364  34.912  1.00  0.00     0.049 A 
ATOM     60  C   UNL A   1      40.293  33.258  39.304  1.00  0.00     0.074 A 
ATOM     61  C   UNL A   1      44.938  34.479  35.161  1.00  0.00     0.029 A 
ATOM     62  N   UNL A   1      42.975  34.067  36.122  1.00  0.00    -0.354 N 
ATOM     63  N   UNL A   1      41.185  33.518  38.380  1.00  0.00    -0.248 NA
ATOM     64  C   UNL A   1      40.870  32.977  40.629  1.00  0.00     0.031 C 
ATOM     65  C   UNL A   1      45.158  34.190  36.510  1.00  0.00     0.029 A 
ATOM     66  C   UNL A   1      43.932  33.967  37.116  1.00  0.00     0.049 A 
ATOM     67  H   UNL A   1      42.006  33.946  36.254  1.00  0.00     0.167 HD
ATOM     68  C   UNL A   1      42.420  33.474  39.017  1.00  0.00     0.074 A 
ATOM     69  C   UNL A   1      42.163  33.167  40.409  1.00  0.00     0.031 C 
ATOM     70  C   UNL A   1      43.656  33.676  38.498  1.00  0.00     0.031 A 
BRANCH  57  71
ATOM     71  C   UNL A   1      43.691  34.754  32.418  1.00  0.00    -0.014 A 
ATOM     72  C   UNL A   1      44.225  33.696  31.665  1.00  0.00     0.009 A 
ATOM     73  C   UNL A   1      43.891  36.071  31.977  1.00  0.00     0.009 A 
ATOM     74  C   UNL A   1      44.973  33.956  30.514  1.00  0.00     0.001 A 
ATOM     75  C   UNL A   1      44.611  36.327  30.809  1.00  0.00     0.001 A 
ATOM     76  C   UNL A   1      45.159  35.270  30.084  1.00  0.00     0.000 A 
ENDBRANCH  57  71
BRANCH  58  77
ATOM     77  C   UNL A   1      37.957  32.884  40.383  1.00  0.00    -0.014 A 
ATOM     78  C   UNL A   1      37.484  33.902  41.225  1.00  0.00     0.009 A 
ATOM     79  C   UNL A   1      37.659  31.550  40.702  1.00  0.00     0.009 A 
ATOM     80  C   UNL A   1      36.757  33.589  42.377  1.00  0.00     0.001 A 
ATOM     81  C   UNL A   1      36.905  31.242  41.836  1.00  0.00     0.001 A 
ATOM     82  C   UNL A   1      36.465  32.259  42.679  1.00  0.00     0.000 A 
ENDBRANCH  58  77
BRANCH  70  83
ATOM     83  C   UNL A   1      44.828  33.633  39.442  1.00  0.00    -0.014 A 
ATOM     84  C   UNL A   1      45.485  32.432  39.746  1.00  0.00     0.009 A 
ATOM     85  C   UNL A   1      45.329  34.835  39.969  1.00  0.00     0.009 A 
ATOM     86  C   UNL A   1      46.606  32.434  40.580  1.00  0.00     0.001 A 
ATOM     87  C   UNL A   1      46.467  34.837  40.776  1.00  0.00     0.001 A 
ATOM     88  C   UNL A   1      47.100  33.636  41.086  1.00  0.00     0.000 A 
ENDBRANCH  70  83
ENDBRANCH  44  45
ENDBRANCH  37  39
ENDBRANCH  36  37
ENDBRANCH  35  36
ENDBRANCH  34  35
ENDBRANCH  33  34
ENDBRANCH  32  33
ENDBRANCH  31  32
ENDBRANCH  30  31
ENDBRANCH   1  30
TORSDOF 25
ENDMDL
