MODEL 1
REMARK VINA RESULT:      -8.4      0.000      0.000
REMARK SMILES O=C(CS[C@@H]1CCS(=O)(=O)C1)Nc1nc(CC(=O)OCCOCCOCCOCCOC(=O)c2ccc(-c3c4nc(c(-c5ccccc5)c5ccc([nH]5)c(-c5ccccc5)c5nc(c(-c6ccccc6)c6ccc3[nH]6)C=C5)C=C4)cc2)cs1
REMARK SMILES IDX 23 1 22 2 21 3 20 4 19 5 17 6 18 7 16 8 15 9 13 10 14 11
REMARK SMILES IDX 83 12 82 13 12 14 1 15 2 16 3 18 4 19 5 20 6 21 11 22 7 23
REMARK SMILES IDX 8 24 9 25 10 26 24 27 25 28 26 29 27 30 28 31 29 32 30 33
REMARK SMILES IDX 31 34 32 35 33 36 34 37 35 38 81 39 36 40 80 41 37 42 38 43
REMARK SMILES IDX 39 44 74 45 40 46 79 47 73 48 75 49 41 50 78 51 72 52 71 53
REMARK SMILES IDX 42 55 64 56 49 57 63 58 50 59 53 60 62 61 76 62 51 63 52 64
REMARK SMILES IDX 61 66 77 67 54 68 43 69 44 70 48 71 45 72 47 73 46 74 65 75
REMARK SMILES IDX 66 76 70 77 67 78 69 79 68 80 55 81 56 82 60 83 57 84 59 85
REMARK SMILES IDX 58 86
REMARK H PARENT 12 17 75 54 53 65
REMARK Flexibility Score: inf
ROOT
ATOM      1  C   UNL A   1      32.904  35.340  30.050  1.00  0.00     0.188 C 
ENDROOT
BRANCH   1   2
ATOM      2  O   UNL A   1      33.840  34.381  29.581  1.00  0.00    -0.376 OA
BRANCH   2   3
ATOM      3  C   UNL A   1      35.004  34.100  30.341  1.00  0.00     0.202 C 
BRANCH   3   4
ATOM      4  C   UNL A   1      35.192  32.703  30.974  1.00  0.00     0.261 C 
BRANCH   4   5
ATOM      5  O   UNL A   1      36.496  32.077  30.863  1.00  0.00    -0.463 OA
BRANCH   5   6
ATOM      6  C   UNL A   1      37.011  31.951  29.616  1.00  0.00     0.311 C 
ATOM      7  O   UNL A   1      37.677  32.836  29.077  1.00  0.00    -0.252 OA
BRANCH   6   8
ATOM      8  C   UNL A   1      36.755  30.648  28.875  1.00  0.00     0.179 C 
BRANCH   8   9
ATOM      9  C   UNL A   1      35.495  30.415  28.091  1.00  0.00     0.065 A 
ATOM     10  C   UNL A   1      34.025  29.127  27.056  1.00  0.00     0.189 A 
ATOM     11  N   UNL A   1      35.205  29.134  27.625  1.00  0.00    -0.224 NA
ATOM     12  S   UNL A   1      33.267  30.641  26.871  1.00  0.00    -0.105 S 
ATOM     13  C   UNL A   1      34.416  31.285  27.972  1.00  0.00     0.093 A 
BRANCH  10  14
ATOM     14  N   UNL A   1      33.229  28.068  26.711  1.00  0.00    -0.301 N 
ATOM     15  O   UNL A   1      34.029  27.962  24.529  1.00  0.00    -0.274 OA
ATOM     16  C   UNL A   1      33.311  27.547  25.436  1.00  0.00     0.236 C 
ATOM     17  H   UNL A   1      32.603  27.684  27.366  1.00  0.00     0.172 HD
BRANCH  16  18
ATOM     18  C   UNL A   1      32.464  26.309  25.209  1.00  0.00     0.170 C 
BRANCH  18  19
ATOM     19  S   UNL A   1      30.691  26.539  25.588  1.00  0.00    -0.148 SA
BRANCH  19  20
ATOM     20  C   UNL A   1      29.892  26.192  23.959  1.00  0.00     0.063 C 
ATOM     21  C   UNL A   1      30.964  26.168  22.850  1.00  0.00     0.031 C 
ATOM     22  C   UNL A   1      28.920  27.275  23.501  1.00  0.00     0.151 C 
ATOM     23  C   UNL A   1      31.362  27.609  22.517  1.00  0.00     0.138 C 
ATOM     24  S   UNL A   1      29.945  28.616  22.930  1.00  0.00     0.151 S 
ATOM     25  O   UNL A   1      30.278  29.456  24.064  1.00  0.00    -0.229 OA
ATOM     26  O   UNL A   1      29.366  29.161  21.721  1.00  0.00    -0.229 OA
ENDBRANCH  19  20
ENDBRANCH  18  19
ENDBRANCH  16  18
ENDBRANCH  10  14
ENDBRANCH   8   9
ENDBRANCH   6   8
ENDBRANCH   5   6
ENDBRANCH   4   5
ENDBRANCH   3   4
ENDBRANCH   2   3
ENDBRANCH   1   2
BRANCH   1  27
ATOM     27  C   UNL A   1      33.278  36.828  30.109  1.00  0.00     0.188 C 
BRANCH  27  28
ATOM     28  O   UNL A   1      32.810  37.548  31.227  1.00  0.00    -0.377 OA
BRANCH  28  29
ATOM     29  C   UNL A   1      33.747  37.852  32.239  1.00  0.00     0.188 C 
BRANCH  29  30
ATOM     30  C   UNL A   1      33.905  36.828  33.371  1.00  0.00     0.188 C 
BRANCH  30  31
ATOM     31  O   UNL A   1      34.906  35.849  33.114  1.00  0.00    -0.376 OA
BRANCH  31  32
ATOM     32  C   UNL A   1      35.160  34.859  34.101  1.00  0.00     0.202 C 
BRANCH  32  33
ATOM     33  C   UNL A   1      36.546  34.190  34.104  1.00  0.00     0.261 C 
BRANCH  33  34
ATOM     34  O   UNL A   1      36.588  32.781  34.377  1.00  0.00    -0.460 OA
BRANCH  34  35
ATOM     35  C   UNL A   1      37.455  32.335  35.314  1.00  0.00     0.338 C 
ATOM     36  O   UNL A   1      37.307  32.338  36.514  1.00  0.00    -0.246 OA
BRANCH  35  37
ATOM     37  C   UNL A   1      38.555  31.642  34.602  1.00  0.00     0.060 A 
ATOM     38  C   UNL A   1      39.875  31.867  35.017  1.00  0.00     0.016 A 
ATOM     39  C   UNL A   1      38.287  30.766  33.547  1.00  0.00     0.016 A 
ATOM     40  C   UNL A   1      40.933  31.242  34.355  1.00  0.00     0.010 A 
ATOM     41  C   UNL A   1      39.349  30.161  32.869  1.00  0.00     0.010 A 
ATOM     42  C   UNL A   1      40.678  30.422  33.250  1.00  0.00    -0.014 A 
BRANCH  42  43
ATOM     43  C   UNL A   1      41.797  30.008  32.367  1.00  0.00     0.031 A 
ATOM     44  C   UNL A   1      42.495  28.710  32.665  1.00  0.00     0.074 A 
ATOM     45  C   UNL A   1      42.179  30.754  31.315  1.00  0.00     0.049 A 
ATOM     46  N   UNL A   1      43.520  28.159  32.068  1.00  0.00    -0.248 NA
ATOM     47  C   UNL A   1      41.965  27.929  33.796  1.00  0.00     0.031 C 
ATOM     48  C   UNL A   1      41.555  32.005  30.891  1.00  0.00     0.029 A 
ATOM     49  N   UNL A   1      43.198  30.560  30.416  1.00  0.00    -0.354 N 
ATOM     50  C   UNL A   1      43.764  26.977  32.755  1.00  0.00     0.074 A 
ATOM     51  C   UNL A   1      42.800  26.903  33.831  1.00  0.00     0.031 C 
ATOM     52  C   UNL A   1      42.216  32.475  29.816  1.00  0.00     0.029 A 
ATOM     53  C   UNL A   1      43.326  31.577  29.502  1.00  0.00     0.049 A 
ATOM     54  H   UNL A   1      43.782  29.768  30.425  1.00  0.00     0.167 HD
ATOM     55  C   UNL A   1      44.705  26.034  32.514  1.00  0.00     0.031 A 
ATOM     56  C   UNL A   1      44.250  31.773  28.540  1.00  0.00     0.031 A 
ATOM     57  C   UNL A   1      45.678  26.117  31.457  1.00  0.00     0.049 A 
ATOM     58  C   UNL A   1      45.340  30.751  28.342  1.00  0.00     0.074 A 
ATOM     59  C   UNL A   1      46.661  25.205  31.119  1.00  0.00     0.029 A 
ATOM     60  N   UNL A   1      45.796  27.182  30.578  1.00  0.00    -0.354 N 
ATOM     61  N   UNL A   1      45.542  29.620  28.977  1.00  0.00    -0.248 NA
ATOM     62  C   UNL A   1      46.328  31.031  27.289  1.00  0.00     0.031 C 
ATOM     63  C   UNL A   1      47.421  25.750  30.079  1.00  0.00     0.029 A 
ATOM     64  C   UNL A   1      46.861  26.967  29.720  1.00  0.00     0.049 A 
ATOM     65  H   UNL A   1      45.211  27.974  30.566  1.00  0.00     0.167 HD
ATOM     66  C   UNL A   1      46.656  29.041  28.378  1.00  0.00     0.074 A 
ATOM     67  C   UNL A   1      47.077  29.937  27.321  1.00  0.00     0.031 C 
ATOM     68  C   UNL A   1      47.271  27.869  28.674  1.00  0.00     0.031 A 
BRANCH  55  69
ATOM     69  C   UNL A   1      44.758  24.856  33.446  1.00  0.00    -0.014 A 
ATOM     70  C   UNL A   1      44.100  23.651  33.148  1.00  0.00     0.009 A 
ATOM     71  C   UNL A   1      45.499  24.946  34.636  1.00  0.00     0.009 A 
ATOM     72  C   UNL A   1      44.151  22.578  34.041  1.00  0.00     0.001 A 
ATOM     73  C   UNL A   1      45.575  23.862  35.509  1.00  0.00     0.001 A 
ATOM     74  C   UNL A   1      44.893  22.682  35.218  1.00  0.00     0.000 A 
ENDBRANCH  55  69
BRANCH  56  75
ATOM     75  C   UNL A   1      44.207  33.002  27.702  1.00  0.00    -0.014 A 
ATOM     76  C   UNL A   1      44.567  34.250  28.233  1.00  0.00     0.009 A 
ATOM     77  C   UNL A   1      43.778  32.934  26.366  1.00  0.00     0.009 A 
ATOM     78  C   UNL A   1      44.475  35.406  27.453  1.00  0.00     0.001 A 
ATOM     79  C   UNL A   1      43.718  34.087  25.579  1.00  0.00     0.001 A 
ATOM     80  C   UNL A   1      44.056  35.322  26.126  1.00  0.00     0.000 A 
ENDBRANCH  56  75
BRANCH  68  81
ATOM     81  C   UNL A   1      48.441  27.463  27.817  1.00  0.00    -0.014 A 
ATOM     82  C   UNL A   1      49.757  27.811  28.157  1.00  0.00     0.009 A 
ATOM     83  C   UNL A   1      48.221  26.673  26.677  1.00  0.00     0.009 A 
ATOM     84  C   UNL A   1      50.825  27.407  27.351  1.00  0.00     0.001 A 
ATOM     85  C   UNL A   1      49.292  26.242  25.892  1.00  0.00     0.001 A 
ATOM     86  C   UNL A   1      50.592  26.619  26.225  1.00  0.00     0.000 A 
ENDBRANCH  68  81
ENDBRANCH  42  43
ENDBRANCH  35  37
ENDBRANCH  34  35
ENDBRANCH  33  34
ENDBRANCH  32  33
ENDBRANCH  31  32
ENDBRANCH  30  31
ENDBRANCH  29  30
ENDBRANCH  28  29
ENDBRANCH  27  28
ENDBRANCH   1  27
TORSDOF 25
ENDMDL
MODEL 2
REMARK VINA RESULT:      -8.2      1.730      2.479
REMARK SMILES O=C(CS[C@@H]1CCS(=O)(=O)C1)Nc1nc(CC(=O)OCCOCCOCCOCCOC(=O)c2ccc(-c3c4nc(c(-c5ccccc5)c5ccc([nH]5)c(-c5ccccc5)c5nc(c(-c6ccccc6)c6ccc3[nH]6)C=C5)C=C4)cc2)cs1
REMARK SMILES IDX 23 1 22 2 21 3 20 4 19 5 17 6 18 7 16 8 15 9 13 10 14 11
REMARK SMILES IDX 83 12 82 13 12 14 1 15 2 16 3 18 4 19 5 20 6 21 11 22 7 23
REMARK SMILES IDX 8 24 9 25 10 26 24 27 25 28 26 29 27 30 28 31 29 32 30 33
REMARK SMILES IDX 31 34 32 35 33 36 34 37 35 38 81 39 36 40 80 41 37 42 38 43
REMARK SMILES IDX 39 44 74 45 40 46 79 47 73 48 75 49 41 50 78 51 72 52 71 53
REMARK SMILES IDX 42 55 64 56 49 57 63 58 50 59 53 60 62 61 76 62 51 63 52 64
REMARK SMILES IDX 61 66 77 67 54 68 43 69 44 70 48 71 45 72 47 73 46 74 65 75
REMARK SMILES IDX 66 76 70 77 67 78 69 79 68 80 55 81 56 82 60 83 57 84 59 85
REMARK SMILES IDX 58 86
REMARK H PARENT 12 17 75 54 53 65
REMARK Flexibility Score: inf
ROOT
ATOM      1  C   UNL A   1      32.903  35.430  29.994  1.00  0.00     0.188 C 
ENDROOT
BRANCH   1   2
ATOM      2  O   UNL A   1      33.924  34.582  29.487  1.00  0.00    -0.376 OA
BRANCH   2   3
ATOM      3  C   UNL A   1      34.921  34.077  30.362  1.00  0.00     0.202 C 
BRANCH   3   4
ATOM      4  C   UNL A   1      34.974  32.566  30.679  1.00  0.00     0.261 C 
BRANCH   4   5
ATOM      5  O   UNL A   1      36.214  31.860  30.418  1.00  0.00    -0.463 OA
BRANCH   5   6
ATOM      6  C   UNL A   1      36.764  32.022  29.189  1.00  0.00     0.311 C 
ATOM      7  O   UNL A   1      37.360  33.046  28.855  1.00  0.00    -0.252 OA
BRANCH   6   8
ATOM      8  C   UNL A   1      36.640  30.871  28.204  1.00  0.00     0.179 C 
BRANCH   8   9
ATOM      9  C   UNL A   1      35.311  30.436  27.654  1.00  0.00     0.065 A 
ATOM     10  C   UNL A   1      33.873  28.913  26.944  1.00  0.00     0.189 A 
ATOM     11  N   UNL A   1      35.118  29.100  27.307  1.00  0.00    -0.224 NA
ATOM     12  S   UNL A   1      32.907  30.310  26.816  1.00  0.00    -0.105 S 
ATOM     13  C   UNL A   1      34.124  31.160  27.676  1.00  0.00     0.093 A 
BRANCH  10  14
ATOM     14  N   UNL A   1      33.175  27.746  26.790  1.00  0.00    -0.301 N 
ATOM     15  O   UNL A   1      33.424  27.708  24.476  1.00  0.00    -0.274 OA
ATOM     16  C   UNL A   1      33.016  27.215  25.526  1.00  0.00     0.236 C 
ATOM     17  H   UNL A   1      32.789  27.291  27.572  1.00  0.00     0.172 HD
BRANCH  16  18
ATOM     18  C   UNL A   1      32.323  25.865  25.495  1.00  0.00     0.170 C 
BRANCH  18  19
ATOM     19  S   UNL A   1      33.407  24.460  25.930  1.00  0.00    -0.148 SA
BRANCH  19  20
ATOM     20  C   UNL A   1      32.224  23.279  26.716  1.00  0.00     0.063 C 
ATOM     21  C   UNL A   1      32.980  22.366  27.702  1.00  0.00     0.031 C 
ATOM     22  C   UNL A   1      31.579  22.302  25.738  1.00  0.00     0.151 C 
ATOM     23  C   UNL A   1      33.743  21.303  26.905  1.00  0.00     0.138 C 
ATOM     24  S   UNL A   1      32.840  21.097  25.377  1.00  0.00     0.151 S 
ATOM     25  O   UNL A   1      33.649  21.592  24.281  1.00  0.00    -0.229 OA
ATOM     26  O   UNL A   1      32.232  19.785  25.344  1.00  0.00    -0.229 OA
ENDBRANCH  19  20
ENDBRANCH  18  19
ENDBRANCH  16  18
ENDBRANCH  10  14
ENDBRANCH   8   9
ENDBRANCH   6   8
ENDBRANCH   5   6
ENDBRANCH   4   5
ENDBRANCH   3   4
ENDBRANCH   2   3
ENDBRANCH   1   2
BRANCH   1  27
ATOM     27  C   UNL A   1      33.191  36.913  30.269  1.00  0.00     0.188 C 
BRANCH  27  28
ATOM     28  O   UNL A   1      32.822  37.396  31.542  1.00  0.00    -0.377 OA
BRANCH  28  29
ATOM     29  C   UNL A   1      33.858  37.596  32.482  1.00  0.00     0.188 C 
BRANCH  29  30
ATOM     30  C   UNL A   1      33.929  36.614  33.658  1.00  0.00     0.188 C 
BRANCH  30  31
ATOM     31  O   UNL A   1      34.505  35.359  33.314  1.00  0.00    -0.376 OA
BRANCH  31  32
ATOM     32  C   UNL A   1      35.136  34.596  34.334  1.00  0.00     0.202 C 
BRANCH  32  33
ATOM     33  C   UNL A   1      36.334  33.717  33.934  1.00  0.00     0.261 C 
BRANCH  33  34
ATOM     34  O   UNL A   1      36.675  32.638  34.818  1.00  0.00    -0.460 OA
BRANCH  34  35
ATOM     35  C   UNL A   1      37.809  32.740  35.546  1.00  0.00     0.338 C 
ATOM     36  O   UNL A   1      37.928  33.188  36.663  1.00  0.00    -0.246 OA
BRANCH  35  37
ATOM     37  C   UNL A   1      38.871  32.009  34.813  1.00  0.00     0.060 A 
ATOM     38  C   UNL A   1      40.210  32.340  35.060  1.00  0.00     0.016 A 
ATOM     39  C   UNL A   1      38.549  30.998  33.905  1.00  0.00     0.016 A 
ATOM     40  C   UNL A   1      41.231  31.682  34.372  1.00  0.00     0.010 A 
ATOM     41  C   UNL A   1      39.571  30.358  33.197  1.00  0.00     0.010 A 
ATOM     42  C   UNL A   1      40.915  30.720  33.405  1.00  0.00    -0.014 A 
BRANCH  42  43
ATOM     43  C   UNL A   1      41.963  30.247  32.468  1.00  0.00     0.031 A 
ATOM     44  C   UNL A   1      42.625  28.926  32.749  1.00  0.00     0.074 A 
ATOM     45  C   UNL A   1      42.313  30.960  31.382  1.00  0.00     0.049 A 
ATOM     46  N   UNL A   1      43.590  28.324  32.104  1.00  0.00    -0.248 NA
ATOM     47  C   UNL A   1      42.129  28.186  33.922  1.00  0.00     0.031 C 
ATOM     48  C   UNL A   1      41.717  32.229  30.971  1.00  0.00     0.029 A 
ATOM     49  N   UNL A   1      43.271  30.710  30.429  1.00  0.00    -0.354 N 
ATOM     50  C   UNL A   1      43.825  27.143  32.798  1.00  0.00     0.074 A 
ATOM     51  C   UNL A   1      42.924  27.126  33.929  1.00  0.00     0.031 C 
ATOM     52  C   UNL A   1      42.333  32.654  29.852  1.00  0.00     0.029 A 
ATOM     53  C   UNL A   1      43.386  31.706  29.492  1.00  0.00     0.049 A 
ATOM     54  H   UNL A   1      43.821  29.894  30.420  1.00  0.00     0.167 HD
ATOM     55  C   UNL A   1      44.713  26.159  32.521  1.00  0.00     0.031 A 
ATOM     56  C   UNL A   1      44.260  31.848  28.476  1.00  0.00     0.031 A 
ATOM     57  C   UNL A   1      45.625  26.185  31.409  1.00  0.00     0.049 A 
ATOM     58  C   UNL A   1      45.295  30.779  28.234  1.00  0.00     0.074 A 
ATOM     59  C   UNL A   1      46.550  25.229  31.031  1.00  0.00     0.029 A 
ATOM     60  N   UNL A   1      45.735  27.231  30.505  1.00  0.00    -0.354 N 
ATOM     61  N   UNL A   1      45.487  29.651  28.876  1.00  0.00    -0.248 NA
ATOM     62  C   UNL A   1      46.230  31.001  27.121  1.00  0.00     0.031 C 
ATOM     63  C   UNL A   1      47.269  25.725  29.940  1.00  0.00     0.029 A 
ATOM     64  C   UNL A   1      46.740  26.958  29.591  1.00  0.00     0.049 A 
ATOM     65  H   UNL A   1      45.182  28.045  30.511  1.00  0.00     0.167 HD
ATOM     66  C   UNL A   1      46.540  29.017  28.226  1.00  0.00     0.074 A 
ATOM     67  C   UNL A   1      46.935  29.878  27.131  1.00  0.00     0.031 C 
ATOM     68  C   UNL A   1      47.124  27.825  28.507  1.00  0.00     0.031 A 
BRANCH  55  69
ATOM     69  C   UNL A   1      44.772  24.995  33.469  1.00  0.00    -0.014 A 
ATOM     70  C   UNL A   1      45.691  24.956  34.531  1.00  0.00     0.009 A 
ATOM     71  C   UNL A   1      43.875  23.926  33.311  1.00  0.00     0.009 A 
ATOM     72  C   UNL A   1      45.736  23.853  35.387  1.00  0.00     0.001 A 
ATOM     73  C   UNL A   1      43.900  22.842  34.188  1.00  0.00     0.001 A 
ATOM     74  C   UNL A   1      44.837  22.800  35.218  1.00  0.00     0.000 A 
ENDBRANCH  55  69
BRANCH  56  75
ATOM     75  C   UNL A   1      44.218  33.064  27.619  1.00  0.00    -0.014 A 
ATOM     76  C   UNL A   1      43.852  32.982  26.267  1.00  0.00     0.009 A 
ATOM     77  C   UNL A   1      44.570  34.317  28.148  1.00  0.00     0.009 A 
ATOM     78  C   UNL A   1      43.865  34.122  25.458  1.00  0.00     0.001 A 
ATOM     79  C   UNL A   1      44.551  35.460  27.345  1.00  0.00     0.001 A 
ATOM     80  C   UNL A   1      44.209  35.359  25.999  1.00  0.00     0.000 A 
ENDBRANCH  56  75
BRANCH  68  81
ATOM     81  C   UNL A   1      48.225  27.359  27.593  1.00  0.00    -0.014 A 
ATOM     82  C   UNL A   1      47.954  26.611  26.436  1.00  0.00     0.009 A 
ATOM     83  C   UNL A   1      49.554  27.722  27.870  1.00  0.00     0.009 A 
ATOM     84  C   UNL A   1      48.996  26.205  25.598  1.00  0.00     0.001 A 
ATOM     85  C   UNL A   1      50.588  27.344  27.012  1.00  0.00     0.001 A 
ATOM     86  C   UNL A   1      50.309  26.577  25.883  1.00  0.00     0.000 A 
ENDBRANCH  68  81
ENDBRANCH  42  43
ENDBRANCH  35  37
ENDBRANCH  34  35
ENDBRANCH  33  34
ENDBRANCH  32  33
ENDBRANCH  31  32
ENDBRANCH  30  31
ENDBRANCH  29  30
ENDBRANCH  28  29
ENDBRANCH  27  28
ENDBRANCH   1  27
TORSDOF 25
ENDMDL
MODEL 3
REMARK VINA RESULT:      -8.1      4.100      6.894
REMARK SMILES O=C(CS[C@@H]1CCS(=O)(=O)C1)Nc1nc(CC(=O)OCCOCCOCCOCCOC(=O)c2ccc(-c3c4nc(c(-c5ccccc5)c5ccc([nH]5)c(-c5ccccc5)c5nc(c(-c6ccccc6)c6ccc3[nH]6)C=C5)C=C4)cc2)cs1
REMARK SMILES IDX 23 1 22 2 21 3 20 4 19 5 17 6 18 7 16 8 15 9 13 10 14 11
REMARK SMILES IDX 83 12 82 13 12 14 1 15 2 16 3 18 4 19 5 20 6 21 11 22 7 23
REMARK SMILES IDX 8 24 9 25 10 26 24 27 25 28 26 29 27 30 28 31 29 32 30 33
REMARK SMILES IDX 31 34 32 35 33 36 34 37 35 38 81 39 36 40 80 41 37 42 38 43
REMARK SMILES IDX 39 44 74 45 40 46 79 47 73 48 75 49 41 50 78 51 72 52 71 53
REMARK SMILES IDX 42 55 64 56 49 57 63 58 50 59 53 60 62 61 76 62 51 63 52 64
REMARK SMILES IDX 61 66 77 67 54 68 43 69 44 70 48 71 45 72 47 73 46 74 65 75
REMARK SMILES IDX 66 76 70 77 67 78 69 79 68 80 55 81 56 82 60 83 57 84 59 85
REMARK SMILES IDX 58 86
REMARK H PARENT 12 17 75 54 53 65
REMARK Flexibility Score: inf
ROOT
ATOM      1  C   UNL A   1      31.144  23.971  25.034  1.00  0.00     0.188 C 
ENDROOT
BRANCH   1   2
ATOM      2  O   UNL A   1      30.916  22.677  24.493  1.00  0.00    -0.376 OA
BRANCH   2   3
ATOM      3  C   UNL A   1      31.366  22.370  23.183  1.00  0.00     0.202 C 
BRANCH   3   4
ATOM      4  C   UNL A   1      32.279  21.145  22.949  1.00  0.00     0.261 C 
BRANCH   4   5
ATOM      5  O   UNL A   1      32.237  20.070  23.921  1.00  0.00    -0.463 OA
BRANCH   5   6
ATOM      6  C   UNL A   1      33.115  20.141  24.951  1.00  0.00     0.311 C 
ATOM      7  O   UNL A   1      32.801  19.888  26.115  1.00  0.00    -0.252 OA
BRANCH   6   8
ATOM      8  C   UNL A   1      34.547  20.539  24.631  1.00  0.00     0.179 C 
BRANCH   8   9
ATOM      9  C   UNL A   1      35.034  21.952  24.791  1.00  0.00     0.065 A 
ATOM     10  C   UNL A   1      34.892  24.135  24.469  1.00  0.00     0.189 A 
ATOM     11  N   UNL A   1      34.376  22.982  24.121  1.00  0.00    -0.224 NA
ATOM     12  S   UNL A   1      36.281  24.074  25.453  1.00  0.00    -0.105 S 
ATOM     13  C   UNL A   1      35.931  22.420  25.744  1.00  0.00     0.093 A 
BRANCH  10  14
ATOM     14  N   UNL A   1      34.403  25.401  24.287  1.00  0.00    -0.301 N 
ATOM     15  O   UNL A   1      33.823  25.036  22.063  1.00  0.00    -0.274 OA
ATOM     16  C   UNL A   1      33.877  25.752  23.060  1.00  0.00     0.236 C 
ATOM     17  H   UNL A   1      34.427  26.053  25.023  1.00  0.00     0.172 HD
BRANCH  16  18
ATOM     18  C   UNL A   1      33.267  27.140  23.014  1.00  0.00     0.170 C 
BRANCH  18  19
ATOM     19  S   UNL A   1      31.539  27.175  22.420  1.00  0.00    -0.148 SA
BRANCH  19  20
ATOM     20  C   UNL A   1      30.639  27.886  23.868  1.00  0.00     0.063 C 
ATOM     21  C   UNL A   1      29.164  27.438  23.835  1.00  0.00     0.031 C 
ATOM     22  C   UNL A   1      30.556  29.409  23.861  1.00  0.00     0.151 C 
ATOM     23  C   UNL A   1      28.422  28.263  22.778  1.00  0.00     0.138 C 
ATOM     24  S   UNL A   1      29.312  29.807  22.650  1.00  0.00     0.151 S 
ATOM     25  O   UNL A   1      29.945  29.879  21.347  1.00  0.00    -0.229 OA
ATOM     26  O   UNL A   1      28.494  30.885  23.161  1.00  0.00    -0.229 OA
ENDBRANCH  19  20
ENDBRANCH  18  19
ENDBRANCH  16  18
ENDBRANCH  10  14
ENDBRANCH   8   9
ENDBRANCH   6   8
ENDBRANCH   5   6
ENDBRANCH   4   5
ENDBRANCH   3   4
ENDBRANCH   2   3
ENDBRANCH   1   2
BRANCH   1  27
ATOM     27  C   UNL A   1      31.688  24.132  26.460  1.00  0.00     0.188 C 
BRANCH  27  28
ATOM     28  O   UNL A   1      31.424  25.362  27.096  1.00  0.00    -0.377 OA
BRANCH  28  29
ATOM     29  C   UNL A   1      31.956  26.526  26.498  1.00  0.00     0.188 C 
BRANCH  29  30
ATOM     30  C   UNL A   1      32.048  27.781  27.376  1.00  0.00     0.188 C 
BRANCH  30  31
ATOM     31  O   UNL A   1      32.631  28.896  26.711  1.00  0.00    -0.376 OA
BRANCH  31  32
ATOM     32  C   UNL A   1      34.040  29.070  26.780  1.00  0.00     0.202 C 
BRANCH  32  33
ATOM     33  C   UNL A   1      34.577  30.238  27.626  1.00  0.00     0.261 C 
BRANCH  33  34
ATOM     34  O   UNL A   1      35.317  29.899  28.809  1.00  0.00    -0.460 OA
BRANCH  34  35
ATOM     35  C   UNL A   1      36.301  30.734  29.211  1.00  0.00     0.338 C 
ATOM     36  O   UNL A   1      36.188  31.737  29.876  1.00  0.00    -0.246 OA
BRANCH  35  37
ATOM     37  C   UNL A   1      37.592  30.092  28.865  1.00  0.00     0.060 A 
ATOM     38  C   UNL A   1      38.481  29.766  29.898  1.00  0.00     0.016 A 
ATOM     39  C   UNL A   1      37.914  29.799  27.538  1.00  0.00     0.016 A 
ATOM     40  C   UNL A   1      39.711  29.177  29.603  1.00  0.00     0.010 A 
ATOM     41  C   UNL A   1      39.158  29.233  27.241  1.00  0.00     0.010 A 
ATOM     42  C   UNL A   1      40.075  28.950  28.270  1.00  0.00    -0.014 A 
BRANCH  42  43
ATOM     43  C   UNL A   1      41.481  28.615  27.938  1.00  0.00     0.031 A 
ATOM     44  C   UNL A   1      41.824  27.176  27.663  1.00  0.00     0.074 A 
ATOM     45  C   UNL A   1      42.434  29.561  27.866  1.00  0.00     0.049 A 
ATOM     46  N   UNL A   1      42.983  26.633  27.393  1.00  0.00    -0.248 NA
ATOM     47  C   UNL A   1      40.704  26.221  27.699  1.00  0.00     0.031 C 
ATOM     48  C   UNL A   1      42.225  30.993  28.064  1.00  0.00     0.029 A 
ATOM     49  N   UNL A   1      43.779  29.447  27.611  1.00  0.00    -0.354 N 
ATOM     50  C   UNL A   1      42.733  25.275  27.241  1.00  0.00     0.074 A 
ATOM     51  C   UNL A   1      41.321  25.071  27.475  1.00  0.00     0.031 C 
ATOM     52  C   UNL A   1      43.406  31.626  27.934  1.00  0.00     0.029 A 
ATOM     53  C   UNL A   1      44.455  30.639  27.680  1.00  0.00     0.049 A 
ATOM     54  H   UNL A   1      44.216  28.591  27.399  1.00  0.00     0.167 HD
ATOM     55  C   UNL A   1      43.602  24.282  26.933  1.00  0.00     0.031 A 
ATOM     56  C   UNL A   1      45.773  30.901  27.577  1.00  0.00     0.031 A 
ATOM     57  C   UNL A   1      45.011  24.481  26.721  1.00  0.00     0.049 A 
ATOM     58  C   UNL A   1      46.734  29.769  27.316  1.00  0.00     0.074 A 
ATOM     59  C   UNL A   1      45.971  23.543  26.386  1.00  0.00     0.029 A 
ATOM     60  N   UNL A   1      45.661  25.699  26.838  1.00  0.00    -0.354 N 
ATOM     61  N   UNL A   1      46.484  28.493  27.141  1.00  0.00    -0.248 NA
ATOM     62  C   UNL A   1      48.161  30.116  27.232  1.00  0.00     0.031 C 
ATOM     63  C   UNL A   1      47.215  24.181  26.369  1.00  0.00     0.029 A 
ATOM     64  C   UNL A   1      47.018  25.531  26.617  1.00  0.00     0.049 A 
ATOM     65  H   UNL A   1      45.224  26.556  27.046  1.00  0.00     0.167 HD
ATOM     66  C   UNL A   1      47.714  27.893  26.894  1.00  0.00     0.074 A 
ATOM     67  C   UNL A   1      48.707  28.947  26.927  1.00  0.00     0.031 C 
ATOM     68  C   UNL A   1      47.996  26.588  26.656  1.00  0.00     0.031 A 
BRANCH  55  69
ATOM     69  C   UNL A   1      43.055  22.884  26.859  1.00  0.00    -0.014 A 
ATOM     70  C   UNL A   1      42.833  22.244  25.628  1.00  0.00     0.009 A 
ATOM     71  C   UNL A   1      42.777  22.185  28.045  1.00  0.00     0.009 A 
ATOM     72  C   UNL A   1      42.307  20.950  25.588  1.00  0.00     0.001 A 
ATOM     73  C   UNL A   1      42.284  20.882  28.002  1.00  0.00     0.001 A 
ATOM     74  C   UNL A   1      42.039  20.269  26.776  1.00  0.00     0.000 A 
ENDBRANCH  55  69
BRANCH  56  75
ATOM     75  C   UNL A   1      46.275  32.291  27.748  1.00  0.00    -0.014 A 
ATOM     76  C   UNL A   1      46.563  32.803  29.023  1.00  0.00     0.009 A 
ATOM     77  C   UNL A   1      46.445  33.126  26.632  1.00  0.00     0.009 A 
ATOM     78  C   UNL A   1      46.985  34.126  29.177  1.00  0.00     0.001 A 
ATOM     79  C   UNL A   1      46.898  34.439  26.786  1.00  0.00     0.001 A 
ATOM     80  C   UNL A   1      47.157  34.940  28.059  1.00  0.00     0.000 A 
ENDBRANCH  56  75
BRANCH  68  81
ATOM     81  C   UNL A   1      49.429  26.228  26.368  1.00  0.00    -0.014 A 
ATOM     82  C   UNL A   1      50.218  25.545  27.306  1.00  0.00     0.009 A 
ATOM     83  C   UNL A   1      49.980  26.534  25.113  1.00  0.00     0.009 A 
ATOM     84  C   UNL A   1      51.542  25.210  27.005  1.00  0.00     0.001 A 
ATOM     85  C   UNL A   1      51.291  26.168  24.803  1.00  0.00     0.001 A 
ATOM     86  C   UNL A   1      52.073  25.516  25.753  1.00  0.00     0.000 A 
ENDBRANCH  68  81
ENDBRANCH  42  43
ENDBRANCH  35  37
ENDBRANCH  34  35
ENDBRANCH  33  34
ENDBRANCH  32  33
ENDBRANCH  31  32
ENDBRANCH  30  31
ENDBRANCH  29  30
ENDBRANCH  28  29
ENDBRANCH  27  28
ENDBRANCH   1  27
TORSDOF 25
ENDMDL
