MODEL 1
REMARK VINA RESULT:      -9.6      0.000      0.000
REMARK SMILES C[C@@H](NC(=O)c1cc(C(=O)OCCOCCOCCOCCOC(=O)c2ccc(-c3c4nc(c(-c5ccccc5)c5ccc([nH]5)c(-c5ccccc5)c5nc(c(-c6ccccc6)c6ccc3[nH]6)C=C5)C=C4)cc2)n(C)n1)c1ccccc1
REMARK SMILES IDX 16 1 15 2 14 3 13 4 12 5 11 6 9 7 10 8 8 9 6 10 7 11 76 12
REMARK SMILES IDX 74 13 75 14 4 15 3 16 5 18 2 19 1 20 77 21 78 22 82 23 79 24
REMARK SMILES IDX 81 25 80 26 17 27 18 28 19 29 20 30 21 31 22 32 23 33 24 34
REMARK SMILES IDX 25 35 26 36 27 37 73 38 28 39 72 40 29 41 30 42 31 43 66 44
REMARK SMILES IDX 32 45 71 46 65 47 67 48 33 49 70 50 64 51 63 52 34 54 56 55
REMARK SMILES IDX 41 56 55 57 42 58 45 59 54 60 68 61 43 62 44 63 53 65 69 66
REMARK SMILES IDX 46 67 35 68 36 69 40 70 37 71 39 72 38 73 57 74 58 75 62 76
REMARK SMILES IDX 59 77 61 78 60 79 47 80 48 81 52 82 49 83 51 84 50 85
REMARK H PARENT 3 17 67 53 45 64
REMARK Flexibility Score: inf
ROOT
ATOM      1  C   UNL A   1      30.987  29.294  24.223  1.00  0.00     0.188 C 
ENDROOT
BRANCH   1   2
ATOM      2  C   UNL A   1      31.710  28.739  22.989  1.00  0.00     0.188 C 
BRANCH   2   3
ATOM      3  O   UNL A   1      30.835  27.957  22.192  1.00  0.00    -0.376 OA
BRANCH   3   4
ATOM      4  C   UNL A   1      30.330  26.752  22.749  1.00  0.00     0.202 C 
BRANCH   4   5
ATOM      5  C   UNL A   1      31.287  25.724  23.376  1.00  0.00     0.261 C 
BRANCH   5   6
ATOM      6  O   UNL A   1      32.196  25.032  22.491  1.00  0.00    -0.459 OA
BRANCH   6   7
ATOM      7  C   UNL A   1      33.501  25.390  22.415  1.00  0.00     0.356 C 
ATOM      8  O   UNL A   1      33.919  26.301  21.708  1.00  0.00    -0.244 OA
BRANCH   7   9
ATOM      9  C   UNL A   1      34.306  24.602  23.328  1.00  0.00     0.146 A 
ATOM     10  C   UNL A   1      35.542  22.965  24.294  1.00  0.00     0.151 A 
ATOM     11  C   UNL A   1      34.936  23.383  23.079  1.00  0.00     0.071 A 
ATOM     12  N   UNL A   1      35.281  23.866  25.259  1.00  0.00    -0.167 NA
ATOM     13  N   UNL A   1      34.585  24.851  24.654  1.00  0.00    -0.260 N 
ATOM     14  C   UNL A   1      34.121  25.922  25.510  1.00  0.00     0.174 C 
BRANCH  10  15
ATOM     15  C   UNL A   1      36.191  21.682  24.636  1.00  0.00     0.272 C 
ATOM     16  N   UNL A   1      35.501  20.491  24.756  1.00  0.00    -0.344 N 
ATOM     17  H   UNL A   1      36.077  19.696  24.677  1.00  0.00     0.164 HD
ATOM     18  O   UNL A   1      37.417  21.613  24.769  1.00  0.00    -0.267 OA
BRANCH  16  19
ATOM     19  C   UNL A   1      34.092  20.169  24.974  1.00  0.00     0.109 C 
ATOM     20  C   UNL A   1      33.637  20.609  26.374  1.00  0.00     0.036 C 
BRANCH  19  21
ATOM     21  C   UNL A   1      33.781  18.714  24.768  1.00  0.00    -0.026 A 
ATOM     22  C   UNL A   1      34.812  17.834  24.414  1.00  0.00     0.006 A 
ATOM     23  C   UNL A   1      32.502  18.213  25.053  1.00  0.00     0.006 A 
ATOM     24  C   UNL A   1      34.595  16.465  24.469  1.00  0.00     0.000 A 
ATOM     25  C   UNL A   1      32.295  16.845  25.128  1.00  0.00     0.000 A 
ATOM     26  C   UNL A   1      33.348  15.979  24.860  1.00  0.00     0.000 A 
ENDBRANCH  19  21
ENDBRANCH  16  19
ENDBRANCH  10  15
ENDBRANCH   7   9
ENDBRANCH   6   7
ENDBRANCH   5   6
ENDBRANCH   4   5
ENDBRANCH   3   4
ENDBRANCH   2   3
ENDBRANCH   1   2
BRANCH   1  27
ATOM     27  O   UNL A   1      31.350  28.594  25.400  1.00  0.00    -0.377 OA
BRANCH  27  28
ATOM     28  C   UNL A   1      32.555  28.979  26.050  1.00  0.00     0.188 C 
BRANCH  28  29
ATOM     29  C   UNL A   1      32.615  29.930  27.272  1.00  0.00     0.188 C 
BRANCH  29  30
ATOM     30  O   UNL A   1      32.799  31.298  26.929  1.00  0.00    -0.376 OA
BRANCH  30  31
ATOM     31  C   UNL A   1      31.639  32.059  26.625  1.00  0.00     0.202 C 
BRANCH  31  32
ATOM     32  C   UNL A   1      31.728  33.399  27.362  1.00  0.00     0.261 C 
BRANCH  32  33
ATOM     33  O   UNL A   1      33.061  33.939  27.378  1.00  0.00    -0.460 OA
BRANCH  33  34
ATOM     34  C   UNL A   1      33.522  34.324  28.588  1.00  0.00     0.338 C 
ATOM     35  O   UNL A   1      32.996  35.098  29.366  1.00  0.00    -0.246 OA
BRANCH  34  36
ATOM     36  C   UNL A   1      34.697  33.493  28.911  1.00  0.00     0.060 A 
ATOM     37  C   UNL A   1      34.482  32.282  29.581  1.00  0.00     0.016 A 
ATOM     38  C   UNL A   1      35.985  33.875  28.523  1.00  0.00     0.016 A 
ATOM     39  C   UNL A   1      35.556  31.438  29.846  1.00  0.00     0.010 A 
ATOM     40  C   UNL A   1      37.067  33.053  28.835  1.00  0.00     0.010 A 
ATOM     41  C   UNL A   1      36.856  31.841  29.513  1.00  0.00    -0.014 A 
BRANCH  41  42
ATOM     42  C   UNL A   1      37.996  31.121  30.115  1.00  0.00     0.031 A 
ATOM     43  C   UNL A   1      38.293  31.393  31.563  1.00  0.00     0.074 A 
ATOM     44  C   UNL A   1      38.726  30.235  29.417  1.00  0.00     0.049 A 
ATOM     45  N   UNL A   1      39.206  30.870  32.336  1.00  0.00    -0.248 NA
ATOM     46  C   UNL A   1      37.432  32.387  32.228  1.00  0.00     0.031 C 
ATOM     47  C   UNL A   1      38.506  29.859  28.022  1.00  0.00     0.029 A 
ATOM     48  N   UNL A   1      39.809  29.486  29.803  1.00  0.00    -0.354 N 
ATOM     49  C   UNL A   1      39.016  31.455  33.581  1.00  0.00     0.074 A 
ATOM     50  C   UNL A   1      37.925  32.395  33.454  1.00  0.00     0.031 C 
ATOM     51  C   UNL A   1      39.436  28.955  27.665  1.00  0.00     0.029 A 
ATOM     52  C   UNL A   1      40.325  28.706  28.798  1.00  0.00     0.049 A 
ATOM     53  H   UNL A   1      40.180  29.505  30.715  1.00  0.00     0.167 HD
ATOM     54  C   UNL A   1      39.688  31.230  34.732  1.00  0.00     0.031 A 
ATOM     55  C   UNL A   1      41.403  27.897  28.799  1.00  0.00     0.031 A 
ATOM     56  C   UNL A   1      40.809  30.341  34.843  1.00  0.00     0.049 A 
ATOM     57  C   UNL A   1      42.201  27.739  30.069  1.00  0.00     0.074 A 
ATOM     58  C   UNL A   1      41.576  30.055  35.956  1.00  0.00     0.029 A 
ATOM     59  N   UNL A   1      41.333  29.609  33.790  1.00  0.00    -0.354 N 
ATOM     60  N   UNL A   1      41.992  28.270  31.251  1.00  0.00    -0.248 NA
ATOM     61  C   UNL A   1      43.379  26.862  30.005  1.00  0.00     0.031 C 
ATOM     62  C   UNL A   1      42.603  29.190  35.563  1.00  0.00     0.029 A 
ATOM     63  C   UNL A   1      42.434  28.889  34.220  1.00  0.00     0.049 A 
ATOM     64  H   UNL A   1      40.975  29.601  32.872  1.00  0.00     0.167 HD
ATOM     65  C   UNL A   1      42.991  27.768  32.077  1.00  0.00     0.074 A 
ATOM     66  C   UNL A   1      43.799  26.882  31.263  1.00  0.00     0.031 C 
ATOM     67  C   UNL A   1      43.221  28.014  33.390  1.00  0.00     0.031 A 
BRANCH  54  68
ATOM     68  C   UNL A   1      39.244  32.003  35.940  1.00  0.00    -0.014 A 
ATOM     69  C   UNL A   1      38.298  31.475  36.833  1.00  0.00     0.009 A 
ATOM     70  C   UNL A   1      39.770  33.280  36.181  1.00  0.00     0.009 A 
ATOM     71  C   UNL A   1      37.862  32.226  37.926  1.00  0.00     0.001 A 
ATOM     72  C   UNL A   1      39.352  34.018  37.290  1.00  0.00     0.001 A 
ATOM     73  C   UNL A   1      38.392  33.495  38.155  1.00  0.00     0.000 A 
ENDBRANCH  54  68
BRANCH  55  74
ATOM     74  C   UNL A   1      41.810  27.186  27.557  1.00  0.00    -0.014 A 
ATOM     75  C   UNL A   1      41.377  25.876  27.301  1.00  0.00     0.009 A 
ATOM     76  C   UNL A   1      42.664  27.809  26.633  1.00  0.00     0.009 A 
ATOM     77  C   UNL A   1      41.813  25.196  26.160  1.00  0.00     0.001 A 
ATOM     78  C   UNL A   1      43.076  27.137  25.481  1.00  0.00     0.001 A 
ATOM     79  C   UNL A   1      42.658  25.828  25.250  1.00  0.00     0.000 A 
ENDBRANCH  55  74
BRANCH  67  80
ATOM     80  C   UNL A   1      44.365  27.288  34.040  1.00  0.00    -0.014 A 
ATOM     81  C   UNL A   1      45.653  27.843  34.083  1.00  0.00     0.009 A 
ATOM     82  C   UNL A   1      44.132  26.055  34.670  1.00  0.00     0.009 A 
ATOM     83  C   UNL A   1      46.692  27.160  34.719  1.00  0.00     0.001 A 
ATOM     84  C   UNL A   1      45.165  25.391  35.331  1.00  0.00     0.001 A 
ATOM     85  C   UNL A   1      46.447  25.940  35.346  1.00  0.00     0.000 A 
ENDBRANCH  67  80
ENDBRANCH  41  42
ENDBRANCH  34  36
ENDBRANCH  33  34
ENDBRANCH  32  33
ENDBRANCH  31  32
ENDBRANCH  30  31
ENDBRANCH  29  30
ENDBRANCH  28  29
ENDBRANCH  27  28
ENDBRANCH   1  27
TORSDOF 23
ENDMDL
MODEL 2
REMARK VINA RESULT:      -9.2      1.441      5.875
REMARK SMILES C[C@@H](NC(=O)c1cc(C(=O)OCCOCCOCCOCCOC(=O)c2ccc(-c3c4nc(c(-c5ccccc5)c5ccc([nH]5)c(-c5ccccc5)c5nc(c(-c6ccccc6)c6ccc3[nH]6)C=C5)C=C4)cc2)n(C)n1)c1ccccc1
REMARK SMILES IDX 16 1 15 2 14 3 13 4 12 5 11 6 9 7 10 8 8 9 6 10 7 11 76 12
REMARK SMILES IDX 74 13 75 14 4 15 3 16 5 18 2 19 1 20 77 21 78 22 82 23 79 24
REMARK SMILES IDX 81 25 80 26 17 27 18 28 19 29 20 30 21 31 22 32 23 33 24 34
REMARK SMILES IDX 25 35 26 36 27 37 73 38 28 39 72 40 29 41 30 42 31 43 66 44
REMARK SMILES IDX 32 45 71 46 65 47 67 48 33 49 70 50 64 51 63 52 34 54 56 55
REMARK SMILES IDX 41 56 55 57 42 58 45 59 54 60 68 61 43 62 44 63 53 65 69 66
REMARK SMILES IDX 46 67 35 68 36 69 40 70 37 71 39 72 38 73 57 74 58 75 62 76
REMARK SMILES IDX 59 77 61 78 60 79 47 80 48 81 52 82 49 83 51 84 50 85
REMARK H PARENT 3 17 67 53 45 64
REMARK Flexibility Score: inf
ROOT
ATOM      1  C   UNL A   1      32.795  28.558  24.836  1.00  0.00     0.188 C 
ENDROOT
BRANCH   1   2
ATOM      2  C   UNL A   1      33.076  28.936  23.375  1.00  0.00     0.188 C 
BRANCH   2   3
ATOM      3  O   UNL A   1      31.868  29.118  22.653  1.00  0.00    -0.376 OA
BRANCH   3   4
ATOM      4  C   UNL A   1      30.647  29.061  23.378  1.00  0.00     0.202 C 
BRANCH   4   5
ATOM      5  C   UNL A   1      29.593  27.993  23.042  1.00  0.00     0.261 C 
BRANCH   5   6
ATOM      6  O   UNL A   1      30.041  26.622  22.942  1.00  0.00    -0.459 OA
BRANCH   6   7
ATOM      7  C   UNL A   1      30.545  25.974  24.021  1.00  0.00     0.356 C 
ATOM      8  O   UNL A   1      30.027  25.995  25.133  1.00  0.00    -0.244 OA
BRANCH   7   9
ATOM      9  C   UNL A   1      31.724  25.210  23.660  1.00  0.00     0.146 A 
ATOM     10  C   UNL A   1      33.571  23.896  23.699  1.00  0.00     0.151 A 
ATOM     11  C   UNL A   1      32.470  24.356  24.472  1.00  0.00     0.071 A 
ATOM     12  N   UNL A   1      33.526  24.456  22.477  1.00  0.00    -0.167 NA
ATOM     13  N   UNL A   1      32.399  25.196  22.459  1.00  0.00    -0.260 N 
ATOM     14  C   UNL A   1      32.158  25.963  21.256  1.00  0.00     0.174 C 
BRANCH  10  15
ATOM     15  C   UNL A   1      34.752  23.109  24.110  1.00  0.00     0.272 C 
ATOM     16  N   UNL A   1      34.692  21.771  24.449  1.00  0.00    -0.344 N 
ATOM     17  H   UNL A   1      35.562  21.314  24.396  1.00  0.00     0.164 HD
ATOM     18  O   UNL A   1      35.877  23.616  24.105  1.00  0.00    -0.267 OA
BRANCH  16  19
ATOM     19  C   UNL A   1      33.600  20.893  24.867  1.00  0.00     0.109 C 
ATOM     20  C   UNL A   1      33.532  20.791  26.399  1.00  0.00     0.036 C 
BRANCH  19  21
ATOM     21  C   UNL A   1      33.684  19.519  24.265  1.00  0.00    -0.026 A 
ATOM     22  C   UNL A   1      34.752  18.681  24.611  1.00  0.00     0.006 A 
ATOM     23  C   UNL A   1      32.640  19.027  23.469  1.00  0.00     0.006 A 
ATOM     24  C   UNL A   1      34.709  17.338  24.267  1.00  0.00     0.000 A 
ATOM     25  C   UNL A   1      32.590  17.681  23.146  1.00  0.00     0.000 A 
ATOM     26  C   UNL A   1      33.612  16.839  23.568  1.00  0.00     0.000 A 
ENDBRANCH  19  21
ENDBRANCH  16  19
ENDBRANCH  10  15
ENDBRANCH   7   9
ENDBRANCH   6   7
ENDBRANCH   5   6
ENDBRANCH   4   5
ENDBRANCH   3   4
ENDBRANCH   2   3
ENDBRANCH   1   2
BRANCH   1  27
ATOM     27  O   UNL A   1      33.987  28.246  25.534  1.00  0.00    -0.377 OA
BRANCH  27  28
ATOM     28  C   UNL A   1      34.345  29.077  26.631  1.00  0.00     0.188 C 
BRANCH  28  29
ATOM     29  C   UNL A   1      33.338  29.949  27.423  1.00  0.00     0.188 C 
BRANCH  29  30
ATOM     30  O   UNL A   1      33.150  31.249  26.878  1.00  0.00    -0.376 OA
BRANCH  30  31
ATOM     31  C   UNL A   1      31.814  31.700  26.704  1.00  0.00     0.202 C 
BRANCH  31  32
ATOM     32  C   UNL A   1      31.730  33.162  27.152  1.00  0.00     0.261 C 
BRANCH  32  33
ATOM     33  O   UNL A   1      33.020  33.791  27.246  1.00  0.00    -0.460 OA
BRANCH  33  34
ATOM     34  C   UNL A   1      33.301  34.376  28.430  1.00  0.00     0.338 C 
ATOM     35  O   UNL A   1      32.614  35.174  29.041  1.00  0.00    -0.246 OA
BRANCH  34  36
ATOM     36  C   UNL A   1      34.512  33.735  28.976  1.00  0.00     0.060 A 
ATOM     37  C   UNL A   1      34.350  32.617  29.804  1.00  0.00     0.016 A 
ATOM     38  C   UNL A   1      35.790  34.199  28.646  1.00  0.00     0.016 A 
ATOM     39  C   UNL A   1      35.468  31.944  30.285  1.00  0.00     0.010 A 
ATOM     40  C   UNL A   1      36.910  33.555  29.171  1.00  0.00     0.010 A 
ATOM     41  C   UNL A   1      36.750  32.437  30.006  1.00  0.00    -0.014 A 
BRANCH  41  42
ATOM     42  C   UNL A   1      37.888  31.942  30.807  1.00  0.00     0.031 A 
ATOM     43  C   UNL A   1      38.652  30.767  30.262  1.00  0.00     0.074 A 
ATOM     44  C   UNL A   1      38.254  32.526  31.959  1.00  0.00     0.049 A 
ATOM     45  N   UNL A   1      39.707  30.166  30.743  1.00  0.00    -0.248 NA
ATOM     46  C   UNL A   1      38.158  30.203  28.993  1.00  0.00     0.031 C 
ATOM     47  C   UNL A   1      37.617  33.694  32.564  1.00  0.00     0.029 A 
ATOM     48  N   UNL A   1      39.268  32.206  32.827  1.00  0.00    -0.354 N 
ATOM     49  C   UNL A   1      40.013  29.169  29.827  1.00  0.00     0.074 A 
ATOM     50  C   UNL A   1      39.018  29.222  28.780  1.00  0.00     0.031 C 
ATOM     51  C   UNL A   1      38.249  33.986  33.715  1.00  0.00     0.029 A 
ATOM     52  C   UNL A   1      39.320  33.015  33.935  1.00  0.00     0.049 A 
ATOM     53  H   UNL A   1      39.898  31.466  32.670  1.00  0.00     0.167 HD
ATOM     54  C   UNL A   1      41.036  28.285  29.852  1.00  0.00     0.031 A 
ATOM     55  C   UNL A   1      40.135  32.961  35.007  1.00  0.00     0.031 A 
ATOM     56  C   UNL A   1      41.988  28.194  30.922  1.00  0.00     0.049 A 
ATOM     57  C   UNL A   1      41.206  31.901  35.062  1.00  0.00     0.074 A 
ATOM     58  C   UNL A   1      43.051  27.320  31.058  1.00  0.00     0.029 A 
ATOM     59  N   UNL A   1      41.976  28.998  32.050  1.00  0.00    -0.354 N 
ATOM     60  N   UNL A   1      41.511  30.984  34.174  1.00  0.00    -0.248 NA
ATOM     61  C   UNL A   1      42.050  31.876  36.265  1.00  0.00     0.031 C 
ATOM     62  C   UNL A   1      43.650  27.560  32.300  1.00  0.00     0.029 A 
ATOM     63  C   UNL A   1      42.998  28.624  32.904  1.00  0.00     0.049 A 
ATOM     64  H   UNL A   1      41.336  29.727  32.219  1.00  0.00     0.167 HD
ATOM     65  C   UNL A   1      42.599  30.294  34.697  1.00  0.00     0.074 A 
ATOM     66  C   UNL A   1      42.907  30.906  35.973  1.00  0.00     0.031 C 
ATOM     67  C   UNL A   1      43.285  29.250  34.170  1.00  0.00     0.031 A 
BRANCH  54  68
ATOM     68  C   UNL A   1      41.130  27.323  28.704  1.00  0.00    -0.014 A 
ATOM     69  C   UNL A   1      41.936  27.601  27.588  1.00  0.00     0.009 A 
ATOM     70  C   UNL A   1      40.395  26.129  28.733  1.00  0.00     0.009 A 
ATOM     71  C   UNL A   1      41.976  26.717  26.507  1.00  0.00     0.001 A 
ATOM     72  C   UNL A   1      40.458  25.235  27.664  1.00  0.00     0.001 A 
ATOM     73  C   UNL A   1      41.240  25.533  26.549  1.00  0.00     0.000 A 
ENDBRANCH  54  68
BRANCH  55  74
ATOM     74  C   UNL A   1      39.965  33.924  36.128  1.00  0.00    -0.014 A 
ATOM     75  C   UNL A   1      39.123  33.629  37.211  1.00  0.00     0.009 A 
ATOM     76  C   UNL A   1      40.626  35.163  36.102  1.00  0.00     0.009 A 
ATOM     77  C   UNL A   1      38.925  34.566  38.230  1.00  0.00     0.001 A 
ATOM     78  C   UNL A   1      40.447  36.086  37.135  1.00  0.00     0.001 A 
ATOM     79  C   UNL A   1      39.590  35.790  38.193  1.00  0.00     0.000 A 
ENDBRANCH  55  74
BRANCH  67  80
ATOM     80  C   UNL A   1      44.458  28.728  34.950  1.00  0.00    -0.014 A 
ATOM     81  C   UNL A   1      45.740  29.278  34.797  1.00  0.00     0.009 A 
ATOM     82  C   UNL A   1      44.261  27.709  35.895  1.00  0.00     0.009 A 
ATOM     83  C   UNL A   1      46.807  28.795  35.556  1.00  0.00     0.001 A 
ATOM     84  C   UNL A   1      45.324  27.250  36.673  1.00  0.00     0.001 A 
ATOM     85  C   UNL A   1      46.598  27.787  36.496  1.00  0.00     0.000 A 
ENDBRANCH  67  80
ENDBRANCH  41  42
ENDBRANCH  34  36
ENDBRANCH  33  34
ENDBRANCH  32  33
ENDBRANCH  31  32
ENDBRANCH  30  31
ENDBRANCH  29  30
ENDBRANCH  28  29
ENDBRANCH  27  28
ENDBRANCH   1  27
TORSDOF 23
ENDMDL
MODEL 3
REMARK VINA RESULT:      -9.2      1.443      2.225
REMARK SMILES C[C@@H](NC(=O)c1cc(C(=O)OCCOCCOCCOCCOC(=O)c2ccc(-c3c4nc(c(-c5ccccc5)c5ccc([nH]5)c(-c5ccccc5)c5nc(c(-c6ccccc6)c6ccc3[nH]6)C=C5)C=C4)cc2)n(C)n1)c1ccccc1
REMARK SMILES IDX 16 1 15 2 14 3 13 4 12 5 11 6 9 7 10 8 8 9 6 10 7 11 76 12
REMARK SMILES IDX 74 13 75 14 4 15 3 16 5 18 2 19 1 20 77 21 78 22 82 23 79 24
REMARK SMILES IDX 81 25 80 26 17 27 18 28 19 29 20 30 21 31 22 32 23 33 24 34
REMARK SMILES IDX 25 35 26 36 27 37 73 38 28 39 72 40 29 41 30 42 31 43 66 44
REMARK SMILES IDX 32 45 71 46 65 47 67 48 33 49 70 50 64 51 63 52 34 54 56 55
REMARK SMILES IDX 41 56 55 57 42 58 45 59 54 60 68 61 43 62 44 63 53 65 69 66
REMARK SMILES IDX 46 67 35 68 36 69 40 70 37 71 39 72 38 73 57 74 58 75 62 76
REMARK SMILES IDX 59 77 61 78 60 79 47 80 48 81 52 82 49 83 51 84 50 85
REMARK H PARENT 3 17 67 53 45 64
REMARK Flexibility Score: inf
ROOT
ATOM      1  C   UNL A   1      32.493  28.432  24.990  1.00  0.00     0.188 C 
ENDROOT
BRANCH   1   2
ATOM      2  C   UNL A   1      32.594  28.440  23.458  1.00  0.00     0.188 C 
BRANCH   2   3
ATOM      3  O   UNL A   1      31.326  28.220  22.861  1.00  0.00    -0.376 OA
BRANCH   3   4
ATOM      4  C   UNL A   1      30.179  28.289  23.696  1.00  0.00     0.202 C 
BRANCH   4   5
ATOM      5  C   UNL A   1      29.111  27.184  23.644  1.00  0.00     0.261 C 
BRANCH   5   6
ATOM      6  O   UNL A   1      29.520  25.844  24.000  1.00  0.00    -0.459 OA
BRANCH   6   7
ATOM      7  C   UNL A   1      30.041  25.578  25.223  1.00  0.00     0.356 C 
ATOM      8  O   UNL A   1      29.543  25.963  26.276  1.00  0.00    -0.244 OA
BRANCH   7   9
ATOM      9  C   UNL A   1      31.212  24.729  25.111  1.00  0.00     0.146 A 
ATOM     10  C   UNL A   1      33.135  23.739  24.432  1.00  0.00     0.151 A 
ATOM     11  C   UNL A   1      32.262  24.836  24.200  1.00  0.00     0.071 A 
ATOM     12  N   UNL A   1      32.639  22.973  25.422  1.00  0.00    -0.167 NA
ATOM     13  N   UNL A   1      31.523  23.603  25.841  1.00  0.00    -0.260 N 
ATOM     14  C   UNL A   1      30.760  22.930  26.871  1.00  0.00     0.174 C 
BRANCH  10  15
ATOM     15  C   UNL A   1      34.303  23.277  23.654  1.00  0.00     0.272 C 
ATOM     16  N   UNL A   1      34.863  22.022  23.797  1.00  0.00    -0.344 N 
ATOM     17  H   UNL A   1      35.410  21.748  23.026  1.00  0.00     0.164 HD
ATOM     18  O   UNL A   1      34.798  23.993  22.778  1.00  0.00    -0.267 OA
BRANCH  16  19
ATOM     19  C   UNL A   1      34.807  21.017  24.858  1.00  0.00     0.109 C 
ATOM     20  C   UNL A   1      36.215  20.678  25.369  1.00  0.00     0.036 C 
BRANCH  19  21
ATOM     21  C   UNL A   1      34.095  19.761  24.442  1.00  0.00    -0.026 A 
ATOM     22  C   UNL A   1      32.891  19.855  23.733  1.00  0.00     0.006 A 
ATOM     23  C   UNL A   1      34.692  18.507  24.642  1.00  0.00     0.006 A 
ATOM     24  C   UNL A   1      32.360  18.725  23.129  1.00  0.00     0.000 A 
ATOM     25  C   UNL A   1      34.171  17.385  24.018  1.00  0.00     0.000 A 
ATOM     26  C   UNL A   1      33.022  17.505  23.245  1.00  0.00     0.000 A 
ENDBRANCH  19  21
ENDBRANCH  16  19
ENDBRANCH  10  15
ENDBRANCH   7   9
ENDBRANCH   6   7
ENDBRANCH   5   6
ENDBRANCH   4   5
ENDBRANCH   3   4
ENDBRANCH   2   3
ENDBRANCH   1   2
BRANCH   1  27
ATOM     27  O   UNL A   1      33.736  28.126  25.594  1.00  0.00    -0.377 OA
BRANCH  27  28
ATOM     28  C   UNL A   1      34.358  29.142  26.372  1.00  0.00     0.188 C 
BRANCH  28  29
ATOM     29  C   UNL A   1      33.665  29.880  27.546  1.00  0.00     0.188 C 
BRANCH  29  30
ATOM     30  O   UNL A   1      33.447  31.265  27.306  1.00  0.00    -0.376 OA
BRANCH  30  31
ATOM     31  C   UNL A   1      32.118  31.680  27.029  1.00  0.00     0.202 C 
BRANCH  31  32
ATOM     32  C   UNL A   1      32.044  33.204  27.164  1.00  0.00     0.261 C 
BRANCH  32  33
ATOM     33  O   UNL A   1      33.308  33.794  27.515  1.00  0.00    -0.460 OA
BRANCH  33  34
ATOM     34  C   UNL A   1      33.391  34.302  28.763  1.00  0.00     0.338 C 
ATOM     35  O   UNL A   1      32.577  35.011  29.327  1.00  0.00    -0.246 OA
BRANCH  34  36
ATOM     36  C   UNL A   1      34.560  33.693  29.425  1.00  0.00     0.060 A 
ATOM     37  C   UNL A   1      35.835  34.049  28.967  1.00  0.00     0.016 A 
ATOM     38  C   UNL A   1      34.408  32.818  30.506  1.00  0.00     0.016 A 
ATOM     39  C   UNL A   1      36.964  33.548  29.607  1.00  0.00     0.010 A 
ATOM     40  C   UNL A   1      35.540  32.276  31.113  1.00  0.00     0.010 A 
ATOM     41  C   UNL A   1      36.820  32.626  30.652  1.00  0.00    -0.014 A 
BRANCH  41  42
ATOM     42  C   UNL A   1      37.998  31.839  31.069  1.00  0.00     0.031 A 
ATOM     43  C   UNL A   1      38.608  32.169  32.403  1.00  0.00     0.074 A 
ATOM     44  C   UNL A   1      38.495  30.847  30.313  1.00  0.00     0.049 A 
ATOM     45  N   UNL A   1      39.614  31.609  33.018  1.00  0.00    -0.248 NA
ATOM     46  C   UNL A   1      37.985  33.279  33.146  1.00  0.00     0.031 C 
ATOM     47  C   UNL A   1      37.963  30.409  29.023  1.00  0.00     0.029 A 
ATOM     48  N   UNL A   1      39.569  30.022  30.532  1.00  0.00    -0.354 N 
ATOM     49  C   UNL A   1      39.732  32.284  34.225  1.00  0.00     0.074 A 
ATOM     50  C   UNL A   1      38.718  33.315  34.245  1.00  0.00     0.031 C 
ATOM     51  C   UNL A   1      38.723  29.401  28.560  1.00  0.00     0.029 A 
ATOM     52  C   UNL A   1      39.803  29.138  29.509  1.00  0.00     0.049 A 
ATOM     53  H   UNL A   1      40.120  30.062  31.347  1.00  0.00     0.167 HD
ATOM     54  C   UNL A   1      40.606  32.067  35.234  1.00  0.00     0.031 A 
ATOM     55  C   UNL A   1      40.789  28.231  29.359  1.00  0.00     0.031 A 
ATOM     56  C   UNL A   1      41.650  31.083  35.188  1.00  0.00     0.049 A 
ATOM     57  C   UNL A   1      41.816  28.075  30.453  1.00  0.00     0.074 A 
ATOM     58  C   UNL A   1      42.605  30.794  36.145  1.00  0.00     0.029 A 
ATOM     59  N   UNL A   1      41.885  30.242  34.113  1.00  0.00    -0.354 N 
ATOM     60  N   UNL A   1      41.897  28.694  31.607  1.00  0.00    -0.248 NA
ATOM     61  C   UNL A   1      42.880  27.087  30.225  1.00  0.00     0.031 C 
ATOM     62  C   UNL A   1      43.455  29.813  35.624  1.00  0.00     0.029 A 
ATOM     63  C   UNL A   1      42.989  29.448  34.370  1.00  0.00     0.049 A 
ATOM     64  H   UNL A   1      41.348  30.213  33.289  1.00  0.00     0.167 HD
ATOM     65  C   UNL A   1      43.002  28.151  32.254  1.00  0.00     0.074 A 
ATOM     66  C   UNL A   1      43.550  27.144  31.369  1.00  0.00     0.031 C 
ATOM     67  C   UNL A   1      43.516  28.453  33.472  1.00  0.00     0.031 A 
BRANCH  54  68
ATOM     68  C   UNL A   1      40.484  32.950  36.441  1.00  0.00    -0.014 A 
ATOM     69  C   UNL A   1      41.220  34.142  36.545  1.00  0.00     0.009 A 
ATOM     70  C   UNL A   1      39.634  32.580  37.492  1.00  0.00     0.009 A 
ATOM     71  C   UNL A   1      41.131  34.929  37.695  1.00  0.00     0.001 A 
ATOM     72  C   UNL A   1      39.527  33.382  38.629  1.00  0.00     0.001 A 
ATOM     73  C   UNL A   1      40.282  34.550  38.734  1.00  0.00     0.000 A 
ENDBRANCH  54  68
BRANCH  55  74
ATOM     74  C   UNL A   1      40.872  27.410  28.122  1.00  0.00    -0.014 A 
ATOM     75  C   UNL A   1      41.585  27.865  27.001  1.00  0.00     0.009 A 
ATOM     76  C   UNL A   1      40.208  26.175  28.046  1.00  0.00     0.009 A 
ATOM     77  C   UNL A   1      41.607  27.113  25.823  1.00  0.00     0.001 A 
ATOM     78  C   UNL A   1      40.254  25.414  26.876  1.00  0.00     0.001 A 
ATOM     79  C   UNL A   1      40.946  25.887  25.763  1.00  0.00     0.000 A 
ENDBRANCH  55  74
BRANCH  67  80
ATOM     80  C   UNL A   1      44.706  27.662  33.936  1.00  0.00    -0.014 A 
ATOM     81  C   UNL A   1      44.555  26.448  34.621  1.00  0.00     0.009 A 
ATOM     82  C   UNL A   1      45.999  28.115  33.628  1.00  0.00     0.009 A 
ATOM     83  C   UNL A   1      45.678  25.718  35.015  1.00  0.00     0.001 A 
ATOM     84  C   UNL A   1      47.118  27.369  33.996  1.00  0.00     0.001 A 
ATOM     85  C   UNL A   1      46.956  26.175  34.698  1.00  0.00     0.000 A 
ENDBRANCH  67  80
ENDBRANCH  41  42
ENDBRANCH  34  36
ENDBRANCH  33  34
ENDBRANCH  32  33
ENDBRANCH  31  32
ENDBRANCH  30  31
ENDBRANCH  29  30
ENDBRANCH  28  29
ENDBRANCH  27  28
ENDBRANCH   1  27
TORSDOF 23
ENDMDL
