MODEL 1
REMARK VINA RESULT:      -9.1      0.000      0.000
REMARK SMILES CC(C)(CNC(=O)NCc1cccs1)C(=O)OCCOCCOCCOCCOC(=O)c1ccc(-c2c3nc(c(-c4ccccc4)c4ccc([nH]4)c(-c4ccccc4)c4nc(c(-c5ccccc5)c5ccc2[nH]5)C=C4)C=C3)cc1
REMARK SMILES IDX 22 1 21 2 20 3 19 4 18 5 17 6 15 7 16 8 2 9 1 10 3 11 4 12
REMARK SMILES IDX 5 13 6 14 7 16 8 17 9 19 10 20 11 21 14 22 12 23 13 24 23 25
REMARK SMILES IDX 24 26 25 27 26 28 27 29 28 30 29 31 30 32 31 33 32 34 33 35
REMARK SMILES IDX 79 36 34 37 78 38 35 39 36 40 37 41 72 42 38 43 77 44 71 45
REMARK SMILES IDX 73 46 39 47 76 48 70 49 69 50 40 52 62 53 47 54 61 55 48 56
REMARK SMILES IDX 51 57 60 58 74 59 49 60 50 61 59 63 75 64 52 65 41 66 42 67
REMARK SMILES IDX 46 68 43 69 45 70 44 71 63 72 64 73 68 74 65 75 67 76 66 77
REMARK SMILES IDX 53 78 54 79 58 80 55 81 57 82 56 83
REMARK H PARENT 5 15 8 18 73 51 51 62
REMARK Flexibility Score: inf
ROOT
ATOM      1  C   UNL A   1      37.819  21.854  25.698  1.00  0.00     0.188 C 
ENDROOT
BRANCH   1   2
ATOM      2  C   UNL A   1      36.884  21.214  24.666  1.00  0.00     0.188 C 
BRANCH   2   3
ATOM      3  O   UNL A   1      35.677  20.634  25.138  1.00  0.00    -0.376 OA
BRANCH   3   4
ATOM      4  C   UNL A   1      34.445  21.287  24.827  1.00  0.00     0.202 C 
BRANCH   4   5
ATOM      5  C   UNL A   1      33.391  21.471  25.929  1.00  0.00     0.261 C 
BRANCH   5   6
ATOM      6  O   UNL A   1      33.454  22.731  26.641  1.00  0.00    -0.463 OA
BRANCH   6   7
ATOM      7  C   UNL A   1      32.270  23.377  26.797  1.00  0.00     0.313 C 
ATOM      8  O   UNL A   1      31.470  23.115  27.692  1.00  0.00    -0.252 OA
BRANCH   7   9
ATOM      9  C   UNL A   1      31.955  24.446  25.744  1.00  0.00     0.080 C 
ATOM     10  C   UNL A   1      31.333  23.732  24.529  1.00  0.00     0.025 C 
ATOM     11  C   UNL A   1      33.337  25.001  25.330  1.00  0.00     0.025 C 
BRANCH   9  12
ATOM     12  C   UNL A   1      31.106  25.659  26.204  1.00  0.00     0.135 C 
BRANCH  12  13
ATOM     13  N   UNL A   1      31.840  26.767  26.791  1.00  0.00    -0.337 N 
ATOM     14  C   UNL A   1      31.822  28.092  26.635  1.00  0.00     0.315 C 
ATOM     15  H   UNL A   1      32.502  26.472  27.456  1.00  0.00     0.165 HD
ATOM     16  O   UNL A   1      32.363  28.768  27.517  1.00  0.00    -0.249 OA
ATOM     17  N   UNL A   1      31.268  28.744  25.618  1.00  0.00    -0.333 N 
ATOM     18  H   UNL A   1      31.250  29.717  25.770  1.00  0.00     0.165 HD
BRANCH  17  19
ATOM     19  C   UNL A   1      30.688  28.384  24.345  1.00  0.00     0.164 C 
BRANCH  19  20
ATOM     20  C   UNL A   1      31.801  27.996  23.423  1.00  0.00     0.024 A 
ATOM     21  C   UNL A   1      31.861  26.953  22.521  1.00  0.00     0.017 A 
ATOM     22  S   UNL A   1      33.253  28.920  23.406  1.00  0.00    -0.147 S 
ATOM     23  C   UNL A   1      33.083  26.940  21.786  1.00  0.00     0.012 A 
ATOM     24  C   UNL A   1      33.921  27.968  22.156  1.00  0.00     0.065 A 
ENDBRANCH  19  20
ENDBRANCH  17  19
ENDBRANCH  12  13
ENDBRANCH   9  12
ENDBRANCH   7   9
ENDBRANCH   6   7
ENDBRANCH   5   6
ENDBRANCH   4   5
ENDBRANCH   3   4
ENDBRANCH   2   3
ENDBRANCH   1   2
BRANCH   1  25
ATOM     25  O   UNL A   1      39.042  21.163  25.869  1.00  0.00    -0.377 OA
BRANCH  25  26
ATOM     26  C   UNL A   1      40.127  21.824  26.513  1.00  0.00     0.188 C 
BRANCH  26  27
ATOM     27  C   UNL A   1      40.948  21.069  27.567  1.00  0.00     0.188 C 
BRANCH  27  28
ATOM     28  O   UNL A   1      42.287  20.699  27.224  1.00  0.00    -0.376 OA
BRANCH  28  29
ATOM     29  C   UNL A   1      42.686  20.748  25.853  1.00  0.00     0.202 C 
BRANCH  29  30
ATOM     30  C   UNL A   1      43.680  21.859  25.516  1.00  0.00     0.261 C 
BRANCH  30  31
ATOM     31  O   UNL A   1      43.005  23.029  25.024  1.00  0.00    -0.460 OA
BRANCH  31  32
ATOM     32  C   UNL A   1      43.690  24.189  25.127  1.00  0.00     0.338 C 
ATOM     33  O   UNL A   1      44.737  24.488  24.582  1.00  0.00    -0.246 OA
BRANCH  32  34
ATOM     34  C   UNL A   1      42.897  25.151  25.918  1.00  0.00     0.060 A 
ATOM     35  C   UNL A   1      43.250  26.505  25.853  1.00  0.00     0.016 A 
ATOM     36  C   UNL A   1      41.882  24.721  26.777  1.00  0.00     0.016 A 
ATOM     37  C   UNL A   1      42.640  27.427  26.702  1.00  0.00     0.010 A 
ATOM     38  C   UNL A   1      41.279  25.641  27.635  1.00  0.00     0.010 A 
ATOM     39  C   UNL A   1      41.695  26.984  27.636  1.00  0.00    -0.014 A 
BRANCH  39  40
ATOM     40  C   UNL A   1      41.311  27.855  28.768  1.00  0.00     0.031 A 
ATOM     41  C   UNL A   1      42.093  27.740  30.046  1.00  0.00     0.074 A 
ATOM     42  C   UNL A   1      40.288  28.720  28.670  1.00  0.00     0.049 A 
ATOM     43  N   UNL A   1      41.878  28.304  31.206  1.00  0.00    -0.248 NA
ATOM     44  C   UNL A   1      43.279  26.865  30.012  1.00  0.00     0.031 C 
ATOM     45  C   UNL A   1      39.499  28.968  27.465  1.00  0.00     0.029 A 
ATOM     46  N   UNL A   1      39.735  29.544  29.616  1.00  0.00    -0.354 N 
ATOM     47  C   UNL A   1      42.889  27.842  32.040  1.00  0.00     0.074 A 
ATOM     48  C   UNL A   1      43.710  26.942  31.262  1.00  0.00     0.031 C 
ATOM     49  C   UNL A   1      38.545  29.872  27.752  1.00  0.00     0.029 A 
ATOM     50  C   UNL A   1      38.636  30.231  29.166  1.00  0.00     0.049 A 
ATOM     51  H   UNL A   1      40.091  29.632  30.530  1.00  0.00     0.167 HD
ATOM     52  C   UNL A   1      43.114  28.139  33.341  1.00  0.00     0.031 A 
ATOM     53  C   UNL A   1      37.781  31.030  29.834  1.00  0.00     0.031 A 
ATOM     54  C   UNL A   1      42.285  29.017  34.119  1.00  0.00     0.049 A 
ATOM     55  C   UNL A   1      37.994  31.271  31.307  1.00  0.00     0.074 A 
ATOM     56  C   UNL A   1      42.419  29.378  35.448  1.00  0.00     0.029 A 
ATOM     57  N   UNL A   1      41.162  29.668  33.634  1.00  0.00    -0.354 N 
ATOM     58  N   UNL A   1      38.950  30.828  32.086  1.00  0.00    -0.248 NA
ATOM     59  C   UNL A   1      37.004  32.117  31.989  1.00  0.00     0.031 C 
ATOM     60  C   UNL A   1      41.347  30.214  35.779  1.00  0.00     0.029 A 
ATOM     61  C   UNL A   1      40.580  30.412  34.643  1.00  0.00     0.049 A 
ATOM     62  H   UNL A   1      40.829  29.609  32.710  1.00  0.00     0.167 HD
ATOM     63  C   UNL A   1      38.697  31.369  33.342  1.00  0.00     0.074 A 
ATOM     64  C   UNL A   1      37.498  32.172  33.219  1.00  0.00     0.031 C 
ATOM     65  C   UNL A   1      39.395  31.217  34.493  1.00  0.00     0.031 A 
BRANCH  52  66
ATOM     66  C   UNL A   1      44.278  27.469  34.010  1.00  0.00    -0.014 A 
ATOM     67  C   UNL A   1      45.545  28.072  34.044  1.00  0.00     0.009 A 
ATOM     68  C   UNL A   1      44.100  26.223  34.631  1.00  0.00     0.009 A 
ATOM     69  C   UNL A   1      46.618  27.425  34.661  1.00  0.00     0.001 A 
ATOM     70  C   UNL A   1      45.168  25.590  35.269  1.00  0.00     0.001 A 
ATOM     71  C   UNL A   1      46.427  26.188  35.276  1.00  0.00     0.000 A 
ENDBRANCH  52  66
BRANCH  53  72
ATOM     72  C   UNL A   1      36.622  31.636  29.129  1.00  0.00    -0.014 A 
ATOM     73  C   UNL A   1      35.474  30.877  28.859  1.00  0.00     0.009 A 
ATOM     74  C   UNL A   1      36.667  32.974  28.707  1.00  0.00     0.009 A 
ATOM     75  C   UNL A   1      34.403  31.440  28.162  1.00  0.00     0.001 A 
ATOM     76  C   UNL A   1      35.584  33.542  28.032  1.00  0.00     0.001 A 
ATOM     77  C   UNL A   1      34.456  32.772  27.752  1.00  0.00     0.000 A 
ENDBRANCH  53  72
BRANCH  65  78
ATOM     78  C   UNL A   1      38.921  31.973  35.700  1.00  0.00    -0.014 A 
ATOM     79  C   UNL A   1      38.135  31.356  36.683  1.00  0.00     0.009 A 
ATOM     80  C   UNL A   1      39.337  33.300  35.890  1.00  0.00     0.009 A 
ATOM     81  C   UNL A   1      37.759  32.062  37.828  1.00  0.00     0.001 A 
ATOM     82  C   UNL A   1      38.981  33.995  37.046  1.00  0.00     0.001 A 
ATOM     83  C   UNL A   1      38.188  33.377  38.011  1.00  0.00     0.000 A 
ENDBRANCH  65  78
ENDBRANCH  39  40
ENDBRANCH  32  34
ENDBRANCH  31  32
ENDBRANCH  30  31
ENDBRANCH  29  30
ENDBRANCH  28  29
ENDBRANCH  27  28
ENDBRANCH  26  27
ENDBRANCH  25  26
ENDBRANCH   1  25
TORSDOF 24
ENDMDL
MODEL 2
REMARK VINA RESULT:      -8.8      4.137     10.129
REMARK SMILES CC(C)(CNC(=O)NCc1cccs1)C(=O)OCCOCCOCCOCCOC(=O)c1ccc(-c2c3nc(c(-c4ccccc4)c4ccc([nH]4)c(-c4ccccc4)c4nc(c(-c5ccccc5)c5ccc2[nH]5)C=C4)C=C3)cc1
REMARK SMILES IDX 22 1 21 2 20 3 19 4 18 5 17 6 15 7 16 8 2 9 1 10 3 11 4 12
REMARK SMILES IDX 5 13 6 14 7 16 8 17 9 19 10 20 11 21 14 22 12 23 13 24 23 25
REMARK SMILES IDX 24 26 25 27 26 28 27 29 28 30 29 31 30 32 31 33 32 34 33 35
REMARK SMILES IDX 79 36 34 37 78 38 35 39 36 40 37 41 72 42 38 43 77 44 71 45
REMARK SMILES IDX 73 46 39 47 76 48 70 49 69 50 40 52 62 53 47 54 61 55 48 56
REMARK SMILES IDX 51 57 60 58 74 59 49 60 50 61 59 63 75 64 52 65 41 66 42 67
REMARK SMILES IDX 46 68 43 69 45 70 44 71 63 72 64 73 68 74 65 75 67 76 66 77
REMARK SMILES IDX 53 78 54 79 58 80 55 81 57 82 56 83
REMARK H PARENT 5 15 8 18 73 51 51 62
REMARK Flexibility Score: inf
ROOT
ATOM      1  C   UNL A   1      35.157  33.901  28.408  1.00  0.00     0.188 C 
ENDROOT
BRANCH   1   2
ATOM      2  C   UNL A   1      34.207  32.786  27.954  1.00  0.00     0.188 C 
BRANCH   2   3
ATOM      3  O   UNL A   1      34.774  31.523  27.637  1.00  0.00    -0.376 OA
BRANCH   3   4
ATOM      4  C   UNL A   1      33.902  30.397  27.533  1.00  0.00     0.202 C 
BRANCH   4   5
ATOM      5  C   UNL A   1      34.465  29.048  27.059  1.00  0.00     0.261 C 
BRANCH   5   6
ATOM      6  O   UNL A   1      34.054  28.639  25.731  1.00  0.00    -0.463 OA
BRANCH   6   7
ATOM      7  C   UNL A   1      33.388  27.459  25.661  1.00  0.00     0.313 C 
ATOM      8  O   UNL A   1      33.909  26.372  25.901  1.00  0.00    -0.252 OA
BRANCH   7   9
ATOM      9  C   UNL A   1      31.925  27.550  25.210  1.00  0.00     0.080 C 
ATOM     10  C   UNL A   1      31.654  29.013  24.810  1.00  0.00     0.025 C 
ATOM     11  C   UNL A   1      31.107  27.233  26.483  1.00  0.00     0.025 C 
BRANCH   9  12
ATOM     12  C   UNL A   1      31.461  26.552  24.119  1.00  0.00     0.135 C 
BRANCH  12  13
ATOM     13  N   UNL A   1      32.475  26.125  23.171  1.00  0.00    -0.337 N 
ATOM     14  C   UNL A   1      32.898  24.944  22.716  1.00  0.00     0.315 C 
ATOM     15  H   UNL A   1      32.964  26.881  22.773  1.00  0.00     0.165 HD
ATOM     16  O   UNL A   1      33.572  24.949  21.680  1.00  0.00    -0.249 OA
ATOM     17  N   UNL A   1      32.650  23.765  23.277  1.00  0.00    -0.333 N 
ATOM     18  H   UNL A   1      32.938  23.017  22.705  1.00  0.00     0.165 HD
BRANCH  17  19
ATOM     19  C   UNL A   1      32.066  23.306  24.515  1.00  0.00     0.164 C 
BRANCH  19  20
ATOM     20  C   UNL A   1      33.167  22.768  25.374  1.00  0.00     0.024 A 
ATOM     21  C   UNL A   1      33.245  22.702  26.752  1.00  0.00     0.017 A 
ATOM     22  S   UNL A   1      34.578  22.113  24.638  1.00  0.00    -0.147 S 
ATOM     23  C   UNL A   1      34.445  22.075  27.199  1.00  0.00     0.012 A 
ATOM     24  C   UNL A   1      35.248  21.688  26.150  1.00  0.00     0.065 A 
ENDBRANCH  19  20
ENDBRANCH  17  19
ENDBRANCH  12  13
ENDBRANCH   9  12
ENDBRANCH   7   9
ENDBRANCH   6   7
ENDBRANCH   5   6
ENDBRANCH   4   5
ENDBRANCH   3   4
ENDBRANCH   2   3
ENDBRANCH   1   2
BRANCH   1  25
ATOM     25  O   UNL A   1      35.398  33.916  29.802  1.00  0.00    -0.377 OA
BRANCH  25  26
ATOM     26  C   UNL A   1      34.443  33.321  30.676  1.00  0.00     0.188 C 
BRANCH  26  27
ATOM     27  C   UNL A   1      34.079  34.030  31.987  1.00  0.00     0.188 C 
BRANCH  27  28
ATOM     28  O   UNL A   1      35.010  34.985  32.504  1.00  0.00    -0.376 OA
BRANCH  28  29
ATOM     29  C   UNL A   1      35.193  35.075  33.918  1.00  0.00     0.202 C 
BRANCH  29  30
ATOM     30  C   UNL A   1      35.776  33.822  34.569  1.00  0.00     0.261 C 
BRANCH  30  31
ATOM     31  O   UNL A   1      36.550  33.058  33.627  1.00  0.00    -0.460 OA
BRANCH  31  32
ATOM     32  C   UNL A   1      37.333  32.094  34.156  1.00  0.00     0.338 C 
ATOM     33  O   UNL A   1      37.395  31.738  35.320  1.00  0.00    -0.246 OA
BRANCH  32  34
ATOM     34  C   UNL A   1      38.044  31.395  33.067  1.00  0.00     0.060 A 
ATOM     35  C   UNL A   1      39.048  30.482  33.416  1.00  0.00     0.016 A 
ATOM     36  C   UNL A   1      37.790  31.694  31.726  1.00  0.00     0.016 A 
ATOM     37  C   UNL A   1      39.854  29.921  32.428  1.00  0.00     0.010 A 
ATOM     38  C   UNL A   1      38.604  31.141  30.738  1.00  0.00     0.010 A 
ATOM     39  C   UNL A   1      39.670  30.296  31.091  1.00  0.00    -0.014 A 
BRANCH  39  40
ATOM     40  C   UNL A   1      40.721  30.007  30.091  1.00  0.00     0.031 A 
ATOM     41  C   UNL A   1      40.660  28.695  29.360  1.00  0.00     0.074 A 
ATOM     42  C   UNL A   1      41.711  30.881  29.844  1.00  0.00     0.049 A 
ATOM     43  N   UNL A   1      41.521  28.165  28.531  1.00  0.00    -0.248 NA
ATOM     44  C   UNL A   1      39.465  27.867  29.599  1.00  0.00     0.031 C 
ATOM     45  C   UNL A   1      41.840  32.208  30.441  1.00  0.00     0.029 A 
ATOM     46  N   UNL A   1      42.806  30.766  29.026  1.00  0.00    -0.354 N 
ATOM     47  C   UNL A   1      40.981  26.939  28.163  1.00  0.00     0.074 A 
ATOM     48  C   UNL A   1      39.726  26.795  28.867  1.00  0.00     0.031 C 
ATOM     49  C   UNL A   1      42.967  32.780  29.982  1.00  0.00     0.029 A 
ATOM     50  C   UNL A   1      43.653  31.843  29.095  1.00  0.00     0.049 A 
ATOM     51  H   UNL A   1      42.968  29.986  28.447  1.00  0.00     0.167 HD
ATOM     52  C   UNL A   1      41.485  26.012  27.316  1.00  0.00     0.031 A 
ATOM     53  C   UNL A   1      44.862  32.029  28.532  1.00  0.00     0.031 A 
ATOM     54  C   UNL A   1      42.742  26.148  26.634  1.00  0.00     0.049 A 
ATOM     55  C   UNL A   1      45.450  30.943  27.668  1.00  0.00     0.074 A 
ATOM     56  C   UNL A   1      43.350  25.263  25.761  1.00  0.00     0.029 A 
ATOM     57  N   UNL A   1      43.586  27.240  26.755  1.00  0.00    -0.354 N 
ATOM     58  N   UNL A   1      44.933  29.788  27.328  1.00  0.00    -0.248 NA
ATOM     59  C   UNL A   1      46.791  31.188  27.116  1.00  0.00     0.031 C 
ATOM     60  C   UNL A   1      44.586  25.803  25.389  1.00  0.00     0.029 A 
ATOM     61  C   UNL A   1      44.720  27.044  25.990  1.00  0.00     0.049 A 
ATOM     62  H   UNL A   1      43.404  28.036  27.305  1.00  0.00     0.167 HD
ATOM     63  C   UNL A   1      45.869  29.183  26.497  1.00  0.00     0.074 A 
ATOM     64  C   UNL A   1      46.984  30.099  26.383  1.00  0.00     0.031 C 
ATOM     65  C   UNL A   1      45.810  27.978  25.880  1.00  0.00     0.031 A 
BRANCH  52  66
ATOM     66  C   UNL A   1      40.693  24.753  27.120  1.00  0.00    -0.014 A 
ATOM     67  C   UNL A   1      39.442  24.771  26.485  1.00  0.00     0.009 A 
ATOM     68  C   UNL A   1      41.215  23.528  27.563  1.00  0.00     0.009 A 
ATOM     69  C   UNL A   1      38.715  23.589  26.325  1.00  0.00     0.001 A 
ATOM     70  C   UNL A   1      40.497  22.344  27.379  1.00  0.00     0.001 A 
ATOM     71  C   UNL A   1      39.246  22.377  26.768  1.00  0.00     0.000 A 
ENDBRANCH  52  66
BRANCH  53  72
ATOM     72  C   UNL A   1      45.620  33.281  28.792  1.00  0.00    -0.014 A 
ATOM     73  C   UNL A   1      46.580  33.336  29.814  1.00  0.00     0.009 A 
ATOM     74  C   UNL A   1      45.373  34.434  28.029  1.00  0.00     0.009 A 
ATOM     75  C   UNL A   1      47.261  34.525  30.079  1.00  0.00     0.001 A 
ATOM     76  C   UNL A   1      46.074  35.615  28.281  1.00  0.00     0.001 A 
ATOM     77  C   UNL A   1      47.012  35.662  29.311  1.00  0.00     0.000 A 
ENDBRANCH  53  72
BRANCH  65  78
ATOM     78  C   UNL A   1      46.952  27.599  24.983  1.00  0.00    -0.014 A 
ATOM     79  C   UNL A   1      47.994  26.778  25.438  1.00  0.00     0.009 A 
ATOM     80  C   UNL A   1      46.939  28.006  23.640  1.00  0.00     0.009 A 
ATOM     81  C   UNL A   1      49.012  26.386  24.565  1.00  0.00     0.001 A 
ATOM     82  C   UNL A   1      47.944  27.594  22.765  1.00  0.00     0.001 A 
ATOM     83  C   UNL A   1      48.982  26.788  23.230  1.00  0.00     0.000 A 
ENDBRANCH  65  78
ENDBRANCH  39  40
ENDBRANCH  32  34
ENDBRANCH  31  32
ENDBRANCH  30  31
ENDBRANCH  29  30
ENDBRANCH  28  29
ENDBRANCH  27  28
ENDBRANCH  26  27
ENDBRANCH  25  26
ENDBRANCH   1  25
TORSDOF 24
ENDMDL
MODEL 3
REMARK VINA RESULT:      -8.6      1.274      6.067
REMARK SMILES CC(C)(CNC(=O)NCc1cccs1)C(=O)OCCOCCOCCOCCOC(=O)c1ccc(-c2c3nc(c(-c4ccccc4)c4ccc([nH]4)c(-c4ccccc4)c4nc(c(-c5ccccc5)c5ccc2[nH]5)C=C4)C=C3)cc1
REMARK SMILES IDX 22 1 21 2 20 3 19 4 18 5 17 6 15 7 16 8 2 9 1 10 3 11 4 12
REMARK SMILES IDX 5 13 6 14 7 16 8 17 9 19 10 20 11 21 14 22 12 23 13 24 23 25
REMARK SMILES IDX 24 26 25 27 26 28 27 29 28 30 29 31 30 32 31 33 32 34 33 35
REMARK SMILES IDX 79 36 34 37 78 38 35 39 36 40 37 41 72 42 38 43 77 44 71 45
REMARK SMILES IDX 73 46 39 47 76 48 70 49 69 50 40 52 62 53 47 54 61 55 48 56
REMARK SMILES IDX 51 57 60 58 74 59 49 60 50 61 59 63 75 64 52 65 41 66 42 67
REMARK SMILES IDX 46 68 43 69 45 70 44 71 63 72 64 73 68 74 65 75 67 76 66 77
REMARK SMILES IDX 53 78 54 79 58 80 55 81 57 82 56 83
REMARK H PARENT 5 15 8 18 73 51 51 62
REMARK Flexibility Score: inf
ROOT
ATOM      1  C   UNL A   1      38.197  21.682  25.822  1.00  0.00     0.188 C 
ENDROOT
BRANCH   1   2
ATOM      2  C   UNL A   1      37.401  21.207  24.601  1.00  0.00     0.188 C 
BRANCH   2   3
ATOM      3  O   UNL A   1      36.173  20.533  24.833  1.00  0.00    -0.376 OA
BRANCH   3   4
ATOM      4  C   UNL A   1      35.008  21.318  25.088  1.00  0.00     0.202 C 
BRANCH   4   5
ATOM      5  C   UNL A   1      35.167  22.768  25.571  1.00  0.00     0.261 C 
BRANCH   5   6
ATOM      6  O   UNL A   1      35.598  23.713  24.561  1.00  0.00    -0.463 OA
BRANCH   6   7
ATOM      7  C   UNL A   1      34.787  23.826  23.478  1.00  0.00     0.313 C 
ATOM      8  O   UNL A   1      35.018  23.280  22.402  1.00  0.00    -0.252 OA
BRANCH   7   9
ATOM      9  C   UNL A   1      33.560  24.728  23.661  1.00  0.00     0.080 C 
ATOM     10  C   UNL A   1      33.468  25.639  22.422  1.00  0.00     0.025 C 
ATOM     11  C   UNL A   1      33.902  25.603  24.887  1.00  0.00     0.025 C 
BRANCH   9  12
ATOM     12  C   UNL A   1      32.212  24.028  23.971  1.00  0.00     0.135 C 
BRANCH  12  13
ATOM     13  N   UNL A   1      31.895  23.849  25.378  1.00  0.00    -0.337 N 
ATOM     14  C   UNL A   1      30.930  24.293  26.186  1.00  0.00     0.315 C 
ATOM     15  H   UNL A   1      32.540  23.268  25.841  1.00  0.00     0.165 HD
ATOM     16  O   UNL A   1      30.781  23.700  27.260  1.00  0.00    -0.249 OA
ATOM     17  N   UNL A   1      30.115  25.311  25.932  1.00  0.00    -0.333 N 
ATOM     18  H   UNL A   1      29.393  25.380  26.597  1.00  0.00     0.165 HD
BRANCH  17  19
ATOM     19  C   UNL A   1      30.022  26.342  24.924  1.00  0.00     0.164 C 
BRANCH  19  20
ATOM     20  C   UNL A   1      30.892  27.483  25.351  1.00  0.00     0.024 A 
ATOM     21  C   UNL A   1      31.384  28.532  24.599  1.00  0.00     0.017 A 
ATOM     22  S   UNL A   1      31.403  27.597  26.990  1.00  0.00    -0.147 S 
ATOM     23  C   UNL A   1      32.144  29.451  25.381  1.00  0.00     0.012 A 
ATOM     24  C   UNL A   1      32.215  29.072  26.702  1.00  0.00     0.065 A 
ENDBRANCH  19  20
ENDBRANCH  17  19
ENDBRANCH  12  13
ENDBRANCH   9  12
ENDBRANCH   7   9
ENDBRANCH   6   7
ENDBRANCH   5   6
ENDBRANCH   4   5
ENDBRANCH   3   4
ENDBRANCH   2   3
ENDBRANCH   1   2
BRANCH   1  25
ATOM     25  O   UNL A   1      39.557  21.289  25.807  1.00  0.00    -0.377 OA
BRANCH  25  26
ATOM     26  C   UNL A   1      40.531  22.147  26.395  1.00  0.00     0.188 C 
BRANCH  26  27
ATOM     27  C   UNL A   1      41.511  21.573  27.427  1.00  0.00     0.188 C 
BRANCH  27  28
ATOM     28  O   UNL A   1      42.811  21.193  26.966  1.00  0.00    -0.376 OA
BRANCH  28  29
ATOM     29  C   UNL A   1      43.162  21.447  25.605  1.00  0.00     0.202 C 
BRANCH  29  30
ATOM     30  C   UNL A   1      44.135  22.607  25.401  1.00  0.00     0.261 C 
BRANCH  30  31
ATOM     31  O   UNL A   1      43.445  23.799  24.989  1.00  0.00    -0.460 OA
BRANCH  31  32
ATOM     32  C   UNL A   1      44.085  24.963  25.237  1.00  0.00     0.338 C 
ATOM     33  O   UNL A   1      45.114  25.371  24.729  1.00  0.00    -0.246 OA
BRANCH  32  34
ATOM     34  C   UNL A   1      43.263  25.784  26.148  1.00  0.00     0.060 A 
ATOM     35  C   UNL A   1      43.686  27.091  26.418  1.00  0.00     0.016 A 
ATOM     36  C   UNL A   1      42.144  25.250  26.795  1.00  0.00     0.016 A 
ATOM     37  C   UNL A   1      43.038  27.847  27.393  1.00  0.00     0.010 A 
ATOM     38  C   UNL A   1      41.502  26.002  27.779  1.00  0.00     0.010 A 
ATOM     39  C   UNL A   1      41.980  27.280  28.116  1.00  0.00    -0.014 A 
BRANCH  39  40
ATOM     40  C   UNL A   1      41.525  27.909  29.374  1.00  0.00     0.031 A 
ATOM     41  C   UNL A   1      40.319  28.806  29.322  1.00  0.00     0.074 A 
ATOM     42  C   UNL A   1      42.169  27.700  30.535  1.00  0.00     0.049 A 
ATOM     43  N   UNL A   1      39.802  29.558  30.258  1.00  0.00    -0.248 NA
ATOM     44  C   UNL A   1      39.602  28.864  28.036  1.00  0.00     0.031 C 
ATOM     45  C   UNL A   1      43.307  26.803  30.723  1.00  0.00     0.029 A 
ATOM     46  N   UNL A   1      41.956  28.245  31.774  1.00  0.00    -0.354 N 
ATOM     47  C   UNL A   1      38.711  30.187  29.672  1.00  0.00     0.074 A 
ATOM     48  C   UNL A   1      38.647  29.743  28.297  1.00  0.00     0.031 C 
ATOM     49  C   UNL A   1      43.706  26.875  32.005  1.00  0.00     0.029 A 
ATOM     50  C   UNL A   1      42.877  27.851  32.711  1.00  0.00     0.049 A 
ATOM     51  H   UNL A   1      41.213  28.861  31.972  1.00  0.00     0.167 HD
ATOM     52  C   UNL A   1      37.840  31.062  30.226  1.00  0.00     0.031 A 
ATOM     53  C   UNL A   1      43.050  28.262  33.982  1.00  0.00     0.031 A 
ATOM     54  C   UNL A   1      37.917  31.519  31.586  1.00  0.00     0.049 A 
ATOM     55  C   UNL A   1      42.128  29.308  34.551  1.00  0.00     0.074 A 
ATOM     56  C   UNL A   1      37.091  32.411  32.245  1.00  0.00     0.029 A 
ATOM     57  N   UNL A   1      38.886  31.119  32.493  1.00  0.00    -0.354 N 
ATOM     58  N   UNL A   1      41.102  29.899  33.989  1.00  0.00    -0.248 NA
ATOM     59  C   UNL A   1      42.393  29.747  35.929  1.00  0.00     0.031 C 
ATOM     60  C   UNL A   1      37.588  32.585  33.541  1.00  0.00     0.029 A 
ATOM     61  C   UNL A   1      38.691  31.763  33.700  1.00  0.00     0.049 A 
ATOM     62  H   UNL A   1      39.605  30.474  32.305  1.00  0.00     0.167 HD
ATOM     63  C   UNL A   1      40.579  30.753  34.953  1.00  0.00     0.074 A 
ATOM     64  C   UNL A   1      41.400  30.602  36.136  1.00  0.00     0.031 C 
ATOM     65  C   UNL A   1      39.513  31.585  34.869  1.00  0.00     0.031 A 
BRANCH  52  66
ATOM     66  C   UNL A   1      36.758  31.612  29.343  1.00  0.00    -0.014 A 
ATOM     67  C   UNL A   1      35.607  30.864  29.050  1.00  0.00     0.009 A 
ATOM     68  C   UNL A   1      36.885  32.904  28.812  1.00  0.00     0.009 A 
ATOM     69  C   UNL A   1      34.618  31.390  28.216  1.00  0.00     0.001 A 
ATOM     70  C   UNL A   1      35.883  33.437  27.998  1.00  0.00     0.001 A 
ATOM     71  C   UNL A   1      34.755  32.677  27.695  1.00  0.00     0.000 A 
ENDBRANCH  52  66
BRANCH  53  72
ATOM     72  C   UNL A   1      44.163  27.711  34.797  1.00  0.00    -0.014 A 
ATOM     73  C   UNL A   1      43.972  26.569  35.589  1.00  0.00     0.009 A 
ATOM     74  C   UNL A   1      45.420  28.337  34.800  1.00  0.00     0.009 A 
ATOM     75  C   UNL A   1      45.011  26.078  36.383  1.00  0.00     0.001 A 
ATOM     76  C   UNL A   1      46.464  27.829  35.576  1.00  0.00     0.001 A 
ATOM     77  C   UNL A   1      46.257  26.704  36.373  1.00  0.00     0.000 A 
ENDBRANCH  53  72
BRANCH  65  78
ATOM     78  C   UNL A   1      39.134  32.357  36.100  1.00  0.00    -0.014 A 
ATOM     79  C   UNL A   1      39.652  33.636  36.345  1.00  0.00     0.009 A 
ATOM     80  C   UNL A   1      38.181  31.824  36.982  1.00  0.00     0.009 A 
ATOM     81  C   UNL A   1      39.235  34.361  37.464  1.00  0.00     0.001 A 
ATOM     82  C   UNL A   1      37.749  32.559  38.085  1.00  0.00     0.001 A 
ATOM     83  C   UNL A   1      38.280  33.825  38.328  1.00  0.00     0.000 A 
ENDBRANCH  65  78
ENDBRANCH  39  40
ENDBRANCH  32  34
ENDBRANCH  31  32
ENDBRANCH  30  31
ENDBRANCH  29  30
ENDBRANCH  28  29
ENDBRANCH  27  28
ENDBRANCH  26  27
ENDBRANCH  25  26
ENDBRANCH   1  25
TORSDOF 24
ENDMDL
