MODEL 1
REMARK VINA RESULT:      -9.7      0.000      0.000
REMARK SMILES O=C(OCCOCCOCCOCCOC(=O)c1cn(C2CN(C(=O)Nc3ccsc3)C2)nn1)c1ccc(-c2c3nc(c(-c4ccccc4)c4ccc([nH]4)c(-c4ccccc4)c4nc(c(-c5ccccc5)c5ccc2[nH]5)C=C4)C=C3)cc1
REMARK SMILES IDX 9 1 8 2 7 3 6 4 5 5 4 6 3 7 2 8 1 9 35 10 36 11 82 12 37 13
REMARK SMILES IDX 81 14 38 15 39 16 40 17 75 18 41 19 80 20 74 21 76 22 42 23
REMARK SMILES IDX 79 24 73 25 72 26 43 28 65 29 50 30 64 31 51 32 54 33 63 34
REMARK SMILES IDX 77 35 52 36 53 37 62 39 78 40 55 41 44 42 45 43 49 44 46 45
REMARK SMILES IDX 48 46 47 47 66 48 67 49 71 50 68 51 70 52 69 53 56 54 57 55
REMARK SMILES IDX 61 56 58 57 60 58 59 59 10 60 11 61 12 62 13 63 14 64 15 65
REMARK SMILES IDX 16 66 17 67 18 68 19 69 34 70 20 71 33 72 21 73 22 74 32 75
REMARK SMILES IDX 23 76 24 77 25 78 26 79 27 81 28 82 31 83 29 84 30 85
REMARK H PARENT 76 27 54 38 26 80
REMARK Flexibility Score: inf
ROOT
ATOM      1  O   UNL A   1      45.473  18.778  24.144  1.00  0.00    -0.377 OA
ENDROOT
BRANCH   1   2
ATOM      2  C   UNL A   1      45.422  20.166  23.858  1.00  0.00     0.188 C 
BRANCH   2   3
ATOM      3  C   UNL A   1      46.513  21.002  24.547  1.00  0.00     0.188 C 
BRANCH   3   4
ATOM      4  O   UNL A   1      46.245  22.145  25.362  1.00  0.00    -0.376 OA
BRANCH   4   5
ATOM      5  C   UNL A   1      45.243  22.197  26.354  1.00  0.00     0.202 C 
BRANCH   5   6
ATOM      6  C   UNL A   1      44.950  23.577  26.954  1.00  0.00     0.261 C 
BRANCH   6   7
ATOM      7  O   UNL A   1      44.327  23.576  28.245  1.00  0.00    -0.460 OA
BRANCH   7   8
ATOM      8  C   UNL A   1      43.198  24.180  28.676  1.00  0.00     0.338 C 
ATOM      9  O   UNL A   1      42.261  23.461  29.026  1.00  0.00    -0.246 OA
BRANCH   8  10
ATOM     10  C   UNL A   1      42.995  25.654  28.752  1.00  0.00     0.060 A 
ATOM     11  C   UNL A   1      43.442  26.490  29.775  1.00  0.00     0.016 A 
ATOM     12  C   UNL A   1      42.246  26.222  27.702  1.00  0.00     0.016 A 
ATOM     13  C   UNL A   1      43.038  27.809  29.839  1.00  0.00     0.010 A 
ATOM     14  C   UNL A   1      41.849  27.549  27.747  1.00  0.00     0.010 A 
ATOM     15  C   UNL A   1      42.190  28.310  28.859  1.00  0.00    -0.014 A 
BRANCH  15  16
ATOM     16  C   UNL A   1      41.656  29.639  29.087  1.00  0.00     0.031 A 
ATOM     17  C   UNL A   1      42.603  30.768  28.938  1.00  0.00     0.074 A 
ATOM     18  C   UNL A   1      40.357  29.821  29.385  1.00  0.00     0.049 A 
ATOM     19  N   UNL A   1      42.908  31.674  29.810  1.00  0.00    -0.248 NA
ATOM     20  C   UNL A   1      43.349  30.865  27.674  1.00  0.00     0.031 C 
ATOM     21  C   UNL A   1      39.285  28.823  29.323  1.00  0.00     0.029 A 
ATOM     22  N   UNL A   1      39.701  30.976  29.684  1.00  0.00    -0.354 N 
ATOM     23  C   UNL A   1      43.743  32.568  29.148  1.00  0.00     0.074 A 
ATOM     24  C   UNL A   1      44.077  31.962  27.883  1.00  0.00     0.031 C 
ATOM     25  C   UNL A   1      38.097  29.461  29.326  1.00  0.00     0.029 A 
ATOM     26  C   UNL A   1      38.329  30.883  29.513  1.00  0.00     0.049 A 
ATOM     27  H   UNL A   1      40.154  31.794  29.991  1.00  0.00     0.167 HD
ATOM     28  C   UNL A   1      43.895  33.852  29.571  1.00  0.00     0.031 A 
ATOM     29  C   UNL A   1      37.450  31.908  29.436  1.00  0.00     0.031 A 
ATOM     30  C   UNL A   1      43.573  34.017  30.962  1.00  0.00     0.049 A 
ATOM     31  C   UNL A   1      38.084  33.112  30.015  1.00  0.00     0.074 A 
ATOM     32  C   UNL A   1      44.016  33.453  32.144  1.00  0.00     0.029 A 
ATOM     33  N   UNL A   1      42.414  34.680  31.282  1.00  0.00    -0.354 N 
ATOM     34  N   UNL A   1      38.313  33.272  31.286  1.00  0.00    -0.248 NA
ATOM     35  C   UNL A   1      38.817  34.007  29.134  1.00  0.00     0.031 C 
ATOM     36  C   UNL A   1      42.870  33.410  32.991  1.00  0.00     0.029 A 
ATOM     37  C   UNL A   1      41.807  33.976  32.287  1.00  0.00     0.049 A 
ATOM     38  H   UNL A   1      42.081  35.508  30.866  1.00  0.00     0.167 HD
ATOM     39  C   UNL A   1      39.512  33.966  31.344  1.00  0.00     0.074 A 
ATOM     40  C   UNL A   1      39.699  34.507  30.002  1.00  0.00     0.031 C 
ATOM     41  C   UNL A   1      40.376  33.795  32.390  1.00  0.00     0.031 A 
BRANCH  28  42
ATOM     42  C   UNL A   1      43.907  35.013  28.603  1.00  0.00    -0.014 A 
ATOM     43  C   UNL A   1      44.421  36.250  29.028  1.00  0.00     0.009 A 
ATOM     44  C   UNL A   1      43.155  35.017  27.410  1.00  0.00     0.009 A 
ATOM     45  C   UNL A   1      44.119  37.436  28.344  1.00  0.00     0.001 A 
ATOM     46  C   UNL A   1      42.892  36.191  26.701  1.00  0.00     0.001 A 
ATOM     47  C   UNL A   1      43.347  37.406  27.188  1.00  0.00     0.000 A 
ENDBRANCH  28  42
BRANCH  29  48
ATOM     48  C   UNL A   1      36.183  31.955  28.679  1.00  0.00    -0.014 A 
ATOM     49  C   UNL A   1      35.724  30.830  27.980  1.00  0.00     0.009 A 
ATOM     50  C   UNL A   1      35.300  33.042  28.826  1.00  0.00     0.009 A 
ATOM     51  C   UNL A   1      34.421  30.788  27.467  1.00  0.00     0.001 A 
ATOM     52  C   UNL A   1      34.006  33.007  28.303  1.00  0.00     0.001 A 
ATOM     53  C   UNL A   1      33.561  31.872  27.636  1.00  0.00     0.000 A 
ENDBRANCH  29  48
BRANCH  41  54
ATOM     54  C   UNL A   1      39.871  33.081  33.619  1.00  0.00    -0.014 A 
ATOM     55  C   UNL A   1      40.617  32.094  34.287  1.00  0.00     0.009 A 
ATOM     56  C   UNL A   1      38.666  33.507  34.197  1.00  0.00     0.009 A 
ATOM     57  C   UNL A   1      40.146  31.517  35.470  1.00  0.00     0.001 A 
ATOM     58  C   UNL A   1      38.208  32.948  35.392  1.00  0.00     0.001 A 
ATOM     59  C   UNL A   1      38.942  31.946  36.022  1.00  0.00     0.000 A 
ENDBRANCH  41  54
ENDBRANCH  15  16
ENDBRANCH   8  10
ENDBRANCH   7   8
ENDBRANCH   6   7
ENDBRANCH   5   6
ENDBRANCH   4   5
ENDBRANCH   3   4
ENDBRANCH   2   3
ENDBRANCH   1   2
BRANCH   1  60
ATOM     60  C   UNL A   1      44.953  18.409  25.399  1.00  0.00     0.188 C 
BRANCH  60  61
ATOM     61  C   UNL A   1      43.526  18.918  25.679  1.00  0.00     0.188 C 
BRANCH  61  62
ATOM     62  O   UNL A   1      42.619  18.240  26.543  1.00  0.00    -0.376 OA
BRANCH  62  63
ATOM     63  C   UNL A   1      42.077  18.850  27.701  1.00  0.00     0.202 C 
BRANCH  63  64
ATOM     64  C   UNL A   1      41.823  20.361  27.652  1.00  0.00     0.261 C 
BRANCH  64  65
ATOM     65  O   UNL A   1      40.487  20.722  27.278  1.00  0.00    -0.458 OA
BRANCH  65  66
ATOM     66  C   UNL A   1      40.394  21.736  26.365  1.00  0.00     0.360 C 
ATOM     67  O   UNL A   1      41.333  22.246  25.784  1.00  0.00    -0.244 OA
BRANCH  66  68
ATOM     68  C   UNL A   1      39.007  22.037  26.048  1.00  0.00     0.190 A 
ATOM     69  C   UNL A   1      37.912  21.202  25.942  1.00  0.00     0.147 A 
ATOM     70  N   UNL A   1      38.629  23.312  25.694  1.00  0.00    -0.123 NA
ATOM     71  N   UNL A   1      36.884  22.062  25.656  1.00  0.00    -0.245 N 
ATOM     72  N   UNL A   1      37.354  23.285  25.351  1.00  0.00    -0.066 NA
BRANCH  71  73
ATOM     73  C   UNL A   1      35.516  21.951  26.052  1.00  0.00     0.148 C 
ATOM     74  C   UNL A   1      34.410  22.697  25.311  1.00  0.00     0.150 C 
ATOM     75  C   UNL A   1      34.969  20.668  25.388  1.00  0.00     0.150 C 
ATOM     76  N   UNL A   1      33.738  21.393  25.213  1.00  0.00    -0.320 N 
ATOM     77  C   UNL A   1      32.547  21.136  24.618  1.00  0.00     0.322 C 
ATOM     78  O   UNL A   1      31.764  22.055  24.361  1.00  0.00    -0.248 OA
ATOM     79  N   UNL A   1      32.253  19.895  24.142  1.00  0.00    -0.307 N 
ATOM     80  H   UNL A   1      31.515  19.883  23.490  1.00  0.00     0.171 HD
BRANCH  79  81
ATOM     81  C   UNL A   1      32.793  18.647  24.401  1.00  0.00     0.053 A 
ATOM     82  C   UNL A   1      32.674  17.857  25.581  1.00  0.00     0.038 A 
ATOM     83  C   UNL A   1      33.489  17.960  23.427  1.00  0.00     0.091 A 
ATOM     84  C   UNL A   1      33.441  16.712  25.537  1.00  0.00     0.067 A 
ATOM     85  S   UNL A   1      34.182  16.508  24.011  1.00  0.00    -0.150 S 
ENDBRANCH  79  81
ENDBRANCH  71  73
ENDBRANCH  66  68
ENDBRANCH  65  66
ENDBRANCH  64  65
ENDBRANCH  63  64
ENDBRANCH  62  63
ENDBRANCH  61  62
ENDBRANCH  60  61
ENDBRANCH   1  60
TORSDOF 22
ENDMDL
MODEL 2
REMARK VINA RESULT:      -9.4      4.781     10.061
REMARK SMILES O=C(OCCOCCOCCOCCOC(=O)c1cn(C2CN(C(=O)Nc3ccsc3)C2)nn1)c1ccc(-c2c3nc(c(-c4ccccc4)c4ccc([nH]4)c(-c4ccccc4)c4nc(c(-c5ccccc5)c5ccc2[nH]5)C=C4)C=C3)cc1
REMARK SMILES IDX 9 1 8 2 7 3 6 4 5 5 4 6 3 7 2 8 1 9 35 10 36 11 82 12 37 13
REMARK SMILES IDX 81 14 38 15 39 16 40 17 75 18 41 19 80 20 74 21 76 22 42 23
REMARK SMILES IDX 79 24 73 25 72 26 43 28 65 29 50 30 64 31 51 32 54 33 63 34
REMARK SMILES IDX 77 35 52 36 53 37 62 39 78 40 55 41 44 42 45 43 49 44 46 45
REMARK SMILES IDX 48 46 47 47 66 48 67 49 71 50 68 51 70 52 69 53 56 54 57 55
REMARK SMILES IDX 61 56 58 57 60 58 59 59 10 60 11 61 12 62 13 63 14 64 15 65
REMARK SMILES IDX 16 66 17 67 18 68 19 69 34 70 20 71 33 72 21 73 22 74 32 75
REMARK SMILES IDX 23 76 24 77 25 78 26 79 27 81 28 82 31 83 29 84 30 85
REMARK H PARENT 76 27 54 38 26 80
REMARK Flexibility Score: inf
ROOT
ATOM      1  O   UNL A   1      32.182  30.762  27.206  1.00  0.00    -0.377 OA
ENDROOT
BRANCH   1   2
ATOM      2  C   UNL A   1      31.547  31.983  26.868  1.00  0.00     0.188 C 
BRANCH   2   3
ATOM      3  C   UNL A   1      32.462  33.217  26.920  1.00  0.00     0.188 C 
BRANCH   3   4
ATOM      4  O   UNL A   1      32.594  34.063  28.064  1.00  0.00    -0.376 OA
BRANCH   4   5
ATOM      5  C   UNL A   1      33.798  34.261  28.773  1.00  0.00     0.202 C 
BRANCH   5   6
ATOM      6  C   UNL A   1      35.095  34.053  27.981  1.00  0.00     0.261 C 
BRANCH   6   7
ATOM      7  O   UNL A   1      35.646  32.730  28.025  1.00  0.00    -0.460 OA
BRANCH   7   8
ATOM      8  C   UNL A   1      35.639  31.808  29.012  1.00  0.00     0.338 C 
ATOM      9  O   UNL A   1      34.561  31.546  29.545  1.00  0.00    -0.246 OA
BRANCH   8  10
ATOM     10  C   UNL A   1      36.843  31.089  29.514  1.00  0.00     0.060 A 
ATOM     11  C   UNL A   1      38.149  31.581  29.519  1.00  0.00     0.016 A 
ATOM     12  C   UNL A   1      36.621  29.778  29.982  1.00  0.00     0.016 A 
ATOM     13  C   UNL A   1      39.214  30.761  29.834  1.00  0.00     0.010 A 
ATOM     14  C   UNL A   1      37.682  28.951  30.317  1.00  0.00     0.010 A 
ATOM     15  C   UNL A   1      38.977  29.434  30.165  1.00  0.00    -0.014 A 
BRANCH  15  16
ATOM     16  C   UNL A   1      40.144  28.584  30.300  1.00  0.00     0.031 A 
ATOM     17  C   UNL A   1      40.812  28.579  31.622  1.00  0.00     0.074 A 
ATOM     18  C   UNL A   1      40.567  27.822  29.275  1.00  0.00     0.049 A 
ATOM     19  N   UNL A   1      42.045  28.858  31.894  1.00  0.00    -0.248 NA
ATOM     20  C   UNL A   1      39.982  28.280  32.799  1.00  0.00     0.031 C 
ATOM     21  C   UNL A   1      39.862  27.559  28.017  1.00  0.00     0.029 A 
ATOM     22  N   UNL A   1      41.663  27.016  29.201  1.00  0.00    -0.354 N 
ATOM     23  C   UNL A   1      42.202  28.592  33.250  1.00  0.00     0.074 A 
ATOM     24  C   UNL A   1      40.881  28.356  33.780  1.00  0.00     0.031 C 
ATOM     25  C   UNL A   1      40.413  26.478  27.428  1.00  0.00     0.029 A 
ATOM     26  C   UNL A   1      41.572  26.062  28.201  1.00  0.00     0.049 A 
ATOM     27  H   UNL A   1      42.441  27.104  29.797  1.00  0.00     0.167 HD
ATOM     28  C   UNL A   1      43.421  28.327  33.791  1.00  0.00     0.031 A 
ATOM     29  C   UNL A   1      42.333  24.953  28.066  1.00  0.00     0.031 A 
ATOM     30  C   UNL A   1      44.502  28.853  33.002  1.00  0.00     0.049 A 
ATOM     31  C   UNL A   1      43.567  25.134  28.862  1.00  0.00     0.074 A 
ATOM     32  C   UNL A   1      44.852  30.105  32.532  1.00  0.00     0.029 A 
ATOM     33  N   UNL A   1      45.283  27.965  32.304  1.00  0.00    -0.354 N 
ATOM     34  N   UNL A   1      44.525  25.953  28.539  1.00  0.00    -0.248 NA
ATOM     35  C   UNL A   1      43.583  24.670  30.241  1.00  0.00     0.031 C 
ATOM     36  C   UNL A   1      45.468  29.871  31.268  1.00  0.00     0.029 A 
ATOM     37  C   UNL A   1      45.482  28.493  31.057  1.00  0.00     0.049 A 
ATOM     38  H   UNL A   1      45.635  27.109  32.638  1.00  0.00     0.167 HD
ATOM     39  C   UNL A   1      44.995  26.442  29.749  1.00  0.00     0.074 A 
ATOM     40  C   UNL A   1      44.477  25.519  30.754  1.00  0.00     0.031 C 
ATOM     41  C   UNL A   1      45.514  27.702  29.846  1.00  0.00     0.031 A 
BRANCH  28  42
ATOM     42  C   UNL A   1      43.623  27.213  34.793  1.00  0.00    -0.014 A 
ATOM     43  C   UNL A   1      43.403  25.884  34.390  1.00  0.00     0.009 A 
ATOM     44  C   UNL A   1      43.718  27.445  36.181  1.00  0.00     0.009 A 
ATOM     45  C   UNL A   1      43.196  24.865  35.329  1.00  0.00     0.001 A 
ATOM     46  C   UNL A   1      43.559  26.422  37.118  1.00  0.00     0.001 A 
ATOM     47  C   UNL A   1      43.264  25.137  36.692  1.00  0.00     0.000 A 
ENDBRANCH  28  42
BRANCH  29  48
ATOM     48  C   UNL A   1      41.944  23.657  27.476  1.00  0.00    -0.014 A 
ATOM     49  C   UNL A   1      40.730  23.047  27.824  1.00  0.00     0.009 A 
ATOM     50  C   UNL A   1      42.662  23.118  26.391  1.00  0.00     0.009 A 
ATOM     51  C   UNL A   1      40.244  21.953  27.097  1.00  0.00     0.001 A 
ATOM     52  C   UNL A   1      42.184  22.019  25.675  1.00  0.00     0.001 A 
ATOM     53  C   UNL A   1      40.966  21.445  26.019  1.00  0.00     0.000 A 
ENDBRANCH  29  48
BRANCH  41  54
ATOM     54  C   UNL A   1      45.851  28.433  28.570  1.00  0.00    -0.014 A 
ATOM     55  C   UNL A   1      44.928  29.252  27.895  1.00  0.00     0.009 A 
ATOM     56  C   UNL A   1      47.173  28.400  28.104  1.00  0.00     0.009 A 
ATOM     57  C   UNL A   1      45.307  29.975  26.761  1.00  0.00     0.001 A 
ATOM     58  C   UNL A   1      47.558  29.142  26.985  1.00  0.00     0.001 A 
ATOM     59  C   UNL A   1      46.622  29.920  26.308  1.00  0.00     0.000 A 
ENDBRANCH  41  54
ENDBRANCH  15  16
ENDBRANCH   8  10
ENDBRANCH   7   8
ENDBRANCH   6   7
ENDBRANCH   5   6
ENDBRANCH   4   5
ENDBRANCH   3   4
ENDBRANCH   2   3
ENDBRANCH   1   2
BRANCH   1  60
ATOM     60  C   UNL A   1      33.146  30.316  26.282  1.00  0.00     0.188 C 
BRANCH  60  61
ATOM     61  C   UNL A   1      32.608  29.349  25.208  1.00  0.00     0.188 C 
BRANCH  61  62
ATOM     62  O   UNL A   1      33.261  29.141  23.959  1.00  0.00    -0.376 OA
BRANCH  62  63
ATOM     63  C   UNL A   1      32.543  28.940  22.754  1.00  0.00     0.202 C 
BRANCH  63  64
ATOM     64  C   UNL A   1      31.036  28.680  22.862  1.00  0.00     0.261 C 
BRANCH  64  65
ATOM     65  O   UNL A   1      30.544  27.689  21.952  1.00  0.00    -0.458 OA
BRANCH  65  66
ATOM     66  C   UNL A   1      31.234  26.508  21.950  1.00  0.00     0.360 C 
ATOM     67  O   UNL A   1      32.070  26.186  21.128  1.00  0.00    -0.244 OA
BRANCH  66  68
ATOM     68  C   UNL A   1      30.962  25.733  23.150  1.00  0.00     0.190 A 
ATOM     69  C   UNL A   1      31.076  24.377  23.383  1.00  0.00     0.147 A 
ATOM     70  N   UNL A   1      30.419  26.332  24.264  1.00  0.00    -0.123 NA
ATOM     71  N   UNL A   1      30.714  24.250  24.699  1.00  0.00    -0.245 N 
ATOM     72  N   UNL A   1      30.171  25.393  25.158  1.00  0.00    -0.066 NA
BRANCH  71  73
ATOM     73  C   UNL A   1      31.213  23.315  25.657  1.00  0.00     0.148 C 
ATOM     74  C   UNL A   1      30.979  21.815  25.503  1.00  0.00     0.150 C 
ATOM     75  C   UNL A   1      32.681  23.032  25.271  1.00  0.00     0.150 C 
ATOM     76  N   UNL A   1      32.431  21.675  25.679  1.00  0.00    -0.320 N 
ATOM     77  C   UNL A   1      33.143  20.520  25.667  1.00  0.00     0.322 C 
ATOM     78  O   UNL A   1      32.575  19.433  25.808  1.00  0.00    -0.248 OA
ATOM     79  N   UNL A   1      34.464  20.513  25.339  1.00  0.00    -0.307 N 
ATOM     80  H   UNL A   1      34.805  19.626  25.081  1.00  0.00     0.171 HD
BRANCH  79  81
ATOM     81  C   UNL A   1      35.419  21.514  25.299  1.00  0.00     0.053 A 
ATOM     82  C   UNL A   1      36.042  22.190  26.388  1.00  0.00     0.038 A 
ATOM     83  C   UNL A   1      35.959  21.930  24.099  1.00  0.00     0.091 A 
ATOM     84  C   UNL A   1      36.864  23.217  25.978  1.00  0.00     0.067 A 
ATOM     85  S   UNL A   1      37.012  23.268  24.278  1.00  0.00    -0.150 S 
ENDBRANCH  79  81
ENDBRANCH  71  73
ENDBRANCH  66  68
ENDBRANCH  65  66
ENDBRANCH  64  65
ENDBRANCH  63  64
ENDBRANCH  62  63
ENDBRANCH  61  62
ENDBRANCH  60  61
ENDBRANCH   1  60
TORSDOF 22
ENDMDL
MODEL 3
REMARK VINA RESULT:      -9.1      7.558     11.265
REMARK SMILES O=C(OCCOCCOCCOCCOC(=O)c1cn(C2CN(C(=O)Nc3ccsc3)C2)nn1)c1ccc(-c2c3nc(c(-c4ccccc4)c4ccc([nH]4)c(-c4ccccc4)c4nc(c(-c5ccccc5)c5ccc2[nH]5)C=C4)C=C3)cc1
REMARK SMILES IDX 9 1 8 2 7 3 6 4 5 5 4 6 3 7 2 8 1 9 35 10 36 11 82 12 37 13
REMARK SMILES IDX 81 14 38 15 39 16 40 17 75 18 41 19 80 20 74 21 76 22 42 23
REMARK SMILES IDX 79 24 73 25 72 26 43 28 65 29 50 30 64 31 51 32 54 33 63 34
REMARK SMILES IDX 77 35 52 36 53 37 62 39 78 40 55 41 44 42 45 43 49 44 46 45
REMARK SMILES IDX 48 46 47 47 66 48 67 49 71 50 68 51 70 52 69 53 56 54 57 55
REMARK SMILES IDX 61 56 58 57 60 58 59 59 10 60 11 61 12 62 13 63 14 64 15 65
REMARK SMILES IDX 16 66 17 67 18 68 19 69 34 70 20 71 33 72 21 73 22 74 32 75
REMARK SMILES IDX 23 76 24 77 25 78 26 79 27 81 28 82 31 83 29 84 30 85
REMARK H PARENT 76 27 54 38 26 80
REMARK Flexibility Score: inf
ROOT
ATOM      1  O   UNL A   1      45.776  20.425  24.187  1.00  0.00    -0.377 OA
ENDROOT
BRANCH   1   2
ATOM      2  C   UNL A   1      45.698  20.910  25.517  1.00  0.00     0.188 C 
BRANCH   2   3
ATOM      3  C   UNL A   1      45.407  22.414  25.634  1.00  0.00     0.188 C 
BRANCH   3   4
ATOM      4  O   UNL A   1      44.284  22.956  26.334  1.00  0.00    -0.376 OA
BRANCH   4   5
ATOM      5  C   UNL A   1      44.381  23.871  27.404  1.00  0.00     0.202 C 
BRANCH   5   6
ATOM      6  C   UNL A   1      44.744  25.315  27.035  1.00  0.00     0.261 C 
BRANCH   6   7
ATOM      7  O   UNL A   1      44.455  26.304  28.031  1.00  0.00    -0.460 OA
BRANCH   7   8
ATOM      8  C   UNL A   1      43.885  26.183  29.249  1.00  0.00     0.338 C 
ATOM      9  O   UNL A   1      42.656  26.231  29.315  1.00  0.00    -0.246 OA
BRANCH   8  10
ATOM     10  C   UNL A   1      44.632  26.006  30.526  1.00  0.00     0.060 A 
ATOM     11  C   UNL A   1      45.431  26.966  31.147  1.00  0.00     0.016 A 
ATOM     12  C   UNL A   1      44.538  24.730  31.117  1.00  0.00     0.016 A 
ATOM     13  C   UNL A   1      46.225  26.636  32.227  1.00  0.00     0.010 A 
ATOM     14  C   UNL A   1      45.318  24.392  32.212  1.00  0.00     0.010 A 
ATOM     15  C   UNL A   1      46.212  25.334  32.709  1.00  0.00    -0.014 A 
BRANCH  15  16
ATOM     16  C   UNL A   1      47.203  25.009  33.717  1.00  0.00     0.031 A 
ATOM     17  C   UNL A   1      48.543  24.610  33.226  1.00  0.00     0.074 A 
ATOM     18  C   UNL A   1      46.912  25.101  35.027  1.00  0.00     0.049 A 
ATOM     19  N   UNL A   1      49.187  23.515  33.469  1.00  0.00    -0.248 NA
ATOM     20  C   UNL A   1      49.224  25.525  32.299  1.00  0.00     0.031 C 
ATOM     21  C   UNL A   1      45.722  25.706  35.631  1.00  0.00     0.029 A 
ATOM     22  N   UNL A   1      47.689  24.786  36.101  1.00  0.00    -0.354 N 
ATOM     23  C   UNL A   1      50.437  23.676  32.879  1.00  0.00     0.074 A 
ATOM     24  C   UNL A   1      50.364  24.871  32.076  1.00  0.00     0.031 C 
ATOM     25  C   UNL A   1      45.967  25.942  36.936  1.00  0.00     0.029 A 
ATOM     26  C   UNL A   1      47.271  25.394  37.274  1.00  0.00     0.049 A 
ATOM     27  H   UNL A   1      48.467  24.186  36.050  1.00  0.00     0.167 HD
ATOM     28  C   UNL A   1      51.520  22.965  33.293  1.00  0.00     0.031 A 
ATOM     29  C   UNL A   1      47.979  25.523  38.418  1.00  0.00     0.031 A 
ATOM     30  C   UNL A   1      51.158  21.743  33.959  1.00  0.00     0.049 A 
ATOM     31  C   UNL A   1      49.078  24.533  38.401  1.00  0.00     0.074 A 
ATOM     32  C   UNL A   1      50.409  20.630  33.623  1.00  0.00     0.029 A 
ATOM     33  N   UNL A   1      51.338  21.670  35.318  1.00  0.00    -0.354 N 
ATOM     34  N   UNL A   1      48.902  23.251  38.538  1.00  0.00    -0.248 NA
ATOM     35  C   UNL A   1      50.367  24.929  37.856  1.00  0.00     0.031 C 
ATOM     36  C   UNL A   1      49.791  20.215  34.839  1.00  0.00     0.029 A 
ATOM     37  C   UNL A   1      50.221  21.080  35.846  1.00  0.00     0.049 A 
ATOM     38  H   UNL A   1      52.124  21.984  35.821  1.00  0.00     0.167 HD
ATOM     39  C   UNL A   1      49.853  22.674  37.710  1.00  0.00     0.074 A 
ATOM     40  C   UNL A   1      50.806  23.743  37.430  1.00  0.00     0.031 C 
ATOM     41  C   UNL A   1      49.622  21.472  37.102  1.00  0.00     0.031 A 
BRANCH  28  42
ATOM     42  C   UNL A   1      52.874  23.611  33.477  1.00  0.00    -0.014 A 
ATOM     43  C   UNL A   1      53.999  23.024  32.870  1.00  0.00     0.009 A 
ATOM     44  C   UNL A   1      53.126  24.583  34.467  1.00  0.00     0.009 A 
ATOM     45  C   UNL A   1      55.298  23.328  33.299  1.00  0.00     0.001 A 
ATOM     46  C   UNL A   1      54.422  24.922  34.863  1.00  0.00     0.001 A 
ATOM     47  C   UNL A   1      55.507  24.269  34.301  1.00  0.00     0.000 A 
ENDBRANCH  28  42
BRANCH  29  48
ATOM     48  C   UNL A   1      47.896  26.611  39.412  1.00  0.00    -0.014 A 
ATOM     49  C   UNL A   1      48.228  27.928  39.064  1.00  0.00     0.009 A 
ATOM     50  C   UNL A   1      47.271  26.399  40.656  1.00  0.00     0.009 A 
ATOM     51  C   UNL A   1      47.922  28.994  39.920  1.00  0.00     0.001 A 
ATOM     52  C   UNL A   1      46.979  27.460  41.516  1.00  0.00     0.001 A 
ATOM     53  C   UNL A   1      47.292  28.761  41.141  1.00  0.00     0.000 A 
ENDBRANCH  29  48
BRANCH  41  54
ATOM     54  C   UNL A   1      48.457  20.644  37.584  1.00  0.00    -0.014 A 
ATOM     55  C   UNL A   1      47.189  20.689  36.979  1.00  0.00     0.009 A 
ATOM     56  C   UNL A   1      48.678  19.694  38.592  1.00  0.00     0.009 A 
ATOM     57  C   UNL A   1      46.160  19.844  37.406  1.00  0.00     0.001 A 
ATOM     58  C   UNL A   1      47.658  18.833  39.002  1.00  0.00     0.001 A 
ATOM     59  C   UNL A   1      46.396  18.916  38.416  1.00  0.00     0.000 A 
ENDBRANCH  41  54
ENDBRANCH  15  16
ENDBRANCH   8  10
ENDBRANCH   7   8
ENDBRANCH   6   7
ENDBRANCH   5   6
ENDBRANCH   4   5
ENDBRANCH   3   4
ENDBRANCH   2   3
ENDBRANCH   1   2
BRANCH   1  60
ATOM     60  C   UNL A   1      45.009  19.273  23.926  1.00  0.00     0.188 C 
BRANCH  60  61
ATOM     61  C   UNL A   1      44.028  18.886  25.051  1.00  0.00     0.188 C 
BRANCH  61  62
ATOM     62  O   UNL A   1      42.641  19.208  25.012  1.00  0.00    -0.376 OA
BRANCH  62  63
ATOM     63  C   UNL A   1      41.795  19.047  26.136  1.00  0.00     0.202 C 
BRANCH  63  64
ATOM     64  C   UNL A   1      41.223  20.316  26.779  1.00  0.00     0.261 C 
BRANCH  64  65
ATOM     65  O   UNL A   1      40.076  20.851  26.106  1.00  0.00    -0.458 OA
BRANCH  65  66
ATOM     66  C   UNL A   1      39.609  22.035  26.607  1.00  0.00     0.360 C 
ATOM     67  O   UNL A   1      40.236  22.789  27.326  1.00  0.00    -0.244 OA
BRANCH  66  68
ATOM     68  C   UNL A   1      38.308  22.370  26.049  1.00  0.00     0.190 A 
ATOM     69  C   UNL A   1      37.302  21.552  25.574  1.00  0.00     0.147 A 
ATOM     70  N   UNL A   1      37.954  23.682  25.833  1.00  0.00    -0.123 NA
ATOM     71  N   UNL A   1      36.318  22.436  25.215  1.00  0.00    -0.245 N 
ATOM     72  N   UNL A   1      36.784  23.699  25.222  1.00  0.00    -0.066 NA
BRANCH  71  73
ATOM     73  C   UNL A   1      34.904  22.245  25.281  1.00  0.00     0.148 C 
ATOM     74  C   UNL A   1      34.126  22.488  26.570  1.00  0.00     0.150 C 
ATOM     75  C   UNL A   1      34.261  23.547  24.756  1.00  0.00     0.150 C 
ATOM     76  N   UNL A   1      33.249  23.344  25.759  1.00  0.00    -0.320 N 
ATOM     77  C   UNL A   1      32.169  24.042  26.191  1.00  0.00     0.322 C 
ATOM     78  O   UNL A   1      31.641  23.772  27.274  1.00  0.00    -0.248 OA
ATOM     79  N   UNL A   1      31.741  25.153  25.531  1.00  0.00    -0.307 N 
ATOM     80  H   UNL A   1      31.155  25.734  26.068  1.00  0.00     0.171 HD
BRANCH  79  81
ATOM     81  C   UNL A   1      31.971  25.620  24.248  1.00  0.00     0.053 A 
ATOM     82  C   UNL A   1      31.464  25.115  23.016  1.00  0.00     0.038 A 
ATOM     83  C   UNL A   1      32.712  26.765  24.034  1.00  0.00     0.091 A 
ATOM     84  C   UNL A   1      31.995  25.757  21.918  1.00  0.00     0.067 A 
ATOM     85  S   UNL A   1      32.983  27.073  22.372  1.00  0.00    -0.150 S 
ENDBRANCH  79  81
ENDBRANCH  71  73
ENDBRANCH  66  68
ENDBRANCH  65  66
ENDBRANCH  64  65
ENDBRANCH  63  64
ENDBRANCH  62  63
ENDBRANCH  61  62
ENDBRANCH  60  61
ENDBRANCH   1  60
TORSDOF 22
ENDMDL
