MODEL 1
REMARK VINA RESULT:     -10.8      0.000      0.000
REMARK SMILES O=C(OCCOCCOCCOCCOC(=O)c1ccc2c(c1)[C@@H]1C=CC[C@@H]1[C@H](c1ccncc1)N2)c1ccc(-c2c3nc(c(-c4ccccc4)c4ccc([nH]4)c(-c4ccccc4)c4nc(c(-c5ccccc5)c5ccc2[nH]5)C=C4)C=C3)cc1
REMARK SMILES IDX 8 1 7 2 6 3 5 4 4 5 3 6 2 7 1 8 37 9 38 10 84 11 39 12 83 13
REMARK SMILES IDX 40 14 41 15 42 16 77 17 43 18 82 19 76 20 78 21 44 22 81 23
REMARK SMILES IDX 75 24 74 25 45 27 67 28 52 29 66 30 53 31 56 32 65 33 79 34
REMARK SMILES IDX 54 35 55 36 64 38 80 39 57 40 46 41 47 42 51 43 48 44 50 45
REMARK SMILES IDX 49 46 68 47 69 48 73 49 70 50 72 51 71 52 58 53 59 54 63 55
REMARK SMILES IDX 60 56 62 57 61 58 9 59 10 60 11 61 12 62 13 63 14 64 15 65
REMARK SMILES IDX 16 66 17 67 18 68 19 69 23 70 20 71 22 72 21 73 24 74 36 75
REMARK SMILES IDX 25 76 28 77 29 78 26 80 27 81 30 82 31 83 35 84 32 85 34 86
REMARK SMILES IDX 33 87
REMARK H PARENT 78 26 56 37 36 79
REMARK Flexibility Score: inf
ROOT
ATOM      1  C   UNL A   1      34.095  33.820  28.868  1.00  0.00     0.188 C 
ENDROOT
BRANCH   1   2
ATOM      2  C   UNL A   1      34.548  34.355  30.223  1.00  0.00     0.188 C 
BRANCH   2   3
ATOM      3  O   UNL A   1      33.421  34.645  31.052  1.00  0.00    -0.376 OA
BRANCH   3   4
ATOM      4  C   UNL A   1      33.675  34.678  32.454  1.00  0.00     0.202 C 
BRANCH   4   5
ATOM      5  C   UNL A   1      34.347  33.424  33.025  1.00  0.00     0.261 C 
BRANCH   5   6
ATOM      6  O   UNL A   1      35.770  33.546  33.178  1.00  0.00    -0.460 OA
BRANCH   6   7
ATOM      7  C   UNL A   1      36.660  32.613  33.599  1.00  0.00     0.338 C 
ATOM      8  O   UNL A   1      36.773  32.415  34.808  1.00  0.00    -0.246 OA
BRANCH   7   9
ATOM      9  C   UNL A   1      37.499  31.786  32.682  1.00  0.00     0.060 A 
ATOM     10  C   UNL A   1      38.347  30.753  33.080  1.00  0.00     0.016 A 
ATOM     11  C   UNL A   1      37.375  32.031  31.304  1.00  0.00     0.016 A 
ATOM     12  C   UNL A   1      39.155  30.080  32.175  1.00  0.00     0.010 A 
ATOM     13  C   UNL A   1      38.151  31.330  30.376  1.00  0.00     0.010 A 
ATOM     14  C   UNL A   1      39.095  30.397  30.823  1.00  0.00    -0.014 A 
BRANCH  14  15
ATOM     15  C   UNL A   1      40.202  29.934  29.965  1.00  0.00     0.031 A 
ATOM     16  C   UNL A   1      41.414  30.819  29.870  1.00  0.00     0.074 A 
ATOM     17  C   UNL A   1      40.199  28.696  29.442  1.00  0.00     0.049 A 
ATOM     18  N   UNL A   1      42.497  30.672  29.157  1.00  0.00    -0.248 NA
ATOM     19  C   UNL A   1      41.404  32.036  30.703  1.00  0.00     0.031 C 
ATOM     20  C   UNL A   1      39.135  27.704  29.618  1.00  0.00     0.029 A 
ATOM     21  N   UNL A   1      41.145  28.043  28.699  1.00  0.00    -0.354 N 
ATOM     22  C   UNL A   1      43.263  31.804  29.409  1.00  0.00     0.074 A 
ATOM     23  C   UNL A   1      42.529  32.627  30.341  1.00  0.00     0.031 C 
ATOM     24  C   UNL A   1      39.512  26.552  29.038  1.00  0.00     0.029 A 
ATOM     25  C   UNL A   1      40.802  26.750  28.387  1.00  0.00     0.049 A 
ATOM     26  H   UNL A   1      41.990  28.460  28.415  1.00  0.00     0.167 HD
ATOM     27  C   UNL A   1      44.471  32.131  28.897  1.00  0.00     0.031 A 
ATOM     28  C   UNL A   1      41.456  25.846  27.634  1.00  0.00     0.031 A 
ATOM     29  C   UNL A   1      45.190  31.284  27.990  1.00  0.00     0.049 A 
ATOM     30  C   UNL A   1      42.762  26.259  27.012  1.00  0.00     0.074 A 
ATOM     31  C   UNL A   1      46.384  31.522  27.338  1.00  0.00     0.029 A 
ATOM     32  N   UNL A   1      44.771  30.013  27.621  1.00  0.00    -0.354 N 
ATOM     33  N   UNL A   1      43.432  27.379  27.165  1.00  0.00    -0.248 NA
ATOM     34  C   UNL A   1      43.394  25.296  26.103  1.00  0.00     0.031 C 
ATOM     35  C   UNL A   1      46.669  30.406  26.544  1.00  0.00     0.029 A 
ATOM     36  C   UNL A   1      45.679  29.454  26.743  1.00  0.00     0.049 A 
ATOM     37  H   UNL A   1      43.948  29.575  27.937  1.00  0.00     0.167 HD
ATOM     38  C   UNL A   1      44.572  27.249  26.384  1.00  0.00     0.074 A 
ATOM     39  C   UNL A   1      44.511  25.932  25.778  1.00  0.00     0.031 C 
ATOM     40  C   UNL A   1      45.579  28.134  26.176  1.00  0.00     0.031 A 
BRANCH  27  41
ATOM     41  C   UNL A   1      45.009  33.490  29.245  1.00  0.00    -0.014 A 
ATOM     42  C   UNL A   1      44.673  34.635  28.503  1.00  0.00     0.009 A 
ATOM     43  C   UNL A   1      45.928  33.610  30.299  1.00  0.00     0.009 A 
ATOM     44  C   UNL A   1      45.284  35.860  28.782  1.00  0.00     0.001 A 
ATOM     45  C   UNL A   1      46.516  34.841  30.592  1.00  0.00     0.001 A 
ATOM     46  C   UNL A   1      46.204  35.963  29.826  1.00  0.00     0.000 A 
ENDBRANCH  27  41
BRANCH  28  47
ATOM     47  C   UNL A   1      40.870  24.500  27.386  1.00  0.00    -0.014 A 
ATOM     48  C   UNL A   1      39.757  24.339  26.546  1.00  0.00     0.009 A 
ATOM     49  C   UNL A   1      41.416  23.362  28.003  1.00  0.00     0.009 A 
ATOM     50  C   UNL A   1      39.194  23.075  26.347  1.00  0.00     0.001 A 
ATOM     51  C   UNL A   1      40.872  22.095  27.778  1.00  0.00     0.001 A 
ATOM     52  C   UNL A   1      39.755  21.954  26.958  1.00  0.00     0.000 A 
ENDBRANCH  28  47
BRANCH  40  53
ATOM     53  C   UNL A   1      46.705  27.679  25.297  1.00  0.00    -0.014 A 
ATOM     54  C   UNL A   1      46.744  28.009  23.935  1.00  0.00     0.009 A 
ATOM     55  C   UNL A   1      47.763  26.947  25.860  1.00  0.00     0.009 A 
ATOM     56  C   UNL A   1      47.810  27.582  23.142  1.00  0.00     0.001 A 
ATOM     57  C   UNL A   1      48.840  26.547  25.070  1.00  0.00     0.001 A 
ATOM     58  C   UNL A   1      48.858  26.857  23.712  1.00  0.00     0.000 A 
ENDBRANCH  40  53
ENDBRANCH  14  15
ENDBRANCH   7   9
ENDBRANCH   6   7
ENDBRANCH   5   6
ENDBRANCH   4   5
ENDBRANCH   3   4
ENDBRANCH   2   3
ENDBRANCH   1   2
BRANCH   1  59
ATOM     59  O   UNL A   1      33.966  32.405  28.792  1.00  0.00    -0.377 OA
BRANCH  59  60
ATOM     60  C   UNL A   1      34.986  31.705  28.088  1.00  0.00     0.188 C 
BRANCH  60  61
ATOM     61  C   UNL A   1      34.671  30.295  27.541  1.00  0.00     0.188 C 
BRANCH  61  62
ATOM     62  O   UNL A   1      33.698  30.256  26.504  1.00  0.00    -0.376 OA
BRANCH  62  63
ATOM     63  C   UNL A   1      32.672  29.282  26.668  1.00  0.00     0.202 C 
BRANCH  63  64
ATOM     64  C   UNL A   1      32.429  28.389  25.442  1.00  0.00     0.261 C 
BRANCH  64  65
ATOM     65  O   UNL A   1      31.944  27.066  25.734  1.00  0.00    -0.460 OA
BRANCH  65  66
ATOM     66  C   UNL A   1      30.942  26.568  24.978  1.00  0.00     0.338 C 
ATOM     67  O   UNL A   1      30.097  27.199  24.366  1.00  0.00    -0.246 OA
BRANCH  66  68
ATOM     68  C   UNL A   1      31.202  25.118  24.815  1.00  0.00     0.060 A 
ATOM     69  C   UNL A   1      30.685  24.469  23.690  1.00  0.00     0.018 A 
ATOM     70  C   UNL A   1      32.067  24.438  25.677  1.00  0.00     0.022 A 
ATOM     71  C   UNL A   1      31.080  23.161  23.400  1.00  0.00     0.027 A 
ATOM     72  C   UNL A   1      32.418  23.097  25.422  1.00  0.00    -0.017 A 
ATOM     73  C   UNL A   1      31.918  22.454  24.273  1.00  0.00     0.038 A 
ATOM     74  C   UNL A   1      33.268  22.344  26.420  1.00  0.00     0.049 C 
ATOM     75  N   UNL A   1      32.240  21.127  23.988  1.00  0.00    -0.378 N 
ATOM     76  C   UNL A   1      34.652  22.902  26.610  1.00  0.00    -0.023 C 
ATOM     77  C   UNL A   1      33.576  20.879  26.043  1.00  0.00     0.031 C 
ATOM     78  C   UNL A   1      32.504  20.272  25.136  1.00  0.00     0.114 C 
ATOM     79  H   UNL A   1      32.286  20.789  23.065  1.00  0.00     0.161 HD
ATOM     80  C   UNL A   1      35.599  22.092  26.123  1.00  0.00    -0.030 C 
ATOM     81  C   UNL A   1      35.008  20.878  25.486  1.00  0.00     0.034 C 
BRANCH  78  82
ATOM     82  C   UNL A   1      32.806  18.833  24.751  1.00  0.00    -0.022 A 
ATOM     83  C   UNL A   1      32.780  17.854  25.757  1.00  0.00     0.026 A 
ATOM     84  C   UNL A   1      33.127  18.421  23.454  1.00  0.00     0.026 A 
ATOM     85  C   UNL A   1      33.053  16.536  25.428  1.00  0.00     0.111 A 
ATOM     86  C   UNL A   1      33.373  17.074  23.221  1.00  0.00     0.111 A 
ATOM     87  N   UNL A   1      33.342  16.124  24.177  1.00  0.00    -0.265 NA
ENDBRANCH  78  82
ENDBRANCH  66  68
ENDBRANCH  65  66
ENDBRANCH  64  65
ENDBRANCH  63  64
ENDBRANCH  62  63
ENDBRANCH  61  62
ENDBRANCH  60  61
ENDBRANCH  59  60
ENDBRANCH   1  59
TORSDOF 21
ENDMDL
MODEL 2
REMARK VINA RESULT:     -10.0      4.265      9.532
REMARK SMILES O=C(OCCOCCOCCOCCOC(=O)c1ccc2c(c1)[C@@H]1C=CC[C@@H]1[C@H](c1ccncc1)N2)c1ccc(-c2c3nc(c(-c4ccccc4)c4ccc([nH]4)c(-c4ccccc4)c4nc(c(-c5ccccc5)c5ccc2[nH]5)C=C4)C=C3)cc1
REMARK SMILES IDX 8 1 7 2 6 3 5 4 4 5 3 6 2 7 1 8 37 9 38 10 84 11 39 12 83 13
REMARK SMILES IDX 40 14 41 15 42 16 77 17 43 18 82 19 76 20 78 21 44 22 81 23
REMARK SMILES IDX 75 24 74 25 45 27 67 28 52 29 66 30 53 31 56 32 65 33 79 34
REMARK SMILES IDX 54 35 55 36 64 38 80 39 57 40 46 41 47 42 51 43 48 44 50 45
REMARK SMILES IDX 49 46 68 47 69 48 73 49 70 50 72 51 71 52 58 53 59 54 63 55
REMARK SMILES IDX 60 56 62 57 61 58 9 59 10 60 11 61 12 62 13 63 14 64 15 65
REMARK SMILES IDX 16 66 17 67 18 68 19 69 23 70 20 71 22 72 21 73 24 74 36 75
REMARK SMILES IDX 25 76 28 77 29 78 26 80 27 81 30 82 31 83 35 84 32 85 34 86
REMARK SMILES IDX 33 87
REMARK H PARENT 78 26 56 37 36 79
REMARK Flexibility Score: inf
ROOT
ATOM      1  C   UNL A   1      39.623  21.848  26.179  1.00  0.00     0.188 C 
ENDROOT
BRANCH   1   2
ATOM      2  C   UNL A   1      40.235  20.455  26.289  1.00  0.00     0.188 C 
BRANCH   2   3
ATOM      3  O   UNL A   1      41.050  20.353  27.458  1.00  0.00    -0.376 OA
BRANCH   3   4
ATOM      4  C   UNL A   1      42.240  19.582  27.317  1.00  0.00     0.202 C 
BRANCH   4   5
ATOM      5  C   UNL A   1      42.274  18.649  26.102  1.00  0.00     0.261 C 
BRANCH   5   6
ATOM      6  O   UNL A   1      42.864  19.240  24.932  1.00  0.00    -0.460 OA
BRANCH   6   7
ATOM      7  C   UNL A   1      44.140  19.661  24.748  1.00  0.00     0.338 C 
ATOM      8  O   UNL A   1      44.955  18.871  24.274  1.00  0.00    -0.246 OA
BRANCH   7   9
ATOM      9  C   UNL A   1      44.616  21.042  25.061  1.00  0.00     0.060 A 
ATOM     10  C   UNL A   1      45.511  21.373  26.077  1.00  0.00     0.016 A 
ATOM     11  C   UNL A   1      44.172  22.078  24.223  1.00  0.00     0.016 A 
ATOM     12  C   UNL A   1      45.846  22.689  26.356  1.00  0.00     0.010 A 
ATOM     13  C   UNL A   1      44.537  23.406  24.465  1.00  0.00     0.010 A 
ATOM     14  C   UNL A   1      45.325  23.718  25.580  1.00  0.00    -0.014 A 
BRANCH  14  15
ATOM     15  C   UNL A   1      45.405  25.088  26.120  1.00  0.00     0.031 A 
ATOM     16  C   UNL A   1      46.709  25.817  25.953  1.00  0.00     0.074 A 
ATOM     17  C   UNL A   1      44.307  25.716  26.575  1.00  0.00     0.049 A 
ATOM     18  N   UNL A   1      47.059  27.003  26.373  1.00  0.00    -0.248 NA
ATOM     19  C   UNL A   1      47.763  25.112  25.199  1.00  0.00     0.031 C 
ATOM     20  C   UNL A   1      42.961  25.142  26.623  1.00  0.00     0.029 A 
ATOM     21  N   UNL A   1      44.142  26.994  27.035  1.00  0.00    -0.354 N 
ATOM     22  C   UNL A   1      48.386  27.155  25.989  1.00  0.00     0.074 A 
ATOM     23  C   UNL A   1      48.781  25.949  25.301  1.00  0.00     0.031 C 
ATOM     24  C   UNL A   1      42.099  26.082  27.044  1.00  0.00     0.029 A 
ATOM     25  C   UNL A   1      42.844  27.295  27.368  1.00  0.00     0.049 A 
ATOM     26  H   UNL A   1      44.883  27.637  27.121  1.00  0.00     0.167 HD
ATOM     27  C   UNL A   1      49.206  28.208  26.203  1.00  0.00     0.031 A 
ATOM     28  C   UNL A   1      42.331  28.420  27.898  1.00  0.00     0.031 A 
ATOM     29  C   UNL A   1      48.782  29.405  26.870  1.00  0.00     0.049 A 
ATOM     30  C   UNL A   1      43.276  29.551  28.199  1.00  0.00     0.074 A 
ATOM     31  C   UNL A   1      49.524  30.516  27.219  1.00  0.00     0.029 A 
ATOM     32  N   UNL A   1      47.476  29.643  27.276  1.00  0.00    -0.354 N 
ATOM     33  N   UNL A   1      44.559  29.648  27.934  1.00  0.00    -0.248 NA
ATOM     34  C   UNL A   1      42.711  30.719  28.884  1.00  0.00     0.031 C 
ATOM     35  C   UNL A   1      48.671  31.414  27.871  1.00  0.00     0.029 A 
ATOM     36  C   UNL A   1      47.389  30.883  27.880  1.00  0.00     0.049 A 
ATOM     37  H   UNL A   1      46.723  29.022  27.152  1.00  0.00     0.167 HD
ATOM     38  C   UNL A   1      44.952  30.893  28.406  1.00  0.00     0.074 A 
ATOM     39  C   UNL A   1      43.764  31.523  28.952  1.00  0.00     0.031 C 
ATOM     40  C   UNL A   1      46.180  31.469  28.398  1.00  0.00     0.031 A 
BRANCH  27  41
ATOM     41  C   UNL A   1      50.642  28.044  25.792  1.00  0.00    -0.014 A 
ATOM     42  C   UNL A   1      51.625  27.595  26.688  1.00  0.00     0.009 A 
ATOM     43  C   UNL A   1      51.025  28.415  24.494  1.00  0.00     0.009 A 
ATOM     44  C   UNL A   1      52.968  27.568  26.306  1.00  0.00     0.001 A 
ATOM     45  C   UNL A   1      52.365  28.361  24.106  1.00  0.00     0.001 A 
ATOM     46  C   UNL A   1      53.338  27.950  25.016  1.00  0.00     0.000 A 
ENDBRANCH  27  41
BRANCH  28  47
ATOM     47  C   UNL A   1      40.881  28.513  28.225  1.00  0.00    -0.014 A 
ATOM     48  C   UNL A   1      39.962  29.026  27.297  1.00  0.00     0.009 A 
ATOM     49  C   UNL A   1      40.407  28.100  29.482  1.00  0.00     0.009 A 
ATOM     50  C   UNL A   1      38.608  29.140  27.626  1.00  0.00     0.001 A 
ATOM     51  C   UNL A   1      39.049  28.186  29.798  1.00  0.00     0.001 A 
ATOM     52  C   UNL A   1      38.152  28.716  28.874  1.00  0.00     0.000 A 
ENDBRANCH  28  47
BRANCH  40  53
ATOM     53  C   UNL A   1      46.276  32.858  28.955  1.00  0.00    -0.014 A 
ATOM     54  C   UNL A   1      46.554  33.081  30.311  1.00  0.00     0.009 A 
ATOM     55  C   UNL A   1      46.131  33.955  28.092  1.00  0.00     0.009 A 
ATOM     56  C   UNL A   1      46.649  34.384  30.800  1.00  0.00     0.001 A 
ATOM     57  C   UNL A   1      46.255  35.255  28.579  1.00  0.00     0.001 A 
ATOM     58  C   UNL A   1      46.505  35.468  29.934  1.00  0.00     0.000 A 
ENDBRANCH  40  53
ENDBRANCH  14  15
ENDBRANCH   7   9
ENDBRANCH   6   7
ENDBRANCH   5   6
ENDBRANCH   4   5
ENDBRANCH   3   4
ENDBRANCH   2   3
ENDBRANCH   1   2
BRANCH   1  59
ATOM     59  O   UNL A   1      38.373  21.905  25.501  1.00  0.00    -0.377 OA
BRANCH  59  60
ATOM     60  C   UNL A   1      37.561  23.046  25.750  1.00  0.00     0.188 C 
BRANCH  60  61
ATOM     61  C   UNL A   1      36.204  23.160  25.021  1.00  0.00     0.188 C 
BRANCH  61  62
ATOM     62  O   UNL A   1      35.098  23.481  25.855  1.00  0.00    -0.376 OA
BRANCH  62  63
ATOM     63  C   UNL A   1      34.557  22.390  26.595  1.00  0.00     0.202 C 
BRANCH  63  64
ATOM     64  C   UNL A   1      33.236  22.694  27.317  1.00  0.00     0.261 C 
BRANCH  64  65
ATOM     65  O   UNL A   1      32.044  22.346  26.589  1.00  0.00    -0.460 OA
BRANCH  65  66
ATOM     66  C   UNL A   1      32.061  22.451  25.242  1.00  0.00     0.338 C 
ATOM     67  O   UNL A   1      32.314  21.571  24.437  1.00  0.00    -0.246 OA
BRANCH  66  68
ATOM     68  C   UNL A   1      31.467  23.766  24.904  1.00  0.00     0.060 A 
ATOM     69  C   UNL A   1      30.539  24.326  25.787  1.00  0.00     0.018 A 
ATOM     70  C   UNL A   1      31.926  24.508  23.812  1.00  0.00     0.022 A 
ATOM     71  C   UNL A   1      30.117  25.646  25.606  1.00  0.00     0.027 A 
ATOM     72  C   UNL A   1      31.455  25.817  23.590  1.00  0.00    -0.017 A 
ATOM     73  C   UNL A   1      30.541  26.389  24.496  1.00  0.00     0.038 A 
ATOM     74  C   UNL A   1      31.881  26.565  22.347  1.00  0.00     0.049 C 
ATOM     75  N   UNL A   1      30.049  27.681  24.309  1.00  0.00    -0.378 N 
ATOM     76  C   UNL A   1      33.356  26.843  22.258  1.00  0.00    -0.023 C 
ATOM     77  C   UNL A   1      31.290  27.983  22.203  1.00  0.00     0.031 C 
ATOM     78  C   UNL A   1      29.953  28.136  22.930  1.00  0.00     0.114 C 
ATOM     79  H   UNL A   1      29.784  28.251  25.066  1.00  0.00     0.161 HD
ATOM     80  C   UNL A   1      33.637  28.145  22.390  1.00  0.00    -0.030 C 
ATOM     81  C   UNL A   1      32.404  28.951  22.633  1.00  0.00     0.034 C 
BRANCH  78  82
ATOM     82  C   UNL A   1      29.371  29.534  22.802  1.00  0.00    -0.022 A 
ATOM     83  C   UNL A   1      29.525  30.422  23.879  1.00  0.00     0.026 A 
ATOM     84  C   UNL A   1      28.674  29.992  21.680  1.00  0.00     0.026 A 
ATOM     85  C   UNL A   1      29.002  31.701  23.784  1.00  0.00     0.111 A 
ATOM     86  C   UNL A   1      28.197  31.297  21.674  1.00  0.00     0.111 A 
ATOM     87  N   UNL A   1      28.346  32.161  22.700  1.00  0.00    -0.265 NA
ENDBRANCH  78  82
ENDBRANCH  66  68
ENDBRANCH  65  66
ENDBRANCH  64  65
ENDBRANCH  63  64
ENDBRANCH  62  63
ENDBRANCH  61  62
ENDBRANCH  60  61
ENDBRANCH  59  60
ENDBRANCH   1  59
TORSDOF 21
ENDMDL
MODEL 3
REMARK VINA RESULT:      -9.9      4.002      9.259
REMARK SMILES O=C(OCCOCCOCCOCCOC(=O)c1ccc2c(c1)[C@@H]1C=CC[C@@H]1[C@H](c1ccncc1)N2)c1ccc(-c2c3nc(c(-c4ccccc4)c4ccc([nH]4)c(-c4ccccc4)c4nc(c(-c5ccccc5)c5ccc2[nH]5)C=C4)C=C3)cc1
REMARK SMILES IDX 8 1 7 2 6 3 5 4 4 5 3 6 2 7 1 8 37 9 38 10 84 11 39 12 83 13
REMARK SMILES IDX 40 14 41 15 42 16 77 17 43 18 82 19 76 20 78 21 44 22 81 23
REMARK SMILES IDX 75 24 74 25 45 27 67 28 52 29 66 30 53 31 56 32 65 33 79 34
REMARK SMILES IDX 54 35 55 36 64 38 80 39 57 40 46 41 47 42 51 43 48 44 50 45
REMARK SMILES IDX 49 46 68 47 69 48 73 49 70 50 72 51 71 52 58 53 59 54 63 55
REMARK SMILES IDX 60 56 62 57 61 58 9 59 10 60 11 61 12 62 13 63 14 64 15 65
REMARK SMILES IDX 16 66 17 67 18 68 19 69 23 70 20 71 22 72 21 73 24 74 36 75
REMARK SMILES IDX 25 76 28 77 29 78 26 80 27 81 30 82 31 83 35 84 32 85 34 86
REMARK SMILES IDX 33 87
REMARK H PARENT 78 26 56 37 36 79
REMARK Flexibility Score: inf
ROOT
ATOM      1  C   UNL A   1      39.542  21.600  26.033  1.00  0.00     0.188 C 
ENDROOT
BRANCH   1   2
ATOM      2  C   UNL A   1      40.027  20.169  26.240  1.00  0.00     0.188 C 
BRANCH   2   3
ATOM      3  O   UNL A   1      40.851  20.079  27.403  1.00  0.00    -0.376 OA
BRANCH   3   4
ATOM      4  C   UNL A   1      42.046  19.316  27.258  1.00  0.00     0.202 C 
BRANCH   4   5
ATOM      5  C   UNL A   1      42.338  18.825  25.836  1.00  0.00     0.261 C 
BRANCH   5   6
ATOM      6  O   UNL A   1      43.021  19.789  25.017  1.00  0.00    -0.460 OA
BRANCH   6   7
ATOM      7  C   UNL A   1      43.925  20.728  25.390  1.00  0.00     0.338 C 
ATOM      8  O   UNL A   1      45.122  20.480  25.246  1.00  0.00    -0.246 OA
BRANCH   7   9
ATOM      9  C   UNL A   1      43.559  22.067  25.943  1.00  0.00     0.060 A 
ATOM     10  C   UNL A   1      43.185  23.175  25.184  1.00  0.00     0.016 A 
ATOM     11  C   UNL A   1      43.532  22.196  27.341  1.00  0.00     0.016 A 
ATOM     12  C   UNL A   1      42.935  24.408  25.767  1.00  0.00     0.010 A 
ATOM     13  C   UNL A   1      43.238  23.423  27.945  1.00  0.00     0.010 A 
ATOM     14  C   UNL A   1      43.005  24.550  27.148  1.00  0.00    -0.014 A 
BRANCH  14  15
ATOM     15  C   UNL A   1      43.094  25.920  27.689  1.00  0.00     0.031 A 
ATOM     16  C   UNL A   1      44.447  26.574  27.684  1.00  0.00     0.074 A 
ATOM     17  C   UNL A   1      41.985  26.614  28.000  1.00  0.00     0.049 A 
ATOM     18  N   UNL A   1      44.809  27.743  28.139  1.00  0.00    -0.248 NA
ATOM     19  C   UNL A   1      45.547  25.803  27.072  1.00  0.00     0.031 C 
ATOM     20  C   UNL A   1      40.613  26.115  27.880  1.00  0.00     0.029 A 
ATOM     21  N   UNL A   1      41.836  27.904  28.430  1.00  0.00    -0.354 N 
ATOM     22  C   UNL A   1      46.180  27.817  27.924  1.00  0.00     0.074 A 
ATOM     23  C   UNL A   1      46.589  26.583  27.297  1.00  0.00     0.031 C 
ATOM     24  C   UNL A   1      39.760  27.107  28.185  1.00  0.00     0.029 A 
ATOM     25  C   UNL A   1      40.525  28.280  28.595  1.00  0.00     0.049 A 
ATOM     26  H   UNL A   1      42.595  28.505  28.605  1.00  0.00     0.167 HD
ATOM     27  C   UNL A   1      47.025  28.825  28.235  1.00  0.00     0.031 A 
ATOM     28  C   UNL A   1      40.014  29.438  29.052  1.00  0.00     0.031 A 
ATOM     29  C   UNL A   1      46.589  30.051  28.839  1.00  0.00     0.049 A 
ATOM     30  C   UNL A   1      40.977  30.518  29.465  1.00  0.00     0.074 A 
ATOM     31  C   UNL A   1      47.342  31.124  29.274  1.00  0.00     0.029 A 
ATOM     32  N   UNL A   1      45.257  30.366  29.076  1.00  0.00    -0.354 N 
ATOM     33  N   UNL A   1      42.286  30.541  29.363  1.00  0.00    -0.248 NA
ATOM     34  C   UNL A   1      40.397  31.723  30.068  1.00  0.00     0.031 C 
ATOM     35  C   UNL A   1      46.467  32.075  29.810  1.00  0.00     0.029 A 
ATOM     36  C   UNL A   1      45.166  31.615  29.660  1.00  0.00     0.049 A 
ATOM     37  H   UNL A   1      44.492  29.786  28.862  1.00  0.00     0.167 HD
ATOM     38  C   UNL A   1      42.686  31.767  29.875  1.00  0.00     0.074 A 
ATOM     39  C   UNL A   1      41.477  32.468  30.265  1.00  0.00     0.031 C 
ATOM     40  C   UNL A   1      43.937  32.274  30.019  1.00  0.00     0.031 A 
BRANCH  27  41
ATOM     41  C   UNL A   1      48.489  28.577  28.009  1.00  0.00    -0.014 A 
ATOM     42  C   UNL A   1      49.308  28.010  28.998  1.00  0.00     0.009 A 
ATOM     43  C   UNL A   1      49.070  28.987  26.799  1.00  0.00     0.009 A 
ATOM     44  C   UNL A   1      50.687  27.903  28.796  1.00  0.00     0.001 A 
ATOM     45  C   UNL A   1      50.444  28.854  26.589  1.00  0.00     0.001 A 
ATOM     46  C   UNL A   1      51.253  28.325  27.593  1.00  0.00     0.000 A 
ENDBRANCH  27  41
BRANCH  28  47
ATOM     47  C   UNL A   1      38.543  29.615  29.194  1.00  0.00    -0.014 A 
ATOM     48  C   UNL A   1      37.759  30.049  28.114  1.00  0.00     0.009 A 
ATOM     49  C   UNL A   1      37.911  29.362  30.424  1.00  0.00     0.009 A 
ATOM     50  C   UNL A   1      36.383  30.245  28.267  1.00  0.00     0.001 A 
ATOM     51  C   UNL A   1      36.531  29.528  30.566  1.00  0.00     0.001 A 
ATOM     52  C   UNL A   1      35.770  29.979  29.490  1.00  0.00     0.000 A 
ENDBRANCH  28  47
BRANCH  40  53
ATOM     53  C   UNL A   1      44.041  33.661  30.578  1.00  0.00    -0.014 A 
ATOM     54  C   UNL A   1      43.993  34.787  29.743  1.00  0.00     0.009 A 
ATOM     55  C   UNL A   1      44.142  33.837  31.966  1.00  0.00     0.009 A 
ATOM     56  C   UNL A   1      44.080  36.068  30.290  1.00  0.00     0.001 A 
ATOM     57  C   UNL A   1      44.200  35.118  32.511  1.00  0.00     0.001 A 
ATOM     58  C   UNL A   1      44.179  36.231  31.673  1.00  0.00     0.000 A 
ENDBRANCH  40  53
ENDBRANCH  14  15
ENDBRANCH   7   9
ENDBRANCH   6   7
ENDBRANCH   5   6
ENDBRANCH   4   5
ENDBRANCH   3   4
ENDBRANCH   2   3
ENDBRANCH   1   2
BRANCH   1  59
ATOM     59  O   UNL A   1      38.218  21.719  25.523  1.00  0.00    -0.377 OA
BRANCH  59  60
ATOM     60  C   UNL A   1      37.381  22.692  26.138  1.00  0.00     0.188 C 
BRANCH  60  61
ATOM     61  C   UNL A   1      36.517  23.600  25.234  1.00  0.00     0.188 C 
BRANCH  61  62
ATOM     62  O   UNL A   1      35.147  23.686  25.602  1.00  0.00    -0.376 OA
BRANCH  62  63
ATOM     63  C   UNL A   1      34.679  22.648  26.459  1.00  0.00     0.202 C 
BRANCH  63  64
ATOM     64  C   UNL A   1      33.371  22.963  27.200  1.00  0.00     0.261 C 
BRANCH  64  65
ATOM     65  O   UNL A   1      32.182  22.410  26.607  1.00  0.00    -0.460 OA
BRANCH  65  66
ATOM     66  C   UNL A   1      32.054  22.453  25.263  1.00  0.00     0.338 C 
ATOM     67  O   UNL A   1      32.177  21.525  24.482  1.00  0.00    -0.246 OA
BRANCH  66  68
ATOM     68  C   UNL A   1      31.486  23.779  24.925  1.00  0.00     0.060 A 
ATOM     69  C   UNL A   1      30.593  24.371  25.823  1.00  0.00     0.018 A 
ATOM     70  C   UNL A   1      31.939  24.498  23.815  1.00  0.00     0.022 A 
ATOM     71  C   UNL A   1      30.201  25.699  25.638  1.00  0.00     0.027 A 
ATOM     72  C   UNL A   1      31.496  25.816  23.590  1.00  0.00    -0.017 A 
ATOM     73  C   UNL A   1      30.618  26.421  24.511  1.00  0.00     0.038 A 
ATOM     74  C   UNL A   1      31.911  26.541  22.330  1.00  0.00     0.049 C 
ATOM     75  N   UNL A   1      30.155  27.723  24.322  1.00  0.00    -0.378 N 
ATOM     76  C   UNL A   1      33.391  26.780  22.205  1.00  0.00    -0.023 C 
ATOM     77  C   UNL A   1      31.354  27.972  22.185  1.00  0.00     0.031 C 
ATOM     78  C   UNL A   1      30.038  28.166  22.940  1.00  0.00     0.114 C 
ATOM     79  H   UNL A   1      29.921  28.307  25.078  1.00  0.00     0.161 HD
ATOM     80  C   UNL A   1      33.708  28.075  22.316  1.00  0.00    -0.030 C 
ATOM     81  C   UNL A   1      32.502  28.915  22.579  1.00  0.00     0.034 C 
BRANCH  78  82
ATOM     82  C   UNL A   1      29.489  29.577  22.811  1.00  0.00    -0.022 A 
ATOM     83  C   UNL A   1      28.985  29.986  21.566  1.00  0.00     0.026 A 
ATOM     84  C   UNL A   1      29.466  30.507  23.856  1.00  0.00     0.026 A 
ATOM     85  C   UNL A   1      28.481  31.268  21.426  1.00  0.00     0.111 A 
ATOM     86  C   UNL A   1      28.928  31.765  23.621  1.00  0.00     0.111 A 
ATOM     87  N   UNL A   1      28.434  32.166  22.431  1.00  0.00    -0.265 NA
ENDBRANCH  78  82
ENDBRANCH  66  68
ENDBRANCH  65  66
ENDBRANCH  64  65
ENDBRANCH  63  64
ENDBRANCH  62  63
ENDBRANCH  61  62
ENDBRANCH  60  61
ENDBRANCH  59  60
ENDBRANCH   1  59
TORSDOF 21
ENDMDL
