MODEL 1
REMARK VINA RESULT:      -8.9      0.000      0.000
REMARK SMILES Cc1oc(-c2ccc(Cl)cc2[N+](=O)[O-])cc1C(=O)Nc1ccc(C(=O)OCCOCCOCCOCCOC(=O)c2ccc(-c3c4nc(c(-c5ccccc5)c5ccc([nH]5)c(-c5ccccc5)c5nc(c(-c6ccccc6)c6ccc3[nH]6)C=C5)C=C4)cc2)cc1
REMARK SMILES IDX 31 1 30 2 29 3 28 4 27 5 26 6 24 7 25 8 23 9 20 10 21 11
REMARK SMILES IDX 90 12 22 13 89 14 19 15 17 16 18 17 16 19 1 20 2 21 3 22
REMARK SMILES IDX 4 23 15 24 5 25 6 26 11 27 7 28 10 29 8 30 9 31 12 32 13 33
REMARK SMILES IDX 14 34 32 35 33 36 34 37 35 38 36 39 37 40 38 41 39 42 40 43
REMARK SMILES IDX 41 44 42 45 88 46 43 47 87 48 44 49 45 50 46 51 81 52 47 53
REMARK SMILES IDX 86 54 80 55 82 56 48 57 85 58 79 59 78 60 49 62 71 63 56 64
REMARK SMILES IDX 70 65 57 66 60 67 69 68 83 69 58 70 59 71 68 73 84 74 61 75
REMARK SMILES IDX 50 76 51 77 55 78 52 79 54 80 53 81 72 82 73 83 77 84 74 85
REMARK SMILES IDX 76 86 75 87 62 88 63 89 67 90 64 91 66 92 65 93
REMARK H PARENT 19 18 82 61 60 72
REMARK Flexibility Score: inf
ROOT
ATOM      1  C   UNL A   1      33.465  25.685  24.036  1.00  0.00     0.188 C 
ENDROOT
BRANCH   1   2
ATOM      2  C   UNL A   1      32.360  26.524  24.707  1.00  0.00     0.188 C 
BRANCH   2   3
ATOM      3  O   UNL A   1      32.489  27.929  24.647  1.00  0.00    -0.376 OA
BRANCH   3   4
ATOM      4  C   UNL A   1      32.979  28.735  25.705  1.00  0.00     0.202 C 
BRANCH   4   5
ATOM      5  C   UNL A   1      34.377  28.701  26.353  1.00  0.00     0.261 C 
BRANCH   5   6
ATOM      6  O   UNL A   1      34.523  29.320  27.619  1.00  0.00    -0.460 OA
BRANCH   6   7
ATOM      7  C   UNL A   1      35.795  29.510  28.010  1.00  0.00     0.338 C 
ATOM      8  O   UNL A   1      36.773  28.864  27.676  1.00  0.00    -0.246 OA
BRANCH   7   9
ATOM      9  C   UNL A   1      35.877  30.750  28.810  1.00  0.00     0.060 A 
ATOM     10  C   UNL A   1      35.285  32.886  30.411  1.00  0.00     0.041 A 
ATOM     11  C   UNL A   1      35.717  31.706  31.014  1.00  0.00     0.027 A 
ATOM     12  C   UNL A   1      35.438  33.096  29.039  1.00  0.00     0.027 A 
ATOM     13  C   UNL A   1      35.965  30.610  30.202  1.00  0.00     0.018 A 
ATOM     14  C   UNL A   1      35.759  32.017  28.224  1.00  0.00     0.018 A 
BRANCH  10  15
ATOM     15  N   UNL A   1      34.529  33.744  31.201  1.00  0.00    -0.322 N 
ATOM     16  C   UNL A   1      34.854  34.319  32.413  1.00  0.00     0.259 C 
ATOM     17  O   UNL A   1      33.954  34.948  32.976  1.00  0.00    -0.269 OA
ATOM     18  H   UNL A   1      33.640  33.974  30.847  1.00  0.00     0.170 HD
BRANCH  16  19
ATOM     19  C   UNL A   1      36.193  34.267  33.022  1.00  0.00     0.081 A 
ATOM     20  C   UNL A   1      38.178  34.687  31.248  1.00  0.00     0.088 C 
ATOM     21  C   UNL A   1      37.486  34.383  32.512  1.00  0.00     0.114 A 
ATOM     22  O   UNL A   1      38.397  34.272  33.510  1.00  0.00    -0.460 OA
ATOM     23  C   UNL A   1      37.744  34.363  34.683  1.00  0.00     0.142 A 
ATOM     24  C   UNL A   1      36.391  34.285  34.454  1.00  0.00     0.065 A 
BRANCH  23  25
ATOM     25  C   UNL A   1      38.619  34.545  35.822  1.00  0.00     0.095 A 
ATOM     26  C   UNL A   1      39.623  35.520  35.760  1.00  0.00     0.021 A 
ATOM     27  C   UNL A   1      38.473  33.818  37.025  1.00  0.00     0.281 A 
ATOM     28  C   UNL A   1      40.435  35.774  36.870  1.00  0.00     0.022 A 
ATOM     29  C   UNL A   1      39.281  34.072  38.141  1.00  0.00     0.107 A 
ATOM     30  C   UNL A   1      40.256  35.056  38.051  1.00  0.00     0.047 A 
ATOM     31  Cl  UNL A   1      41.255  35.386  39.411  1.00  0.00    -0.084 Cl
BRANCH  27  32
ATOM     32  N   UNL A   1      37.496  32.739  37.161  1.00  0.00     0.063 N 
ATOM     33  O   UNL A   1      37.813  31.634  36.696  1.00  0.00    -0.258 OA
ATOM     34  O   UNL A   1      36.392  33.016  37.651  1.00  0.00    -0.258 OA
ENDBRANCH  27  32
ENDBRANCH  23  25
ENDBRANCH  16  19
ENDBRANCH  10  15
ENDBRANCH   7   9
ENDBRANCH   6   7
ENDBRANCH   5   6
ENDBRANCH   4   5
ENDBRANCH   3   4
ENDBRANCH   2   3
ENDBRANCH   1   2
BRANCH   1  35
ATOM     35  O   UNL A   1      32.996  24.657  23.185  1.00  0.00    -0.377 OA
BRANCH  35  36
ATOM     36  C   UNL A   1      32.165  23.649  23.747  1.00  0.00     0.188 C 
BRANCH  36  37
ATOM     37  C   UNL A   1      31.867  22.327  22.999  1.00  0.00     0.188 C 
BRANCH  37  38
ATOM     38  O   UNL A   1      32.014  21.141  23.764  1.00  0.00    -0.376 OA
BRANCH  38  39
ATOM     39  C   UNL A   1      33.226  20.411  23.691  1.00  0.00     0.202 C 
BRANCH  39  40
ATOM     40  C   UNL A   1      34.202  20.537  24.873  1.00  0.00     0.261 C 
BRANCH  40  41
ATOM     41  O   UNL A   1      34.678  21.863  25.145  1.00  0.00    -0.460 OA
BRANCH  41  42
ATOM     42  C   UNL A   1      35.705  22.300  24.391  1.00  0.00     0.338 C 
ATOM     43  O   UNL A   1      35.707  22.494  23.184  1.00  0.00    -0.246 OA
BRANCH  42  44
ATOM     44  C   UNL A   1      36.800  22.704  25.291  1.00  0.00     0.060 A 
ATOM     45  C   UNL A   1      36.760  23.983  25.860  1.00  0.00     0.016 A 
ATOM     46  C   UNL A   1      37.867  21.841  25.556  1.00  0.00     0.016 A 
ATOM     47  C   UNL A   1      37.822  24.430  26.638  1.00  0.00     0.010 A 
ATOM     48  C   UNL A   1      38.941  22.296  26.324  1.00  0.00     0.010 A 
ATOM     49  C   UNL A   1      38.944  23.612  26.822  1.00  0.00    -0.014 A 
BRANCH  49  50
ATOM     50  C   UNL A   1      40.194  24.226  27.329  1.00  0.00     0.031 A 
ATOM     51  C   UNL A   1      41.506  23.626  26.903  1.00  0.00     0.074 A 
ATOM     52  C   UNL A   1      40.171  25.340  28.080  1.00  0.00     0.049 A 
ATOM     53  N   UNL A   1      42.725  24.025  27.159  1.00  0.00    -0.248 NA
ATOM     54  C   UNL A   1      41.432  22.413  26.071  1.00  0.00     0.031 C 
ATOM     55  C   UNL A   1      38.967  26.048  28.507  1.00  0.00     0.029 A 
ATOM     56  N   UNL A   1      41.203  26.080  28.598  1.00  0.00    -0.354 N 
ATOM     57  C   UNL A   1      43.560  23.115  26.520  1.00  0.00     0.074 A 
ATOM     58  C   UNL A   1      42.711  22.118  25.907  1.00  0.00     0.031 C 
ATOM     59  C   UNL A   1      39.331  27.134  29.213  1.00  0.00     0.029 A 
ATOM     60  C   UNL A   1      40.789  27.177  29.309  1.00  0.00     0.049 A 
ATOM     61  H   UNL A   1      42.150  25.845  28.471  1.00  0.00     0.167 HD
ATOM     62  C   UNL A   1      44.911  23.113  26.440  1.00  0.00     0.031 A 
ATOM     63  C   UNL A   1      41.507  28.108  29.967  1.00  0.00     0.031 A 
ATOM     64  C   UNL A   1      45.757  24.088  27.074  1.00  0.00     0.049 A 
ATOM     65  C   UNL A   1      43.011  28.029  29.950  1.00  0.00     0.074 A 
ATOM     66  C   UNL A   1      47.138  24.175  27.056  1.00  0.00     0.029 A 
ATOM     67  N   UNL A   1      45.298  25.140  27.853  1.00  0.00    -0.354 N 
ATOM     68  N   UNL A   1      43.790  27.176  29.327  1.00  0.00    -0.248 NA
ATOM     69  C   UNL A   1      43.734  29.052  30.719  1.00  0.00     0.031 C 
ATOM     70  C   UNL A   1      47.518  25.241  27.880  1.00  0.00     0.029 A 
ATOM     71  C   UNL A   1      46.371  25.864  28.347  1.00  0.00     0.049 A 
ATOM     72  H   UNL A   1      44.352  25.343  28.028  1.00  0.00     0.167 HD
ATOM     73  C   UNL A   1      45.092  27.583  29.597  1.00  0.00     0.074 A 
ATOM     74  C   UNL A   1      44.996  28.763  30.432  1.00  0.00     0.031 C 
ATOM     75  C   UNL A   1      46.261  27.035  29.181  1.00  0.00     0.031 A 
BRANCH  62  76
ATOM     76  C   UNL A   1      45.549  21.984  25.674  1.00  0.00    -0.014 A 
ATOM     77  C   UNL A   1      45.498  20.659  26.139  1.00  0.00     0.009 A 
ATOM     78  C   UNL A   1      46.218  22.253  24.470  1.00  0.00     0.009 A 
ATOM     79  C   UNL A   1      46.150  19.638  25.442  1.00  0.00     0.001 A 
ATOM     80  C   UNL A   1      46.837  21.224  23.756  1.00  0.00     0.001 A 
ATOM     81  C   UNL A   1      46.815  19.921  24.250  1.00  0.00     0.000 A 
ENDBRANCH  62  76
BRANCH  63  82
ATOM     82  C   UNL A   1      40.812  29.205  30.690  1.00  0.00    -0.014 A 
ATOM     83  C   UNL A   1      40.337  30.329  29.999  1.00  0.00     0.009 A 
ATOM     84  C   UNL A   1      40.624  29.135  32.080  1.00  0.00     0.009 A 
ATOM     85  C   UNL A   1      39.704  31.369  30.686  1.00  0.00     0.001 A 
ATOM     86  C   UNL A   1      39.965  30.161  32.760  1.00  0.00     0.001 A 
ATOM     87  C   UNL A   1      39.512  31.280  32.064  1.00  0.00     0.000 A 
ENDBRANCH  63  82
BRANCH  75  88
ATOM     88  C   UNL A   1      47.535  27.731  29.582  1.00  0.00    -0.014 A 
ATOM     89  C   UNL A   1      48.221  27.395  30.759  1.00  0.00     0.009 A 
ATOM     90  C   UNL A   1      48.076  28.717  28.740  1.00  0.00     0.009 A 
ATOM     91  C   UNL A   1      49.401  28.060  31.102  1.00  0.00     0.001 A 
ATOM     92  C   UNL A   1      49.273  29.353  29.066  1.00  0.00     0.001 A 
ATOM     93  C   UNL A   1      49.928  29.034  30.254  1.00  0.00     0.000 A 
ENDBRANCH  75  88
ENDBRANCH  49  50
ENDBRANCH  42  44
ENDBRANCH  41  42
ENDBRANCH  40  41
ENDBRANCH  39  40
ENDBRANCH  38  39
ENDBRANCH  37  38
ENDBRANCH  36  37
ENDBRANCH  35  36
ENDBRANCH   1  35
TORSDOF 24
ENDMDL
MODEL 2
REMARK VINA RESULT:      -8.8      0.990      5.550
REMARK SMILES Cc1oc(-c2ccc(Cl)cc2[N+](=O)[O-])cc1C(=O)Nc1ccc(C(=O)OCCOCCOCCOCCOC(=O)c2ccc(-c3c4nc(c(-c5ccccc5)c5ccc([nH]5)c(-c5ccccc5)c5nc(c(-c6ccccc6)c6ccc3[nH]6)C=C5)C=C4)cc2)cc1
REMARK SMILES IDX 31 1 30 2 29 3 28 4 27 5 26 6 24 7 25 8 23 9 20 10 21 11
REMARK SMILES IDX 90 12 22 13 89 14 19 15 17 16 18 17 16 19 1 20 2 21 3 22
REMARK SMILES IDX 4 23 15 24 5 25 6 26 11 27 7 28 10 29 8 30 9 31 12 32 13 33
REMARK SMILES IDX 14 34 32 35 33 36 34 37 35 38 36 39 37 40 38 41 39 42 40 43
REMARK SMILES IDX 41 44 42 45 88 46 43 47 87 48 44 49 45 50 46 51 81 52 47 53
REMARK SMILES IDX 86 54 80 55 82 56 48 57 85 58 79 59 78 60 49 62 71 63 56 64
REMARK SMILES IDX 70 65 57 66 60 67 69 68 83 69 58 70 59 71 68 73 84 74 61 75
REMARK SMILES IDX 50 76 51 77 55 78 52 79 54 80 53 81 72 82 73 83 77 84 74 85
REMARK SMILES IDX 76 86 75 87 62 88 63 89 67 90 64 91 66 92 65 93
REMARK H PARENT 19 18 82 61 60 72
REMARK Flexibility Score: inf
ROOT
ATOM      1  C   UNL A   1      33.106  25.929  24.425  1.00  0.00     0.188 C 
ENDROOT
BRANCH   1   2
ATOM      2  C   UNL A   1      31.990  26.730  25.126  1.00  0.00     0.188 C 
BRANCH   2   3
ATOM      3  O   UNL A   1      32.060  28.138  25.047  1.00  0.00    -0.376 OA
BRANCH   3   4
ATOM      4  C   UNL A   1      32.550  28.976  26.081  1.00  0.00     0.202 C 
BRANCH   4   5
ATOM      5  C   UNL A   1      33.935  29.645  26.181  1.00  0.00     0.261 C 
BRANCH   5   6
ATOM      6  O   UNL A   1      34.196  30.430  27.331  1.00  0.00    -0.460 OA
BRANCH   6   7
ATOM      7  C   UNL A   1      35.406  30.235  27.883  1.00  0.00     0.338 C 
ATOM      8  O   UNL A   1      36.191  29.334  27.639  1.00  0.00    -0.246 OA
BRANCH   7   9
ATOM      9  C   UNL A   1      35.737  31.386  28.747  1.00  0.00     0.060 A 
ATOM     10  C   UNL A   1      35.584  33.596  30.352  1.00  0.00     0.041 A 
ATOM     11  C   UNL A   1      35.540  32.338  30.952  1.00  0.00     0.027 A 
ATOM     12  C   UNL A   1      36.001  33.753  29.029  1.00  0.00     0.027 A 
ATOM     13  C   UNL A   1      35.565  31.221  30.129  1.00  0.00     0.018 A 
ATOM     14  C   UNL A   1      36.100  32.631  28.216  1.00  0.00     0.018 A 
BRANCH  10  15
ATOM     15  N   UNL A   1      35.012  34.641  31.068  1.00  0.00    -0.322 N 
ATOM     16  C   UNL A   1      35.288  35.066  32.351  1.00  0.00     0.259 C 
ATOM     17  O   UNL A   1      34.549  35.945  32.804  1.00  0.00    -0.269 OA
ATOM     18  H   UNL A   1      34.315  35.150  30.592  1.00  0.00     0.170 HD
BRANCH  16  19
ATOM     19  C   UNL A   1      36.416  34.579  33.161  1.00  0.00     0.081 A 
ATOM     20  C   UNL A   1      38.768  34.649  31.846  1.00  0.00     0.088 C 
ATOM     21  C   UNL A   1      37.775  34.398  32.905  1.00  0.00     0.114 A 
ATOM     22  O   UNL A   1      38.403  33.925  34.010  1.00  0.00    -0.460 OA
ATOM     23  C   UNL A   1      37.562  34.051  35.053  1.00  0.00     0.142 A 
ATOM     24  C   UNL A   1      36.310  34.373  34.588  1.00  0.00     0.065 A 
BRANCH  23  25
ATOM     25  C   UNL A   1      38.199  33.850  36.337  1.00  0.00     0.095 A 
ATOM     26  C   UNL A   1      37.614  32.971  37.258  1.00  0.00     0.021 A 
ATOM     27  C   UNL A   1      39.424  34.461  36.688  1.00  0.00     0.281 A 
ATOM     28  C   UNL A   1      38.245  32.696  38.476  1.00  0.00     0.022 A 
ATOM     29  C   UNL A   1      40.063  34.186  37.905  1.00  0.00     0.107 A 
ATOM     30  C   UNL A   1      39.463  33.298  38.789  1.00  0.00     0.047 A 
ATOM     31  Cl  UNL A   1      40.231  32.942  40.285  1.00  0.00    -0.084 Cl
BRANCH  27  32
ATOM     32  N   UNL A   1      40.076  35.439  35.819  1.00  0.00     0.063 N 
ATOM     33  O   UNL A   1      41.050  35.042  35.161  1.00  0.00    -0.258 OA
ATOM     34  O   UNL A   1      39.672  36.609  35.858  1.00  0.00    -0.258 OA
ENDBRANCH  27  32
ENDBRANCH  23  25
ENDBRANCH  16  19
ENDBRANCH  10  15
ENDBRANCH   7   9
ENDBRANCH   6   7
ENDBRANCH   5   6
ENDBRANCH   4   5
ENDBRANCH   3   4
ENDBRANCH   2   3
ENDBRANCH   1   2
BRANCH   1  35
ATOM     35  O   UNL A   1      32.651  24.885  23.588  1.00  0.00    -0.377 OA
BRANCH  35  36
ATOM     36  C   UNL A   1      31.787  23.903  24.149  1.00  0.00     0.188 C 
BRANCH  36  37
ATOM     37  C   UNL A   1      31.597  22.514  23.493  1.00  0.00     0.188 C 
BRANCH  37  38
ATOM     38  O   UNL A   1      31.535  21.416  24.389  1.00  0.00    -0.376 OA
BRANCH  38  39
ATOM     39  C   UNL A   1      32.598  20.478  24.416  1.00  0.00     0.202 C 
BRANCH  39  40
ATOM     40  C   UNL A   1      33.692  20.676  25.478  1.00  0.00     0.261 C 
BRANCH  40  41
ATOM     41  O   UNL A   1      34.220  22.006  25.583  1.00  0.00    -0.460 OA
BRANCH  41  42
ATOM     42  C   UNL A   1      35.175  22.346  24.695  1.00  0.00     0.338 C 
ATOM     43  O   UNL A   1      35.043  22.495  23.489  1.00  0.00    -0.246 OA
BRANCH  42  44
ATOM     44  C   UNL A   1      36.393  22.708  25.441  1.00  0.00     0.060 A 
ATOM     45  C   UNL A   1      36.485  23.995  25.985  1.00  0.00     0.016 A 
ATOM     46  C   UNL A   1      37.444  21.797  25.585  1.00  0.00     0.016 A 
ATOM     47  C   UNL A   1      37.657  24.400  26.614  1.00  0.00     0.010 A 
ATOM     48  C   UNL A   1      38.626  22.211  26.202  1.00  0.00     0.010 A 
ATOM     49  C   UNL A   1      38.754  23.532  26.670  1.00  0.00    -0.014 A 
BRANCH  49  50
ATOM     50  C   UNL A   1      40.086  24.090  27.003  1.00  0.00     0.031 A 
ATOM     51  C   UNL A   1      40.147  25.312  27.880  1.00  0.00     0.074 A 
ATOM     52  C   UNL A   1      41.217  23.481  26.610  1.00  0.00     0.049 A 
ATOM     53  N   UNL A   1      41.190  25.939  28.360  1.00  0.00    -0.248 NA
ATOM     54  C   UNL A   1      38.856  25.902  28.270  1.00  0.00     0.031 C 
ATOM     55  C   UNL A   1      41.288  22.261  25.811  1.00  0.00     0.029 A 
ATOM     56  N   UNL A   1      42.527  23.806  26.853  1.00  0.00    -0.354 N 
ATOM     57  C   UNL A   1      40.681  26.995  29.107  1.00  0.00     0.074 A 
ATOM     58  C   UNL A   1      39.242  26.951  28.978  1.00  0.00     0.031 C 
ATOM     59  C   UNL A   1      42.580  21.929  25.642  1.00  0.00     0.029 A 
ATOM     60  C   UNL A   1      43.423  22.928  26.295  1.00  0.00     0.049 A 
ATOM     61  H   UNL A   1      42.799  24.592  27.378  1.00  0.00     0.167 HD
ATOM     62  C   UNL A   1      41.349  27.912  29.846  1.00  0.00     0.031 A 
ATOM     63  C   UNL A   1      44.770  22.937  26.308  1.00  0.00     0.031 A 
ATOM     64  C   UNL A   1      42.782  27.972  29.952  1.00  0.00     0.049 A 
ATOM     65  C   UNL A   1      45.495  24.027  27.052  1.00  0.00     0.074 A 
ATOM     66  C   UNL A   1      43.557  28.864  30.672  1.00  0.00     0.029 A 
ATOM     67  N   UNL A   1      43.655  27.111  29.305  1.00  0.00    -0.354 N 
ATOM     68  N   UNL A   1      45.005  25.008  27.772  1.00  0.00    -0.248 NA
ATOM     69  C   UNL A   1      46.964  24.000  26.994  1.00  0.00     0.031 C 
ATOM     70  C   UNL A   1      44.902  28.583  30.407  1.00  0.00     0.029 A 
ATOM     71  C   UNL A   1      44.964  27.469  29.584  1.00  0.00     0.049 A 
ATOM     72  H   UNL A   1      43.386  26.358  28.732  1.00  0.00     0.167 HD
ATOM     73  C   UNL A   1      46.103  25.691  28.283  1.00  0.00     0.074 A 
ATOM     74  C   UNL A   1      47.283  25.005  27.798  1.00  0.00     0.031 C 
ATOM     75  C   UNL A   1      46.130  26.780  29.091  1.00  0.00     0.031 A 
BRANCH  62  76
ATOM     76  C   UNL A   1      40.522  28.953  30.554  1.00  0.00    -0.014 A 
ATOM     77  C   UNL A   1      40.179  28.823  31.910  1.00  0.00     0.009 A 
ATOM     78  C   UNL A   1      40.073  30.080  29.849  1.00  0.00     0.009 A 
ATOM     79  C   UNL A   1      39.360  29.770  32.529  1.00  0.00     0.001 A 
ATOM     80  C   UNL A   1      39.286  31.046  30.480  1.00  0.00     0.001 A 
ATOM     81  C   UNL A   1      38.918  30.883  31.814  1.00  0.00     0.000 A 
ENDBRANCH  62  76
BRANCH  63  82
ATOM     82  C   UNL A   1      45.524  21.869  25.600  1.00  0.00    -0.014 A 
ATOM     83  C   UNL A   1      45.459  20.537  26.037  1.00  0.00     0.009 A 
ATOM     84  C   UNL A   1      46.317  22.177  24.482  1.00  0.00     0.009 A 
ATOM     85  C   UNL A   1      46.187  19.540  25.383  1.00  0.00     0.001 A 
ATOM     86  C   UNL A   1      47.019  21.174  23.812  1.00  0.00     0.001 A 
ATOM     87  C   UNL A   1      46.959  19.858  24.266  1.00  0.00     0.000 A 
ENDBRANCH  63  82
BRANCH  75  88
ATOM     88  C   UNL A   1      47.479  27.274  29.542  1.00  0.00    -0.014 A 
ATOM     89  C   UNL A   1      48.229  28.179  28.776  1.00  0.00     0.009 A 
ATOM     90  C   UNL A   1      47.988  26.852  30.782  1.00  0.00     0.009 A 
ATOM     91  C   UNL A   1      49.477  28.619  29.224  1.00  0.00     0.001 A 
ATOM     92  C   UNL A   1      49.218  27.321  31.244  1.00  0.00     0.001 A 
ATOM     93  C   UNL A   1      49.968  28.194  30.458  1.00  0.00     0.000 A 
ENDBRANCH  75  88
ENDBRANCH  49  50
ENDBRANCH  42  44
ENDBRANCH  41  42
ENDBRANCH  40  41
ENDBRANCH  39  40
ENDBRANCH  38  39
ENDBRANCH  37  38
ENDBRANCH  36  37
ENDBRANCH  35  36
ENDBRANCH   1  35
TORSDOF 24
ENDMDL
MODEL 3
REMARK VINA RESULT:      -8.7      8.844     15.446
REMARK SMILES Cc1oc(-c2ccc(Cl)cc2[N+](=O)[O-])cc1C(=O)Nc1ccc(C(=O)OCCOCCOCCOCCOC(=O)c2ccc(-c3c4nc(c(-c5ccccc5)c5ccc([nH]5)c(-c5ccccc5)c5nc(c(-c6ccccc6)c6ccc3[nH]6)C=C5)C=C4)cc2)cc1
REMARK SMILES IDX 31 1 30 2 29 3 28 4 27 5 26 6 24 7 25 8 23 9 20 10 21 11
REMARK SMILES IDX 90 12 22 13 89 14 19 15 17 16 18 17 16 19 1 20 2 21 3 22
REMARK SMILES IDX 4 23 15 24 5 25 6 26 11 27 7 28 10 29 8 30 9 31 12 32 13 33
REMARK SMILES IDX 14 34 32 35 33 36 34 37 35 38 36 39 37 40 38 41 39 42 40 43
REMARK SMILES IDX 41 44 42 45 88 46 43 47 87 48 44 49 45 50 46 51 81 52 47 53
REMARK SMILES IDX 86 54 80 55 82 56 48 57 85 58 79 59 78 60 49 62 71 63 56 64
REMARK SMILES IDX 70 65 57 66 60 67 69 68 83 69 58 70 59 71 68 73 84 74 61 75
REMARK SMILES IDX 50 76 51 77 55 78 52 79 54 80 53 81 72 82 73 83 77 84 74 85
REMARK SMILES IDX 76 86 75 87 62 88 63 89 67 90 64 91 66 92 65 93
REMARK H PARENT 19 18 82 61 60 72
REMARK Flexibility Score: inf
ROOT
ATOM      1  C   UNL A   1      55.095  24.874  33.528  1.00  0.00     0.188 C 
ENDROOT
BRANCH   1   2
ATOM      2  C   UNL A   1      55.537  23.429  33.223  1.00  0.00     0.188 C 
BRANCH   2   3
ATOM      3  O   UNL A   1      56.131  22.699  34.276  1.00  0.00    -0.376 OA
BRANCH   3   4
ATOM      4  C   UNL A   1      55.439  22.244  35.426  1.00  0.00     0.202 C 
BRANCH   4   5
ATOM      5  C   UNL A   1      54.027  21.630  35.501  1.00  0.00     0.261 C 
BRANCH   5   6
ATOM      6  O   UNL A   1      53.634  20.772  34.444  1.00  0.00    -0.460 OA
BRANCH   6   7
ATOM      7  C   UNL A   1      53.056  19.623  34.837  1.00  0.00     0.338 C 
ATOM      8  O   UNL A   1      53.615  18.608  35.217  1.00  0.00    -0.246 OA
BRANCH   7   9
ATOM      9  C   UNL A   1      51.592  19.813  34.896  1.00  0.00     0.060 A 
ATOM     10  C   UNL A   1      49.090  20.898  35.105  1.00  0.00     0.041 A 
ATOM     11  C   UNL A   1      49.674  20.820  33.842  1.00  0.00     0.027 A 
ATOM     12  C   UNL A   1      49.604  20.179  36.187  1.00  0.00     0.027 A 
ATOM     13  C   UNL A   1      50.963  20.317  33.749  1.00  0.00     0.018 A 
ATOM     14  C   UNL A   1      50.866  19.609  36.077  1.00  0.00     0.018 A 
BRANCH  10  15
ATOM     15  N   UNL A   1      48.107  21.866  35.273  1.00  0.00    -0.322 N 
ATOM     16  C   UNL A   1      46.879  21.757  35.894  1.00  0.00     0.259 C 
ATOM     17  O   UNL A   1      46.132  22.734  35.798  1.00  0.00    -0.269 OA
ATOM     18  H   UNL A   1      48.315  22.752  34.897  1.00  0.00     0.170 HD
BRANCH  16  19
ATOM     19  C   UNL A   1      46.452  20.592  36.684  1.00  0.00     0.081 A 
ATOM     20  C   UNL A   1      45.482  18.584  35.170  1.00  0.00     0.088 C 
ATOM     21  C   UNL A   1      45.870  19.368  36.356  1.00  0.00     0.114 A 
ATOM     22  O   UNL A   1      45.681  18.621  37.472  1.00  0.00    -0.460 OA
ATOM     23  C   UNL A   1      46.367  19.194  38.478  1.00  0.00     0.142 A 
ATOM     24  C   UNL A   1      46.797  20.438  38.081  1.00  0.00     0.065 A 
BRANCH  23  25
ATOM     25  C   UNL A   1      46.486  18.354  39.650  1.00  0.00     0.095 A 
ATOM     26  C   UNL A   1      45.486  17.411  39.916  1.00  0.00     0.021 A 
ATOM     27  C   UNL A   1      47.602  18.401  40.516  1.00  0.00     0.281 A 
ATOM     28  C   UNL A   1      45.610  16.531  40.997  1.00  0.00     0.022 A 
ATOM     29  C   UNL A   1      47.734  17.518  41.597  1.00  0.00     0.107 A 
ATOM     30  C   UNL A   1      46.731  16.585  41.824  1.00  0.00     0.047 A 
ATOM     31  Cl  UNL A   1      46.874  15.491  43.141  1.00  0.00    -0.084 Cl
BRANCH  27  32
ATOM     32  N   UNL A   1      48.664  19.392  40.353  1.00  0.00     0.063 N 
ATOM     33  O   UNL A   1      49.444  19.227  39.403  1.00  0.00    -0.258 OA
ATOM     34  O   UNL A   1      48.767  20.277  41.214  1.00  0.00    -0.258 OA
ENDBRANCH  27  32
ENDBRANCH  23  25
ENDBRANCH  16  19
ENDBRANCH  10  15
ENDBRANCH   7   9
ENDBRANCH   6   7
ENDBRANCH   5   6
ENDBRANCH   4   5
ENDBRANCH   3   4
ENDBRANCH   2   3
ENDBRANCH   1   2
BRANCH   1  35
ATOM     35  O   UNL A   1      53.845  25.241  32.981  1.00  0.00    -0.377 OA
BRANCH  35  36
ATOM     36  C   UNL A   1      53.791  26.388  32.141  1.00  0.00     0.188 C 
BRANCH  36  37
ATOM     37  C   UNL A   1      54.226  26.333  30.657  1.00  0.00     0.188 C 
BRANCH  37  38
ATOM     38  O   UNL A   1      53.636  27.305  29.807  1.00  0.00    -0.376 OA
BRANCH  38  39
ATOM     39  C   UNL A   1      54.067  27.406  28.460  1.00  0.00     0.202 C 
BRANCH  39  40
ATOM     40  C   UNL A   1      54.307  26.096  27.692  1.00  0.00     0.261 C 
BRANCH  40  41
ATOM     41  O   UNL A   1      53.137  25.307  27.433  1.00  0.00    -0.460 OA
BRANCH  41  42
ATOM     42  C   UNL A   1      52.477  25.568  26.288  1.00  0.00     0.338 C 
ATOM     43  O   UNL A   1      52.954  25.686  25.169  1.00  0.00    -0.246 OA
BRANCH  42  44
ATOM     44  C   UNL A   1      51.030  25.498  26.563  1.00  0.00     0.060 A 
ATOM     45  C   UNL A   1      50.143  25.977  25.591  1.00  0.00     0.016 A 
ATOM     46  C   UNL A   1      50.553  24.986  27.772  1.00  0.00     0.016 A 
ATOM     47  C   UNL A   1      48.778  26.011  25.855  1.00  0.00     0.010 A 
ATOM     48  C   UNL A   1      49.184  25.036  28.043  1.00  0.00     0.010 A 
ATOM     49  C   UNL A   1      48.299  25.599  27.105  1.00  0.00    -0.014 A 
BRANCH  49  50
ATOM     50  C   UNL A   1      46.922  25.980  27.499  1.00  0.00     0.031 A 
ATOM     51  C   UNL A   1      46.674  27.396  27.944  1.00  0.00     0.074 A 
ATOM     52  C   UNL A   1      45.898  25.117  27.382  1.00  0.00     0.049 A 
ATOM     53  N   UNL A   1      45.549  27.979  28.269  1.00  0.00    -0.248 NA
ATOM     54  C   UNL A   1      47.854  28.271  28.029  1.00  0.00     0.031 C 
ATOM     55  C   UNL A   1      46.001  23.740  26.906  1.00  0.00     0.029 A 
ATOM     56  N   UNL A   1      44.562  25.289  27.642  1.00  0.00    -0.354 N 
ATOM     57  C   UNL A   1      45.888  29.288  28.597  1.00  0.00     0.074 A 
ATOM     58  C   UNL A   1      47.324  29.397  28.477  1.00  0.00     0.031 C 
ATOM     59  C   UNL A   1      44.773  23.194  26.892  1.00  0.00     0.029 A 
ATOM     60  C   UNL A   1      43.806  24.173  27.386  1.00  0.00     0.049 A 
ATOM     61  H   UNL A   1      44.183  26.132  27.979  1.00  0.00     0.167 HD
ATOM     62  C   UNL A   1      45.076  30.311  28.954  1.00  0.00     0.031 A 
ATOM     63  C   UNL A   1      42.483  23.967  27.538  1.00  0.00     0.031 A 
ATOM     64  C   UNL A   1      43.650  30.194  29.101  1.00  0.00     0.049 A 
ATOM     65  C   UNL A   1      41.612  25.090  28.035  1.00  0.00     0.074 A 
ATOM     66  C   UNL A   1      42.737  31.170  29.460  1.00  0.00     0.029 A 
ATOM     67  N   UNL A   1      42.932  29.023  28.909  1.00  0.00    -0.354 N 
ATOM     68  N   UNL A   1      41.939  26.329  28.322  1.00  0.00    -0.248 NA
ATOM     69  C   UNL A   1      40.185  24.788  28.216  1.00  0.00     0.031 C 
ATOM     70  C   UNL A   1      41.475  30.572  29.551  1.00  0.00     0.029 A 
ATOM     71  C   UNL A   1      41.591  29.243  29.172  1.00  0.00     0.049 A 
ATOM     72  H   UNL A   1      43.319  28.163  28.627  1.00  0.00     0.167 HD
ATOM     73  C   UNL A   1      40.753  26.962  28.679  1.00  0.00     0.074 A 
ATOM     74  C   UNL A   1      39.701  25.972  28.563  1.00  0.00     0.031 C 
ATOM     75  C   UNL A   1      40.554  28.248  29.057  1.00  0.00     0.031 A 
BRANCH  62  76
ATOM     76  C   UNL A   1      45.733  31.631  29.256  1.00  0.00    -0.014 A 
ATOM     77  C   UNL A   1      45.711  32.186  30.547  1.00  0.00     0.009 A 
ATOM     78  C   UNL A   1      46.381  32.335  28.230  1.00  0.00     0.009 A 
ATOM     79  C   UNL A   1      46.274  33.440  30.790  1.00  0.00     0.001 A 
ATOM     80  C   UNL A   1      46.977  33.573  28.484  1.00  0.00     0.001 A 
ATOM     81  C   UNL A   1      46.911  34.131  29.759  1.00  0.00     0.000 A 
ENDBRANCH  62  76
BRANCH  63  82
ATOM     82  C   UNL A   1      41.898  22.641  27.205  1.00  0.00    -0.014 A 
ATOM     83  C   UNL A   1      41.058  22.489  26.092  1.00  0.00     0.009 A 
ATOM     84  C   UNL A   1      42.173  21.520  28.005  1.00  0.00     0.009 A 
ATOM     85  C   UNL A   1      40.491  21.247  25.797  1.00  0.00     0.001 A 
ATOM     86  C   UNL A   1      41.630  20.273  27.689  1.00  0.00     0.001 A 
ATOM     87  C   UNL A   1      40.784  20.139  26.590  1.00  0.00     0.000 A 
ENDBRANCH  63  82
BRANCH  75  88
ATOM     88  C   UNL A   1      39.137  28.679  29.330  1.00  0.00    -0.014 A 
ATOM     89  C   UNL A   1      38.620  28.737  30.633  1.00  0.00     0.009 A 
ATOM     90  C   UNL A   1      38.317  29.071  28.258  1.00  0.00     0.009 A 
ATOM     91  C   UNL A   1      37.300  29.142  30.852  1.00  0.00     0.001 A 
ATOM     92  C   UNL A   1      37.012  29.509  28.483  1.00  0.00     0.001 A 
ATOM     93  C   UNL A   1      36.501  29.532  29.778  1.00  0.00     0.000 A 
ENDBRANCH  75  88
ENDBRANCH  49  50
ENDBRANCH  42  44
ENDBRANCH  41  42
ENDBRANCH  40  41
ENDBRANCH  39  40
ENDBRANCH  38  39
ENDBRANCH  37  38
ENDBRANCH  36  37
ENDBRANCH  35  36
ENDBRANCH   1  35
TORSDOF 24
ENDMDL
