MODEL 1
REMARK VINA RESULT:     -10.6      0.000      0.000
REMARK SMILES O=C(OCCOCCOCCOCCOC(=O)c1cc(-c2ccccc2)nc(Nc2nc3ccccc3s2)n1)c1ccc(-c2c3nc(c(-c4ccccc4)c4ccc([nH]4)c(-c4ccccc4)c4nc(c(-c5ccccc5)c5ccc2[nH]5)C=C4)C=C3)cc1
REMARK SMILES IDX 9 1 8 2 7 3 6 4 5 5 4 6 3 7 2 8 1 9 40 10 41 11 87 12 42 13
REMARK SMILES IDX 86 14 43 15 44 16 45 17 80 18 46 19 85 20 79 21 81 22 47 23
REMARK SMILES IDX 84 24 78 25 77 26 48 28 70 29 55 30 69 31 56 32 59 33 68 34
REMARK SMILES IDX 82 35 57 36 58 37 67 39 83 40 60 41 49 42 50 43 54 44 51 45
REMARK SMILES IDX 53 46 52 47 71 48 72 49 76 50 73 51 75 52 74 53 61 54 62 55
REMARK SMILES IDX 66 56 63 57 65 58 64 59 10 60 11 61 12 62 13 63 14 64 15 65
REMARK SMILES IDX 16 66 17 67 18 68 19 69 39 70 20 71 28 72 27 73 21 74 22 75
REMARK SMILES IDX 26 76 23 77 25 78 24 79 29 80 30 82 31 83 38 84 32 85 37 86
REMARK SMILES IDX 33 87 36 88 34 89 35 90
REMARK H PARENT 81 27 59 38 29 81
REMARK Flexibility Score: inf
ROOT
ATOM      1  O   UNL A   1      42.299  19.496  26.290  1.00  0.00    -0.377 OA
ENDROOT
BRANCH   1   2
ATOM      2  C   UNL A   1      43.428  18.853  25.688  1.00  0.00     0.188 C 
BRANCH   2   3
ATOM      3  C   UNL A   1      44.211  19.717  24.697  1.00  0.00     0.188 C 
BRANCH   3   4
ATOM      4  O   UNL A   1      45.343  20.262  25.370  1.00  0.00    -0.376 OA
BRANCH   4   5
ATOM      5  C   UNL A   1      46.002  21.341  24.719  1.00  0.00     0.202 C 
BRANCH   5   6
ATOM      6  C   UNL A   1      45.102  22.541  24.455  1.00  0.00     0.261 C 
BRANCH   6   7
ATOM      7  O   UNL A   1      44.956  23.361  25.620  1.00  0.00    -0.460 OA
BRANCH   7   8
ATOM      8  C   UNL A   1      44.899  24.716  25.635  1.00  0.00     0.338 C 
ATOM      9  O   UNL A   1      45.331  25.343  24.670  1.00  0.00    -0.246 OA
BRANCH   8  10
ATOM     10  C   UNL A   1      44.215  25.485  26.714  1.00  0.00     0.060 A 
ATOM     11  C   UNL A   1      44.226  26.878  26.855  1.00  0.00     0.016 A 
ATOM     12  C   UNL A   1      43.419  24.736  27.589  1.00  0.00     0.016 A 
ATOM     13  C   UNL A   1      43.541  27.509  27.886  1.00  0.00     0.010 A 
ATOM     14  C   UNL A   1      42.685  25.364  28.596  1.00  0.00     0.010 A 
ATOM     15  C   UNL A   1      42.770  26.754  28.760  1.00  0.00    -0.014 A 
BRANCH  15  16
ATOM     16  C   UNL A   1      42.164  27.397  29.936  1.00  0.00     0.031 A 
ATOM     17  C   UNL A   1      40.835  28.057  29.752  1.00  0.00     0.074 A 
ATOM     18  C   UNL A   1      42.776  27.362  31.131  1.00  0.00     0.049 A 
ATOM     19  N   UNL A   1      40.207  28.891  30.532  1.00  0.00    -0.248 NA
ATOM     20  C   UNL A   1      40.123  27.736  28.502  1.00  0.00     0.031 C 
ATOM     21  C   UNL A   1      44.006  26.626  31.431  1.00  0.00     0.029 A 
ATOM     22  N   UNL A   1      42.445  27.966  32.314  1.00  0.00    -0.354 N 
ATOM     23  C   UNL A   1      39.063  29.255  29.833  1.00  0.00     0.074 A 
ATOM     24  C   UNL A   1      39.074  28.536  28.579  1.00  0.00     0.031 C 
ATOM     25  C   UNL A   1      44.329  26.828  32.719  1.00  0.00     0.029 A 
ATOM     26  C   UNL A   1      43.383  27.775  33.298  1.00  0.00     0.049 A 
ATOM     27  H   UNL A   1      41.619  28.484  32.445  1.00  0.00     0.167 HD
ATOM     28  C   UNL A   1      38.111  30.139  30.205  1.00  0.00     0.031 A 
ATOM     29  C   UNL A   1      43.493  28.359  34.505  1.00  0.00     0.031 A 
ATOM     30  C   UNL A   1      38.149  30.834  31.462  1.00  0.00     0.049 A 
ATOM     31  C   UNL A   1      42.463  29.388  34.882  1.00  0.00     0.074 A 
ATOM     32  C   UNL A   1      37.283  31.791  31.954  1.00  0.00     0.029 A 
ATOM     33  N   UNL A   1      39.124  30.629  32.431  1.00  0.00    -0.354 N 
ATOM     34  N   UNL A   1      41.424  29.802  34.192  1.00  0.00    -0.248 NA
ATOM     35  C   UNL A   1      42.625  30.045  36.184  1.00  0.00     0.031 C 
ATOM     36  C   UNL A   1      37.762  32.194  33.207  1.00  0.00     0.029 A 
ATOM     37  C   UNL A   1      38.892  31.449  33.517  1.00  0.00     0.049 A 
ATOM     38  H   UNL A   1      39.870  29.991  32.354  1.00  0.00     0.167 HD
ATOM     39  C   UNL A   1      40.799  30.758  34.978  1.00  0.00     0.074 A 
ATOM     40  C   UNL A   1      41.571  30.853  36.204  1.00  0.00     0.031 C 
ATOM     41  C   UNL A   1      39.690  31.495  34.717  1.00  0.00     0.031 A 
BRANCH  28  42
ATOM     42  C   UNL A   1      37.052  30.458  29.188  1.00  0.00    -0.014 A 
ATOM     43  C   UNL A   1      36.905  31.744  28.645  1.00  0.00     0.009 A 
ATOM     44  C   UNL A   1      36.126  29.464  28.834  1.00  0.00     0.009 A 
ATOM     45  C   UNL A   1      35.817  32.044  27.820  1.00  0.00     0.001 A 
ATOM     46  C   UNL A   1      35.057  29.757  27.986  1.00  0.00     0.001 A 
ATOM     47  C   UNL A   1      34.894  31.051  27.494  1.00  0.00     0.000 A 
ENDBRANCH  28  42
BRANCH  29  48
ATOM     48  C   UNL A   1      44.652  28.036  35.378  1.00  0.00    -0.014 A 
ATOM     49  C   UNL A   1      45.835  28.787  35.317  1.00  0.00     0.009 A 
ATOM     50  C   UNL A   1      44.559  27.004  36.328  1.00  0.00     0.009 A 
ATOM     51  C   UNL A   1      46.895  28.511  36.186  1.00  0.00     0.001 A 
ATOM     52  C   UNL A   1      45.608  26.749  37.214  1.00  0.00     0.001 A 
ATOM     53  C   UNL A   1      46.778  27.500  37.139  1.00  0.00     0.000 A 
ENDBRANCH  29  48
BRANCH  41  54
ATOM     54  C   UNL A   1      39.225  32.429  35.793  1.00  0.00    -0.014 A 
ATOM     55  C   UNL A   1      38.455  31.967  36.870  1.00  0.00     0.009 A 
ATOM     56  C   UNL A   1      39.653  33.765  35.773  1.00  0.00     0.009 A 
ATOM     57  C   UNL A   1      38.112  32.837  37.906  1.00  0.00     0.001 A 
ATOM     58  C   UNL A   1      39.329  34.624  36.821  1.00  0.00     0.001 A 
ATOM     59  C   UNL A   1      38.557  34.160  37.885  1.00  0.00     0.000 A 
ENDBRANCH  41  54
ENDBRANCH  15  16
ENDBRANCH   8  10
ENDBRANCH   7   8
ENDBRANCH   6   7
ENDBRANCH   5   6
ENDBRANCH   4   5
ENDBRANCH   3   4
ENDBRANCH   2   3
ENDBRANCH   1   2
BRANCH   1  60
ATOM     60  C   UNL A   1      42.281  20.923  26.251  1.00  0.00     0.188 C 
BRANCH  60  61
ATOM     61  C   UNL A   1      41.153  21.663  27.003  1.00  0.00     0.188 C 
BRANCH  61  62
ATOM     62  O   UNL A   1      39.845  21.363  26.531  1.00  0.00    -0.376 OA
BRANCH  62  63
ATOM     63  C   UNL A   1      38.969  22.481  26.408  1.00  0.00     0.202 C 
BRANCH  63  64
ATOM     64  C   UNL A   1      37.794  22.318  25.432  1.00  0.00     0.261 C 
BRANCH  64  65
ATOM     65  O   UNL A   1      37.231  23.552  24.944  1.00  0.00    -0.459 OA
BRANCH  65  66
ATOM     66  C   UNL A   1      36.446  23.489  23.841  1.00  0.00     0.357 C 
ATOM     67  O   UNL A   1      36.767  23.151  22.731  1.00  0.00    -0.244 OA
BRANCH  66  68
ATOM     68  C   UNL A   1      35.056  23.778  24.309  1.00  0.00     0.154 A 
ATOM     69  C   UNL A   1      34.762  25.013  24.817  1.00  0.00     0.065 A 
ATOM     70  N   UNL A   1      34.192  22.739  24.300  1.00  0.00    -0.206 NA
ATOM     71  C   UNL A   1      33.465  25.182  25.244  1.00  0.00     0.077 A 
ATOM     72  C   UNL A   1      32.986  22.952  24.836  1.00  0.00     0.230 A 
ATOM     73  N   UNL A   1      32.576  24.159  25.269  1.00  0.00    -0.213 NA
BRANCH  71  74
ATOM     74  C   UNL A   1      32.972  26.523  25.607  1.00  0.00     0.000 A 
ATOM     75  C   UNL A   1      33.229  27.665  24.833  1.00  0.00     0.010 A 
ATOM     76  C   UNL A   1      32.202  26.685  26.777  1.00  0.00     0.010 A 
ATOM     77  C   UNL A   1      32.715  28.914  25.210  1.00  0.00     0.001 A 
ATOM     78  C   UNL A   1      31.691  27.925  27.153  1.00  0.00     0.001 A 
ATOM     79  C   UNL A   1      31.945  29.041  26.366  1.00  0.00     0.000 A 
ENDBRANCH  71  74
BRANCH  72  80
ATOM     80  N   UNL A   1      32.071  21.912  24.929  1.00  0.00    -0.300 N 
ATOM     81  H   UNL A   1      31.140  22.147  25.146  1.00  0.00     0.172 HD
BRANCH  80  82
ATOM     82  C   UNL A   1      32.352  20.608  24.747  1.00  0.00     0.190 A 
ATOM     83  N   UNL A   1      32.475  19.720  25.712  1.00  0.00    -0.220 NA
ATOM     84  S   UNL A   1      32.467  19.955  23.154  1.00  0.00    -0.097 S 
ATOM     85  C   UNL A   1      32.724  18.460  25.185  1.00  0.00     0.084 A 
ATOM     86  C   UNL A   1      32.824  18.400  23.797  1.00  0.00     0.056 A 
ATOM     87  C   UNL A   1      32.881  17.262  25.915  1.00  0.00     0.030 A 
ATOM     88  C   UNL A   1      33.146  17.206  23.126  1.00  0.00     0.021 A 
ATOM     89  C   UNL A   1      33.218  16.071  25.267  1.00  0.00     0.002 A 
ATOM     90  C   UNL A   1      33.362  16.050  23.885  1.00  0.00     0.002 A 
ENDBRANCH  80  82
ENDBRANCH  72  80
ENDBRANCH  66  68
ENDBRANCH  65  66
ENDBRANCH  64  65
ENDBRANCH  63  64
ENDBRANCH  62  63
ENDBRANCH  61  62
ENDBRANCH  60  61
ENDBRANCH   1  60
TORSDOF 23
ENDMDL
MODEL 2
REMARK VINA RESULT:     -10.5      1.411      4.489
REMARK SMILES O=C(OCCOCCOCCOCCOC(=O)c1cc(-c2ccccc2)nc(Nc2nc3ccccc3s2)n1)c1ccc(-c2c3nc(c(-c4ccccc4)c4ccc([nH]4)c(-c4ccccc4)c4nc(c(-c5ccccc5)c5ccc2[nH]5)C=C4)C=C3)cc1
REMARK SMILES IDX 9 1 8 2 7 3 6 4 5 5 4 6 3 7 2 8 1 9 40 10 41 11 87 12 42 13
REMARK SMILES IDX 86 14 43 15 44 16 45 17 80 18 46 19 85 20 79 21 81 22 47 23
REMARK SMILES IDX 84 24 78 25 77 26 48 28 70 29 55 30 69 31 56 32 59 33 68 34
REMARK SMILES IDX 82 35 57 36 58 37 67 39 83 40 60 41 49 42 50 43 54 44 51 45
REMARK SMILES IDX 53 46 52 47 71 48 72 49 76 50 73 51 75 52 74 53 61 54 62 55
REMARK SMILES IDX 66 56 63 57 65 58 64 59 10 60 11 61 12 62 13 63 14 64 15 65
REMARK SMILES IDX 16 66 17 67 18 68 19 69 39 70 20 71 28 72 27 73 21 74 22 75
REMARK SMILES IDX 26 76 23 77 25 78 24 79 29 80 30 82 31 83 38 84 32 85 37 86
REMARK SMILES IDX 33 87 36 88 34 89 35 90
REMARK H PARENT 81 27 59 38 29 81
REMARK Flexibility Score: inf
ROOT
ATOM      1  O   UNL A   1      44.352  18.499  24.944  1.00  0.00    -0.377 OA
ENDROOT
BRANCH   1   2
ATOM      2  C   UNL A   1      45.608  19.136  24.687  1.00  0.00     0.188 C 
BRANCH   2   3
ATOM      3  C   UNL A   1      45.514  20.611  24.289  1.00  0.00     0.188 C 
BRANCH   3   4
ATOM      4  O   UNL A   1      46.347  21.368  25.163  1.00  0.00    -0.376 OA
BRANCH   4   5
ATOM      5  C   UNL A   1      46.295  22.781  25.015  1.00  0.00     0.202 C 
BRANCH   5   6
ATOM      6  C   UNL A   1      44.901  23.316  24.713  1.00  0.00     0.261 C 
BRANCH   6   7
ATOM      7  O   UNL A   1      44.424  24.169  25.760  1.00  0.00    -0.460 OA
BRANCH   7   8
ATOM      8  C   UNL A   1      43.408  25.061  25.654  1.00  0.00     0.338 C 
ATOM      9  O   UNL A   1      42.741  25.089  24.622  1.00  0.00    -0.246 OA
BRANCH   8  10
ATOM     10  C   UNL A   1      42.972  25.929  26.787  1.00  0.00     0.060 A 
ATOM     11  C   UNL A   1      43.452  27.215  27.061  1.00  0.00     0.016 A 
ATOM     12  C   UNL A   1      41.922  25.433  27.569  1.00  0.00     0.016 A 
ATOM     13  C   UNL A   1      42.970  27.958  28.132  1.00  0.00     0.010 A 
ATOM     14  C   UNL A   1      41.395  26.191  28.615  1.00  0.00     0.010 A 
ATOM     15  C   UNL A   1      41.942  27.447  28.913  1.00  0.00    -0.014 A 
BRANCH  15  16
ATOM     16  C   UNL A   1      41.531  28.162  30.131  1.00  0.00     0.031 A 
ATOM     17  C   UNL A   1      40.321  29.035  30.042  1.00  0.00     0.074 A 
ATOM     18  C   UNL A   1      42.207  28.006  31.281  1.00  0.00     0.049 A 
ATOM     19  N   UNL A   1      39.894  29.949  30.868  1.00  0.00    -0.248 NA
ATOM     20  C   UNL A   1      39.484  28.858  28.843  1.00  0.00     0.031 C 
ATOM     21  C   UNL A   1      43.314  27.072  31.492  1.00  0.00     0.029 A 
ATOM     22  N   UNL A   1      42.061  28.636  32.487  1.00  0.00    -0.354 N 
ATOM     23  C   UNL A   1      38.782  30.508  30.251  1.00  0.00     0.074 A 
ATOM     24  C   UNL A   1      38.589  29.820  28.995  1.00  0.00     0.031 C 
ATOM     25  C   UNL A   1      43.752  27.195  32.755  1.00  0.00     0.029 A 
ATOM     26  C   UNL A   1      43.017  28.276  33.404  1.00  0.00     0.049 A 
ATOM     27  H   UNL A   1      41.343  29.281  32.677  1.00  0.00     0.167 HD
ATOM     28  C   UNL A   1      38.018  31.532  30.693  1.00  0.00     0.031 A 
ATOM     29  C   UNL A   1      43.303  28.813  34.603  1.00  0.00     0.031 A 
ATOM     30  C   UNL A   1      38.253  32.190  31.948  1.00  0.00     0.049 A 
ATOM     31  C   UNL A   1      42.486  29.992  35.056  1.00  0.00     0.074 A 
ATOM     32  C   UNL A   1      37.594  33.268  32.504  1.00  0.00     0.029 A 
ATOM     33  N   UNL A   1      39.243  31.810  32.847  1.00  0.00    -0.354 N 
ATOM     34  N   UNL A   1      41.487  30.584  34.441  1.00  0.00    -0.248 NA
ATOM     35  C   UNL A   1      42.841  30.591  36.347  1.00  0.00     0.031 C 
ATOM     36  C   UNL A   1      38.215  33.565  33.722  1.00  0.00     0.029 A 
ATOM     37  C   UNL A   1      39.224  32.639  33.950  1.00  0.00     0.049 A 
ATOM     38  H   UNL A   1      39.866  31.058  32.716  1.00  0.00     0.167 HD
ATOM     39  C   UNL A   1      41.083  31.617  35.274  1.00  0.00     0.074 A 
ATOM     40  C   UNL A   1      41.940  31.562  36.444  1.00  0.00     0.031 C 
ATOM     41  C   UNL A   1      40.097  32.531  35.093  1.00  0.00     0.031 A 
BRANCH  28  42
ATOM     42  C   UNL A   1      36.961  32.038  29.752  1.00  0.00    -0.014 A 
ATOM     43  C   UNL A   1      37.214  33.070  28.834  1.00  0.00     0.009 A 
ATOM     44  C   UNL A   1      35.657  31.527  29.852  1.00  0.00     0.009 A 
ATOM     45  C   UNL A   1      36.172  33.621  28.083  1.00  0.00     0.001 A 
ATOM     46  C   UNL A   1      34.623  32.058  29.079  1.00  0.00     0.001 A 
ATOM     47  C   UNL A   1      34.878  33.116  28.209  1.00  0.00     0.000 A 
ENDBRANCH  28  42
BRANCH  29  48
ATOM     48  C   UNL A   1      44.448  28.288  35.393  1.00  0.00    -0.014 A 
ATOM     49  C   UNL A   1      45.732  28.834  35.255  1.00  0.00     0.009 A 
ATOM     50  C   UNL A   1      44.248  27.270  36.342  1.00  0.00     0.009 A 
ATOM     51  C   UNL A   1      46.787  28.371  36.048  1.00  0.00     0.001 A 
ATOM     52  C   UNL A   1      45.296  26.830  37.152  1.00  0.00     0.001 A 
ATOM     53  C   UNL A   1      46.568  27.378  37.001  1.00  0.00     0.000 A 
ENDBRANCH  29  48
BRANCH  41  54
ATOM     54  C   UNL A   1      39.867  33.511  36.203  1.00  0.00    -0.014 A 
ATOM     55  C   UNL A   1      40.619  34.691  36.296  1.00  0.00     0.009 A 
ATOM     56  C   UNL A   1      38.815  33.291  37.105  1.00  0.00     0.009 A 
ATOM     57  C   UNL A   1      40.324  35.630  37.285  1.00  0.00     0.001 A 
ATOM     58  C   UNL A   1      38.508  34.241  38.075  1.00  0.00     0.001 A 
ATOM     59  C   UNL A   1      39.264  35.409  38.166  1.00  0.00     0.000 A 
ENDBRANCH  41  54
ENDBRANCH  15  16
ENDBRANCH   8  10
ENDBRANCH   7   8
ENDBRANCH   6   7
ENDBRANCH   5   6
ENDBRANCH   4   5
ENDBRANCH   3   4
ENDBRANCH   2   3
ENDBRANCH   1   2
BRANCH   1  60
ATOM     60  C   UNL A   1      43.309  19.327  25.457  1.00  0.00     0.188 C 
BRANCH  60  61
ATOM     61  C   UNL A   1      42.106  18.648  26.148  1.00  0.00     0.188 C 
BRANCH  61  62
ATOM     62  O   UNL A   1      40.855  19.276  25.889  1.00  0.00    -0.376 OA
BRANCH  62  63
ATOM     63  C   UNL A   1      40.504  20.328  26.783  1.00  0.00     0.202 C 
BRANCH  63  64
ATOM     64  C   UNL A   1      39.878  21.579  26.147  1.00  0.00     0.261 C 
BRANCH  64  65
ATOM     65  O   UNL A   1      38.471  21.474  25.852  1.00  0.00    -0.459 OA
BRANCH  65  66
ATOM     66  C   UNL A   1      37.754  22.623  25.805  1.00  0.00     0.357 C 
ATOM     67  O   UNL A   1      38.158  23.746  25.961  1.00  0.00    -0.244 OA
BRANCH  66  68
ATOM     68  C   UNL A   1      36.379  22.232  25.367  1.00  0.00     0.154 A 
ATOM     69  C   UNL A   1      36.099  20.913  25.132  1.00  0.00     0.065 A 
ATOM     70  N   UNL A   1      35.518  23.243  25.123  1.00  0.00    -0.206 NA
ATOM     71  C   UNL A   1      34.816  20.650  24.711  1.00  0.00     0.077 A 
ATOM     72  C   UNL A   1      34.329  22.912  24.608  1.00  0.00     0.230 A 
ATOM     73  N   UNL A   1      33.930  21.638  24.435  1.00  0.00    -0.213 NA
BRANCH  71  74
ATOM     74  C   UNL A   1      34.332  19.260  24.634  1.00  0.00     0.000 A 
ATOM     75  C   UNL A   1      35.194  18.152  24.600  1.00  0.00     0.010 A 
ATOM     76  C   UNL A   1      32.944  19.010  24.598  1.00  0.00     0.010 A 
ATOM     77  C   UNL A   1      34.681  16.849  24.552  1.00  0.00     0.001 A 
ATOM     78  C   UNL A   1      32.433  17.715  24.549  1.00  0.00     0.001 A 
ATOM     79  C   UNL A   1      33.303  16.632  24.530  1.00  0.00     0.000 A 
ENDBRANCH  71  74
BRANCH  72  80
ATOM     80  N   UNL A   1      33.419  23.903  24.262  1.00  0.00    -0.300 N 
ATOM     81  H   UNL A   1      32.892  23.765  23.442  1.00  0.00     0.172 HD
BRANCH  80  82
ATOM     82  C   UNL A   1      33.201  25.037  24.954  1.00  0.00     0.190 A 
ATOM     83  N   UNL A   1      34.016  26.071  24.986  1.00  0.00    -0.220 NA
ATOM     84  S   UNL A   1      31.714  25.270  25.799  1.00  0.00    -0.097 S 
ATOM     85  C   UNL A   1      33.476  27.092  25.756  1.00  0.00     0.084 A 
ATOM     86  C   UNL A   1      32.245  26.812  26.345  1.00  0.00     0.056 A 
ATOM     87  C   UNL A   1      34.052  28.360  25.990  1.00  0.00     0.030 A 
ATOM     88  C   UNL A   1      31.612  27.722  27.211  1.00  0.00     0.021 A 
ATOM     89  C   UNL A   1      33.445  29.268  26.862  1.00  0.00     0.002 A 
ATOM     90  C   UNL A   1      32.243  28.943  27.476  1.00  0.00     0.002 A 
ENDBRANCH  80  82
ENDBRANCH  72  80
ENDBRANCH  66  68
ENDBRANCH  65  66
ENDBRANCH  64  65
ENDBRANCH  63  64
ENDBRANCH  62  63
ENDBRANCH  61  62
ENDBRANCH  60  61
ENDBRANCH   1  60
TORSDOF 23
ENDMDL
MODEL 3
REMARK VINA RESULT:      -9.5      6.806      9.962
REMARK SMILES O=C(OCCOCCOCCOCCOC(=O)c1cc(-c2ccccc2)nc(Nc2nc3ccccc3s2)n1)c1ccc(-c2c3nc(c(-c4ccccc4)c4ccc([nH]4)c(-c4ccccc4)c4nc(c(-c5ccccc5)c5ccc2[nH]5)C=C4)C=C3)cc1
REMARK SMILES IDX 9 1 8 2 7 3 6 4 5 5 4 6 3 7 2 8 1 9 40 10 41 11 87 12 42 13
REMARK SMILES IDX 86 14 43 15 44 16 45 17 80 18 46 19 85 20 79 21 81 22 47 23
REMARK SMILES IDX 84 24 78 25 77 26 48 28 70 29 55 30 69 31 56 32 59 33 68 34
REMARK SMILES IDX 82 35 57 36 58 37 67 39 83 40 60 41 49 42 50 43 54 44 51 45
REMARK SMILES IDX 53 46 52 47 71 48 72 49 76 50 73 51 75 52 74 53 61 54 62 55
REMARK SMILES IDX 66 56 63 57 65 58 64 59 10 60 11 61 12 62 13 63 14 64 15 65
REMARK SMILES IDX 16 66 17 67 18 68 19 69 39 70 20 71 28 72 27 73 21 74 22 75
REMARK SMILES IDX 26 76 23 77 25 78 24 79 29 80 30 82 31 83 38 84 32 85 37 86
REMARK SMILES IDX 33 87 36 88 34 89 35 90
REMARK H PARENT 81 27 59 38 29 81
REMARK Flexibility Score: inf
ROOT
ATOM      1  O   UNL A   1      41.928  19.762  26.030  1.00  0.00    -0.377 OA
ENDROOT
BRANCH   1   2
ATOM      2  C   UNL A   1      42.975  18.786  26.015  1.00  0.00     0.188 C 
BRANCH   2   3
ATOM      3  C   UNL A   1      43.979  18.933  24.869  1.00  0.00     0.188 C 
BRANCH   3   4
ATOM      4  O   UNL A   1      45.094  19.685  25.340  1.00  0.00    -0.376 OA
BRANCH   4   5
ATOM      5  C   UNL A   1      45.525  20.757  24.511  1.00  0.00     0.202 C 
BRANCH   5   6
ATOM      6  C   UNL A   1      46.071  21.951  25.285  1.00  0.00     0.261 C 
BRANCH   6   7
ATOM      7  O   UNL A   1      45.069  22.955  25.485  1.00  0.00    -0.460 OA
BRANCH   7   8
ATOM      8  C   UNL A   1      45.044  23.858  26.496  1.00  0.00     0.338 C 
ATOM      9  O   UNL A   1      44.492  23.559  27.553  1.00  0.00    -0.246 OA
BRANCH   8  10
ATOM     10  C   UNL A   1      45.769  25.161  26.436  1.00  0.00     0.060 A 
ATOM     11  C   UNL A   1      46.002  25.912  25.279  1.00  0.00     0.016 A 
ATOM     12  C   UNL A   1      46.152  25.705  27.668  1.00  0.00     0.016 A 
ATOM     13  C   UNL A   1      46.674  27.128  25.324  1.00  0.00     0.010 A 
ATOM     14  C   UNL A   1      46.781  26.948  27.731  1.00  0.00     0.010 A 
ATOM     15  C   UNL A   1      47.067  27.648  26.550  1.00  0.00    -0.014 A 
BRANCH  15  16
ATOM     16  C   UNL A   1      47.903  28.857  26.592  1.00  0.00     0.031 A 
ATOM     17  C   UNL A   1      47.205  30.178  26.643  1.00  0.00     0.074 A 
ATOM     18  C   UNL A   1      49.243  28.765  26.613  1.00  0.00     0.049 A 
ATOM     19  N   UNL A   1      47.676  31.375  26.438  1.00  0.00    -0.248 NA
ATOM     20  C   UNL A   1      45.766  30.134  26.955  1.00  0.00     0.031 C 
ATOM     21  C   UNL A   1      50.006  27.519  26.703  1.00  0.00     0.029 A 
ATOM     22  N   UNL A   1      50.200  29.743  26.556  1.00  0.00    -0.354 N 
ATOM     23  C   UNL A   1      46.577  32.220  26.522  1.00  0.00     0.074 A 
ATOM     24  C   UNL A   1      45.422  31.403  26.815  1.00  0.00     0.031 C 
ATOM     25  C   UNL A   1      51.317  27.809  26.689  1.00  0.00     0.029 A 
ATOM     26  C   UNL A   1      51.477  29.246  26.497  1.00  0.00     0.049 A 
ATOM     27  H   UNL A   1      49.991  30.705  26.556  1.00  0.00     0.167 HD
ATOM     28  C   UNL A   1      46.546  33.559  26.335  1.00  0.00     0.031 A 
ATOM     29  C   UNL A   1      52.636  29.882  26.247  1.00  0.00     0.031 A 
ATOM     30  C   UNL A   1      47.723  34.327  26.039  1.00  0.00     0.049 A 
ATOM     31  C   UNL A   1      52.580  31.360  25.978  1.00  0.00     0.074 A 
ATOM     32  C   UNL A   1      47.838  35.679  25.779  1.00  0.00     0.029 A 
ATOM     33  N   UNL A   1      49.002  33.789  25.971  1.00  0.00    -0.354 N 
ATOM     34  N   UNL A   1      51.534  32.155  25.970  1.00  0.00    -0.248 NA
ATOM     35  C   UNL A   1      53.848  32.028  25.664  1.00  0.00     0.031 C 
ATOM     36  C   UNL A   1      49.186  35.948  25.511  1.00  0.00     0.029 A 
ATOM     37  C   UNL A   1      49.916  34.776  25.660  1.00  0.00     0.049 A 
ATOM     38  H   UNL A   1      49.225  32.841  26.124  1.00  0.00     0.167 HD
ATOM     39  C   UNL A   1      52.016  33.419  25.664  1.00  0.00     0.074 A 
ATOM     40  C   UNL A   1      53.453  33.285  25.505  1.00  0.00     0.031 C 
ATOM     41  C   UNL A   1      51.339  34.586  25.523  1.00  0.00     0.031 A 
BRANCH  28  42
ATOM     42  C   UNL A   1      45.191  34.208  26.338  1.00  0.00    -0.014 A 
ATOM     43  C   UNL A   1      44.649  34.793  27.494  1.00  0.00     0.009 A 
ATOM     44  C   UNL A   1      44.405  34.152  25.176  1.00  0.00     0.009 A 
ATOM     45  C   UNL A   1      43.328  35.250  27.502  1.00  0.00     0.001 A 
ATOM     46  C   UNL A   1      43.096  34.637  25.178  1.00  0.00     0.001 A 
ATOM     47  C   UNL A   1      42.553  35.169  26.346  1.00  0.00     0.000 A 
ENDBRANCH  28  42
BRANCH  29  48
ATOM     48  C   UNL A   1      53.902  29.105  26.164  1.00  0.00    -0.014 A 
ATOM     49  C   UNL A   1      54.680  28.869  27.306  1.00  0.00     0.009 A 
ATOM     50  C   UNL A   1      54.308  28.539  24.943  1.00  0.00     0.009 A 
ATOM     51  C   UNL A   1      55.836  28.086  27.225  1.00  0.00     0.001 A 
ATOM     52  C   UNL A   1      55.447  27.734  24.871  1.00  0.00     0.001 A 
ATOM     53  C   UNL A   1      56.213  27.511  26.012  1.00  0.00     0.000 A 
ENDBRANCH  29  48
BRANCH  41  54
ATOM     54  C   UNL A   1      52.150  35.811  25.228  1.00  0.00    -0.014 A 
ATOM     55  C   UNL A   1      52.635  36.626  26.262  1.00  0.00     0.009 A 
ATOM     56  C   UNL A   1      52.514  36.090  23.902  1.00  0.00     0.009 A 
ATOM     57  C   UNL A   1      53.464  37.709  25.967  1.00  0.00     0.001 A 
ATOM     58  C   UNL A   1      53.361  37.157  23.614  1.00  0.00     0.001 A 
ATOM     59  C   UNL A   1      53.834  37.967  24.646  1.00  0.00     0.000 A 
ENDBRANCH  41  54
ENDBRANCH  15  16
ENDBRANCH   8  10
ENDBRANCH   7   8
ENDBRANCH   6   7
ENDBRANCH   5   6
ENDBRANCH   4   5
ENDBRANCH   3   4
ENDBRANCH   2   3
ENDBRANCH   1   2
BRANCH   1  60
ATOM     60  C   UNL A   1      42.328  21.125  26.180  1.00  0.00     0.188 C 
BRANCH  60  61
ATOM     61  C   UNL A   1      41.230  22.196  26.356  1.00  0.00     0.188 C 
BRANCH  61  62
ATOM     62  O   UNL A   1      39.980  21.680  26.802  1.00  0.00    -0.376 OA
BRANCH  62  63
ATOM     63  C   UNL A   1      38.852  22.515  26.553  1.00  0.00     0.202 C 
BRANCH  63  64
ATOM     64  C   UNL A   1      37.983  22.138  25.342  1.00  0.00     0.261 C 
BRANCH  64  65
ATOM     65  O   UNL A   1      36.905  23.050  25.058  1.00  0.00    -0.459 OA
BRANCH  65  66
ATOM     66  C   UNL A   1      36.165  22.817  23.947  1.00  0.00     0.357 C 
ATOM     67  O   UNL A   1      36.469  23.040  22.803  1.00  0.00    -0.244 OA
BRANCH  66  68
ATOM     68  C   UNL A   1      34.947  22.083  24.410  1.00  0.00     0.154 A 
ATOM     69  C   UNL A   1      34.896  20.722  24.282  1.00  0.00     0.065 A 
ATOM     70  N   UNL A   1      33.913  22.844  24.830  1.00  0.00    -0.206 NA
ATOM     71  C   UNL A   1      33.728  20.135  24.713  1.00  0.00     0.077 A 
ATOM     72  C   UNL A   1      32.775  22.206  25.123  1.00  0.00     0.230 A 
ATOM     73  N   UNL A   1      32.662  20.865  25.122  1.00  0.00    -0.213 NA
BRANCH  71  74
ATOM     74  C   UNL A   1      33.636  18.668  24.829  1.00  0.00     0.000 A 
ATOM     75  C   UNL A   1      34.607  17.798  24.308  1.00  0.00     0.010 A 
ATOM     76  C   UNL A   1      32.532  18.094  25.494  1.00  0.00     0.010 A 
ATOM     77  C   UNL A   1      34.483  16.411  24.469  1.00  0.00     0.001 A 
ATOM     78  C   UNL A   1      32.408  16.716  25.654  1.00  0.00     0.001 A 
ATOM     79  C   UNL A   1      33.387  15.873  25.142  1.00  0.00     0.000 A 
ENDBRANCH  71  74
BRANCH  72  80
ATOM     80  N   UNL A   1      31.647  22.927  25.492  1.00  0.00    -0.300 N 
ATOM     81  H   UNL A   1      30.953  22.450  26.002  1.00  0.00     0.172 HD
BRANCH  80  82
ATOM     82  C   UNL A   1      31.424  24.224  25.207  1.00  0.00     0.190 A 
ATOM     83  N   UNL A   1      30.703  24.662  24.194  1.00  0.00    -0.220 NA
ATOM     84  S   UNL A   1      32.001  25.460  26.263  1.00  0.00    -0.097 S 
ATOM     85  C   UNL A   1      30.635  26.048  24.210  1.00  0.00     0.084 A 
ATOM     86  C   UNL A   1      31.346  26.671  25.234  1.00  0.00     0.056 A 
ATOM     87  C   UNL A   1      29.927  26.863  23.300  1.00  0.00     0.030 A 
ATOM     88  C   UNL A   1      31.430  28.073  25.333  1.00  0.00     0.021 A 
ATOM     89  C   UNL A   1      30.014  28.255  23.374  1.00  0.00     0.002 A 
ATOM     90  C   UNL A   1      30.771  28.852  24.374  1.00  0.00     0.002 A 
ENDBRANCH  80  82
ENDBRANCH  72  80
ENDBRANCH  66  68
ENDBRANCH  65  66
ENDBRANCH  64  65
ENDBRANCH  63  64
ENDBRANCH  62  63
ENDBRANCH  61  62
ENDBRANCH  60  61
ENDBRANCH   1  60
TORSDOF 23
ENDMDL
