MODEL 1
REMARK VINA RESULT:      -8.5      0.000      0.000
REMARK SMILES CC[C@@H]1CC[C@H]([C@@H](C)C(=O)OCCOCCOCCOCCOC(=O)c2ccc(-c3c4nc(c(-c5ccccc5)c5ccc([nH]5)c(-c5ccccc5)c5nc(c(-c6ccccc6)c6ccc3[nH]6)C=C5)C=C4)cc2)C1
REMARK SMILES IDX 17 1 16 2 15 3 14 4 13 5 12 6 11 7 9 8 10 9 7 10 8 11 6 12
REMARK SMILES IDX 3 13 4 14 74 15 5 16 2 17 1 18 18 19 19 20 20 21 21 22 22 23
REMARK SMILES IDX 23 24 24 25 25 26 26 27 27 28 73 29 28 30 72 31 29 32 30 33
REMARK SMILES IDX 31 34 66 35 32 36 71 37 65 38 67 39 33 40 70 41 64 42 63 43
REMARK SMILES IDX 34 45 56 46 41 47 55 48 42 49 45 50 54 51 68 52 43 53 44 54
REMARK SMILES IDX 53 56 69 57 46 58 35 59 36 60 40 61 37 62 39 63 38 64 57 65
REMARK SMILES IDX 58 66 62 67 59 68 61 69 60 70 47 71 48 72 52 73 49 74 51 75
REMARK SMILES IDX 50 76
REMARK H PARENT 67 44 45 55
REMARK Flexibility Score: inf
ROOT
ATOM      1  O   UNL A   1      34.039  31.869  28.514  1.00  0.00    -0.377 OA
ENDROOT
BRANCH   1   2
ATOM      2  C   UNL A   1      33.981  30.794  27.594  1.00  0.00     0.188 C 
BRANCH   2   3
ATOM      3  C   UNL A   1      32.594  30.479  27.041  1.00  0.00     0.188 C 
BRANCH   3   4
ATOM      4  O   UNL A   1      32.428  29.206  26.453  1.00  0.00    -0.376 OA
BRANCH   4   5
ATOM      5  C   UNL A   1      33.482  28.251  26.548  1.00  0.00     0.202 C 
BRANCH   5   6
ATOM      6  C   UNL A   1      33.354  26.780  26.079  1.00  0.00     0.261 C 
BRANCH   6   7
ATOM      7  O   UNL A   1      33.173  26.518  24.655  1.00  0.00    -0.463 OA
BRANCH   7   8
ATOM      8  C   UNL A   1      31.981  25.970  24.310  1.00  0.00     0.309 C 
ATOM      9  O   UNL A   1      31.889  24.847  23.807  1.00  0.00    -0.252 OA
BRANCH   8  10
ATOM     10  C   UNL A   1      30.717  26.838  24.384  1.00  0.00     0.099 C 
ATOM     11  C   UNL A   1      29.777  25.979  25.264  1.00  0.00     0.020 C 
BRANCH  10  12
ATOM     12  C   UNL A   1      29.937  27.477  23.189  1.00  0.00     0.003 C 
ATOM     13  C   UNL A   1      28.802  29.514  22.330  1.00  0.00    -0.011 C 
ATOM     14  C   UNL A   1      27.800  28.778  23.198  1.00  0.00     0.004 C 
ATOM     15  C   UNL A   1      30.142  28.981  22.875  1.00  0.00     0.008 C 
ATOM     16  C   UNL A   1      28.406  27.413  23.466  1.00  0.00     0.005 C 
BRANCH  13  17
ATOM     17  C   UNL A   1      28.575  31.034  22.463  1.00  0.00     0.000 C 
ATOM     18  C   UNL A   1      27.676  31.461  23.614  1.00  0.00     0.004 C 
ENDBRANCH  13  17
ENDBRANCH  10  12
ENDBRANCH   8  10
ENDBRANCH   7   8
ENDBRANCH   6   7
ENDBRANCH   5   6
ENDBRANCH   4   5
ENDBRANCH   3   4
ENDBRANCH   2   3
ENDBRANCH   1   2
BRANCH   1  19
ATOM     19  C   UNL A   1      34.609  33.120  28.148  1.00  0.00     0.188 C 
BRANCH  19  20
ATOM     20  C   UNL A   1      33.716  34.358  28.194  1.00  0.00     0.188 C 
BRANCH  20  21
ATOM     21  O   UNL A   1      34.359  35.635  28.244  1.00  0.00    -0.376 OA
BRANCH  21  22
ATOM     22  C   UNL A   1      33.628  36.750  28.750  1.00  0.00     0.202 C 
BRANCH  22  23
ATOM     23  C   UNL A   1      32.702  36.435  29.920  1.00  0.00     0.261 C 
BRANCH  23  24
ATOM     24  O   UNL A   1      33.394  36.412  31.169  1.00  0.00    -0.460 OA
BRANCH  24  25
ATOM     25  C   UNL A   1      33.121  35.343  31.942  1.00  0.00     0.338 C 
ATOM     26  O   UNL A   1      32.089  35.082  32.542  1.00  0.00    -0.246 OA
BRANCH  25  27
ATOM     27  C   UNL A   1      34.266  34.435  31.871  1.00  0.00     0.060 A 
ATOM     28  C   UNL A   1      34.121  33.140  32.380  1.00  0.00     0.016 A 
ATOM     29  C   UNL A   1      35.489  34.890  31.370  1.00  0.00     0.016 A 
ATOM     30  C   UNL A   1      35.228  32.308  32.448  1.00  0.00     0.010 A 
ATOM     31  C   UNL A   1      36.597  34.056  31.439  1.00  0.00     0.010 A 
ATOM     32  C   UNL A   1      36.475  32.784  32.023  1.00  0.00    -0.014 A 
BRANCH  32  33
ATOM     33  C   UNL A   1      37.692  32.033  32.376  1.00  0.00     0.031 A 
ATOM     34  C   UNL A   1      38.372  32.352  33.675  1.00  0.00     0.074 A 
ATOM     35  C   UNL A   1      38.154  31.077  31.557  1.00  0.00     0.049 A 
ATOM     36  N   UNL A   1      39.460  31.841  34.188  1.00  0.00    -0.248 NA
ATOM     37  C   UNL A   1      37.741  33.392  34.506  1.00  0.00     0.031 C 
ATOM     38  C   UNL A   1      37.531  30.666  30.300  1.00  0.00     0.029 A 
ATOM     39  N   UNL A   1      39.258  30.277  31.670  1.00  0.00    -0.354 N 
ATOM     40  C   UNL A   1      39.650  32.505  35.393  1.00  0.00     0.074 A 
ATOM     41  C   UNL A   1      38.592  33.483  35.516  1.00  0.00     0.031 C 
ATOM     42  C   UNL A   1      38.259  29.674  29.761  1.00  0.00     0.029 A 
ATOM     43  C   UNL A   1      39.416  29.417  30.614  1.00  0.00     0.049 A 
ATOM     44  H   UNL A   1      39.877  30.315  32.434  1.00  0.00     0.167 HD
ATOM     45  C   UNL A   1      40.619  32.310  36.317  1.00  0.00     0.031 A 
ATOM     46  C   UNL A   1      40.398  28.531  30.368  1.00  0.00     0.031 A 
ATOM     47  C   UNL A   1      41.679  31.349  36.164  1.00  0.00     0.049 A 
ATOM     48  C   UNL A   1      41.519  28.402  31.364  1.00  0.00     0.074 A 
ATOM     49  C   UNL A   1      42.711  31.053  37.033  1.00  0.00     0.029 A 
ATOM     50  N   UNL A   1      41.843  30.537  35.051  1.00  0.00    -0.354 N 
ATOM     51  N   UNL A   1      41.680  29.012  32.514  1.00  0.00    -0.248 NA
ATOM     52  C   UNL A   1      42.589  27.456  31.027  1.00  0.00     0.031 C 
ATOM     53  C   UNL A   1      43.540  30.112  36.415  1.00  0.00     0.029 A 
ATOM     54  C   UNL A   1      42.982  29.765  35.194  1.00  0.00     0.049 A 
ATOM     55  H   UNL A   1      41.239  30.513  34.273  1.00  0.00     0.167 HD
ATOM     56  C   UNL A   1      42.851  28.498  33.057  1.00  0.00     0.074 A 
ATOM     57  C   UNL A   1      43.348  27.517  32.112  1.00  0.00     0.031 C 
ATOM     58  C   UNL A   1      43.457  28.801  34.231  1.00  0.00     0.031 A 
BRANCH  45  59
ATOM     59  C   UNL A   1      40.594  33.193  37.537  1.00  0.00    -0.014 A 
ATOM     60  C   UNL A   1      39.707  32.958  38.600  1.00  0.00     0.009 A 
ATOM     61  C   UNL A   1      41.466  34.290  37.615  1.00  0.00     0.009 A 
ATOM     62  C   UNL A   1      39.655  33.833  39.688  1.00  0.00     0.001 A 
ATOM     63  C   UNL A   1      41.438  35.142  38.721  1.00  0.00     0.001 A 
ATOM     64  C   UNL A   1      40.523  34.921  39.749  1.00  0.00     0.000 A 
ENDBRANCH  45  59
BRANCH  46  65
ATOM     65  C   UNL A   1      40.359  27.700  29.138  1.00  0.00    -0.014 A 
ATOM     66  C   UNL A   1      39.677  26.473  29.133  1.00  0.00     0.009 A 
ATOM     67  C   UNL A   1      40.996  28.126  27.962  1.00  0.00     0.009 A 
ATOM     68  C   UNL A   1      39.653  25.682  27.983  1.00  0.00     0.001 A 
ATOM     69  C   UNL A   1      40.944  27.347  26.805  1.00  0.00     0.001 A 
ATOM     70  C   UNL A   1      40.280  26.122  26.819  1.00  0.00     0.000 A 
ENDBRANCH  46  65
BRANCH  58  71
ATOM     71  C   UNL A   1      44.704  28.032  34.575  1.00  0.00    -0.014 A 
ATOM     72  C   UNL A   1      45.979  28.508  34.233  1.00  0.00     0.009 A 
ATOM     73  C   UNL A   1      44.597  26.828  35.290  1.00  0.00     0.009 A 
ATOM     74  C   UNL A   1      47.118  27.773  34.565  1.00  0.00     0.001 A 
ATOM     75  C   UNL A   1      45.738  26.115  35.653  1.00  0.00     0.001 A 
ATOM     76  C   UNL A   1      46.997  26.582  35.281  1.00  0.00     0.000 A 
ENDBRANCH  58  71
ENDBRANCH  32  33
ENDBRANCH  25  27
ENDBRANCH  24  25
ENDBRANCH  23  24
ENDBRANCH  22  23
ENDBRANCH  21  22
ENDBRANCH  20  21
ENDBRANCH  19  20
ENDBRANCH   1  19
TORSDOF 22
ENDMDL
MODEL 2
REMARK VINA RESULT:      -8.5      0.590      6.022
REMARK SMILES CC[C@@H]1CC[C@H]([C@@H](C)C(=O)OCCOCCOCCOCCOC(=O)c2ccc(-c3c4nc(c(-c5ccccc5)c5ccc([nH]5)c(-c5ccccc5)c5nc(c(-c6ccccc6)c6ccc3[nH]6)C=C5)C=C4)cc2)C1
REMARK SMILES IDX 17 1 16 2 15 3 14 4 13 5 12 6 11 7 9 8 10 9 7 10 8 11 6 12
REMARK SMILES IDX 3 13 4 14 74 15 5 16 2 17 1 18 18 19 19 20 20 21 21 22 22 23
REMARK SMILES IDX 23 24 24 25 25 26 26 27 27 28 73 29 28 30 72 31 29 32 30 33
REMARK SMILES IDX 31 34 66 35 32 36 71 37 65 38 67 39 33 40 70 41 64 42 63 43
REMARK SMILES IDX 34 45 56 46 41 47 55 48 42 49 45 50 54 51 68 52 43 53 44 54
REMARK SMILES IDX 53 56 69 57 46 58 35 59 36 60 40 61 37 62 39 63 38 64 57 65
REMARK SMILES IDX 58 66 62 67 59 68 61 69 60 70 47 71 48 72 52 73 49 74 51 75
REMARK SMILES IDX 50 76
REMARK H PARENT 67 44 45 55
REMARK Flexibility Score: inf
ROOT
ATOM      1  O   UNL A   1      34.070  31.853  28.509  1.00  0.00    -0.377 OA
ENDROOT
BRANCH   1   2
ATOM      2  C   UNL A   1      34.021  30.804  27.558  1.00  0.00     0.188 C 
BRANCH   2   3
ATOM      3  C   UNL A   1      32.637  30.491  26.998  1.00  0.00     0.188 C 
BRANCH   3   4
ATOM      4  O   UNL A   1      32.486  29.241  26.360  1.00  0.00    -0.376 OA
BRANCH   4   5
ATOM      5  C   UNL A   1      33.563  28.308  26.392  1.00  0.00     0.202 C 
BRANCH   5   6
ATOM      6  C   UNL A   1      33.457  26.854  25.866  1.00  0.00     0.261 C 
BRANCH   6   7
ATOM      7  O   UNL A   1      33.223  26.647  24.441  1.00  0.00    -0.463 OA
BRANCH   7   8
ATOM      8  C   UNL A   1      32.040  26.065  24.123  1.00  0.00     0.309 C 
ATOM      9  O   UNL A   1      31.970  24.949  23.599  1.00  0.00    -0.252 OA
BRANCH   8  10
ATOM     10  C   UNL A   1      30.750  26.885  24.257  1.00  0.00     0.099 C 
ATOM     11  C   UNL A   1      29.884  25.992  25.177  1.00  0.00     0.020 C 
BRANCH  10  12
ATOM     12  C   UNL A   1      29.893  27.497  23.101  1.00  0.00     0.003 C 
ATOM     13  C   UNL A   1      28.643  29.489  22.301  1.00  0.00    -0.011 C 
ATOM     14  C   UNL A   1      27.710  28.714  23.210  1.00  0.00     0.004 C 
ATOM     15  C   UNL A   1      30.026  29.008  22.783  1.00  0.00     0.008 C 
ATOM     16  C   UNL A   1      28.380  27.373  23.446  1.00  0.00     0.005 C 
BRANCH  13  17
ATOM     17  C   UNL A   1      28.364  30.999  22.449  1.00  0.00     0.000 C 
ATOM     18  C   UNL A   1      27.491  31.388  23.633  1.00  0.00     0.004 C 
ENDBRANCH  13  17
ENDBRANCH  10  12
ENDBRANCH   8  10
ENDBRANCH   7   8
ENDBRANCH   6   7
ENDBRANCH   5   6
ENDBRANCH   4   5
ENDBRANCH   3   4
ENDBRANCH   2   3
ENDBRANCH   1   2
BRANCH   1  19
ATOM     19  C   UNL A   1      34.631  33.118  28.180  1.00  0.00     0.188 C 
BRANCH  19  20
ATOM     20  C   UNL A   1      33.722  34.344  28.230  1.00  0.00     0.188 C 
BRANCH  20  21
ATOM     21  O   UNL A   1      34.347  35.629  28.294  1.00  0.00    -0.376 OA
BRANCH  21  22
ATOM     22  C   UNL A   1      33.593  36.733  28.790  1.00  0.00     0.202 C 
BRANCH  22  23
ATOM     23  C   UNL A   1      32.673  36.408  29.963  1.00  0.00     0.261 C 
BRANCH  23  24
ATOM     24  O   UNL A   1      33.347  36.483  31.219  1.00  0.00    -0.460 OA
BRANCH  24  25
ATOM     25  C   UNL A   1      33.048  35.488  32.077  1.00  0.00     0.338 C 
ATOM     26  O   UNL A   1      31.989  35.268  32.645  1.00  0.00    -0.246 OA
BRANCH  25  27
ATOM     27  C   UNL A   1      34.207  34.599  32.153  1.00  0.00     0.060 A 
ATOM     28  C   UNL A   1      34.116  33.454  32.952  1.00  0.00     0.016 A 
ATOM     29  C   UNL A   1      35.392  34.937  31.494  1.00  0.00     0.016 A 
ATOM     30  C   UNL A   1      35.243  32.670  33.148  1.00  0.00     0.010 A 
ATOM     31  C   UNL A   1      36.520  34.151  31.692  1.00  0.00     0.010 A 
ATOM     32  C   UNL A   1      36.455  33.047  32.558  1.00  0.00    -0.014 A 
BRANCH  32  33
ATOM     33  C   UNL A   1      37.705  32.408  33.006  1.00  0.00     0.031 A 
ATOM     34  C   UNL A   1      38.319  31.356  32.130  1.00  0.00     0.074 A 
ATOM     35  C   UNL A   1      38.278  32.785  34.159  1.00  0.00     0.049 A 
ATOM     36  N   UNL A   1      39.397  30.644  32.322  1.00  0.00    -0.248 NA
ATOM     37  C   UNL A   1      37.616  31.062  30.869  1.00  0.00     0.031 C 
ATOM     38  C   UNL A   1      37.780  33.833  35.048  1.00  0.00     0.029 A 
ATOM     39  N   UNL A   1      39.411  32.325  34.772  1.00  0.00    -0.354 N 
ATOM     40  C   UNL A   1      39.496  29.812  31.215  1.00  0.00     0.074 A 
ATOM     41  C   UNL A   1      38.348  30.076  30.377  1.00  0.00     0.031 C 
ATOM     42  C   UNL A   1      38.616  33.947  36.093  1.00  0.00     0.029 A 
ATOM     43  C   UNL A   1      39.677  32.952  35.962  1.00  0.00     0.049 A 
ATOM     44  H   UNL A   1      39.979  31.615  34.396  1.00  0.00     0.167 HD
ATOM     45  C   UNL A   1      40.463  28.913  30.921  1.00  0.00     0.031 A 
ATOM     46  C   UNL A   1      40.665  32.729  36.847  1.00  0.00     0.031 A 
ATOM     47  C   UNL A   1      41.585  28.646  31.782  1.00  0.00     0.049 A 
ATOM     48  C   UNL A   1      41.675  31.654  36.546  1.00  0.00     0.074 A 
ATOM     49  C   UNL A   1      42.633  27.767  31.590  1.00  0.00     0.029 A 
ATOM     50  N   UNL A   1      41.789  29.256  33.011  1.00  0.00    -0.354 N 
ATOM     51  N   UNL A   1      41.780  30.890  35.485  1.00  0.00    -0.248 NA
ATOM     52  C   UNL A   1      42.705  31.419  37.564  1.00  0.00     0.031 C 
ATOM     53  C   UNL A   1      43.435  27.793  32.736  1.00  0.00     0.029 A 
ATOM     54  C   UNL A   1      42.928  28.745  33.608  1.00  0.00     0.049 A 
ATOM     55  H   UNL A   1      41.210  29.949  33.403  1.00  0.00     0.167 HD
ATOM     56  C   UNL A   1      42.908  30.106  35.690  1.00  0.00     0.074 A 
ATOM     57  C   UNL A   1      43.457  30.502  36.972  1.00  0.00     0.031 C 
ATOM     58  C   UNL A   1      43.447  29.153  34.891  1.00  0.00     0.031 A 
BRANCH  45  59
ATOM     59  C   UNL A   1      40.308  28.126  29.646  1.00  0.00    -0.014 A 
ATOM     60  C   UNL A   1      39.688  26.866  29.628  1.00  0.00     0.009 A 
ATOM     61  C   UNL A   1      40.808  28.650  28.444  1.00  0.00     0.009 A 
ATOM     62  C   UNL A   1      39.620  26.126  28.445  1.00  0.00     0.001 A 
ATOM     63  C   UNL A   1      40.706  27.924  27.255  1.00  0.00     0.001 A 
ATOM     64  C   UNL A   1      40.125  26.657  27.260  1.00  0.00     0.000 A 
ENDBRANCH  45  59
BRANCH  46  65
ATOM     65  C   UNL A   1      40.749  33.540  38.088  1.00  0.00    -0.014 A 
ATOM     66  C   UNL A   1      41.477  34.740  38.103  1.00  0.00     0.009 A 
ATOM     67  C   UNL A   1      40.101  33.127  39.262  1.00  0.00     0.009 A 
ATOM     68  C   UNL A   1      41.571  35.496  39.272  1.00  0.00     0.001 A 
ATOM     69  C   UNL A   1      40.171  33.901  40.422  1.00  0.00     0.001 A 
ATOM     70  C   UNL A   1      40.914  35.080  40.429  1.00  0.00     0.000 A 
ENDBRANCH  46  65
BRANCH  58  71
ATOM     71  C   UNL A   1      44.719  28.503  35.365  1.00  0.00    -0.014 A 
ATOM     72  C   UNL A   1      44.702  27.321  36.122  1.00  0.00     0.009 A 
ATOM     73  C   UNL A   1      45.955  29.066  35.011  1.00  0.00     0.009 A 
ATOM     74  C   UNL A   1      45.898  26.740  36.548  1.00  0.00     0.001 A 
ATOM     75  C   UNL A   1      47.148  28.463  35.406  1.00  0.00     0.001 A 
ATOM     76  C   UNL A   1      47.119  27.307  36.184  1.00  0.00     0.000 A 
ENDBRANCH  58  71
ENDBRANCH  32  33
ENDBRANCH  25  27
ENDBRANCH  24  25
ENDBRANCH  23  24
ENDBRANCH  22  23
ENDBRANCH  21  22
ENDBRANCH  20  21
ENDBRANCH  19  20
ENDBRANCH   1  19
TORSDOF 22
ENDMDL
MODEL 3
REMARK VINA RESULT:      -8.3      3.307      6.091
REMARK SMILES CC[C@@H]1CC[C@H]([C@@H](C)C(=O)OCCOCCOCCOCCOC(=O)c2ccc(-c3c4nc(c(-c5ccccc5)c5ccc([nH]5)c(-c5ccccc5)c5nc(c(-c6ccccc6)c6ccc3[nH]6)C=C5)C=C4)cc2)C1
REMARK SMILES IDX 17 1 16 2 15 3 14 4 13 5 12 6 11 7 9 8 10 9 7 10 8 11 6 12
REMARK SMILES IDX 3 13 4 14 74 15 5 16 2 17 1 18 18 19 19 20 20 21 21 22 22 23
REMARK SMILES IDX 23 24 24 25 25 26 26 27 27 28 73 29 28 30 72 31 29 32 30 33
REMARK SMILES IDX 31 34 66 35 32 36 71 37 65 38 67 39 33 40 70 41 64 42 63 43
REMARK SMILES IDX 34 45 56 46 41 47 55 48 42 49 45 50 54 51 68 52 43 53 44 54
REMARK SMILES IDX 53 56 69 57 46 58 35 59 36 60 40 61 37 62 39 63 38 64 57 65
REMARK SMILES IDX 58 66 62 67 59 68 61 69 60 70 47 71 48 72 52 73 49 74 51 75
REMARK SMILES IDX 50 76
REMARK H PARENT 67 44 45 55
REMARK Flexibility Score: inf
ROOT
ATOM      1  O   UNL A   1      32.233  27.294  23.002  1.00  0.00    -0.377 OA
ENDROOT
BRANCH   1   2
ATOM      2  C   UNL A   1      31.710  26.064  22.535  1.00  0.00     0.188 C 
BRANCH   2   3
ATOM      3  C   UNL A   1      30.998  25.215  23.584  1.00  0.00     0.188 C 
BRANCH   3   4
ATOM      4  O   UNL A   1      30.109  25.896  24.445  1.00  0.00    -0.376 OA
BRANCH   4   5
ATOM      5  C   UNL A   1      29.901  25.402  25.765  1.00  0.00     0.202 C 
BRANCH   5   6
ATOM      6  C   UNL A   1      30.552  24.105  26.309  1.00  0.00     0.261 C 
BRANCH   6   7
ATOM      7  O   UNL A   1      31.667  24.227  27.243  1.00  0.00    -0.463 OA
BRANCH   7   8
ATOM      8  C   UNL A   1      32.480  23.144  27.324  1.00  0.00     0.309 C 
ATOM      9  O   UNL A   1      32.474  22.381  28.295  1.00  0.00    -0.252 OA
BRANCH   8  10
ATOM     10  C   UNL A   1      33.567  22.952  26.257  1.00  0.00     0.099 C 
ATOM     11  C   UNL A   1      33.904  24.410  25.862  1.00  0.00     0.020 C 
BRANCH  10  12
ATOM     12  C   UNL A   1      33.502  22.030  24.996  1.00  0.00     0.003 C 
ATOM     13  C   UNL A   1      33.058  19.738  24.146  1.00  0.00    -0.011 C 
ATOM     14  C   UNL A   1      34.496  19.763  24.628  1.00  0.00     0.004 C 
ATOM     15  C   UNL A   1      32.438  20.904  24.941  1.00  0.00     0.008 C 
ATOM     16  C   UNL A   1      34.828  21.225  24.864  1.00  0.00     0.005 C 
BRANCH  13  17
ATOM     17  C   UNL A   1      32.455  18.343  24.411  1.00  0.00     0.000 C 
ATOM     18  C   UNL A   1      33.187  17.180  23.758  1.00  0.00     0.004 C 
ENDBRANCH  13  17
ENDBRANCH  10  12
ENDBRANCH   8  10
ENDBRANCH   7   8
ENDBRANCH   6   7
ENDBRANCH   5   6
ENDBRANCH   4   5
ENDBRANCH   3   4
ENDBRANCH   2   3
ENDBRANCH   1   2
BRANCH   1  19
ATOM     19  C   UNL A   1      31.655  28.534  22.611  1.00  0.00     0.188 C 
BRANCH  19  20
ATOM     20  C   UNL A   1      30.791  29.278  23.627  1.00  0.00     0.188 C 
BRANCH  20  21
ATOM     21  O   UNL A   1      31.123  29.132  25.011  1.00  0.00    -0.376 OA
BRANCH  21  22
ATOM     22  C   UNL A   1      32.365  29.657  25.475  1.00  0.00     0.202 C 
BRANCH  22  23
ATOM     23  C   UNL A   1      33.017  28.866  26.604  1.00  0.00     0.261 C 
BRANCH  23  24
ATOM     24  O   UNL A   1      34.396  29.192  26.771  1.00  0.00    -0.460 OA
BRANCH  24  25
ATOM     25  C   UNL A   1      34.630  30.257  27.562  1.00  0.00     0.338 C 
ATOM     26  O   UNL A   1      33.874  31.177  27.841  1.00  0.00    -0.246 OA
BRANCH  25  27
ATOM     27  C   UNL A   1      35.956  30.092  28.157  1.00  0.00     0.060 A 
ATOM     28  C   UNL A   1      37.078  30.278  27.343  1.00  0.00     0.016 A 
ATOM     29  C   UNL A   1      36.079  29.687  29.489  1.00  0.00     0.016 A 
ATOM     30  C   UNL A   1      38.339  29.995  27.847  1.00  0.00     0.010 A 
ATOM     31  C   UNL A   1      37.342  29.403  29.993  1.00  0.00     0.010 A 
ATOM     32  C   UNL A   1      38.464  29.510  29.155  1.00  0.00    -0.014 A 
BRANCH  32  33
ATOM     33  C   UNL A   1      39.743  28.920  29.585  1.00  0.00     0.031 A 
ATOM     34  C   UNL A   1      40.571  29.671  30.586  1.00  0.00     0.074 A 
ATOM     35  C   UNL A   1      40.133  27.731  29.102  1.00  0.00     0.049 A 
ATOM     36  N   UNL A   1      41.734  29.365  31.097  1.00  0.00    -0.248 NA
ATOM     37  C   UNL A   1      40.014  30.945  31.073  1.00  0.00     0.031 C 
ATOM     38  C   UNL A   1      39.370  26.908  28.165  1.00  0.00     0.029 A 
ATOM     39  N   UNL A   1      41.271  27.012  29.342  1.00  0.00    -0.354 N 
ATOM     40  C   UNL A   1      42.052  30.410  31.953  1.00  0.00     0.074 A 
ATOM     41  C   UNL A   1      40.983  31.379  31.863  1.00  0.00     0.031 C 
ATOM     42  C   UNL A   1      40.060  25.782  27.919  1.00  0.00     0.029 A 
ATOM     43  C   UNL A   1      41.325  25.832  28.647  1.00  0.00     0.049 A 
ATOM     44  H   UNL A   1      41.981  27.312  29.954  1.00  0.00     0.167 HD
ATOM     45  C   UNL A   1      43.137  30.546  32.750  1.00  0.00     0.031 A 
ATOM     46  C   UNL A   1      42.301  24.906  28.600  1.00  0.00     0.031 A 
ATOM     47  C   UNL A   1      44.204  29.582  32.806  1.00  0.00     0.049 A 
ATOM     48  C   UNL A   1      43.543  25.127  29.419  1.00  0.00     0.074 A 
ATOM     49  C   UNL A   1      45.349  29.603  33.579  1.00  0.00     0.029 A 
ATOM     50  N   UNL A   1      44.255  28.426  32.039  1.00  0.00    -0.354 N 
ATOM     51  N   UNL A   1      43.827  26.103  30.249  1.00  0.00    -0.248 NA
ATOM     52  C   UNL A   1      44.597  24.112  29.299  1.00  0.00     0.031 C 
ATOM     53  C   UNL A   1      46.128  28.495  33.228  1.00  0.00     0.029 A 
ATOM     54  C   UNL A   1      45.432  27.743  32.293  1.00  0.00     0.049 A 
ATOM     55  H   UNL A   1      43.559  28.134  31.408  1.00  0.00     0.167 HD
ATOM     56  C   UNL A   1      45.076  25.803  30.778  1.00  0.00     0.074 A 
ATOM     57  C   UNL A   1      45.486  24.546  30.181  1.00  0.00     0.031 C 
ATOM     58  C   UNL A   1      45.816  26.496  31.678  1.00  0.00     0.031 A 
BRANCH  45  59
ATOM     59  C   UNL A   1      43.235  31.803  33.572  1.00  0.00    -0.014 A 
ATOM     60  C   UNL A   1      42.692  31.884  34.865  1.00  0.00     0.009 A 
ATOM     61  C   UNL A   1      43.870  32.934  33.035  1.00  0.00     0.009 A 
ATOM     62  C   UNL A   1      42.734  33.084  35.579  1.00  0.00     0.001 A 
ATOM     63  C   UNL A   1      43.944  34.122  33.765  1.00  0.00     0.001 A 
ATOM     64  C   UNL A   1      43.364  34.200  35.030  1.00  0.00     0.000 A 
ENDBRANCH  45  59
BRANCH  46  65
ATOM     65  C   UNL A   1      42.136  23.694  27.759  1.00  0.00    -0.014 A 
ATOM     66  C   UNL A   1      42.615  23.674  26.440  1.00  0.00     0.009 A 
ATOM     67  C   UNL A   1      41.505  22.548  28.268  1.00  0.00     0.009 A 
ATOM     68  C   UNL A   1      42.446  22.541  25.643  1.00  0.00     0.001 A 
ATOM     69  C   UNL A   1      41.364  21.405  27.478  1.00  0.00     0.001 A 
ATOM     70  C   UNL A   1      41.827  21.406  26.163  1.00  0.00     0.000 A 
ENDBRANCH  46  65
BRANCH  58  71
ATOM     71  C   UNL A   1      47.124  25.886  32.102  1.00  0.00    -0.014 A 
ATOM     72  C   UNL A   1      48.307  26.106  31.379  1.00  0.00     0.009 A 
ATOM     73  C   UNL A   1      47.177  25.109  33.271  1.00  0.00     0.009 A 
ATOM     74  C   UNL A   1      49.506  25.527  31.797  1.00  0.00     0.001 A 
ATOM     75  C   UNL A   1      48.383  24.563  33.706  1.00  0.00     0.001 A 
ATOM     76  C   UNL A   1      49.544  24.763  32.962  1.00  0.00     0.000 A 
ENDBRANCH  58  71
ENDBRANCH  32  33
ENDBRANCH  25  27
ENDBRANCH  24  25
ENDBRANCH  23  24
ENDBRANCH  22  23
ENDBRANCH  21  22
ENDBRANCH  20  21
ENDBRANCH  19  20
ENDBRANCH   1  19
TORSDOF 22
ENDMDL
