MODEL 1
REMARK VINA RESULT:     -10.1      0.000      0.000
REMARK SMILES O=C(NCc1ccc(C(=O)OCCOCCOCCOCCOC(=O)c2ccc(-c3c4nc(c(-c5ccccc5)c5ccc([nH]5)c(-c5ccccc5)c5nc(c(-c6ccccc6)c6ccc3[nH]6)C=C5)C=C4)cc2)o1)Nc1ccc(F)c(Cl)c1
REMARK SMILES IDX 16 1 15 2 14 3 13 4 12 5 11 6 9 7 10 8 8 9 5 10 6 11 74 12
REMARK SMILES IDX 7 13 4 14 3 15 1 16 2 17 75 18 76 21 77 22 83 23 78 24 81 25
REMARK SMILES IDX 79 26 82 27 80 28 17 29 18 30 19 31 20 32 21 33 22 34 23 35
REMARK SMILES IDX 24 36 25 37 26 38 27 39 73 40 28 41 72 42 29 43 30 44 31 45
REMARK SMILES IDX 66 46 32 47 71 48 65 49 67 50 33 51 70 52 64 53 63 54 34 56
REMARK SMILES IDX 56 57 41 58 55 59 42 60 45 61 54 62 68 63 43 64 44 65 53 67
REMARK SMILES IDX 69 68 46 69 35 70 36 71 40 72 37 73 39 74 38 75 57 76 58 77
REMARK SMILES IDX 62 78 59 79 61 80 60 81 47 82 48 83 52 84 49 85 51 86 50 87
REMARK H PARENT 3 19 75 20 67 55 45 66
REMARK Flexibility Score: inf
ROOT
ATOM      1  C   UNL A   1      40.756  21.819  26.290  1.00  0.00     0.188 C 
ENDROOT
BRANCH   1   2
ATOM      2  C   UNL A   1      39.634  22.750  26.771  1.00  0.00     0.188 C 
BRANCH   2   3
ATOM      3  O   UNL A   1      38.379  22.514  26.134  1.00  0.00    -0.376 OA
BRANCH   3   4
ATOM      4  C   UNL A   1      37.553  23.662  25.972  1.00  0.00     0.202 C 
BRANCH   4   5
ATOM      5  C   UNL A   1      36.057  23.320  26.010  1.00  0.00     0.261 C 
BRANCH   5   6
ATOM      6  O   UNL A   1      35.768  21.924  25.847  1.00  0.00    -0.457 OA
BRANCH   6   7
ATOM      7  C   UNL A   1      34.642  21.464  26.455  1.00  0.00     0.374 C 
ATOM      8  O   UNL A   1      34.392  21.604  27.646  1.00  0.00    -0.242 OA
BRANCH   7   9
ATOM      9  C   UNL A   1      33.757  20.929  25.451  1.00  0.00     0.211 A 
ATOM     10  C   UNL A   1      32.510  21.080  23.633  1.00  0.00     0.124 A 
ATOM     11  C   UNL A   1      32.600  19.737  23.933  1.00  0.00     0.048 A 
ATOM     12  O   UNL A   1      33.187  21.806  24.569  1.00  0.00    -0.452 OA
ATOM     13  C   UNL A   1      33.413  19.639  25.090  1.00  0.00     0.058 A 
BRANCH  10  14
ATOM     14  C   UNL A   1      31.883  21.847  22.522  1.00  0.00     0.193 C 
BRANCH  14  15
ATOM     15  N   UNL A   1      32.790  22.893  22.105  1.00  0.00    -0.331 N 
ATOM     16  O   UNL A   1      33.497  24.964  21.755  1.00  0.00    -0.248 OA
ATOM     17  C   UNL A   1      32.814  24.207  22.438  1.00  0.00     0.319 C 
ATOM     18  N   UNL A   1      32.085  24.571  23.537  1.00  0.00    -0.308 N 
ATOM     19  H   UNL A   1      33.498  22.607  21.484  1.00  0.00     0.165 HD
ATOM     20  H   UNL A   1      31.752  23.847  24.116  1.00  0.00     0.171 HD
BRANCH  18  21
ATOM     21  C   UNL A   1      31.767  25.893  23.913  1.00  0.00     0.044 A 
ATOM     22  C   UNL A   1      31.393  26.790  22.905  1.00  0.00     0.029 A 
ATOM     23  C   UNL A   1      31.838  26.342  25.239  1.00  0.00     0.049 A 
ATOM     24  C   UNL A   1      31.053  28.108  23.222  1.00  0.00     0.043 A 
ATOM     25  C   UNL A   1      31.513  27.665  25.552  1.00  0.00     0.078 A 
ATOM     26  C   UNL A   1      31.113  28.537  24.543  1.00  0.00     0.141 A 
ATOM     27  Cl  UNL A   1      31.624  28.203  27.184  1.00  0.00    -0.081 Cl
ATOM     28  F   UNL A   1      30.784  29.807  24.824  1.00  0.00    -0.205 F 
ENDBRANCH  18  21
ENDBRANCH  14  15
ENDBRANCH  10  14
ENDBRANCH   7   9
ENDBRANCH   6   7
ENDBRANCH   5   6
ENDBRANCH   4   5
ENDBRANCH   3   4
ENDBRANCH   2   3
ENDBRANCH   1   2
BRANCH   1  29
ATOM     29  O   UNL A   1      41.088  20.729  27.129  1.00  0.00    -0.377 OA
BRANCH  29  30
ATOM     30  C   UNL A   1      41.224  19.429  26.559  1.00  0.00     0.188 C 
BRANCH  30  31
ATOM     31  C   UNL A   1      42.577  18.894  26.049  1.00  0.00     0.188 C 
BRANCH  31  32
ATOM     32  O   UNL A   1      43.149  19.653  24.987  1.00  0.00    -0.376 OA
BRANCH  32  33
ATOM     33  C   UNL A   1      44.326  20.385  25.309  1.00  0.00     0.202 C 
BRANCH  33  34
ATOM     34  C   UNL A   1      44.241  21.847  24.860  1.00  0.00     0.261 C 
BRANCH  34  35
ATOM     35  O   UNL A   1      44.507  22.796  25.903  1.00  0.00    -0.460 OA
BRANCH  35  36
ATOM     36  C   UNL A   1      44.768  24.064  25.515  1.00  0.00     0.338 C 
ATOM     37  O   UNL A   1      45.396  24.428  24.540  1.00  0.00    -0.246 OA
BRANCH  36  38
ATOM     38  C   UNL A   1      44.017  24.966  26.405  1.00  0.00     0.060 A 
ATOM     39  C   UNL A   1      44.209  26.347  26.285  1.00  0.00     0.016 A 
ATOM     40  C   UNL A   1      43.131  24.443  27.349  1.00  0.00     0.016 A 
ATOM     41  C   UNL A   1      43.528  27.214  27.139  1.00  0.00     0.010 A 
ATOM     42  C   UNL A   1      42.464  25.311  28.212  1.00  0.00     0.010 A 
ATOM     43  C   UNL A   1      42.680  26.696  28.127  1.00  0.00    -0.014 A 
BRANCH  43  44
ATOM     44  C   UNL A   1      42.144  27.572  29.192  1.00  0.00     0.031 A 
ATOM     45  C   UNL A   1      42.867  27.624  30.507  1.00  0.00     0.074 A 
ATOM     46  C   UNL A   1      41.017  28.278  29.006  1.00  0.00     0.049 A 
ATOM     47  N   UNL A   1      42.541  28.252  31.606  1.00  0.00    -0.248 NA
ATOM     48  C   UNL A   1      44.123  26.861  30.593  1.00  0.00     0.031 C 
ATOM     49  C   UNL A   1      40.244  28.338  27.767  1.00  0.00     0.029 A 
ATOM     50  N   UNL A   1      40.319  29.074  29.879  1.00  0.00    -0.354 N 
ATOM     51  C   UNL A   1      43.551  27.963  32.514  1.00  0.00     0.074 A 
ATOM     52  C   UNL A   1      44.487  27.085  31.847  1.00  0.00     0.031 C 
ATOM     53  C   UNL A   1      39.168  29.119  27.964  1.00  0.00     0.029 A 
ATOM     54  C   UNL A   1      39.162  29.587  29.349  1.00  0.00     0.049 A 
ATOM     55  H   UNL A   1      40.620  29.259  30.799  1.00  0.00     0.167 HD
ATOM     56  C   UNL A   1      43.690  28.391  33.789  1.00  0.00     0.031 A 
ATOM     57  C   UNL A   1      38.199  30.328  29.927  1.00  0.00     0.031 A 
ATOM     58  C   UNL A   1      42.746  29.235  34.467  1.00  0.00     0.049 A 
ATOM     59  C   UNL A   1      38.326  30.709  31.378  1.00  0.00     0.074 A 
ATOM     60  C   UNL A   1      42.802  29.727  35.760  1.00  0.00     0.029 A 
ATOM     61  N   UNL A   1      41.566  29.699  33.910  1.00  0.00    -0.354 N 
ATOM     62  N   UNL A   1      39.298  30.453  32.218  1.00  0.00    -0.248 NA
ATOM     63  C   UNL A   1      37.214  31.480  31.959  1.00  0.00     0.031 C 
ATOM     64  C   UNL A   1      41.628  30.453  35.998  1.00  0.00     0.029 A 
ATOM     65  C   UNL A   1      40.868  30.448  34.840  1.00  0.00     0.049 A 
ATOM     66  H   UNL A   1      41.268  29.520  32.988  1.00  0.00     0.167 HD
ATOM     67  C   UNL A   1      38.928  31.050  33.418  1.00  0.00     0.074 A 
ATOM     68  C   UNL A   1      37.647  31.686  33.195  1.00  0.00     0.031 C 
ATOM     69  C   UNL A   1      39.594  31.072  34.599  1.00  0.00     0.031 A 
BRANCH  56  70
ATOM     70  C   UNL A   1      44.899  27.917  34.539  1.00  0.00    -0.014 A 
ATOM     71  C   UNL A   1      46.103  28.637  34.498  1.00  0.00     0.009 A 
ATOM     72  C   UNL A   1      44.832  26.739  35.298  1.00  0.00     0.009 A 
ATOM     73  C   UNL A   1      47.228  28.169  35.180  1.00  0.00     0.001 A 
ATOM     74  C   UNL A   1      45.952  26.284  35.996  1.00  0.00     0.001 A 
ATOM     75  C   UNL A   1      47.151  26.995  35.929  1.00  0.00     0.000 A 
ENDBRANCH  56  70
BRANCH  57  76
ATOM     76  C   UNL A   1      37.009  30.747  29.143  1.00  0.00    -0.014 A 
ATOM     77  C   UNL A   1      36.024  29.814  28.792  1.00  0.00     0.009 A 
ATOM     78  C   UNL A   1      36.867  32.078  28.722  1.00  0.00     0.009 A 
ATOM     79  C   UNL A   1      34.929  30.200  28.015  1.00  0.00     0.001 A 
ATOM     80  C   UNL A   1      35.760  32.466  27.965  1.00  0.00     0.001 A 
ATOM     81  C   UNL A   1      34.796  31.526  27.606  1.00  0.00     0.000 A 
ENDBRANCH  57  76
BRANCH  69  82
ATOM     82  C   UNL A   1      38.963  31.830  35.732  1.00  0.00    -0.014 A 
ATOM     83  C   UNL A   1      38.104  31.195  36.640  1.00  0.00     0.009 A 
ATOM     84  C   UNL A   1      39.277  33.185  35.920  1.00  0.00     0.009 A 
ATOM     85  C   UNL A   1      37.553  31.910  37.705  1.00  0.00     0.001 A 
ATOM     86  C   UNL A   1      38.743  33.890  36.998  1.00  0.00     0.001 A 
ATOM     87  C   UNL A   1      37.876  33.255  37.886  1.00  0.00     0.000 A 
ENDBRANCH  69  82
ENDBRANCH  43  44
ENDBRANCH  36  38
ENDBRANCH  35  36
ENDBRANCH  34  35
ENDBRANCH  33  34
ENDBRANCH  32  33
ENDBRANCH  31  32
ENDBRANCH  30  31
ENDBRANCH  29  30
ENDBRANCH   1  29
TORSDOF 23
ENDMDL
MODEL 2
REMARK VINA RESULT:      -9.4      2.214      6.497
REMARK SMILES O=C(NCc1ccc(C(=O)OCCOCCOCCOCCOC(=O)c2ccc(-c3c4nc(c(-c5ccccc5)c5ccc([nH]5)c(-c5ccccc5)c5nc(c(-c6ccccc6)c6ccc3[nH]6)C=C5)C=C4)cc2)o1)Nc1ccc(F)c(Cl)c1
REMARK SMILES IDX 16 1 15 2 14 3 13 4 12 5 11 6 9 7 10 8 8 9 5 10 6 11 74 12
REMARK SMILES IDX 7 13 4 14 3 15 1 16 2 17 75 18 76 21 77 22 83 23 78 24 81 25
REMARK SMILES IDX 79 26 82 27 80 28 17 29 18 30 19 31 20 32 21 33 22 34 23 35
REMARK SMILES IDX 24 36 25 37 26 38 27 39 73 40 28 41 72 42 29 43 30 44 31 45
REMARK SMILES IDX 66 46 32 47 71 48 65 49 67 50 33 51 70 52 64 53 63 54 34 56
REMARK SMILES IDX 56 57 41 58 55 59 42 60 45 61 54 62 68 63 43 64 44 65 53 67
REMARK SMILES IDX 69 68 46 69 35 70 36 71 40 72 37 73 39 74 38 75 57 76 58 77
REMARK SMILES IDX 62 78 59 79 61 80 60 81 47 82 48 83 52 84 49 85 51 86 50 87
REMARK H PARENT 3 19 75 20 67 55 45 66
REMARK Flexibility Score: inf
ROOT
ATOM      1  C   UNL A   1      42.211  19.027  26.279  1.00  0.00     0.188 C 
ENDROOT
BRANCH   1   2
ATOM      2  C   UNL A   1      40.950  19.897  26.382  1.00  0.00     0.188 C 
BRANCH   2   3
ATOM      3  O   UNL A   1      41.151  21.119  27.091  1.00  0.00    -0.376 OA
BRANCH   3   4
ATOM      4  C   UNL A   1      40.051  22.022  27.071  1.00  0.00     0.202 C 
BRANCH   4   5
ATOM      5  C   UNL A   1      39.037  21.690  25.967  1.00  0.00     0.261 C 
BRANCH   5   6
ATOM      6  O   UNL A   1      38.102  22.743  25.691  1.00  0.00    -0.457 OA
BRANCH   6   7
ATOM      7  C   UNL A   1      36.983  22.393  25.001  1.00  0.00     0.374 C 
ATOM      8  O   UNL A   1      36.894  21.402  24.284  1.00  0.00    -0.242 OA
BRANCH   7   9
ATOM      9  C   UNL A   1      35.912  23.285  25.366  1.00  0.00     0.211 A 
ATOM     10  C   UNL A   1      34.402  24.840  24.938  1.00  0.00     0.124 A 
ATOM     11  C   UNL A   1      34.125  24.367  26.203  1.00  0.00     0.048 A 
ATOM     12  O   UNL A   1      35.503  24.204  24.441  1.00  0.00    -0.452 OA
ATOM     13  C   UNL A   1      35.084  23.359  26.472  1.00  0.00     0.058 A 
BRANCH  10  14
ATOM     14  C   UNL A   1      33.744  25.828  24.041  1.00  0.00     0.193 C 
BRANCH  14  15
ATOM     15  N   UNL A   1      33.614  25.251  22.721  1.00  0.00    -0.331 N 
ATOM     16  O   UNL A   1      33.522  23.650  21.192  1.00  0.00    -0.248 OA
ATOM     17  C   UNL A   1      33.306  23.983  22.353  1.00  0.00     0.319 C 
ATOM     18  N   UNL A   1      32.749  23.187  23.317  1.00  0.00    -0.308 N 
ATOM     19  H   UNL A   1      33.773  25.875  21.977  1.00  0.00     0.165 HD
ATOM     20  H   UNL A   1      32.437  23.629  24.140  1.00  0.00     0.171 HD
BRANCH  18  21
ATOM     21  C   UNL A   1      32.583  21.788  23.234  1.00  0.00     0.044 A 
ATOM     22  C   UNL A   1      32.099  21.256  22.032  1.00  0.00     0.029 A 
ATOM     23  C   UNL A   1      32.855  20.927  24.305  1.00  0.00     0.049 A 
ATOM     24  C   UNL A   1      31.930  19.876  21.888  1.00  0.00     0.043 A 
ATOM     25  C   UNL A   1      32.670  19.549  24.164  1.00  0.00     0.078 A 
ATOM     26  C   UNL A   1      32.218  19.030  22.954  1.00  0.00     0.141 A 
ATOM     27  Cl  UNL A   1      32.992  18.509  25.498  1.00  0.00    -0.081 Cl
ATOM     28  F   UNL A   1      32.047  17.710  22.794  1.00  0.00    -0.205 F 
ENDBRANCH  18  21
ENDBRANCH  14  15
ENDBRANCH  10  14
ENDBRANCH   7   9
ENDBRANCH   6   7
ENDBRANCH   5   6
ENDBRANCH   4   5
ENDBRANCH   3   4
ENDBRANCH   2   3
ENDBRANCH   1   2
BRANCH   1  29
ATOM     29  O   UNL A   1      42.840  18.957  25.012  1.00  0.00    -0.377 OA
BRANCH  29  30
ATOM     30  C   UNL A   1      44.260  19.048  24.935  1.00  0.00     0.188 C 
BRANCH  30  31
ATOM     31  C   UNL A   1      44.987  20.394  24.739  1.00  0.00     0.188 C 
BRANCH  31  32
ATOM     32  O   UNL A   1      44.436  21.218  23.716  1.00  0.00    -0.376 OA
BRANCH  32  33
ATOM     33  C   UNL A   1      44.552  22.622  23.917  1.00  0.00     0.202 C 
BRANCH  33  34
ATOM     34  C   UNL A   1      43.395  23.187  24.745  1.00  0.00     0.261 C 
BRANCH  34  35
ATOM     35  O   UNL A   1      43.358  24.622  24.796  1.00  0.00    -0.460 OA
BRANCH  35  36
ATOM     36  C   UNL A   1      44.445  25.236  25.312  1.00  0.00     0.338 C 
ATOM     37  O   UNL A   1      45.530  25.395  24.784  1.00  0.00    -0.246 OA
BRANCH  36  38
ATOM     38  C   UNL A   1      44.050  25.840  26.596  1.00  0.00     0.060 A 
ATOM     39  C   UNL A   1      43.334  25.064  27.515  1.00  0.00     0.016 A 
ATOM     40  C   UNL A   1      44.388  27.164  26.882  1.00  0.00     0.016 A 
ATOM     41  C   UNL A   1      42.926  25.629  28.723  1.00  0.00     0.010 A 
ATOM     42  C   UNL A   1      43.966  27.731  28.083  1.00  0.00     0.010 A 
ATOM     43  C   UNL A   1      43.212  26.974  28.996  1.00  0.00    -0.014 A 
BRANCH  43  44
ATOM     44  C   UNL A   1      42.584  27.657  30.147  1.00  0.00     0.031 A 
ATOM     45  C   UNL A   1      41.281  28.370  29.933  1.00  0.00     0.074 A 
ATOM     46  C   UNL A   1      43.179  27.673  31.352  1.00  0.00     0.049 A 
ATOM     47  N   UNL A   1      40.590  29.102  30.768  1.00  0.00    -0.248 NA
ATOM     48  C   UNL A   1      40.679  28.245  28.595  1.00  0.00     0.031 C 
ATOM     49  C   UNL A   1      44.426  26.992  31.694  1.00  0.00     0.029 A 
ATOM     50  N   UNL A   1      42.810  28.308  32.511  1.00  0.00    -0.354 N 
ATOM     51  C   UNL A   1      39.472  29.521  30.060  1.00  0.00     0.074 A 
ATOM     52  C   UNL A   1      39.588  28.986  28.721  1.00  0.00     0.031 C 
ATOM     53  C   UNL A   1      44.727  27.257  32.978  1.00  0.00     0.029 A 
ATOM     54  C   UNL A   1      43.711  28.150  33.534  1.00  0.00     0.049 A 
ATOM     55  H   UNL A   1      41.979  28.828  32.600  1.00  0.00     0.167 HD
ATOM     56  C   UNL A   1      38.439  30.284  30.485  1.00  0.00     0.031 A 
ATOM     57  C   UNL A   1      43.724  28.687  34.768  1.00  0.00     0.031 A 
ATOM     58  C   UNL A   1      38.336  30.847  31.802  1.00  0.00     0.049 A 
ATOM     59  C   UNL A   1      42.614  29.615  35.185  1.00  0.00     0.074 A 
ATOM     60  C   UNL A   1      37.324  31.630  32.329  1.00  0.00     0.029 A 
ATOM     61  N   UNL A   1      39.290  30.699  32.796  1.00  0.00    -0.354 N 
ATOM     62  N   UNL A   1      41.549  29.983  34.516  1.00  0.00    -0.248 NA
ATOM     63  C   UNL A   1      42.715  30.204  36.530  1.00  0.00     0.031 C 
ATOM     64  C   UNL A   1      37.690  31.993  33.630  1.00  0.00     0.029 A 
ATOM     65  C   UNL A   1      38.907  31.399  33.925  1.00  0.00     0.049 A 
ATOM     66  H   UNL A   1      40.118  30.173  32.709  1.00  0.00     0.167 HD
ATOM     67  C   UNL A   1      40.842  30.826  35.365  1.00  0.00     0.074 A 
ATOM     68  C   UNL A   1      41.593  30.909  36.599  1.00  0.00     0.031 C 
ATOM     69  C   UNL A   1      39.670  31.471  35.143  1.00  0.00     0.031 A 
BRANCH  56  70
ATOM     70  C   UNL A   1      37.355  30.577  29.490  1.00  0.00    -0.014 A 
ATOM     71  C   UNL A   1      37.243  31.843  28.896  1.00  0.00     0.009 A 
ATOM     72  C   UNL A   1      36.439  29.574  29.141  1.00  0.00     0.009 A 
ATOM     73  C   UNL A   1      36.213  32.108  27.992  1.00  0.00     0.001 A 
ATOM     74  C   UNL A   1      35.423  29.835  28.221  1.00  0.00     0.001 A 
ATOM     75  C   UNL A   1      35.306  31.104  27.654  1.00  0.00     0.000 A 
ENDBRANCH  56  70
BRANCH  57  76
ATOM     76  C   UNL A   1      44.838  28.383  35.701  1.00  0.00    -0.014 A 
ATOM     77  C   UNL A   1      46.013  29.148  35.681  1.00  0.00     0.009 A 
ATOM     78  C   UNL A   1      44.739  27.311  36.601  1.00  0.00     0.009 A 
ATOM     79  C   UNL A   1      47.077  28.832  36.529  1.00  0.00     0.001 A 
ATOM     80  C   UNL A   1      45.796  27.011  37.463  1.00  0.00     0.001 A 
ATOM     81  C   UNL A   1      46.967  27.767  37.421  1.00  0.00     0.000 A 
ENDBRANCH  57  76
BRANCH  69  82
ATOM     82  C   UNL A   1      39.115  32.299  36.266  1.00  0.00    -0.014 A 
ATOM     83  C   UNL A   1      39.494  33.639  36.434  1.00  0.00     0.009 A 
ATOM     84  C   UNL A   1      38.162  31.743  37.133  1.00  0.00     0.009 A 
ATOM     85  C   UNL A   1      38.943  34.401  37.466  1.00  0.00     0.001 A 
ATOM     86  C   UNL A   1      37.596  32.515  38.149  1.00  0.00     0.001 A 
ATOM     87  C   UNL A   1      37.992  33.841  38.318  1.00  0.00     0.000 A 
ENDBRANCH  69  82
ENDBRANCH  43  44
ENDBRANCH  36  38
ENDBRANCH  35  36
ENDBRANCH  34  35
ENDBRANCH  33  34
ENDBRANCH  32  33
ENDBRANCH  31  32
ENDBRANCH  30  31
ENDBRANCH  29  30
ENDBRANCH   1  29
TORSDOF 23
ENDMDL
MODEL 3
REMARK VINA RESULT:      -9.0      2.441      3.798
REMARK SMILES O=C(NCc1ccc(C(=O)OCCOCCOCCOCCOC(=O)c2ccc(-c3c4nc(c(-c5ccccc5)c5ccc([nH]5)c(-c5ccccc5)c5nc(c(-c6ccccc6)c6ccc3[nH]6)C=C5)C=C4)cc2)o1)Nc1ccc(F)c(Cl)c1
REMARK SMILES IDX 16 1 15 2 14 3 13 4 12 5 11 6 9 7 10 8 8 9 5 10 6 11 74 12
REMARK SMILES IDX 7 13 4 14 3 15 1 16 2 17 75 18 76 21 77 22 83 23 78 24 81 25
REMARK SMILES IDX 79 26 82 27 80 28 17 29 18 30 19 31 20 32 21 33 22 34 23 35
REMARK SMILES IDX 24 36 25 37 26 38 27 39 73 40 28 41 72 42 29 43 30 44 31 45
REMARK SMILES IDX 66 46 32 47 71 48 65 49 67 50 33 51 70 52 64 53 63 54 34 56
REMARK SMILES IDX 56 57 41 58 55 59 42 60 45 61 54 62 68 63 43 64 44 65 53 67
REMARK SMILES IDX 69 68 46 69 35 70 36 71 40 72 37 73 39 74 38 75 57 76 58 77
REMARK SMILES IDX 62 78 59 79 61 80 60 81 47 82 48 83 52 84 49 85 51 86 50 87
REMARK H PARENT 3 19 75 20 67 55 45 66
REMARK Flexibility Score: inf
ROOT
ATOM      1  C   UNL A   1      40.948  21.956  26.420  1.00  0.00     0.188 C 
ENDROOT
BRANCH   1   2
ATOM      2  C   UNL A   1      39.969  22.994  26.988  1.00  0.00     0.188 C 
BRANCH   2   3
ATOM      3  O   UNL A   1      38.688  22.979  26.359  1.00  0.00    -0.376 OA
BRANCH   3   4
ATOM      4  C   UNL A   1      38.321  21.745  25.752  1.00  0.00     0.202 C 
BRANCH   4   5
ATOM      5  C   UNL A   1      37.265  21.922  24.653  1.00  0.00     0.261 C 
BRANCH   5   6
ATOM      6  O   UNL A   1      36.681  23.233  24.603  1.00  0.00    -0.457 OA
BRANCH   6   7
ATOM      7  C   UNL A   1      35.957  23.530  23.491  1.00  0.00     0.374 C 
ATOM      8  O   UNL A   1      36.292  23.240  22.348  1.00  0.00    -0.242 OA
BRANCH   7   9
ATOM      9  C   UNL A   1      34.695  24.098  23.896  1.00  0.00     0.211 A 
ATOM     10  C   UNL A   1      32.771  24.065  24.980  1.00  0.00     0.124 A 
ATOM     11  C   UNL A   1      32.936  25.354  24.520  1.00  0.00     0.048 A 
ATOM     12  O   UNL A   1      33.823  23.295  24.578  1.00  0.00    -0.452 OA
ATOM     13  C   UNL A   1      34.178  25.379  23.837  1.00  0.00     0.058 A 
BRANCH  10  14
ATOM     14  C   UNL A   1      31.741  23.396  25.820  1.00  0.00     0.193 C 
BRANCH  14  15
ATOM     15  N   UNL A   1      32.388  22.423  26.671  1.00  0.00    -0.331 N 
ATOM     16  O   UNL A   1      33.120  20.429  27.305  1.00  0.00    -0.248 OA
ATOM     17  C   UNL A   1      32.860  21.186  26.375  1.00  0.00     0.319 C 
ATOM     18  N   UNL A   1      33.033  20.901  25.048  1.00  0.00    -0.308 N 
ATOM     19  H   UNL A   1      32.505  22.701  27.608  1.00  0.00     0.165 HD
ATOM     20  H   UNL A   1      32.988  21.655  24.416  1.00  0.00     0.171 HD
BRANCH  18  21
ATOM     21  C   UNL A   1      33.269  19.620  24.506  1.00  0.00     0.044 A 
ATOM     22  C   UNL A   1      32.527  19.236  23.382  1.00  0.00     0.029 A 
ATOM     23  C   UNL A   1      34.188  18.719  25.060  1.00  0.00     0.049 A 
ATOM     24  C   UNL A   1      32.730  17.985  22.794  1.00  0.00     0.043 A 
ATOM     25  C   UNL A   1      34.379  17.463  24.481  1.00  0.00     0.078 A 
ATOM     26  C   UNL A   1      33.657  17.106  23.345  1.00  0.00     0.141 A 
ATOM     27  Cl  UNL A   1      35.499  16.362  25.188  1.00  0.00    -0.081 Cl
ATOM     28  F   UNL A   1      33.834  15.909  22.765  1.00  0.00    -0.205 F 
ENDBRANCH  18  21
ENDBRANCH  14  15
ENDBRANCH  10  14
ENDBRANCH   7   9
ENDBRANCH   6   7
ENDBRANCH   5   6
ENDBRANCH   4   5
ENDBRANCH   3   4
ENDBRANCH   2   3
ENDBRANCH   1   2
BRANCH   1  29
ATOM     29  O   UNL A   1      41.214  20.820  27.222  1.00  0.00    -0.377 OA
BRANCH  29  30
ATOM     30  C   UNL A   1      41.328  19.541  26.601  1.00  0.00     0.188 C 
BRANCH  30  31
ATOM     31  C   UNL A   1      42.661  19.028  26.020  1.00  0.00     0.188 C 
BRANCH  31  32
ATOM     32  O   UNL A   1      43.211  19.846  24.992  1.00  0.00    -0.376 OA
BRANCH  32  33
ATOM     33  C   UNL A   1      44.415  20.530  25.317  1.00  0.00     0.202 C 
BRANCH  33  34
ATOM     34  C   UNL A   1      44.399  21.989  24.854  1.00  0.00     0.261 C 
BRANCH  34  35
ATOM     35  O   UNL A   1      44.730  22.934  25.883  1.00  0.00    -0.460 OA
BRANCH  35  36
ATOM     36  C   UNL A   1      44.955  24.205  25.487  1.00  0.00     0.338 C 
ATOM     37  O   UNL A   1      45.573  24.581  24.509  1.00  0.00    -0.246 OA
BRANCH  36  38
ATOM     38  C   UNL A   1      44.177  25.092  26.370  1.00  0.00     0.060 A 
ATOM     39  C   UNL A   1      44.339  26.477  26.250  1.00  0.00     0.016 A 
ATOM     40  C   UNL A   1      43.296  24.550  27.308  1.00  0.00     0.016 A 
ATOM     41  C   UNL A   1      43.632  27.329  27.098  1.00  0.00     0.010 A 
ATOM     42  C   UNL A   1      42.603  25.403  28.165  1.00  0.00     0.010 A 
ATOM     43  C   UNL A   1      42.789  26.793  28.080  1.00  0.00    -0.014 A 
BRANCH  43  44
ATOM     44  C   UNL A   1      42.226  27.657  29.140  1.00  0.00     0.031 A 
ATOM     45  C   UNL A   1      42.937  27.727  30.460  1.00  0.00     0.074 A 
ATOM     46  C   UNL A   1      41.084  28.338  28.945  1.00  0.00     0.049 A 
ATOM     47  N   UNL A   1      42.589  28.348  31.557  1.00  0.00    -0.248 NA
ATOM     48  C   UNL A   1      44.210  26.992  30.556  1.00  0.00     0.031 C 
ATOM     49  C   UNL A   1      40.320  28.379  27.700  1.00  0.00     0.029 A 
ATOM     50  N   UNL A   1      40.362  29.119  29.812  1.00  0.00    -0.354 N 
ATOM     51  C   UNL A   1      43.599  28.083  32.472  1.00  0.00     0.074 A 
ATOM     52  C   UNL A   1      44.559  27.226  31.813  1.00  0.00     0.031 C 
ATOM     53  C   UNL A   1      39.225  29.137  27.888  1.00  0.00     0.029 A 
ATOM     54  C   UNL A   1      39.198  29.606  29.273  1.00  0.00     0.049 A 
ATOM     55  H   UNL A   1      40.652  29.311  30.733  1.00  0.00     0.167 HD
ATOM     56  C   UNL A   1      43.719  28.516  33.748  1.00  0.00     0.031 A 
ATOM     57  C   UNL A   1      38.214  30.325  29.843  1.00  0.00     0.031 A 
ATOM     58  C   UNL A   1      42.751  29.339  34.418  1.00  0.00     0.049 A 
ATOM     59  C   UNL A   1      38.321  30.710  31.294  1.00  0.00     0.074 A 
ATOM     60  C   UNL A   1      42.785  29.834  35.710  1.00  0.00     0.029 A 
ATOM     61  N   UNL A   1      41.565  29.775  33.851  1.00  0.00    -0.354 N 
ATOM     62  N   UNL A   1      39.293  30.477  32.142  1.00  0.00    -0.248 NA
ATOM     63  C   UNL A   1      37.189  31.456  31.866  1.00  0.00     0.031 C 
ATOM     64  C   UNL A   1      41.595  30.533  35.938  1.00  0.00     0.029 A 
ATOM     65  C   UNL A   1      40.843  30.509  34.775  1.00  0.00     0.049 A 
ATOM     66  H   UNL A   1      41.278  29.589  32.927  1.00  0.00     0.167 HD
ATOM     67  C   UNL A   1      38.901  31.066  33.338  1.00  0.00     0.074 A 
ATOM     68  C   UNL A   1      37.608  31.674  33.105  1.00  0.00     0.031 C 
ATOM     69  C   UNL A   1      39.557  31.105  34.524  1.00  0.00     0.031 A 
BRANCH  56  70
ATOM     70  C   UNL A   1      44.933  28.069  34.507  1.00  0.00    -0.014 A 
ATOM     71  C   UNL A   1      46.163  28.727  34.353  1.00  0.00     0.009 A 
ATOM     72  C   UNL A   1      44.843  26.982  35.389  1.00  0.00     0.009 A 
ATOM     73  C   UNL A   1      47.290  28.283  35.047  1.00  0.00     0.001 A 
ATOM     74  C   UNL A   1      45.967  26.554  36.097  1.00  0.00     0.001 A 
ATOM     75  C   UNL A   1      47.191  27.199  35.918  1.00  0.00     0.000 A 
ENDBRANCH  56  70
BRANCH  57  76
ATOM     76  C   UNL A   1      37.021  30.716  29.049  1.00  0.00    -0.014 A 
ATOM     77  C   UNL A   1      36.850  32.043  28.629  1.00  0.00     0.009 A 
ATOM     78  C   UNL A   1      36.037  29.768  28.730  1.00  0.00     0.009 A 
ATOM     79  C   UNL A   1      35.704  32.417  27.922  1.00  0.00     0.001 A 
ATOM     80  C   UNL A   1      34.904  30.141  28.005  1.00  0.00     0.001 A 
ATOM     81  C   UNL A   1      34.735  31.467  27.608  1.00  0.00     0.000 A 
ENDBRANCH  57  76
BRANCH  69  82
ATOM     82  C   UNL A   1      38.901  31.849  35.651  1.00  0.00    -0.014 A 
ATOM     83  C   UNL A   1      38.145  31.177  36.622  1.00  0.00     0.009 A 
ATOM     84  C   UNL A   1      39.089  33.235  35.769  1.00  0.00     0.009 A 
ATOM     85  C   UNL A   1      37.570  31.883  37.680  1.00  0.00     0.001 A 
ATOM     86  C   UNL A   1      38.532  33.934  36.840  1.00  0.00     0.001 A 
ATOM     87  C   UNL A   1      37.767  33.260  37.790  1.00  0.00     0.000 A 
ENDBRANCH  69  82
ENDBRANCH  43  44
ENDBRANCH  36  38
ENDBRANCH  35  36
ENDBRANCH  34  35
ENDBRANCH  33  34
ENDBRANCH  32  33
ENDBRANCH  31  32
ENDBRANCH  30  31
ENDBRANCH  29  30
ENDBRANCH   1  29
TORSDOF 23
ENDMDL
