MODEL 1
REMARK VINA RESULT:      -9.7      0.000      0.000
REMARK SMILES C[C@@H]1CCC/C(=C\Nc2ccc(C(=O)OCCOCCOCCOCCOC(=O)c3ccc(-c4c5nc(c(-c6ccccc6)c6ccc([nH]6)c(-c6ccccc6)c6nc(c(-c7ccccc7)c7ccc4[nH]7)C=C6)C=C5)cc3)c(O)c2)C1=O
REMARK SMILES IDX 21 1 20 2 19 3 18 4 17 5 16 6 15 7 13 8 14 9 12 10 9 11
REMARK SMILES IDX 10 12 80 13 11 14 78 15 8 16 7 18 1 19 2 20 3 21 81 22 4 23
REMARK SMILES IDX 6 24 82 25 5 26 79 27 22 29 23 30 24 31 25 32 26 33 27 34
REMARK SMILES IDX 28 35 29 36 30 37 31 38 77 39 32 40 76 41 33 42 34 43 35 44
REMARK SMILES IDX 70 45 36 46 75 47 69 48 71 49 37 50 74 51 68 52 67 53 38 55
REMARK SMILES IDX 60 56 45 57 59 58 46 59 49 60 58 61 72 62 47 63 48 64 57 66
REMARK SMILES IDX 73 67 50 68 39 69 40 70 44 71 41 72 43 73 42 74 61 75 62 76
REMARK SMILES IDX 66 77 63 78 65 79 64 80 51 81 52 82 56 83 53 84 55 85 54 86
REMARK H PARENT 8 17 79 28 71 54 49 65
REMARK Flexibility Score: inf
ROOT
ATOM      1  O   UNL A   1      34.284  32.393  30.029  1.00  0.00    -0.377 OA
ENDROOT
BRANCH   1   2
ATOM      2  C   UNL A   1      35.181  31.441  29.473  1.00  0.00     0.188 C 
BRANCH   2   3
ATOM      3  C   UNL A   1      35.460  31.674  27.976  1.00  0.00     0.188 C 
BRANCH   3   4
ATOM      4  O   UNL A   1      35.555  30.461  27.245  1.00  0.00    -0.376 OA
BRANCH   4   5
ATOM      5  C   UNL A   1      34.390  29.717  26.937  1.00  0.00     0.202 C 
BRANCH   5   6
ATOM      6  C   UNL A   1      32.971  30.311  27.019  1.00  0.00     0.261 C 
BRANCH   6   7
ATOM      7  O   UNL A   1      31.876  29.476  26.630  1.00  0.00    -0.460 OA
BRANCH   7   8
ATOM      8  C   UNL A   1      31.419  29.577  25.362  1.00  0.00     0.341 C 
ATOM      9  O   UNL A   1      30.939  30.566  24.839  1.00  0.00    -0.246 OA
BRANCH   8  10
ATOM     10  C   UNL A   1      31.807  28.332  24.651  1.00  0.00     0.101 A 
ATOM     11  C   UNL A   1      32.420  25.924  23.316  1.00  0.00     0.042 A 
ATOM     12  C   UNL A   1      31.308  26.003  24.164  1.00  0.00     0.027 A 
ATOM     13  C   UNL A   1      33.174  27.081  23.090  1.00  0.00     0.073 A 
ATOM     14  C   UNL A   1      31.028  27.185  24.861  1.00  0.00     0.022 A 
ATOM     15  C   UNL A   1      32.848  28.281  23.719  1.00  0.00     0.132 A 
BRANCH  11  16
ATOM     16  N   UNL A   1      32.791  24.748  22.652  1.00  0.00    -0.361 N 
ATOM     17  H   UNL A   1      32.205  24.472  21.910  1.00  0.00     0.166 HD
BRANCH  16  18
ATOM     18  C   UNL A   1      33.861  23.928  22.898  1.00  0.00     0.090 C 
ATOM     19  C   UNL A   1      34.784  20.650  24.709  1.00  0.00     0.016 C 
ATOM     20  C   UNL A   1      35.647  21.816  25.192  1.00  0.00     0.058 C 
ATOM     21  C   UNL A   1      35.164  22.417  26.522  1.00  0.00     0.012 C 
ATOM     22  C   UNL A   1      35.691  22.868  24.094  1.00  0.00     0.163 C 
ATOM     23  C   UNL A   1      33.939  23.321  26.388  1.00  0.00     0.006 C 
ATOM     24  C   UNL A   1      34.541  23.817  24.049  1.00  0.00     0.011 C 
ATOM     25  O   UNL A   1      36.570  22.891  23.237  1.00  0.00    -0.294 OA
ATOM     26  C   UNL A   1      34.184  24.430  25.366  1.00  0.00     0.041 C 
ENDBRANCH  16  18
ENDBRANCH  11  16
BRANCH  15  27
ATOM     27  O   UNL A   1      33.565  29.380  23.331  1.00  0.00    -0.507 OA
ATOM     28  H   UNL A   1      33.786  30.040  23.958  1.00  0.00     0.293 HD
ENDBRANCH  15  27
ENDBRANCH   8  10
ENDBRANCH   7   8
ENDBRANCH   6   7
ENDBRANCH   5   6
ENDBRANCH   4   5
ENDBRANCH   3   4
ENDBRANCH   2   3
ENDBRANCH   1   2
BRANCH   1  29
ATOM     29  C   UNL A   1      34.424  33.758  29.625  1.00  0.00     0.188 C 
BRANCH  29  30
ATOM     30  C   UNL A   1      33.659  34.916  30.316  1.00  0.00     0.188 C 
BRANCH  30  31
ATOM     31  O   UNL A   1      33.588  34.818  31.731  1.00  0.00    -0.376 OA
BRANCH  31  32
ATOM     32  C   UNL A   1      34.788  34.595  32.452  1.00  0.00     0.202 C 
BRANCH  32  33
ATOM     33  C   UNL A   1      34.768  33.421  33.438  1.00  0.00     0.261 C 
BRANCH  33  34
ATOM     34  O   UNL A   1      35.606  32.306  33.092  1.00  0.00    -0.460 OA
BRANCH  34  35
ATOM     35  C   UNL A   1      36.799  32.205  33.716  1.00  0.00     0.338 C 
ATOM     36  O   UNL A   1      37.029  32.352  34.903  1.00  0.00    -0.246 OA
BRANCH  35  37
ATOM     37  C   UNL A   1      37.769  31.690  32.728  1.00  0.00     0.060 A 
ATOM     38  C   UNL A   1      38.736  30.761  33.137  1.00  0.00     0.016 A 
ATOM     39  C   UNL A   1      37.701  32.101  31.395  1.00  0.00     0.016 A 
ATOM     40  C   UNL A   1      39.645  30.249  32.211  1.00  0.00     0.010 A 
ATOM     41  C   UNL A   1      38.627  31.604  30.475  1.00  0.00     0.010 A 
ATOM     42  C   UNL A   1      39.616  30.691  30.881  1.00  0.00    -0.014 A 
BRANCH  42  43
ATOM     43  C   UNL A   1      40.695  30.309  29.940  1.00  0.00     0.031 A 
ATOM     44  C   UNL A   1      40.617  28.976  29.250  1.00  0.00     0.074 A 
ATOM     45  C   UNL A   1      41.736  31.129  29.706  1.00  0.00     0.049 A 
ATOM     46  N   UNL A   1      41.478  28.405  28.447  1.00  0.00    -0.248 NA
ATOM     47  C   UNL A   1      39.406  28.180  29.504  1.00  0.00     0.031 C 
ATOM     48  C   UNL A   1      41.908  32.463  30.276  1.00  0.00     0.029 A 
ATOM     49  N   UNL A   1      42.854  30.945  28.931  1.00  0.00    -0.354 N 
ATOM     50  C   UNL A   1      40.919  27.179  28.108  1.00  0.00     0.074 A 
ATOM     51  C   UNL A   1      39.658  27.079  28.811  1.00  0.00     0.031 C 
ATOM     52  C   UNL A   1      43.073  32.975  29.841  1.00  0.00     0.029 A 
ATOM     53  C   UNL A   1      43.745  31.988  28.997  1.00  0.00     0.049 A 
ATOM     54  H   UNL A   1      43.003  30.143  28.381  1.00  0.00     0.167 HD
ATOM     55  C   UNL A   1      41.410  26.223  27.285  1.00  0.00     0.031 A 
ATOM     56  C   UNL A   1      44.976  32.117  28.465  1.00  0.00     0.031 A 
ATOM     57  C   UNL A   1      42.674  26.314  26.604  1.00  0.00     0.049 A 
ATOM     58  C   UNL A   1      45.546  30.996  27.634  1.00  0.00     0.074 A 
ATOM     59  C   UNL A   1      43.248  25.407  25.729  1.00  0.00     0.029 A 
ATOM     60  N   UNL A   1      43.569  27.364  26.736  1.00  0.00    -0.354 N 
ATOM     61  N   UNL A   1      44.992  29.860  27.286  1.00  0.00    -0.248 NA
ATOM     62  C   UNL A   1      46.913  31.177  27.124  1.00  0.00     0.031 C 
ATOM     63  C   UNL A   1      44.521  25.876  25.390  1.00  0.00     0.029 A 
ATOM     64  C   UNL A   1      44.710  27.108  25.996  1.00  0.00     0.049 A 
ATOM     65  H   UNL A   1      43.415  28.173  27.276  1.00  0.00     0.167 HD
ATOM     66  C   UNL A   1      45.933  29.202  26.503  1.00  0.00     0.074 A 
ATOM     67  C   UNL A   1      47.084  30.076  26.408  1.00  0.00     0.031 C 
ATOM     68  C   UNL A   1      45.854  27.980  25.918  1.00  0.00     0.031 A 
BRANCH  55  69
ATOM     69  C   UNL A   1      40.594  24.973  27.112  1.00  0.00    -0.014 A 
ATOM     70  C   UNL A   1      41.024  23.738  27.624  1.00  0.00     0.009 A 
ATOM     71  C   UNL A   1      39.356  25.038  26.452  1.00  0.00     0.009 A 
ATOM     72  C   UNL A   1      40.248  22.590  27.448  1.00  0.00     0.001 A 
ATOM     73  C   UNL A   1      38.569  23.896  26.305  1.00  0.00     0.001 A 
ATOM     74  C   UNL A   1      39.019  22.671  26.794  1.00  0.00     0.000 A 
ENDBRANCH  55  69
BRANCH  56  75
ATOM     75  C   UNL A   1      45.780  33.341  28.731  1.00  0.00    -0.014 A 
ATOM     76  C   UNL A   1      45.784  34.411  27.823  1.00  0.00     0.009 A 
ATOM     77  C   UNL A   1      46.570  33.434  29.889  1.00  0.00     0.009 A 
ATOM     78  C   UNL A   1      46.577  35.536  28.058  1.00  0.00     0.001 A 
ATOM     79  C   UNL A   1      47.338  34.574  30.136  1.00  0.00     0.001 A 
ATOM     80  C   UNL A   1      47.348  35.620  29.216  1.00  0.00     0.000 A 
ENDBRANCH  56  75
BRANCH  68  81
ATOM     81  C   UNL A   1      47.036  27.521  25.109  1.00  0.00    -0.014 A 
ATOM     82  C   UNL A   1      47.162  27.855  23.751  1.00  0.00     0.009 A 
ATOM     83  C   UNL A   1      48.063  26.789  25.726  1.00  0.00     0.009 A 
ATOM     84  C   UNL A   1      48.278  27.438  23.021  1.00  0.00     0.001 A 
ATOM     85  C   UNL A   1      49.193  26.402  25.002  1.00  0.00     0.001 A 
ATOM     86  C   UNL A   1      49.295  26.718  23.649  1.00  0.00     0.000 A 
ENDBRANCH  68  81
ENDBRANCH  42  43
ENDBRANCH  35  37
ENDBRANCH  34  35
ENDBRANCH  33  34
ENDBRANCH  32  33
ENDBRANCH  31  32
ENDBRANCH  30  31
ENDBRANCH  29  30
ENDBRANCH   1  29
TORSDOF 23
ENDMDL
MODEL 2
REMARK VINA RESULT:      -9.5      4.158      7.758
REMARK SMILES C[C@@H]1CCC/C(=C\Nc2ccc(C(=O)OCCOCCOCCOCCOC(=O)c3ccc(-c4c5nc(c(-c6ccccc6)c6ccc([nH]6)c(-c6ccccc6)c6nc(c(-c7ccccc7)c7ccc4[nH]7)C=C6)C=C5)cc3)c(O)c2)C1=O
REMARK SMILES IDX 21 1 20 2 19 3 18 4 17 5 16 6 15 7 13 8 14 9 12 10 9 11
REMARK SMILES IDX 10 12 80 13 11 14 78 15 8 16 7 18 1 19 2 20 3 21 81 22 4 23
REMARK SMILES IDX 6 24 82 25 5 26 79 27 22 29 23 30 24 31 25 32 26 33 27 34
REMARK SMILES IDX 28 35 29 36 30 37 31 38 77 39 32 40 76 41 33 42 34 43 35 44
REMARK SMILES IDX 70 45 36 46 75 47 69 48 71 49 37 50 74 51 68 52 67 53 38 55
REMARK SMILES IDX 60 56 45 57 59 58 46 59 49 60 58 61 72 62 47 63 48 64 57 66
REMARK SMILES IDX 73 67 50 68 39 69 40 70 44 71 41 72 43 73 42 74 61 75 62 76
REMARK SMILES IDX 66 77 63 78 65 79 64 80 51 81 52 82 56 83 53 84 55 85 54 86
REMARK H PARENT 8 17 79 28 71 54 49 65
REMARK Flexibility Score: inf
ROOT
ATOM      1  O   UNL A   1      34.341  32.882  29.905  1.00  0.00    -0.377 OA
ENDROOT
BRANCH   1   2
ATOM      2  C   UNL A   1      35.110  31.748  29.528  1.00  0.00     0.188 C 
BRANCH   2   3
ATOM      3  C   UNL A   1      35.599  31.807  28.068  1.00  0.00     0.188 C 
BRANCH   3   4
ATOM      4  O   UNL A   1      35.634  30.528  27.454  1.00  0.00    -0.376 OA
BRANCH   4   5
ATOM      5  C   UNL A   1      34.437  29.799  27.249  1.00  0.00     0.202 C 
BRANCH   5   6
ATOM      6  C   UNL A   1      33.079  30.475  26.987  1.00  0.00     0.261 C 
BRANCH   6   7
ATOM      7  O   UNL A   1      31.973  29.637  26.636  1.00  0.00    -0.460 OA
BRANCH   7   8
ATOM      8  C   UNL A   1      31.420  29.793  25.412  1.00  0.00     0.341 C 
ATOM      9  O   UNL A   1      30.870  30.791  24.986  1.00  0.00    -0.246 OA
BRANCH   8  10
ATOM     10  C   UNL A   1      31.797  28.606  24.602  1.00  0.00     0.101 A 
ATOM     11  C   UNL A   1      32.386  26.313  23.070  1.00  0.00     0.042 A 
ATOM     12  C   UNL A   1      31.245  26.352  23.881  1.00  0.00     0.027 A 
ATOM     13  C   UNL A   1      33.184  27.459  22.982  1.00  0.00     0.073 A 
ATOM     14  C   UNL A   1      30.975  27.473  24.676  1.00  0.00     0.022 A 
ATOM     15  C   UNL A   1      32.871  28.606  23.708  1.00  0.00     0.132 A 
BRANCH  11  16
ATOM     16  N   UNL A   1      32.746  25.190  22.313  1.00  0.00    -0.361 N 
ATOM     17  H   UNL A   1      33.321  25.368  21.534  1.00  0.00     0.166 HD
BRANCH  16  18
ATOM     18  C   UNL A   1      32.404  23.879  22.512  1.00  0.00     0.090 C 
ATOM     19  C   UNL A   1      31.920  21.292  25.331  1.00  0.00     0.016 C 
ATOM     20  C   UNL A   1      32.932  20.804  24.294  1.00  0.00     0.058 C 
ATOM     21  C   UNL A   1      34.392  21.009  24.730  1.00  0.00     0.012 C 
ATOM     22  C   UNL A   1      32.644  21.506  22.976  1.00  0.00     0.163 C 
ATOM     23  C   UNL A   1      34.884  22.449  24.598  1.00  0.00     0.006 C 
ATOM     24  C   UNL A   1      33.231  22.869  22.818  1.00  0.00     0.011 C 
ATOM     25  O   UNL A   1      31.905  21.029  22.120  1.00  0.00    -0.294 OA
ATOM     26  C   UNL A   1      34.680  22.972  23.177  1.00  0.00     0.041 C 
ENDBRANCH  16  18
ENDBRANCH  11  16
BRANCH  15  27
ATOM     27  O   UNL A   1      33.637  29.711  23.451  1.00  0.00    -0.507 OA
ATOM     28  H   UNL A   1      34.206  29.724  22.708  1.00  0.00     0.293 HD
ENDBRANCH  15  27
ENDBRANCH   8  10
ENDBRANCH   7   8
ENDBRANCH   6   7
ENDBRANCH   5   6
ENDBRANCH   4   5
ENDBRANCH   3   4
ENDBRANCH   2   3
ENDBRANCH   1   2
BRANCH   1  29
ATOM     29  C   UNL A   1      34.322  34.002  29.017  1.00  0.00     0.188 C 
BRANCH  29  30
ATOM     30  C   UNL A   1      33.021  34.514  28.346  1.00  0.00     0.188 C 
BRANCH  30  31
ATOM     31  O   UNL A   1      32.553  35.762  28.838  1.00  0.00    -0.376 OA
BRANCH  31  32
ATOM     32  C   UNL A   1      33.485  36.634  29.455  1.00  0.00     0.202 C 
BRANCH  32  33
ATOM     33  C   UNL A   1      33.048  37.242  30.793  1.00  0.00     0.261 C 
BRANCH  33  34
ATOM     34  O   UNL A   1      33.703  36.715  31.958  1.00  0.00    -0.460 OA
BRANCH  34  35
ATOM     35  C   UNL A   1      33.277  35.523  32.428  1.00  0.00     0.338 C 
ATOM     36  O   UNL A   1      32.139  35.088  32.420  1.00  0.00    -0.246 OA
BRANCH  35  37
ATOM     37  C   UNL A   1      34.476  34.741  32.792  1.00  0.00     0.060 A 
ATOM     38  C   UNL A   1      35.744  35.311  32.617  1.00  0.00     0.016 A 
ATOM     39  C   UNL A   1      34.343  33.461  33.333  1.00  0.00     0.016 A 
ATOM     40  C   UNL A   1      36.886  34.593  32.975  1.00  0.00     0.010 A 
ATOM     41  C   UNL A   1      35.488  32.735  33.669  1.00  0.00     0.010 A 
ATOM     42  C   UNL A   1      36.766  33.289  33.474  1.00  0.00    -0.014 A 
BRANCH  42  43
ATOM     43  C   UNL A   1      37.970  32.446  33.669  1.00  0.00     0.031 A 
ATOM     44  C   UNL A   1      38.813  32.660  34.894  1.00  0.00     0.074 A 
ATOM     45  C   UNL A   1      38.316  31.509  32.767  1.00  0.00     0.049 A 
ATOM     46  N   UNL A   1      39.943  32.094  35.233  1.00  0.00    -0.248 NA
ATOM     47  C   UNL A   1      38.316  33.649  35.864  1.00  0.00     0.031 C 
ATOM     48  C   UNL A   1      37.561  31.174  31.562  1.00  0.00     0.029 A 
ATOM     49  N   UNL A   1      39.407  30.678  32.726  1.00  0.00    -0.354 N 
ATOM     50  C   UNL A   1      40.298  32.664  36.450  1.00  0.00     0.074 A 
ATOM     51  C   UNL A   1      39.277  33.637  36.776  1.00  0.00     0.031 C 
ATOM     52  C   UNL A   1      38.220  30.213  30.890  1.00  0.00     0.029 A 
ATOM     53  C   UNL A   1      39.461  29.897  31.597  1.00  0.00     0.049 A 
ATOM     54  H   UNL A   1      40.087  30.644  33.437  1.00  0.00     0.167 HD
ATOM     55  C   UNL A   1      41.375  32.400  37.226  1.00  0.00     0.031 A 
ATOM     56  C   UNL A   1      40.417  29.051  31.167  1.00  0.00     0.031 A 
ATOM     57  C   UNL A   1      42.401  31.449  36.890  1.00  0.00     0.049 A 
ATOM     58  C   UNL A   1      41.657  28.850  31.999  1.00  0.00     0.074 A 
ATOM     59  C   UNL A   1      43.520  31.094  37.624  1.00  0.00     0.029 A 
ATOM     60  N   UNL A   1      42.443  30.716  35.715  1.00  0.00    -0.354 N 
ATOM     61  N   UNL A   1      41.963  29.362  33.167  1.00  0.00    -0.248 NA
ATOM     62  C   UNL A   1      42.685  27.953  31.451  1.00  0.00     0.031 C 
ATOM     63  C   UNL A   1      44.276  30.200  36.860  1.00  0.00     0.029 A 
ATOM     64  C   UNL A   1      43.592  29.943  35.682  1.00  0.00     0.049 A 
ATOM     65  H   UNL A   1      41.758  30.738  35.009  1.00  0.00     0.167 HD
ATOM     66  C   UNL A   1      43.205  28.836  33.500  1.00  0.00     0.074 A 
ATOM     67  C   UNL A   1      43.586  27.946  32.423  1.00  0.00     0.031 C 
ATOM     68  C   UNL A   1      43.966  29.071  34.599  1.00  0.00     0.031 A 
BRANCH  55  69
ATOM     69  C   UNL A   1      41.521  33.189  38.498  1.00  0.00    -0.014 A 
ATOM     70  C   UNL A   1      41.003  32.721  39.717  1.00  0.00     0.009 A 
ATOM     71  C   UNL A   1      42.219  34.407  38.481  1.00  0.00     0.009 A 
ATOM     72  C   UNL A   1      41.151  33.474  40.883  1.00  0.00     0.001 A 
ATOM     73  C   UNL A   1      42.392  35.142  39.654  1.00  0.00     0.001 A 
ATOM     74  C   UNL A   1      41.850  34.680  40.853  1.00  0.00     0.000 A 
ENDBRANCH  55  69
BRANCH  56  75
ATOM     75  C   UNL A   1      40.265  28.354  29.861  1.00  0.00    -0.014 A 
ATOM     76  C   UNL A   1      39.691  27.075  29.791  1.00  0.00     0.009 A 
ATOM     77  C   UNL A   1      40.716  28.959  28.676  1.00  0.00     0.009 A 
ATOM     78  C   UNL A   1      39.594  26.409  28.567  1.00  0.00     0.001 A 
ATOM     79  C   UNL A   1      40.589  28.302  27.450  1.00  0.00     0.001 A 
ATOM     80  C   UNL A   1      40.037  27.024  27.398  1.00  0.00     0.000 A 
ENDBRANCH  56  75
BRANCH  68  81
ATOM     81  C   UNL A   1      45.279  28.345  34.700  1.00  0.00    -0.014 A 
ATOM     82  C   UNL A   1      45.367  27.082  35.309  1.00  0.00     0.009 A 
ATOM     83  C   UNL A   1      46.434  28.907  34.134  1.00  0.00     0.009 A 
ATOM     84  C   UNL A   1      46.592  26.413  35.375  1.00  0.00     0.001 A 
ATOM     85  C   UNL A   1      47.650  28.221  34.173  1.00  0.00     0.001 A 
ATOM     86  C   UNL A   1      47.730  26.980  34.801  1.00  0.00     0.000 A 
ENDBRANCH  68  81
ENDBRANCH  42  43
ENDBRANCH  35  37
ENDBRANCH  34  35
ENDBRANCH  33  34
ENDBRANCH  32  33
ENDBRANCH  31  32
ENDBRANCH  30  31
ENDBRANCH  29  30
ENDBRANCH   1  29
TORSDOF 23
ENDMDL
MODEL 3
REMARK VINA RESULT:      -9.2      4.658      9.390
REMARK SMILES C[C@@H]1CCC/C(=C\Nc2ccc(C(=O)OCCOCCOCCOCCOC(=O)c3ccc(-c4c5nc(c(-c6ccccc6)c6ccc([nH]6)c(-c6ccccc6)c6nc(c(-c7ccccc7)c7ccc4[nH]7)C=C6)C=C5)cc3)c(O)c2)C1=O
REMARK SMILES IDX 21 1 20 2 19 3 18 4 17 5 16 6 15 7 13 8 14 9 12 10 9 11
REMARK SMILES IDX 10 12 80 13 11 14 78 15 8 16 7 18 1 19 2 20 3 21 81 22 4 23
REMARK SMILES IDX 6 24 82 25 5 26 79 27 22 29 23 30 24 31 25 32 26 33 27 34
REMARK SMILES IDX 28 35 29 36 30 37 31 38 77 39 32 40 76 41 33 42 34 43 35 44
REMARK SMILES IDX 70 45 36 46 75 47 69 48 71 49 37 50 74 51 68 52 67 53 38 55
REMARK SMILES IDX 60 56 45 57 59 58 46 59 49 60 58 61 72 62 47 63 48 64 57 66
REMARK SMILES IDX 73 67 50 68 39 69 40 70 44 71 41 72 43 73 42 74 61 75 62 76
REMARK SMILES IDX 66 77 63 78 65 79 64 80 51 81 52 82 56 83 53 84 55 85 54 86
REMARK H PARENT 8 17 79 28 71 54 49 65
REMARK Flexibility Score: inf
ROOT
ATOM      1  O   UNL A   1      39.929  20.994  25.581  1.00  0.00    -0.377 OA
ENDROOT
BRANCH   1   2
ATOM      2  C   UNL A   1      38.612  21.364  25.968  1.00  0.00     0.188 C 
BRANCH   2   3
ATOM      3  C   UNL A   1      37.585  21.228  24.828  1.00  0.00     0.188 C 
BRANCH   3   4
ATOM      4  O   UNL A   1      36.633  20.205  25.074  1.00  0.00    -0.376 OA
BRANCH   4   5
ATOM      5  C   UNL A   1      35.249  20.460  24.921  1.00  0.00     0.202 C 
BRANCH   5   6
ATOM      6  C   UNL A   1      34.597  21.799  25.315  1.00  0.00     0.261 C 
BRANCH   6   7
ATOM      7  O   UNL A   1      33.907  22.530  24.296  1.00  0.00    -0.460 OA
BRANCH   7   8
ATOM      8  C   UNL A   1      34.571  23.529  23.671  1.00  0.00     0.341 C 
ATOM      9  O   UNL A   1      35.512  23.410  22.909  1.00  0.00    -0.246 OA
BRANCH   8  10
ATOM     10  C   UNL A   1      33.808  24.782  23.908  1.00  0.00     0.101 A 
ATOM     11  C   UNL A   1      32.412  27.164  24.481  1.00  0.00     0.042 A 
ATOM     12  C   UNL A   1      32.865  26.340  25.518  1.00  0.00     0.027 A 
ATOM     13  C   UNL A   1      32.729  26.818  23.162  1.00  0.00     0.073 A 
ATOM     14  C   UNL A   1      33.520  25.134  25.234  1.00  0.00     0.022 A 
ATOM     15  C   UNL A   1      33.454  25.662  22.881  1.00  0.00     0.132 A 
BRANCH  11  16
ATOM     16  N   UNL A   1      31.685  28.341  24.703  1.00  0.00    -0.361 N 
ATOM     17  H   UNL A   1      31.706  28.688  25.625  1.00  0.00     0.166 HD
BRANCH  16  18
ATOM     18  C   UNL A   1      30.949  29.073  23.811  1.00  0.00     0.090 C 
ATOM     19  C   UNL A   1      27.661  31.073  23.550  1.00  0.00     0.016 C 
ATOM     20  C   UNL A   1      27.729  29.971  22.493  1.00  0.00     0.058 C 
ATOM     21  C   UNL A   1      26.934  28.712  22.880  1.00  0.00     0.012 C 
ATOM     22  C   UNL A   1      29.191  29.644  22.233  1.00  0.00     0.163 C 
ATOM     23  C   UNL A   1      27.633  27.828  23.911  1.00  0.00     0.006 C 
ATOM     24  C   UNL A   1      29.827  28.687  23.185  1.00  0.00     0.011 C 
ATOM     25  O   UNL A   1      29.844  30.193  21.350  1.00  0.00    -0.294 OA
ATOM     26  C   UNL A   1      29.037  27.443  23.444  1.00  0.00     0.041 C 
ENDBRANCH  16  18
ENDBRANCH  11  16
BRANCH  15  27
ATOM     27  O   UNL A   1      33.824  25.484  21.576  1.00  0.00    -0.507 OA
ATOM     28  H   UNL A   1      34.680  25.163  21.371  1.00  0.00     0.293 HD
ENDBRANCH  15  27
ENDBRANCH   8  10
ENDBRANCH   7   8
ENDBRANCH   6   7
ENDBRANCH   5   6
ENDBRANCH   4   5
ENDBRANCH   3   4
ENDBRANCH   2   3
ENDBRANCH   1   2
BRANCH   1  29
ATOM     29  C   UNL A   1      40.432  19.738  26.043  1.00  0.00     0.188 C 
BRANCH  29  30
ATOM     30  C   UNL A   1      41.901  19.544  26.501  1.00  0.00     0.188 C 
BRANCH  30  31
ATOM     31  O   UNL A   1      42.814  20.501  25.985  1.00  0.00    -0.376 OA
BRANCH  31  32
ATOM     32  C   UNL A   1      43.046  21.682  26.733  1.00  0.00     0.202 C 
BRANCH  32  33
ATOM     33  C   UNL A   1      42.464  21.701  28.152  1.00  0.00     0.261 C 
BRANCH  33  34
ATOM     34  O   UNL A   1      42.301  23.001  28.739  1.00  0.00    -0.460 OA
BRANCH  34  35
ATOM     35  C   UNL A   1      41.705  23.954  27.990  1.00  0.00     0.338 C 
ATOM     36  O   UNL A   1      40.542  23.991  27.630  1.00  0.00    -0.246 OA
BRANCH  35  37
ATOM     37  C   UNL A   1      42.671  25.060  27.836  1.00  0.00     0.060 A 
ATOM     38  C   UNL A   1      43.062  25.454  26.549  1.00  0.00     0.016 A 
ATOM     39  C   UNL A   1      43.163  25.726  28.960  1.00  0.00     0.016 A 
ATOM     40  C   UNL A   1      43.958  26.511  26.386  1.00  0.00     0.010 A 
ATOM     41  C   UNL A   1      44.077  26.769  28.796  1.00  0.00     0.010 A 
ATOM     42  C   UNL A   1      44.494  27.155  27.509  1.00  0.00    -0.014 A 
BRANCH  42  43
ATOM     43  C   UNL A   1      45.592  28.140  27.357  1.00  0.00     0.031 A 
ATOM     44  C   UNL A   1      45.249  29.602  27.295  1.00  0.00     0.074 A 
ATOM     45  C   UNL A   1      46.874  27.743  27.266  1.00  0.00     0.049 A 
ATOM     46  N   UNL A   1      46.033  30.630  27.093  1.00  0.00    -0.248 NA
ATOM     47  C   UNL A   1      43.832  29.949  27.483  1.00  0.00     0.031 C 
ATOM     48  C   UNL A   1      47.342  26.362  27.356  1.00  0.00     0.029 A 
ATOM     49  N   UNL A   1      48.017  28.476  27.063  1.00  0.00    -0.354 N 
ATOM     50  C   UNL A   1      45.204  31.745  27.118  1.00  0.00     0.074 A 
ATOM     51  C   UNL A   1      43.855  31.265  27.330  1.00  0.00     0.031 C 
ATOM     52  C   UNL A   1      48.677  26.345  27.195  1.00  0.00     0.029 A 
ATOM     53  C   UNL A   1      49.150  27.706  26.951  1.00  0.00     0.049 A 
ATOM     54  H   UNL A   1      48.025  29.458  27.003  1.00  0.00     0.167 HD
ATOM     55  C   UNL A   1      45.535  33.050  26.979  1.00  0.00     0.031 A 
ATOM     56  C   UNL A   1      50.415  28.058  26.652  1.00  0.00     0.031 A 
ATOM     57  C   UNL A   1      46.873  33.524  26.746  1.00  0.00     0.049 A 
ATOM     58  C   UNL A   1      50.743  29.507  26.399  1.00  0.00     0.074 A 
ATOM     59  C   UNL A   1      47.313  34.830  26.615  1.00  0.00     0.029 A 
ATOM     60  N   UNL A   1      47.983  32.710  26.589  1.00  0.00    -0.354 N 
ATOM     61  N   UNL A   1      49.960  30.556  26.468  1.00  0.00    -0.248 NA
ATOM     62  C   UNL A   1      52.131  29.819  26.028  1.00  0.00     0.031 C 
ATOM     63  C   UNL A   1      48.677  34.802  26.307  1.00  0.00     0.029 A 
ATOM     64  C   UNL A   1      49.101  33.482  26.318  1.00  0.00     0.049 A 
ATOM     65  H   UNL A   1      47.980  31.728  26.662  1.00  0.00     0.167 HD
ATOM     66  C   UNL A   1      50.762  31.651  26.167  1.00  0.00     0.074 A 
ATOM     67  C   UNL A   1      52.098  31.140  25.940  1.00  0.00     0.031 C 
ATOM     68  C   UNL A   1      50.422  32.962  26.082  1.00  0.00     0.031 A 
BRANCH  55  69
ATOM     69  C   UNL A   1      44.419  34.056  27.030  1.00  0.00    -0.014 A 
ATOM     70  C   UNL A   1      43.726  34.445  25.872  1.00  0.00     0.009 A 
ATOM     71  C   UNL A   1      44.034  34.601  28.265  1.00  0.00     0.009 A 
ATOM     72  C   UNL A   1      42.695  35.383  25.946  1.00  0.00     0.001 A 
ATOM     73  C   UNL A   1      42.983  35.516  28.341  1.00  0.00     0.001 A 
ATOM     74  C   UNL A   1      42.321  35.914  27.180  1.00  0.00     0.000 A 
ENDBRANCH  55  69
BRANCH  56  75
ATOM     75  C   UNL A   1      51.471  27.015  26.532  1.00  0.00    -0.014 A 
ATOM     76  C   UNL A   1      52.382  26.792  27.575  1.00  0.00     0.009 A 
ATOM     77  C   UNL A   1      51.586  26.253  25.358  1.00  0.00     0.009 A 
ATOM     78  C   UNL A   1      53.399  25.843  27.436  1.00  0.00     0.001 A 
ATOM     79  C   UNL A   1      52.585  25.284  25.235  1.00  0.00     0.001 A 
ATOM     80  C   UNL A   1      53.495  25.087  26.270  1.00  0.00     0.000 A 
ENDBRANCH  56  75
BRANCH  68  81
ATOM     81  C   UNL A   1      51.514  33.940  25.745  1.00  0.00    -0.014 A 
ATOM     82  C   UNL A   1      52.327  34.496  26.746  1.00  0.00     0.009 A 
ATOM     83  C   UNL A   1      51.768  34.269  24.405  1.00  0.00     0.009 A 
ATOM     84  C   UNL A   1      53.350  35.386  26.412  1.00  0.00     0.001 A 
ATOM     85  C   UNL A   1      52.813  35.134  24.071  1.00  0.00     0.001 A 
ATOM     86  C   UNL A   1      53.597  35.699  25.075  1.00  0.00     0.000 A 
ENDBRANCH  68  81
ENDBRANCH  42  43
ENDBRANCH  35  37
ENDBRANCH  34  35
ENDBRANCH  33  34
ENDBRANCH  32  33
ENDBRANCH  31  32
ENDBRANCH  30  31
ENDBRANCH  29  30
ENDBRANCH   1  29
TORSDOF 23
ENDMDL
