MODEL 1
REMARK VINA RESULT:      -9.8      0.000      0.000
REMARK SMILES O=C(CCC(=O)N1CCCn2nc(-c3ccccc3)cc21)OCCOCCOCCOCCOC(=O)c1ccc(-c2c3nc(c(-c4ccccc4)c4ccc([nH]4)c(-c4ccccc4)c4nc(c(-c5ccccc5)c5ccc2[nH]5)C=C4)C=C3)cc1
REMARK SMILES IDX 27 1 26 2 25 3 24 4 23 5 22 6 2 7 1 8 3 9 4 10 5 11 6 12
REMARK SMILES IDX 7 13 8 14 21 15 9 16 11 17 20 18 10 19 12 20 13 21 14 22
REMARK SMILES IDX 15 23 19 24 16 25 18 26 17 27 28 28 29 29 30 30 31 31 32 32
REMARK SMILES IDX 33 33 34 34 35 35 36 36 37 37 38 38 84 39 39 40 83 41 40 42
REMARK SMILES IDX 41 43 42 44 77 45 43 46 82 47 76 48 78 49 44 50 81 51 75 52
REMARK SMILES IDX 74 53 45 55 67 56 52 57 66 58 53 59 56 60 65 61 79 62 54 63
REMARK SMILES IDX 55 64 64 66 80 67 57 68 46 69 47 70 51 71 48 72 50 73 49 74
REMARK SMILES IDX 68 75 69 76 73 77 70 78 72 79 71 80 58 81 59 82 63 83 60 84
REMARK SMILES IDX 62 85 61 86
REMARK H PARENT 78 54 56 65
REMARK Flexibility Score: inf
ROOT
ATOM      1  C   UNL A   1      32.487  23.896  26.707  1.00  0.00     0.188 C 
ENDROOT
BRANCH   1   2
ATOM      2  C   UNL A   1      30.983  24.193  26.550  1.00  0.00     0.188 C 
BRANCH   2   3
ATOM      3  O   UNL A   1      30.690  25.584  26.502  1.00  0.00    -0.376 OA
BRANCH   3   4
ATOM      4  C   UNL A   1      31.606  26.516  27.035  1.00  0.00     0.202 C 
BRANCH   4   5
ATOM      5  C   UNL A   1      31.300  27.963  26.670  1.00  0.00     0.261 C 
BRANCH   5   6
ATOM      6  O   UNL A   1      32.468  28.798  26.526  1.00  0.00    -0.463 OA
BRANCH   6   7
ATOM      7  C   UNL A   1      33.694  28.397  26.140  1.00  0.00     0.306 C 
ATOM      8  O   UNL A   1      34.676  28.669  26.824  1.00  0.00    -0.252 OA
BRANCH   7   9
ATOM      9  C   UNL A   1      33.782  27.417  25.019  1.00  0.00     0.132 C 
BRANCH   9  10
ATOM     10  C   UNL A   1      34.180  28.169  23.763  1.00  0.00     0.112 C 
BRANCH  10  11
ATOM     11  C   UNL A   1      33.515  27.529  22.579  1.00  0.00     0.228 C 
ATOM     12  O   UNL A   1      34.048  27.608  21.476  1.00  0.00    -0.274 OA
BRANCH  11  13
ATOM     13  N   UNL A   1      32.185  26.955  22.691  1.00  0.00    -0.297 N 
ATOM     14  C   UNL A   1      31.814  25.573  22.286  1.00  0.00     0.129 C 
ATOM     15  C   UNL A   1      31.104  27.764  23.045  1.00  0.00     0.134 A 
ATOM     16  C   UNL A   1      30.787  25.010  23.276  1.00  0.00     0.046 C 
ATOM     17  N   UNL A   1      29.845  27.286  23.290  1.00  0.00    -0.249 N 
ATOM     18  C   UNL A   1      30.988  29.126  23.054  1.00  0.00     0.077 A 
ATOM     19  C   UNL A   1      29.523  25.873  23.314  1.00  0.00     0.148 C 
ATOM     20  N   UNL A   1      28.890  28.225  23.209  1.00  0.00    -0.171 NA
ATOM     21  C   UNL A   1      29.585  29.346  22.952  1.00  0.00     0.095 A 
BRANCH  21  22
ATOM     22  C   UNL A   1      28.982  30.547  22.398  1.00  0.00     0.002 A 
ATOM     23  C   UNL A   1      28.446  30.591  21.113  1.00  0.00     0.010 A 
ATOM     24  C   UNL A   1      28.980  31.708  23.195  1.00  0.00     0.010 A 
ATOM     25  C   UNL A   1      27.891  31.784  20.641  1.00  0.00     0.001 A 
ATOM     26  C   UNL A   1      28.436  32.895  22.719  1.00  0.00     0.001 A 
ATOM     27  C   UNL A   1      27.886  32.931  21.442  1.00  0.00     0.000 A 
ENDBRANCH  21  22
ENDBRANCH  11  13
ENDBRANCH  10  11
ENDBRANCH   9  10
ENDBRANCH   7   9
ENDBRANCH   6   7
ENDBRANCH   5   6
ENDBRANCH   4   5
ENDBRANCH   3   4
ENDBRANCH   2   3
ENDBRANCH   1   2
BRANCH   1  28
ATOM     28  O   UNL A   1      33.302  24.280  25.605  1.00  0.00    -0.377 OA
BRANCH  28  29
ATOM     29  C   UNL A   1      33.799  23.206  24.818  1.00  0.00     0.188 C 
BRANCH  29  30
ATOM     30  C   UNL A   1      34.054  21.876  25.564  1.00  0.00     0.188 C 
BRANCH  30  31
ATOM     31  O   UNL A   1      34.538  20.717  24.898  1.00  0.00    -0.376 OA
BRANCH  31  32
ATOM     32  C   UNL A   1      35.924  20.416  24.891  1.00  0.00     0.202 C 
BRANCH  32  33
ATOM     33  C   UNL A   1      36.871  21.269  25.745  1.00  0.00     0.261 C 
BRANCH  33  34
ATOM     34  O   UNL A   1      38.143  21.547  25.141  1.00  0.00    -0.460 OA
BRANCH  34  35
ATOM     35  C   UNL A   1      39.208  21.310  25.934  1.00  0.00     0.338 C 
ATOM     36  O   UNL A   1      39.912  20.300  25.953  1.00  0.00    -0.246 OA
BRANCH  35  37
ATOM     37  C   UNL A   1      39.565  22.522  26.694  1.00  0.00     0.060 A 
ATOM     38  C   UNL A   1      38.893  23.712  26.374  1.00  0.00     0.016 A 
ATOM     39  C   UNL A   1      40.593  22.519  27.639  1.00  0.00     0.016 A 
ATOM     40  C   UNL A   1      39.305  24.918  26.924  1.00  0.00     0.010 A 
ATOM     41  C   UNL A   1      41.036  23.738  28.163  1.00  0.00     0.010 A 
ATOM     42  C   UNL A   1      40.439  24.941  27.743  1.00  0.00    -0.014 A 
BRANCH  42  43
ATOM     43  C   UNL A   1      41.194  26.212  27.814  1.00  0.00     0.031 A 
ATOM     44  C   UNL A   1      40.615  27.306  28.678  1.00  0.00     0.074 A 
ATOM     45  C   UNL A   1      42.390  26.367  27.224  1.00  0.00     0.049 A 
ATOM     46  N   UNL A   1      41.093  28.490  28.956  1.00  0.00    -0.248 NA
ATOM     47  C   UNL A   1      39.321  27.014  29.323  1.00  0.00     0.031 C 
ATOM     48  C   UNL A   1      43.086  25.356  26.432  1.00  0.00     0.029 A 
ATOM     49  N   UNL A   1      43.236  27.446  27.220  1.00  0.00    -0.354 N 
ATOM     50  C   UNL A   1      40.157  29.083  29.795  1.00  0.00     0.074 A 
ATOM     51  C   UNL A   1      39.074  28.144  29.963  1.00  0.00     0.031 C 
ATOM     52  C   UNL A   1      44.261  25.865  26.018  1.00  0.00     0.029 A 
ATOM     53  C   UNL A   1      44.383  27.241  26.496  1.00  0.00     0.049 A 
ATOM     54  H   UNL A   1      43.038  28.287  27.691  1.00  0.00     0.167 HD
ATOM     55  C   UNL A   1      40.194  30.300  30.382  1.00  0.00     0.031 A 
ATOM     56  C   UNL A   1      45.408  28.079  26.248  1.00  0.00     0.031 A 
ATOM     57  C   UNL A   1      41.263  31.241  30.205  1.00  0.00     0.049 A 
ATOM     58  C   UNL A   1      45.388  29.462  26.846  1.00  0.00     0.074 A 
ATOM     59  C   UNL A   1      41.401  32.505  30.749  1.00  0.00     0.029 A 
ATOM     60  N   UNL A   1      42.379  31.016  29.415  1.00  0.00    -0.354 N 
ATOM     61  N   UNL A   1      44.503  30.008  27.646  1.00  0.00    -0.248 NA
ATOM     62  C   UNL A   1      46.521  30.339  26.513  1.00  0.00     0.031 C 
ATOM     63  C   UNL A   1      42.577  33.068  30.242  1.00  0.00     0.029 A 
ATOM     64  C   UNL A   1      43.200  32.128  29.436  1.00  0.00     0.049 A 
ATOM     65  H   UNL A   1      42.559  30.189  28.912  1.00  0.00     0.167 HD
ATOM     66  C   UNL A   1      44.993  31.275  27.947  1.00  0.00     0.074 A 
ATOM     67  C   UNL A   1      46.253  31.411  27.247  1.00  0.00     0.031 C 
ATOM     68  C   UNL A   1      44.455  32.236  28.738  1.00  0.00     0.031 A 
BRANCH  55  69
ATOM     69  C   UNL A   1      39.010  30.692  31.221  1.00  0.00    -0.014 A 
ATOM     70  C   UNL A   1      37.895  31.339  30.662  1.00  0.00     0.009 A 
ATOM     71  C   UNL A   1      39.017  30.418  32.596  1.00  0.00     0.009 A 
ATOM     72  C   UNL A   1      36.830  31.738  31.473  1.00  0.00     0.001 A 
ATOM     73  C   UNL A   1      37.938  30.791  33.399  1.00  0.00     0.001 A 
ATOM     74  C   UNL A   1      36.851  31.460  32.839  1.00  0.00     0.000 A 
ENDBRANCH  55  69
BRANCH  56  75
ATOM     75  C   UNL A   1      46.543  27.641  25.394  1.00  0.00    -0.014 A 
ATOM     76  C   UNL A   1      47.571  26.845  25.923  1.00  0.00     0.009 A 
ATOM     77  C   UNL A   1      46.619  28.042  24.052  1.00  0.00     0.009 A 
ATOM     78  C   UNL A   1      48.664  26.484  25.131  1.00  0.00     0.001 A 
ATOM     79  C   UNL A   1      47.698  27.657  23.255  1.00  0.00     0.001 A 
ATOM     80  C   UNL A   1      48.724  26.886  23.798  1.00  0.00     0.000 A 
ENDBRANCH  56  75
BRANCH  68  81
ATOM     81  C   UNL A   1      45.255  33.493  28.936  1.00  0.00    -0.014 A 
ATOM     82  C   UNL A   1      46.176  33.622  29.987  1.00  0.00     0.009 A 
ATOM     83  C   UNL A   1      45.108  34.552  28.025  1.00  0.00     0.009 A 
ATOM     84  C   UNL A   1      46.902  34.803  30.145  1.00  0.00     0.001 A 
ATOM     85  C   UNL A   1      45.858  35.719  28.167  1.00  0.00     0.001 A 
ATOM     86  C   UNL A   1      46.746  35.848  29.234  1.00  0.00     0.000 A 
ENDBRANCH  68  81
ENDBRANCH  42  43
ENDBRANCH  35  37
ENDBRANCH  34  35
ENDBRANCH  33  34
ENDBRANCH  32  33
ENDBRANCH  31  32
ENDBRANCH  30  31
ENDBRANCH  29  30
ENDBRANCH  28  29
ENDBRANCH   1  28
TORSDOF 24
ENDMDL
MODEL 2
REMARK VINA RESULT:      -9.6      4.539     10.561
REMARK SMILES O=C(CCC(=O)N1CCCn2nc(-c3ccccc3)cc21)OCCOCCOCCOCCOC(=O)c1ccc(-c2c3nc(c(-c4ccccc4)c4ccc([nH]4)c(-c4ccccc4)c4nc(c(-c5ccccc5)c5ccc2[nH]5)C=C4)C=C3)cc1
REMARK SMILES IDX 27 1 26 2 25 3 24 4 23 5 22 6 2 7 1 8 3 9 4 10 5 11 6 12
REMARK SMILES IDX 7 13 8 14 21 15 9 16 11 17 20 18 10 19 12 20 13 21 14 22
REMARK SMILES IDX 15 23 19 24 16 25 18 26 17 27 28 28 29 29 30 30 31 31 32 32
REMARK SMILES IDX 33 33 34 34 35 35 36 36 37 37 38 38 84 39 39 40 83 41 40 42
REMARK SMILES IDX 41 43 42 44 77 45 43 46 82 47 76 48 78 49 44 50 81 51 75 52
REMARK SMILES IDX 74 53 45 55 67 56 52 57 66 58 53 59 56 60 65 61 79 62 54 63
REMARK SMILES IDX 55 64 64 66 80 67 57 68 46 69 47 70 51 71 48 72 50 73 49 74
REMARK SMILES IDX 68 75 69 76 73 77 70 78 72 79 71 80 58 81 59 82 63 83 60 84
REMARK SMILES IDX 62 85 61 86
REMARK H PARENT 78 54 56 65
REMARK Flexibility Score: inf
ROOT
ATOM      1  C   UNL A   1      33.713  25.441  25.324  1.00  0.00     0.188 C 
ENDROOT
BRANCH   1   2
ATOM      2  C   UNL A   1      33.701  24.093  26.070  1.00  0.00     0.188 C 
BRANCH   2   3
ATOM      3  O   UNL A   1      34.602  23.142  25.519  1.00  0.00    -0.376 OA
BRANCH   3   4
ATOM      4  C   UNL A   1      35.805  23.574  24.919  1.00  0.00     0.202 C 
BRANCH   4   5
ATOM      5  C   UNL A   1      37.018  23.497  25.837  1.00  0.00     0.261 C 
BRANCH   5   6
ATOM      6  O   UNL A   1      37.831  22.319  25.647  1.00  0.00    -0.463 OA
BRANCH   6   7
ATOM      7  C   UNL A   1      39.075  22.122  26.121  1.00  0.00     0.306 C 
ATOM      8  O   UNL A   1      39.587  22.947  26.872  1.00  0.00    -0.252 OA
BRANCH   7   9
ATOM      9  C   UNL A   1      39.690  20.779  25.916  1.00  0.00     0.132 C 
BRANCH   9  10
ATOM     10  C   UNL A   1      41.073  20.791  26.542  1.00  0.00     0.112 C 
BRANCH  10  11
ATOM     11  C   UNL A   1      41.900  19.704  25.919  1.00  0.00     0.228 C 
ATOM     12  O   UNL A   1      41.421  18.580  25.798  1.00  0.00    -0.274 OA
BRANCH  11  13
ATOM     13  N   UNL A   1      43.300  19.923  25.600  1.00  0.00    -0.297 N 
ATOM     14  C   UNL A   1      44.254  18.865  25.171  1.00  0.00     0.129 C 
ATOM     15  C   UNL A   1      43.888  21.163  25.854  1.00  0.00     0.134 A 
ATOM     16  C   UNL A   1      45.210  19.438  24.117  1.00  0.00     0.046 C 
ATOM     17  N   UNL A   1      45.161  21.492  25.476  1.00  0.00    -0.249 N 
ATOM     18  C   UNL A   1      43.456  22.200  26.633  1.00  0.00     0.077 A 
ATOM     19  C   UNL A   1      46.001  20.625  24.675  1.00  0.00     0.148 C 
ATOM     20  N   UNL A   1      45.667  22.536  26.151  1.00  0.00    -0.171 NA
ATOM     21  C   UNL A   1      44.651  22.906  26.948  1.00  0.00     0.095 A 
BRANCH  21  22
ATOM     22  C   UNL A   1      44.827  23.731  28.132  1.00  0.00     0.002 A 
ATOM     23  C   UNL A   1      45.856  24.662  28.250  1.00  0.00     0.010 A 
ATOM     24  C   UNL A   1      43.932  23.542  29.202  1.00  0.00     0.010 A 
ATOM     25  C   UNL A   1      45.972  25.413  29.422  1.00  0.00     0.001 A 
ATOM     26  C   UNL A   1      44.055  24.285  30.371  1.00  0.00     0.001 A 
ATOM     27  C   UNL A   1      45.074  25.225  30.478  1.00  0.00     0.000 A 
ENDBRANCH  21  22
ENDBRANCH  11  13
ENDBRANCH  10  11
ENDBRANCH   9  10
ENDBRANCH   7   9
ENDBRANCH   6   7
ENDBRANCH   5   6
ENDBRANCH   4   5
ENDBRANCH   3   4
ENDBRANCH   2   3
ENDBRANCH   1   2
BRANCH   1  28
ATOM     28  O   UNL A   1      33.666  26.598  26.153  1.00  0.00    -0.377 OA
BRANCH  28  29
ATOM     29  C   UNL A   1      32.368  27.130  26.376  1.00  0.00     0.188 C 
BRANCH  29  30
ATOM     30  C   UNL A   1      31.884  28.192  25.362  1.00  0.00     0.188 C 
BRANCH  30  31
ATOM     31  O   UNL A   1      31.999  29.586  25.615  1.00  0.00    -0.376 OA
BRANCH  31  32
ATOM     32  C   UNL A   1      32.239  30.062  26.928  1.00  0.00     0.202 C 
BRANCH  32  33
ATOM     33  C   UNL A   1      32.269  31.576  27.174  1.00  0.00     0.261 C 
BRANCH  33  34
ATOM     34  O   UNL A   1      33.568  32.119  27.448  1.00  0.00    -0.460 OA
BRANCH  34  35
ATOM     35  C   UNL A   1      33.561  33.295  28.107  1.00  0.00     0.338 C 
ATOM     36  O   UNL A   1      32.705  34.179  28.045  1.00  0.00    -0.246 OA
BRANCH  35  37
ATOM     37  C   UNL A   1      34.654  33.341  29.094  1.00  0.00     0.060 A 
ATOM     38  C   UNL A   1      35.934  33.684  28.632  1.00  0.00     0.016 A 
ATOM     39  C   UNL A   1      34.456  32.973  30.427  1.00  0.00     0.016 A 
ATOM     40  C   UNL A   1      37.035  33.571  29.470  1.00  0.00     0.010 A 
ATOM     41  C   UNL A   1      35.568  32.819  31.261  1.00  0.00     0.010 A 
ATOM     42  C   UNL A   1      36.862  33.046  30.754  1.00  0.00    -0.014 A 
BRANCH  42  43
ATOM     43  C   UNL A   1      38.031  32.386  31.377  1.00  0.00     0.031 A 
ATOM     44  C   UNL A   1      38.446  32.872  32.744  1.00  0.00     0.074 A 
ATOM     45  C   UNL A   1      38.645  31.336  30.810  1.00  0.00     0.049 A 
ATOM     46  N   UNL A   1      39.395  32.439  33.531  1.00  0.00    -0.248 NA
ATOM     47  C   UNL A   1      37.673  33.999  33.300  1.00  0.00     0.031 C 
ATOM     48  C   UNL A   1      38.284  30.726  29.532  1.00  0.00     0.029 A 
ATOM     49  N   UNL A   1      39.702  30.587  31.258  1.00  0.00    -0.354 N 
ATOM     50  C   UNL A   1      39.337  33.244  34.663  1.00  0.00     0.074 A 
ATOM     51  C   UNL A   1      38.281  34.205  34.455  1.00  0.00     0.031 C 
ATOM     52  C   UNL A   1      39.110  29.689  29.298  1.00  0.00     0.029 A 
ATOM     53  C   UNL A   1      40.068  29.582  30.398  1.00  0.00     0.049 A 
ATOM     54  H   UNL A   1      40.155  30.754  32.115  1.00  0.00     0.167 HD
ATOM     55  C   UNL A   1      40.092  33.187  35.784  1.00  0.00     0.031 A 
ATOM     56  C   UNL A   1      41.068  28.685  30.493  1.00  0.00     0.031 A 
ATOM     57  C   UNL A   1      41.152  32.242  35.987  1.00  0.00     0.049 A 
ATOM     58  C   UNL A   1      41.950  28.695  31.715  1.00  0.00     0.074 A 
ATOM     59  C   UNL A   1      41.984  32.098  37.082  1.00  0.00     0.029 A 
ATOM     60  N   UNL A   1      41.528  31.279  35.064  1.00  0.00    -0.354 N 
ATOM     61  N   UNL A   1      41.880  29.453  32.784  1.00  0.00    -0.248 NA
ATOM     62  C   UNL A   1      43.042  27.711  31.746  1.00  0.00     0.031 C 
ATOM     63  C   UNL A   1      42.901  31.081  36.798  1.00  0.00     0.029 A 
ATOM     64  C   UNL A   1      42.596  30.552  35.554  1.00  0.00     0.049 A 
ATOM     65  H   UNL A   1      41.099  31.136  34.190  1.00  0.00     0.167 HD
ATOM     66  C   UNL A   1      42.889  29.010  33.631  1.00  0.00     0.074 A 
ATOM     67  C   UNL A   1      43.552  27.915  32.953  1.00  0.00     0.031 C 
ATOM     68  C   UNL A   1      43.234  29.460  34.863  1.00  0.00     0.031 A 
BRANCH  55  69
ATOM     69  C   UNL A   1      39.824  34.220  36.842  1.00  0.00    -0.014 A 
ATOM     70  C   UNL A   1      40.409  35.497  36.789  1.00  0.00     0.009 A 
ATOM     71  C   UNL A   1      38.979  33.905  37.917  1.00  0.00     0.009 A 
ATOM     72  C   UNL A   1      40.184  36.420  37.812  1.00  0.00     0.001 A 
ATOM     73  C   UNL A   1      38.732  34.840  38.923  1.00  0.00     0.001 A 
ATOM     74  C   UNL A   1      39.342  36.092  38.876  1.00  0.00     0.000 A 
ENDBRANCH  55  69
BRANCH  56  75
ATOM     75  C   UNL A   1      41.296  27.700  29.404  1.00  0.00    -0.014 A 
ATOM     76  C   UNL A   1      40.514  26.538  29.315  1.00  0.00     0.009 A 
ATOM     77  C   UNL A   1      42.318  27.903  28.465  1.00  0.00     0.009 A 
ATOM     78  C   UNL A   1      40.771  25.588  28.323  1.00  0.00     0.001 A 
ATOM     79  C   UNL A   1      42.555  26.965  27.458  1.00  0.00     0.001 A 
ATOM     80  C   UNL A   1      41.787  25.804  27.394  1.00  0.00     0.000 A 
ENDBRANCH  56  75
BRANCH  68  81
ATOM     81  C   UNL A   1      44.335  28.731  35.581  1.00  0.00    -0.014 A 
ATOM     82  C   UNL A   1      45.663  29.182  35.543  1.00  0.00     0.009 A 
ATOM     83  C   UNL A   1      44.023  27.592  36.340  1.00  0.00     0.009 A 
ATOM     84  C   UNL A   1      46.663  28.481  36.219  1.00  0.00     0.001 A 
ATOM     85  C   UNL A   1      45.019  26.912  37.040  1.00  0.00     0.001 A 
ATOM     86  C   UNL A   1      46.340  27.350  36.970  1.00  0.00     0.000 A 
ENDBRANCH  68  81
ENDBRANCH  42  43
ENDBRANCH  35  37
ENDBRANCH  34  35
ENDBRANCH  33  34
ENDBRANCH  32  33
ENDBRANCH  31  32
ENDBRANCH  30  31
ENDBRANCH  29  30
ENDBRANCH  28  29
ENDBRANCH   1  28
TORSDOF 24
ENDMDL
MODEL 3
REMARK VINA RESULT:      -8.9      5.423     10.346
REMARK SMILES O=C(CCC(=O)N1CCCn2nc(-c3ccccc3)cc21)OCCOCCOCCOCCOC(=O)c1ccc(-c2c3nc(c(-c4ccccc4)c4ccc([nH]4)c(-c4ccccc4)c4nc(c(-c5ccccc5)c5ccc2[nH]5)C=C4)C=C3)cc1
REMARK SMILES IDX 27 1 26 2 25 3 24 4 23 5 22 6 2 7 1 8 3 9 4 10 5 11 6 12
REMARK SMILES IDX 7 13 8 14 21 15 9 16 11 17 20 18 10 19 12 20 13 21 14 22
REMARK SMILES IDX 15 23 19 24 16 25 18 26 17 27 28 28 29 29 30 30 31 31 32 32
REMARK SMILES IDX 33 33 34 34 35 35 36 36 37 37 38 38 84 39 39 40 83 41 40 42
REMARK SMILES IDX 41 43 42 44 77 45 43 46 82 47 76 48 78 49 44 50 81 51 75 52
REMARK SMILES IDX 74 53 45 55 67 56 52 57 66 58 53 59 56 60 65 61 79 62 54 63
REMARK SMILES IDX 55 64 64 66 80 67 57 68 46 69 47 70 51 71 48 72 50 73 49 74
REMARK SMILES IDX 68 75 69 76 73 77 70 78 72 79 71 80 58 81 59 82 63 83 60 84
REMARK SMILES IDX 62 85 61 86
REMARK H PARENT 78 54 56 65
REMARK Flexibility Score: inf
ROOT
ATOM      1  C   UNL A   1      34.917  33.922  33.586  1.00  0.00     0.188 C 
ENDROOT
BRANCH   1   2
ATOM      2  C   UNL A   1      33.908  34.753  32.773  1.00  0.00     0.188 C 
BRANCH   2   3
ATOM      3  O   UNL A   1      34.417  35.176  31.514  1.00  0.00    -0.376 OA
BRANCH   3   4
ATOM      4  C   UNL A   1      33.925  34.599  30.324  1.00  0.00     0.202 C 
BRANCH   4   5
ATOM      5  C   UNL A   1      34.857  33.566  29.704  1.00  0.00     0.261 C 
BRANCH   5   6
ATOM      6  O   UNL A   1      34.244  32.281  29.468  1.00  0.00    -0.463 OA
BRANCH   6   7
ATOM      7  C   UNL A   1      34.390  31.514  28.371  1.00  0.00     0.306 C 
ATOM      8  O   UNL A   1      33.450  31.357  27.599  1.00  0.00    -0.252 OA
BRANCH   7   9
ATOM      9  C   UNL A   1      35.771  31.089  28.003  1.00  0.00     0.132 C 
BRANCH   9  10
ATOM     10  C   UNL A   1      36.018  29.716  28.600  1.00  0.00     0.112 C 
BRANCH  10  11
ATOM     11  C   UNL A   1      36.778  29.872  29.886  1.00  0.00     0.228 C 
ATOM     12  O   UNL A   1      36.265  29.495  30.935  1.00  0.00    -0.274 OA
BRANCH  11  13
ATOM     13  N   UNL A   1      38.037  30.596  29.924  1.00  0.00    -0.297 N 
ATOM     14  C   UNL A   1      38.172  32.065  30.114  1.00  0.00     0.129 C 
ATOM     15  C   UNL A   1      39.227  29.942  29.603  1.00  0.00     0.134 A 
ATOM     16  C   UNL A   1      39.409  32.356  30.974  1.00  0.00     0.046 C 
ATOM     17  N   UNL A   1      40.465  30.512  29.729  1.00  0.00    -0.249 N 
ATOM     18  C   UNL A   1      39.435  28.751  28.965  1.00  0.00     0.077 A 
ATOM     19  C   UNL A   1      40.681  31.821  30.313  1.00  0.00     0.148 C 
ATOM     20  N   UNL A   1      41.414  29.899  29.004  1.00  0.00    -0.171 NA
ATOM     21  C   UNL A   1      40.753  28.873  28.442  1.00  0.00     0.095 A 
BRANCH  21  22
ATOM     22  C   UNL A   1      41.242  28.153  27.278  1.00  0.00     0.002 A 
ATOM     23  C   UNL A   1      42.075  28.742  26.329  1.00  0.00     0.010 A 
ATOM     24  C   UNL A   1      40.819  26.822  27.104  1.00  0.00     0.010 A 
ATOM     25  C   UNL A   1      42.498  27.992  25.228  1.00  0.00     0.001 A 
ATOM     26  C   UNL A   1      41.235  26.082  26.002  1.00  0.00     0.001 A 
ATOM     27  C   UNL A   1      42.080  26.668  25.066  1.00  0.00     0.000 A 
ENDBRANCH  21  22
ENDBRANCH  11  13
ENDBRANCH  10  11
ENDBRANCH   9  10
ENDBRANCH   7   9
ENDBRANCH   6   7
ENDBRANCH   5   6
ENDBRANCH   4   5
ENDBRANCH   3   4
ENDBRANCH   2   3
ENDBRANCH   1   2
BRANCH   1  28
ATOM     28  O   UNL A   1      35.234  32.644  33.042  1.00  0.00    -0.377 OA
BRANCH  28  29
ATOM     29  C   UNL A   1      36.495  32.118  33.430  1.00  0.00     0.188 C 
BRANCH  29  30
ATOM     30  C   UNL A   1      37.245  32.892  34.539  1.00  0.00     0.188 C 
BRANCH  30  31
ATOM     31  O   UNL A   1      37.193  32.496  35.903  1.00  0.00    -0.376 OA
BRANCH  31  32
ATOM     32  C   UNL A   1      37.427  33.439  36.936  1.00  0.00     0.202 C 
BRANCH  32  33
ATOM     33  C   UNL A   1      38.705  33.315  37.775  1.00  0.00     0.261 C 
BRANCH  33  34
ATOM     34  O   UNL A   1      39.740  32.514  37.188  1.00  0.00    -0.460 OA
BRANCH  34  35
ATOM     35  C   UNL A   1      40.991  32.977  37.383  1.00  0.00     0.338 C 
ATOM     36  O   UNL A   1      41.493  33.343  38.446  1.00  0.00    -0.246 OA
BRANCH  35  37
ATOM     37  C   UNL A   1      41.794  32.825  36.156  1.00  0.00     0.060 A 
ATOM     38  C   UNL A   1      41.117  32.857  34.927  1.00  0.00     0.016 A 
ATOM     39  C   UNL A   1      43.167  32.571  36.204  1.00  0.00     0.016 A 
ATOM     40  C   UNL A   1      41.785  32.544  33.751  1.00  0.00     0.010 A 
ATOM     41  C   UNL A   1      43.832  32.216  35.026  1.00  0.00     0.010 A 
ATOM     42  C   UNL A   1      43.119  32.129  33.816  1.00  0.00    -0.014 A 
BRANCH  42  43
ATOM     43  C   UNL A   1      43.608  31.257  32.724  1.00  0.00     0.031 A 
ATOM     44  C   UNL A   1      43.657  29.774  33.000  1.00  0.00     0.074 A 
ATOM     45  C   UNL A   1      43.903  31.736  31.505  1.00  0.00     0.049 A 
ATOM     46  N   UNL A   1      43.993  28.790  32.209  1.00  0.00    -0.248 NA
ATOM     47  C   UNL A   1      43.263  29.348  34.356  1.00  0.00     0.031 C 
ATOM     48  C   UNL A   1      43.817  33.136  31.096  1.00  0.00     0.029 A 
ATOM     49  N   UNL A   1      44.326  31.078  30.379  1.00  0.00    -0.354 N 
ATOM     50  C   UNL A   1      43.860  27.636  32.974  1.00  0.00     0.074 A 
ATOM     51  C   UNL A   1      43.439  28.040  34.293  1.00  0.00     0.031 C 
ATOM     52  C   UNL A   1      44.176  33.231  29.802  1.00  0.00     0.029 A 
ATOM     53  C   UNL A   1      44.538  31.905  29.306  1.00  0.00     0.049 A 
ATOM     54  H   UNL A   1      44.463  30.104  30.345  1.00  0.00     0.167 HD
ATOM     55  C   UNL A   1      44.065  26.349  32.611  1.00  0.00     0.031 A 
ATOM     56  C   UNL A   1      44.980  31.616  28.067  1.00  0.00     0.031 A 
ATOM     57  C   UNL A   1      44.499  25.947  31.303  1.00  0.00     0.049 A 
ATOM     58  C   UNL A   1      45.281  30.183  27.710  1.00  0.00     0.074 A 
ATOM     59  C   UNL A   1      44.742  24.671  30.828  1.00  0.00     0.029 A 
ATOM     60  N   UNL A   1      44.760  26.823  30.262  1.00  0.00    -0.354 N 
ATOM     61  N   UNL A   1      45.142  29.099  28.437  1.00  0.00    -0.248 NA
ATOM     62  C   UNL A   1      45.789  29.935  26.353  1.00  0.00     0.031 C 
ATOM     63  C   UNL A   1      45.203  24.780  29.513  1.00  0.00     0.029 A 
ATOM     64  C   UNL A   1      45.184  26.119  29.152  1.00  0.00     0.049 A 
ATOM     65  H   UNL A   1      44.658  27.801  30.308  1.00  0.00     0.167 HD
ATOM     66  C   UNL A   1      45.503  28.039  27.612  1.00  0.00     0.074 A 
ATOM     67  C   UNL A   1      45.862  28.611  26.331  1.00  0.00     0.031 C 
ATOM     68  C   UNL A   1      45.528  26.711  27.884  1.00  0.00     0.031 A 
BRANCH  55  69
ATOM     69  C   UNL A   1      43.875  25.301  33.671  1.00  0.00    -0.014 A 
ATOM     70  C   UNL A   1      42.792  25.347  34.565  1.00  0.00     0.009 A 
ATOM     71  C   UNL A   1      44.803  24.255  33.781  1.00  0.00     0.009 A 
ATOM     72  C   UNL A   1      42.668  24.388  35.573  1.00  0.00     0.001 A 
ATOM     73  C   UNL A   1      44.659  23.281  34.770  1.00  0.00     0.001 A 
ATOM     74  C   UNL A   1      43.599  23.354  35.672  1.00  0.00     0.000 A 
ENDBRANCH  55  69
BRANCH  56  75
ATOM     75  C   UNL A   1      45.167  32.699  27.067  1.00  0.00    -0.014 A 
ATOM     76  C   UNL A   1      46.379  33.402  26.992  1.00  0.00     0.009 A 
ATOM     77  C   UNL A   1      44.122  33.055  26.201  1.00  0.00     0.009 A 
ATOM     78  C   UNL A   1      46.530  34.457  26.089  1.00  0.00     0.001 A 
ATOM     79  C   UNL A   1      44.284  34.092  25.280  1.00  0.00     0.001 A 
ATOM     80  C   UNL A   1      45.485  34.798  25.232  1.00  0.00     0.000 A 
ENDBRANCH  56  75
BRANCH  68  81
ATOM     81  C   UNL A   1      45.897  25.783  26.761  1.00  0.00    -0.014 A 
ATOM     82  C   UNL A   1      47.235  25.549  26.409  1.00  0.00     0.009 A 
ATOM     83  C   UNL A   1      44.881  25.104  26.069  1.00  0.00     0.009 A 
ATOM     84  C   UNL A   1      47.545  24.683  25.359  1.00  0.00     0.001 A 
ATOM     85  C   UNL A   1      45.196  24.215  25.042  1.00  0.00     0.001 A 
ATOM     86  C   UNL A   1      46.526  24.014  24.680  1.00  0.00     0.000 A 
ENDBRANCH  68  81
ENDBRANCH  42  43
ENDBRANCH  35  37
ENDBRANCH  34  35
ENDBRANCH  33  34
ENDBRANCH  32  33
ENDBRANCH  31  32
ENDBRANCH  30  31
ENDBRANCH  29  30
ENDBRANCH  28  29
ENDBRANCH   1  28
TORSDOF 24
ENDMDL
