MODEL 1
REMARK VINA RESULT:      -8.6      0.000      0.000
REMARK SMILES C[C@H](C(=O)OCCOCCOCCOCCOC(=O)c1ccc(-c2c3nc(c(-c4ccccc4)c4ccc([nH]4)c(-c4ccccc4)c4nc(c(-c5ccccc5)c5ccc2[nH]5)C=C4)C=C3)cc1)[C@H](C)S(C)(=O)=O
REMARK SMILES IDX 11 1 10 2 9 3 8 4 7 5 6 6 5 7 3 8 4 9 2 10 1 11 68 12 69 13
REMARK SMILES IDX 70 14 71 15 72 16 73 17 12 18 13 19 14 20 15 21 16 22 17 23
REMARK SMILES IDX 18 24 19 25 20 26 21 27 67 28 22 29 66 30 23 31 24 32 25 33
REMARK SMILES IDX 60 34 26 35 65 36 59 37 61 38 27 39 64 40 58 41 57 42 28 44
REMARK SMILES IDX 50 45 35 46 49 47 36 48 39 49 48 50 62 51 37 52 38 53 47 55
REMARK SMILES IDX 63 56 40 57 29 58 30 59 34 60 31 61 33 62 32 63 51 64 52 65
REMARK SMILES IDX 56 66 53 67 55 68 54 69 41 70 42 71 46 72 43 73 45 74 44 75
REMARK H PARENT 61 43 39 54
REMARK Flexibility Score: inf
ROOT
ATOM      1  O   UNL A   1      39.670  20.839  26.839  1.00  0.00    -0.377 OA
ENDROOT
BRANCH   1   2
ATOM      2  C   UNL A   1      39.320  21.913  25.982  1.00  0.00     0.188 C 
BRANCH   2   3
ATOM      3  C   UNL A   1      37.889  21.920  25.444  1.00  0.00     0.188 C 
BRANCH   3   4
ATOM      4  O   UNL A   1      37.109  23.083  25.648  1.00  0.00    -0.376 OA
BRANCH   4   5
ATOM      5  C   UNL A   1      35.801  23.189  25.093  1.00  0.00     0.202 C 
BRANCH   5   6
ATOM      6  C   UNL A   1      34.854  24.357  25.418  1.00  0.00     0.261 C 
BRANCH   6   7
ATOM      7  O   UNL A   1      34.193  24.935  24.275  1.00  0.00    -0.463 OA
BRANCH   7   8
ATOM      8  C   UNL A   1      33.322  25.935  24.555  1.00  0.00     0.310 C 
ATOM      9  O   UNL A   1      33.032  26.826  23.762  1.00  0.00    -0.252 OA
BRANCH   8  10
ATOM     10  C   UNL A   1      32.567  25.787  25.870  1.00  0.00     0.114 C 
ATOM     11  C   UNL A   1      32.363  27.037  26.730  1.00  0.00     0.021 C 
BRANCH  10  12
ATOM     12  C   UNL A   1      31.240  25.016  25.655  1.00  0.00     0.119 C 
ATOM     13  C   UNL A   1      30.011  25.920  25.805  1.00  0.00     0.026 C 
BRANCH  12  14
ATOM     14  S   UNL A   1      31.127  23.540  26.714  1.00  0.00     0.150 S 
ATOM     15  C   UNL A   1      31.330  22.183  25.594  1.00  0.00     0.158 C 
ATOM     16  O   UNL A   1      32.285  23.523  27.587  1.00  0.00    -0.229 OA
ATOM     17  O   UNL A   1      29.799  23.416  27.276  1.00  0.00    -0.229 OA
ENDBRANCH  12  14
ENDBRANCH  10  12
ENDBRANCH   8  10
ENDBRANCH   7   8
ENDBRANCH   6   7
ENDBRANCH   5   6
ENDBRANCH   4   5
ENDBRANCH   3   4
ENDBRANCH   2   3
ENDBRANCH   1   2
BRANCH   1  18
ATOM     18  C   UNL A   1      40.784  20.008  26.509  1.00  0.00     0.188 C 
BRANCH  18  19
ATOM     19  C   UNL A   1      42.134  20.356  27.141  1.00  0.00     0.188 C 
BRANCH  19  20
ATOM     20  O   UNL A   1      42.921  21.369  26.506  1.00  0.00    -0.376 OA
BRANCH  20  21
ATOM     21  C   UNL A   1      43.860  20.988  25.504  1.00  0.00     0.202 C 
BRANCH  21  22
ATOM     22  C   UNL A   1      44.139  22.059  24.453  1.00  0.00     0.261 C 
BRANCH  22  23
ATOM     23  O   UNL A   1      43.359  23.241  24.677  1.00  0.00    -0.460 OA
BRANCH  23  24
ATOM     24  C   UNL A   1      44.082  24.350  24.957  1.00  0.00     0.338 C 
ATOM     25  O   UNL A   1      45.180  24.654  24.532  1.00  0.00    -0.246 OA
BRANCH  24  26
ATOM     26  C   UNL A   1      43.273  25.248  25.800  1.00  0.00     0.060 A 
ATOM     27  C   UNL A   1      43.614  26.606  25.839  1.00  0.00     0.016 A 
ATOM     28  C   UNL A   1      42.256  24.739  26.609  1.00  0.00     0.016 A 
ATOM     29  C   UNL A   1      42.976  27.454  26.736  1.00  0.00     0.010 A 
ATOM     30  C   UNL A   1      41.625  25.585  27.518  1.00  0.00     0.010 A 
ATOM     31  C   UNL A   1      42.019  26.932  27.614  1.00  0.00    -0.014 A 
BRANCH  31  32
ATOM     32  C   UNL A   1      41.577  27.735  28.772  1.00  0.00     0.031 A 
ATOM     33  C   UNL A   1      42.336  27.602  30.061  1.00  0.00     0.074 A 
ATOM     34  C   UNL A   1      40.529  28.568  28.668  1.00  0.00     0.049 A 
ATOM     35  N   UNL A   1      42.091  28.140  31.227  1.00  0.00    -0.248 NA
ATOM     36  C   UNL A   1      43.528  26.737  30.034  1.00  0.00     0.031 C 
ATOM     37  C   UNL A   1      39.758  28.810  27.450  1.00  0.00     0.029 A 
ATOM     38  N   UNL A   1      39.931  29.356  29.615  1.00  0.00    -0.354 N 
ATOM     39  C   UNL A   1      43.089  27.670  32.072  1.00  0.00     0.074 A 
ATOM     40  C   UNL A   1      43.922  26.779  31.297  1.00  0.00     0.031 C 
ATOM     41  C   UNL A   1      38.772  29.681  27.729  1.00  0.00     0.029 A 
ATOM     42  C   UNL A   1      38.824  30.021  29.149  1.00  0.00     0.049 A 
ATOM     43  H   UNL A   1      40.261  29.438  30.538  1.00  0.00     0.167 HD
ATOM     44  C   UNL A   1      43.293  27.961  33.378  1.00  0.00     0.031 A 
ATOM     45  C   UNL A   1      37.938  30.790  29.809  1.00  0.00     0.031 A 
ATOM     46  C   UNL A   1      42.444  28.833  34.143  1.00  0.00     0.049 A 
ATOM     47  C   UNL A   1      38.137  31.030  31.282  1.00  0.00     0.074 A 
ATOM     48  C   UNL A   1      42.559  29.204  35.471  1.00  0.00     0.029 A 
ATOM     49  N   UNL A   1      41.313  29.464  33.646  1.00  0.00    -0.354 N 
ATOM     50  N   UNL A   1      39.092  30.597  32.070  1.00  0.00    -0.248 NA
ATOM     51  C   UNL A   1      37.137  31.871  31.953  1.00  0.00     0.031 C 
ATOM     52  C   UNL A   1      41.461  30.008  35.793  1.00  0.00     0.029 A 
ATOM     53  C   UNL A   1      40.703  30.199  34.648  1.00  0.00     0.049 A 
ATOM     54  H   UNL A   1      40.991  29.399  32.718  1.00  0.00     0.167 HD
ATOM     55  C   UNL A   1      38.827  31.140  33.322  1.00  0.00     0.074 A 
ATOM     56  C   UNL A   1      37.629  31.945  33.182  1.00  0.00     0.031 C 
ATOM     57  C   UNL A   1      39.511  30.991  34.483  1.00  0.00     0.031 A 
BRANCH  44  58
ATOM     58  C   UNL A   1      44.455  27.296  34.063  1.00  0.00    -0.014 A 
ATOM     59  C   UNL A   1      45.726  27.890  34.098  1.00  0.00     0.009 A 
ATOM     60  C   UNL A   1      44.270  26.057  34.699  1.00  0.00     0.009 A 
ATOM     61  C   UNL A   1      46.795  27.243  34.723  1.00  0.00     0.001 A 
ATOM     62  C   UNL A   1      45.331  25.428  35.350  1.00  0.00     0.001 A 
ATOM     63  C   UNL A   1      46.595  26.016  35.354  1.00  0.00     0.000 A 
ENDBRANCH  44  58
BRANCH  45  64
ATOM     64  C   UNL A   1      36.773  31.366  29.089  1.00  0.00    -0.014 A 
ATOM     65  C   UNL A   1      35.655  30.576  28.786  1.00  0.00     0.009 A 
ATOM     66  C   UNL A   1      36.779  32.714  28.692  1.00  0.00     0.009 A 
ATOM     67  C   UNL A   1      34.578  31.116  28.076  1.00  0.00     0.001 A 
ATOM     68  C   UNL A   1      35.687  33.259  28.012  1.00  0.00     0.001 A 
ATOM     69  C   UNL A   1      34.593  32.456  27.696  1.00  0.00     0.000 A 
ENDBRANCH  45  64
BRANCH  57  70
ATOM     70  C   UNL A   1      39.006  31.747  35.682  1.00  0.00    -0.014 A 
ATOM     71  C   UNL A   1      39.376  33.079  35.919  1.00  0.00     0.009 A 
ATOM     72  C   UNL A   1      38.109  31.123  36.563  1.00  0.00     0.009 A 
ATOM     73  C   UNL A   1      38.886  33.758  37.036  1.00  0.00     0.001 A 
ATOM     74  C   UNL A   1      37.593  31.815  37.659  1.00  0.00     0.001 A 
ATOM     75  C   UNL A   1      37.991  33.129  37.901  1.00  0.00     0.000 A 
ENDBRANCH  57  70
ENDBRANCH  31  32
ENDBRANCH  24  26
ENDBRANCH  23  24
ENDBRANCH  22  23
ENDBRANCH  21  22
ENDBRANCH  20  21
ENDBRANCH  19  20
ENDBRANCH  18  19
ENDBRANCH   1  18
TORSDOF 22
ENDMDL
MODEL 2
REMARK VINA RESULT:      -8.4      4.176     10.118
REMARK SMILES C[C@H](C(=O)OCCOCCOCCOCCOC(=O)c1ccc(-c2c3nc(c(-c4ccccc4)c4ccc([nH]4)c(-c4ccccc4)c4nc(c(-c5ccccc5)c5ccc2[nH]5)C=C4)C=C3)cc1)[C@H](C)S(C)(=O)=O
REMARK SMILES IDX 11 1 10 2 9 3 8 4 7 5 6 6 5 7 3 8 4 9 2 10 1 11 68 12 69 13
REMARK SMILES IDX 70 14 71 15 72 16 73 17 12 18 13 19 14 20 15 21 16 22 17 23
REMARK SMILES IDX 18 24 19 25 20 26 21 27 67 28 22 29 66 30 23 31 24 32 25 33
REMARK SMILES IDX 60 34 26 35 65 36 59 37 61 38 27 39 64 40 58 41 57 42 28 44
REMARK SMILES IDX 50 45 35 46 49 47 36 48 39 49 48 50 62 51 37 52 38 53 47 55
REMARK SMILES IDX 63 56 40 57 29 58 30 59 34 60 31 61 33 62 32 63 51 64 52 65
REMARK SMILES IDX 56 66 53 67 55 68 54 69 41 70 42 71 46 72 43 73 45 74 44 75
REMARK H PARENT 61 43 39 54
REMARK Flexibility Score: inf
ROOT
ATOM      1  O   UNL A   1      33.724  32.727  28.912  1.00  0.00    -0.377 OA
ENDROOT
BRANCH   1   2
ATOM      2  C   UNL A   1      34.380  31.609  28.337  1.00  0.00     0.188 C 
BRANCH   2   3
ATOM      3  C   UNL A   1      33.584  30.800  27.312  1.00  0.00     0.188 C 
BRANCH   3   4
ATOM      4  O   UNL A   1      33.434  29.411  27.534  1.00  0.00    -0.376 OA
BRANCH   4   5
ATOM      5  C   UNL A   1      34.117  28.466  26.715  1.00  0.00     0.202 C 
BRANCH   5   6
ATOM      6  C   UNL A   1      33.504  27.891  25.426  1.00  0.00     0.261 C 
BRANCH   6   7
ATOM      7  O   UNL A   1      33.261  26.471  25.454  1.00  0.00    -0.463 OA
BRANCH   7   8
ATOM      8  C   UNL A   1      33.586  25.806  24.319  1.00  0.00     0.310 C 
ATOM      9  O   UNL A   1      33.835  26.361  23.253  1.00  0.00    -0.252 OA
BRANCH   8  10
ATOM     10  C   UNL A   1      33.811  24.308  24.489  1.00  0.00     0.114 C 
ATOM     11  C   UNL A   1      35.119  23.710  23.961  1.00  0.00     0.021 C 
BRANCH  10  12
ATOM     12  C   UNL A   1      33.532  23.875  25.950  1.00  0.00     0.119 C 
ATOM     13  C   UNL A   1      34.676  23.041  26.540  1.00  0.00     0.026 C 
BRANCH  12  14
ATOM     14  S   UNL A   1      31.927  23.036  26.121  1.00  0.00     0.150 S 
ATOM     15  C   UNL A   1      32.233  21.386  25.556  1.00  0.00     0.158 C 
ATOM     16  O   UNL A   1      31.621  22.931  27.534  1.00  0.00    -0.229 OA
ATOM     17  O   UNL A   1      30.953  23.608  25.214  1.00  0.00    -0.229 OA
ENDBRANCH  12  14
ENDBRANCH  10  12
ENDBRANCH   8  10
ENDBRANCH   7   8
ENDBRANCH   6   7
ENDBRANCH   5   6
ENDBRANCH   4   5
ENDBRANCH   3   4
ENDBRANCH   2   3
ENDBRANCH   1   2
BRANCH   1  18
ATOM     18  C   UNL A   1      34.499  33.814  29.420  1.00  0.00     0.188 C 
BRANCH  18  19
ATOM     19  C   UNL A   1      33.758  34.904  30.199  1.00  0.00     0.188 C 
BRANCH  19  20
ATOM     20  O   UNL A   1      33.295  34.580  31.514  1.00  0.00    -0.376 OA
BRANCH  20  21
ATOM     21  C   UNL A   1      34.210  34.648  32.604  1.00  0.00     0.202 C 
BRANCH  21  22
ATOM     22  C   UNL A   1      34.378  33.341  33.375  1.00  0.00     0.261 C 
BRANCH  22  23
ATOM     23  O   UNL A   1      35.216  32.413  32.674  1.00  0.00    -0.460 OA
BRANCH  23  24
ATOM     24  C   UNL A   1      36.363  32.092  33.316  1.00  0.00     0.338 C 
ATOM     25  O   UNL A   1      36.643  32.277  34.485  1.00  0.00    -0.246 OA
BRANCH  24  26
ATOM     26  C   UNL A   1      37.234  31.343  32.394  1.00  0.00     0.060 A 
ATOM     27  C   UNL A   1      38.304  30.618  32.933  1.00  0.00     0.016 A 
ATOM     28  C   UNL A   1      37.050  31.432  31.012  1.00  0.00     0.016 A 
ATOM     29  C   UNL A   1      39.235  30.027  32.087  1.00  0.00     0.010 A 
ATOM     30  C   UNL A   1      37.990  30.851  30.165  1.00  0.00     0.010 A 
ATOM     31  C   UNL A   1      39.108  30.190  30.703  1.00  0.00    -0.014 A 
BRANCH  31  32
ATOM     32  C   UNL A   1      40.245  29.853  29.823  1.00  0.00     0.031 A 
ATOM     33  C   UNL A   1      40.227  28.529  29.114  1.00  0.00     0.074 A 
ATOM     34  C   UNL A   1      41.262  30.713  29.656  1.00  0.00     0.049 A 
ATOM     35  N   UNL A   1      41.141  27.980  28.357  1.00  0.00    -0.248 NA
ATOM     36  C   UNL A   1      39.016  27.707  29.289  1.00  0.00     0.031 C 
ATOM     37  C   UNL A   1      41.352  32.043  30.255  1.00  0.00     0.029 A 
ATOM     38  N   UNL A   1      42.420  30.583  28.936  1.00  0.00    -0.354 N 
ATOM     39  C   UNL A   1      40.621  26.749  27.977  1.00  0.00     0.074 A 
ATOM     40  C   UNL A   1      39.330  26.614  28.612  1.00  0.00     0.031 C 
ATOM     41  C   UNL A   1      42.518  32.604  29.890  1.00  0.00     0.029 A 
ATOM     42  C   UNL A   1      43.265  31.657  29.067  1.00  0.00     0.049 A 
ATOM     43  H   UNL A   1      42.625  29.798  28.380  1.00  0.00     0.167 HD
ATOM     44  C   UNL A   1      41.173  25.816  27.167  1.00  0.00     0.031 A 
ATOM     45  C   UNL A   1      44.514  31.833  28.597  1.00  0.00     0.031 A 
ATOM     46  C   UNL A   1      42.469  25.952  26.559  1.00  0.00     0.049 A 
ATOM     47  C   UNL A   1      45.142  30.743  27.770  1.00  0.00     0.074 A 
ATOM     48  C   UNL A   1      43.125  25.072  25.717  1.00  0.00     0.029 A 
ATOM     49  N   UNL A   1      43.311  27.040  26.739  1.00  0.00    -0.354 N 
ATOM     50  N   UNL A   1      44.640  29.589  27.400  1.00  0.00    -0.248 NA
ATOM     51  C   UNL A   1      46.509  30.985  27.290  1.00  0.00     0.031 C 
ATOM     52  C   UNL A   1      44.390  25.600  25.439  1.00  0.00     0.029 A 
ATOM     53  C   UNL A   1      44.493  26.842  26.048  1.00  0.00     0.049 A 
ATOM     54  H   UNL A   1      43.099  27.836  27.279  1.00  0.00     0.167 HD
ATOM     55  C   UNL A   1      45.614  28.982  26.617  1.00  0.00     0.074 A 
ATOM     56  C   UNL A   1      46.731  29.905  26.555  1.00  0.00     0.031 C 
ATOM     57  C   UNL A   1      45.590  27.774  26.002  1.00  0.00     0.031 A 
BRANCH  44  58
ATOM     58  C   UNL A   1      40.392  24.552  26.933  1.00  0.00    -0.014 A 
ATOM     59  C   UNL A   1      40.875  23.302  27.350  1.00  0.00     0.009 A 
ATOM     60  C   UNL A   1      39.141  24.616  26.297  1.00  0.00     0.009 A 
ATOM     61  C   UNL A   1      40.140  22.139  27.103  1.00  0.00     0.001 A 
ATOM     62  C   UNL A   1      38.394  23.457  26.079  1.00  0.00     0.001 A 
ATOM     63  C   UNL A   1      38.898  22.219  26.473  1.00  0.00     0.000 A 
ENDBRANCH  44  58
BRANCH  45  64
ATOM     64  C   UNL A   1      45.260  33.077  28.919  1.00  0.00    -0.014 A 
ATOM     65  C   UNL A   1      45.766  33.297  30.209  1.00  0.00     0.009 A 
ATOM     66  C   UNL A   1      45.463  34.059  27.935  1.00  0.00     0.009 A 
ATOM     67  C   UNL A   1      46.435  34.485  30.513  1.00  0.00     0.001 A 
ATOM     68  C   UNL A   1      46.161  35.231  28.234  1.00  0.00     0.001 A 
ATOM     69  C   UNL A   1      46.636  35.447  29.526  1.00  0.00     0.000 A 
ENDBRANCH  45  64
BRANCH  57  70
ATOM     70  C   UNL A   1      46.788  27.400  25.173  1.00  0.00    -0.014 A 
ATOM     71  C   UNL A   1      47.812  26.590  25.687  1.00  0.00     0.009 A 
ATOM     72  C   UNL A   1      46.867  27.832  23.839  1.00  0.00     0.009 A 
ATOM     73  C   UNL A   1      48.910  26.253  24.891  1.00  0.00     0.001 A 
ATOM     74  C   UNL A   1      47.946  27.464  23.036  1.00  0.00     0.001 A 
ATOM     75  C   UNL A   1      48.973  26.685  23.567  1.00  0.00     0.000 A 
ENDBRANCH  57  70
ENDBRANCH  31  32
ENDBRANCH  24  26
ENDBRANCH  23  24
ENDBRANCH  22  23
ENDBRANCH  21  22
ENDBRANCH  20  21
ENDBRANCH  19  20
ENDBRANCH  18  19
ENDBRANCH   1  18
TORSDOF 22
ENDMDL
MODEL 3
REMARK VINA RESULT:      -8.3      3.044      8.660
REMARK SMILES C[C@H](C(=O)OCCOCCOCCOCCOC(=O)c1ccc(-c2c3nc(c(-c4ccccc4)c4ccc([nH]4)c(-c4ccccc4)c4nc(c(-c5ccccc5)c5ccc2[nH]5)C=C4)C=C3)cc1)[C@H](C)S(C)(=O)=O
REMARK SMILES IDX 11 1 10 2 9 3 8 4 7 5 6 6 5 7 3 8 4 9 2 10 1 11 68 12 69 13
REMARK SMILES IDX 70 14 71 15 72 16 73 17 12 18 13 19 14 20 15 21 16 22 17 23
REMARK SMILES IDX 18 24 19 25 20 26 21 27 67 28 22 29 66 30 23 31 24 32 25 33
REMARK SMILES IDX 60 34 26 35 65 36 59 37 61 38 27 39 64 40 58 41 57 42 28 44
REMARK SMILES IDX 50 45 35 46 49 47 36 48 39 49 48 50 62 51 37 52 38 53 47 55
REMARK SMILES IDX 63 56 40 57 29 58 30 59 34 60 31 61 33 62 32 63 51 64 52 65
REMARK SMILES IDX 56 66 53 67 55 68 54 69 41 70 42 71 46 72 43 73 45 74 44 75
REMARK H PARENT 61 43 39 54
REMARK Flexibility Score: inf
ROOT
ATOM      1  O   UNL A   1      30.267  29.123  23.834  1.00  0.00    -0.377 OA
ENDROOT
BRANCH   1   2
ATOM      2  C   UNL A   1      29.813  28.047  23.029  1.00  0.00     0.188 C 
BRANCH   2   3
ATOM      3  C   UNL A   1      29.127  26.890  23.756  1.00  0.00     0.188 C 
BRANCH   3   4
ATOM      4  O   UNL A   1      29.944  25.952  24.429  1.00  0.00    -0.376 OA
BRANCH   4   5
ATOM      5  C   UNL A   1      30.206  26.083  25.823  1.00  0.00     0.202 C 
BRANCH   5   6
ATOM      6  C   UNL A   1      31.527  25.625  26.465  1.00  0.00     0.261 C 
BRANCH   6   7
ATOM      7  O   UNL A   1      31.433  24.416  27.244  1.00  0.00    -0.463 OA
BRANCH   7   8
ATOM      8  C   UNL A   1      31.784  23.280  26.593  1.00  0.00     0.310 C 
ATOM      9  O   UNL A   1      30.982  22.546  26.023  1.00  0.00    -0.252 OA
BRANCH   8  10
ATOM     10  C   UNL A   1      33.285  23.055  26.449  1.00  0.00     0.114 C 
ATOM     11  C   UNL A   1      33.968  22.094  27.426  1.00  0.00     0.021 C 
BRANCH  10  12
ATOM     12  C   UNL A   1      33.650  22.731  24.978  1.00  0.00     0.119 C 
ATOM     13  C   UNL A   1      34.140  21.289  24.803  1.00  0.00     0.026 C 
BRANCH  12  14
ATOM     14  S   UNL A   1      34.827  23.933  24.285  1.00  0.00     0.150 S 
ATOM     15  C   UNL A   1      36.318  23.665  25.203  1.00  0.00     0.158 C 
ATOM     16  O   UNL A   1      35.116  23.544  22.918  1.00  0.00    -0.229 OA
ATOM     17  O   UNL A   1      34.403  25.287  24.573  1.00  0.00    -0.229 OA
ENDBRANCH  12  14
ENDBRANCH  10  12
ENDBRANCH   8  10
ENDBRANCH   7   8
ENDBRANCH   6   7
ENDBRANCH   5   6
ENDBRANCH   4   5
ENDBRANCH   3   4
ENDBRANCH   2   3
ENDBRANCH   1   2
BRANCH   1  18
ATOM     18  C   UNL A   1      31.607  29.118  24.328  1.00  0.00     0.188 C 
BRANCH  18  19
ATOM     19  C   UNL A   1      31.863  29.792  25.678  1.00  0.00     0.188 C 
BRANCH  19  20
ATOM     20  O   UNL A   1      33.222  30.067  26.034  1.00  0.00    -0.376 OA
BRANCH  20  21
ATOM     21  C   UNL A   1      33.491  30.741  27.260  1.00  0.00     0.202 C 
BRANCH  21  22
ATOM     22  C   UNL A   1      32.684  32.018  27.474  1.00  0.00     0.261 C 
BRANCH  22  23
ATOM     23  O   UNL A   1      33.474  33.193  27.246  1.00  0.00    -0.460 OA
BRANCH  23  24
ATOM     24  C   UNL A   1      33.388  34.129  28.219  1.00  0.00     0.338 C 
ATOM     25  O   UNL A   1      32.507  34.949  28.393  1.00  0.00    -0.246 OA
BRANCH  24  26
ATOM     26  C   UNL A   1      34.504  33.941  29.163  1.00  0.00     0.060 A 
ATOM     27  C   UNL A   1      35.804  34.197  28.711  1.00  0.00     0.016 A 
ATOM     28  C   UNL A   1      34.275  33.432  30.442  1.00  0.00     0.016 A 
ATOM     29  C   UNL A   1      36.891  33.885  29.520  1.00  0.00     0.010 A 
ATOM     30  C   UNL A   1      35.363  33.107  31.247  1.00  0.00     0.010 A 
ATOM     31  C   UNL A   1      36.672  33.289  30.767  1.00  0.00    -0.014 A 
BRANCH  31  32
ATOM     32  C   UNL A   1      37.802  32.664  31.484  1.00  0.00     0.031 A 
ATOM     33  C   UNL A   1      38.467  31.471  30.861  1.00  0.00     0.074 A 
ATOM     34  C   UNL A   1      38.225  33.158  32.658  1.00  0.00     0.049 A 
ATOM     35  N   UNL A   1      39.419  30.710  31.335  1.00  0.00    -0.248 NA
ATOM     36  C   UNL A   1      37.988  31.076  29.525  1.00  0.00     0.031 C 
ATOM     37  C   UNL A   1      37.684  34.342  33.323  1.00  0.00     0.029 A 
ATOM     38  N   UNL A   1      39.207  32.711  33.502  1.00  0.00    -0.354 N 
ATOM     39  C   UNL A   1      39.643  29.743  30.362  1.00  0.00     0.074 A 
ATOM     40  C   UNL A   1      38.707  29.990  29.289  1.00  0.00     0.031 C 
ATOM     41  C   UNL A   1      38.333  34.519  34.487  1.00  0.00     0.029 A 
ATOM     42  C   UNL A   1      39.303  33.441  34.660  1.00  0.00     0.049 A 
ATOM     43  H   UNL A   1      39.787  31.943  33.298  1.00  0.00     0.167 HD
ATOM     44  C   UNL A   1      40.552  28.741  30.365  1.00  0.00     0.031 A 
ATOM     45  C   UNL A   1      40.069  33.235  35.748  1.00  0.00     0.031 A 
ATOM     46  C   UNL A   1      41.463  28.493  31.449  1.00  0.00     0.049 A 
ATOM     47  C   UNL A   1      41.012  32.062  35.765  1.00  0.00     0.074 A 
ATOM     48  C   UNL A   1      42.431  27.509  31.558  1.00  0.00     0.029 A 
ATOM     49  N   UNL A   1      41.511  29.233  32.621  1.00  0.00    -0.354 N 
ATOM     50  N   UNL A   1      41.231  31.162  34.836  1.00  0.00    -0.248 NA
ATOM     51  C   UNL A   1      41.818  31.881  36.980  1.00  0.00     0.031 C 
ATOM     52  C   UNL A   1      43.019  27.617  32.822  1.00  0.00     0.029 A 
ATOM     53  C   UNL A   1      42.470  28.712  33.471  1.00  0.00     0.049 A 
ATOM     54  H   UNL A   1      40.945  30.015  32.819  1.00  0.00     0.167 HD
ATOM     55  C   UNL A   1      42.222  30.329  35.339  1.00  0.00     0.074 A 
ATOM     56  C   UNL A   1      42.571  30.841  36.650  1.00  0.00     0.031 C 
ATOM     57  C   UNL A   1      42.797  29.240  34.771  1.00  0.00     0.031 A 
BRANCH  44  58
ATOM     58  C   UNL A   1      40.570  27.819  29.177  1.00  0.00    -0.014 A 
ATOM     59  C   UNL A   1      41.405  28.059  28.074  1.00  0.00     0.009 A 
ATOM     60  C   UNL A   1      39.749  26.679  29.169  1.00  0.00     0.009 A 
ATOM     61  C   UNL A   1      41.389  27.199  26.973  1.00  0.00     0.001 A 
ATOM     62  C   UNL A   1      39.759  25.804  28.082  1.00  0.00     0.001 A 
ATOM     63  C   UNL A   1      40.572  26.069  26.981  1.00  0.00     0.000 A 
ENDBRANCH  44  58
BRANCH  45  64
ATOM     64  C   UNL A   1      39.957  34.145  36.918  1.00  0.00    -0.014 A 
ATOM     65  C   UNL A   1      39.043  33.879  37.949  1.00  0.00     0.009 A 
ATOM     66  C   UNL A   1      40.761  35.294  37.004  1.00  0.00     0.009 A 
ATOM     67  C   UNL A   1      38.919  34.759  39.028  1.00  0.00     0.001 A 
ATOM     68  C   UNL A   1      40.658  36.153  38.101  1.00  0.00     0.001 A 
ATOM     69  C   UNL A   1      39.729  35.890  39.105  1.00  0.00     0.000 A 
ENDBRANCH  45  64
BRANCH  57  70
ATOM     70  C   UNL A   1      43.892  28.556  35.545  1.00  0.00    -0.014 A 
ATOM     71  C   UNL A   1      43.619  27.496  36.422  1.00  0.00     0.009 A 
ATOM     72  C   UNL A   1      45.224  28.956  35.355  1.00  0.00     0.009 A 
ATOM     73  C   UNL A   1      44.656  26.876  37.122  1.00  0.00     0.001 A 
ATOM     74  C   UNL A   1      46.262  28.312  36.028  1.00  0.00     0.001 A 
ATOM     75  C   UNL A   1      45.976  27.280  36.921  1.00  0.00     0.000 A 
ENDBRANCH  57  70
ENDBRANCH  31  32
ENDBRANCH  24  26
ENDBRANCH  23  24
ENDBRANCH  22  23
ENDBRANCH  21  22
ENDBRANCH  20  21
ENDBRANCH  19  20
ENDBRANCH  18  19
ENDBRANCH   1  18
TORSDOF 22
ENDMDL
