MODEL 1
REMARK VINA RESULT:      -9.1      0.000      0.000
REMARK SMILES CCC(=O)N1[C@H](C(=O)OCCOCCOCCOCCOC(=O)c2ccc(-c3c4nc(c(-c5ccccc5)c5ccc([nH]5)c(-c5ccccc5)c5nc(c(-c6ccccc6)c6ccc3[nH]6)C=C5)C=C4)cc2)Cc2c([nH]c3ccccc23)[C@@H]1CC(C)C
REMARK SMILES IDX 15 1 14 2 13 3 12 4 11 5 10 6 9 7 7 8 8 9 6 10 5 11 82 12
REMARK SMILES IDX 72 13 74 14 73 15 75 16 81 17 76 18 80 20 77 21 79 22 78 23
REMARK SMILES IDX 3 24 4 25 2 26 1 27 83 28 84 29 85 30 86 31 16 32 17 33
REMARK SMILES IDX 18 34 19 35 20 36 21 37 22 38 23 39 24 40 25 41 71 42 26 43
REMARK SMILES IDX 70 44 27 45 28 46 29 47 64 48 30 49 69 50 63 51 65 52 31 53
REMARK SMILES IDX 68 54 62 55 61 56 32 58 54 59 39 60 53 61 40 62 43 63 52 64
REMARK SMILES IDX 66 65 41 66 42 67 51 69 67 70 44 71 33 72 34 73 38 74 35 75
REMARK SMILES IDX 37 76 36 77 55 78 56 79 60 80 57 81 59 82 58 83 45 84 46 85
REMARK SMILES IDX 50 86 47 87 49 88 48 89
REMARK H PARENT 75 19 65 57 43 68
REMARK Flexibility Score: inf
ROOT
ATOM      1  O   UNL A   1      37.018  31.157  29.217  1.00  0.00    -0.377 OA
ENDROOT
BRANCH   1   2
ATOM      2  C   UNL A   1      35.827  31.939  29.160  1.00  0.00     0.188 C 
BRANCH   2   3
ATOM      3  C   UNL A   1      35.056  32.007  27.836  1.00  0.00     0.188 C 
BRANCH   3   4
ATOM      4  O   UNL A   1      33.816  31.314  27.722  1.00  0.00    -0.376 OA
BRANCH   4   5
ATOM      5  C   UNL A   1      33.840  29.896  27.589  1.00  0.00     0.202 C 
BRANCH   5   6
ATOM      6  C   UNL A   1      33.529  29.397  26.185  1.00  0.00     0.261 C 
BRANCH   6   7
ATOM      7  O   UNL A   1      32.203  28.836  26.137  1.00  0.00    -0.462 OA
BRANCH   7   8
ATOM      8  C   UNL A   1      32.112  27.510  25.905  1.00  0.00     0.329 C 
ATOM      9  O   UNL A   1      33.062  26.734  25.959  1.00  0.00    -0.250 OA
BRANCH   8  10
ATOM     10  C   UNL A   1      30.729  27.064  25.409  1.00  0.00     0.200 C 
ATOM     11  N   UNL A   1      30.323  27.231  23.963  1.00  0.00    -0.320 N 
ATOM     12  C   UNL A   1      30.543  26.113  22.985  1.00  0.00     0.133 C 
ATOM     13  C   UNL A   1      30.528  25.641  25.989  1.00  0.00     0.075 C 
ATOM     14  C   UNL A   1      30.854  24.841  23.673  1.00  0.00     0.042 A 
ATOM     15  C   UNL A   1      30.961  24.612  25.021  1.00  0.00    -0.015 A 
ATOM     16  N   UNL A   1      31.101  23.656  23.033  1.00  0.00    -0.356 N 
ATOM     17  C   UNL A   1      31.678  23.396  25.172  1.00  0.00     0.003 A 
ATOM     18  C   UNL A   1      31.767  22.822  23.900  1.00  0.00     0.046 A 
ATOM     19  H   UNL A   1      30.846  23.439  22.107  1.00  0.00     0.166 HD
ATOM     20  C   UNL A   1      32.324  22.754  26.243  1.00  0.00     0.010 A 
ATOM     21  C   UNL A   1      32.475  21.647  23.637  1.00  0.00     0.026 A 
ATOM     22  C   UNL A   1      33.078  21.602  25.988  1.00  0.00     0.001 A 
ATOM     23  C   UNL A   1      33.152  21.060  24.705  1.00  0.00     0.002 A 
BRANCH  11  24
ATOM     24  C   UNL A   1      29.500  28.249  23.486  1.00  0.00     0.223 C 
ATOM     25  O   UNL A   1      28.408  27.962  22.968  1.00  0.00    -0.275 OA
BRANCH  24  26
ATOM     26  C   UNL A   1      29.840  29.744  23.440  1.00  0.00     0.097 C 
ATOM     27  C   UNL A   1      28.907  30.870  23.069  1.00  0.00     0.014 C 
ENDBRANCH  24  26
ENDBRANCH  11  24
BRANCH  12  28
ATOM     28  C   UNL A   1      31.516  26.414  21.798  1.00  0.00     0.034 C 
BRANCH  28  29
ATOM     29  C   UNL A   1      32.976  26.893  22.011  1.00  0.00    -0.015 C 
ATOM     30  C   UNL A   1      33.207  28.256  22.655  1.00  0.00     0.007 C 
ATOM     31  C   UNL A   1      33.735  25.853  22.845  1.00  0.00     0.007 C 
ENDBRANCH  28  29
ENDBRANCH  12  28
ENDBRANCH   8  10
ENDBRANCH   7   8
ENDBRANCH   6   7
ENDBRANCH   5   6
ENDBRANCH   4   5
ENDBRANCH   3   4
ENDBRANCH   2   3
ENDBRANCH   1   2
BRANCH   1  32
ATOM     32  C   UNL A   1      36.870  29.788  29.556  1.00  0.00     0.188 C 
BRANCH  32  33
ATOM     33  C   UNL A   1      38.163  29.025  29.829  1.00  0.00     0.188 C 
BRANCH  33  34
ATOM     34  O   UNL A   1      38.847  28.645  28.641  1.00  0.00    -0.376 OA
BRANCH  34  35
ATOM     35  C   UNL A   1      39.780  27.581  28.841  1.00  0.00     0.202 C 
BRANCH  35  36
ATOM     36  C   UNL A   1      39.653  26.396  27.865  1.00  0.00     0.261 C 
BRANCH  36  37
ATOM     37  O   UNL A   1      40.354  25.190  28.218  1.00  0.00    -0.460 OA
BRANCH  37  38
ATOM     38  C   UNL A   1      41.102  24.605  27.268  1.00  0.00     0.338 C 
ATOM     39  O   UNL A   1      40.791  23.648  26.564  1.00  0.00    -0.246 OA
BRANCH  38  40
ATOM     40  C   UNL A   1      42.387  25.317  27.162  1.00  0.00     0.060 A 
ATOM     41  C   UNL A   1      43.115  25.632  28.313  1.00  0.00     0.016 A 
ATOM     42  C   UNL A   1      42.833  25.746  25.909  1.00  0.00     0.016 A 
ATOM     43  C   UNL A   1      44.287  26.393  28.216  1.00  0.00     0.010 A 
ATOM     44  C   UNL A   1      43.997  26.517  25.813  1.00  0.00     0.010 A 
ATOM     45  C   UNL A   1      44.717  26.870  26.969  1.00  0.00    -0.014 A 
BRANCH  45  46
ATOM     46  C   UNL A   1      45.807  27.877  26.880  1.00  0.00     0.031 A 
ATOM     47  C   UNL A   1      45.441  29.338  26.884  1.00  0.00     0.074 A 
ATOM     48  C   UNL A   1      47.100  27.518  26.792  1.00  0.00     0.049 A 
ATOM     49  N   UNL A   1      46.213  30.390  26.765  1.00  0.00    -0.248 NA
ATOM     50  C   UNL A   1      44.013  29.654  27.052  1.00  0.00     0.031 C 
ATOM     51  C   UNL A   1      47.604  26.148  26.836  1.00  0.00     0.029 A 
ATOM     52  N   UNL A   1      48.231  28.285  26.638  1.00  0.00    -0.354 N 
ATOM     53  C   UNL A   1      45.366  31.489  26.847  1.00  0.00     0.074 A 
ATOM     54  C   UNL A   1      44.021  30.978  26.992  1.00  0.00     0.031 C 
ATOM     55  C   UNL A   1      48.941  26.168  26.691  1.00  0.00     0.029 A 
ATOM     56  C   UNL A   1      49.385  27.550  26.519  1.00  0.00     0.049 A 
ATOM     57  H   UNL A   1      48.213  29.270  26.614  1.00  0.00     0.167 HD
ATOM     58  C   UNL A   1      45.678  32.806  26.815  1.00  0.00     0.031 A 
ATOM     59  C   UNL A   1      50.652  27.944  26.281  1.00  0.00     0.031 A 
ATOM     60  C   UNL A   1      47.010  33.323  26.639  1.00  0.00     0.049 A 
ATOM     61  C   UNL A   1      50.958  29.413  26.132  1.00  0.00     0.074 A 
ATOM     62  C   UNL A   1      47.422  34.643  26.589  1.00  0.00     0.029 A 
ATOM     63  N   UNL A   1      48.142  32.543  26.470  1.00  0.00    -0.354 N 
ATOM     64  N   UNL A   1      50.153  30.442  26.239  1.00  0.00    -0.248 NA
ATOM     65  C   UNL A   1      52.354  29.773  25.839  1.00  0.00     0.031 C 
ATOM     66  C   UNL A   1      48.796  34.662  26.333  1.00  0.00     0.029 A 
ATOM     67  C   UNL A   1      49.250  33.354  26.288  1.00  0.00     0.049 A 
ATOM     68  H   UNL A   1      48.157  31.559  26.479  1.00  0.00     0.167 HD
ATOM     69  C   UNL A   1      50.950  31.568  26.066  1.00  0.00     0.074 A 
ATOM     70  C   UNL A   1      52.302  31.097  25.856  1.00  0.00     0.031 C 
ATOM     71  C   UNL A   1      50.593  32.875  26.085  1.00  0.00     0.031 A 
BRANCH  58  72
ATOM     72  C   UNL A   1      44.545  33.785  26.944  1.00  0.00    -0.014 A 
ATOM     73  C   UNL A   1      43.891  34.293  25.810  1.00  0.00     0.009 A 
ATOM     74  C   UNL A   1      44.105  34.181  28.217  1.00  0.00     0.009 A 
ATOM     75  C   UNL A   1      42.841  35.205  25.948  1.00  0.00     0.001 A 
ATOM     76  C   UNL A   1      43.037  35.069  28.352  1.00  0.00     0.001 A 
ATOM     77  C   UNL A   1      42.413  35.588  27.219  1.00  0.00     0.000 A 
ENDBRANCH  58  72
BRANCH  59  78
ATOM     78  C   UNL A   1      51.742  26.939  26.150  1.00  0.00    -0.014 A 
ATOM     79  C   UNL A   1      52.544  26.603  27.252  1.00  0.00     0.009 A 
ATOM     80  C   UNL A   1      52.016  26.344  24.908  1.00  0.00     0.009 A 
ATOM     81  C   UNL A   1      53.615  25.718  27.107  1.00  0.00     0.001 A 
ATOM     82  C   UNL A   1      53.069  25.437  24.772  1.00  0.00     0.001 A 
ATOM     83  C   UNL A   1      53.875  25.133  25.868  1.00  0.00     0.000 A 
ENDBRANCH  59  78
BRANCH  71  84
ATOM     84  C   UNL A   1      51.686  33.897  25.922  1.00  0.00    -0.014 A 
ATOM     85  C   UNL A   1      52.419  34.369  27.021  1.00  0.00     0.009 A 
ATOM     86  C   UNL A   1      52.015  34.359  24.637  1.00  0.00     0.009 A 
ATOM     87  C   UNL A   1      53.439  35.307  26.840  1.00  0.00     0.001 A 
ATOM     88  C   UNL A   1      53.055  35.272  24.456  1.00  0.00     0.001 A 
ATOM     89  C   UNL A   1      53.759  35.752  25.557  1.00  0.00     0.000 A 
ENDBRANCH  71  84
ENDBRANCH  45  46
ENDBRANCH  38  40
ENDBRANCH  37  38
ENDBRANCH  36  37
ENDBRANCH  35  36
ENDBRANCH  34  35
ENDBRANCH  33  34
ENDBRANCH  32  33
ENDBRANCH   1  32
TORSDOF 24
ENDMDL
MODEL 2
REMARK VINA RESULT:      -8.7      8.816     13.465
REMARK SMILES CCC(=O)N1[C@H](C(=O)OCCOCCOCCOCCOC(=O)c2ccc(-c3c4nc(c(-c5ccccc5)c5ccc([nH]5)c(-c5ccccc5)c5nc(c(-c6ccccc6)c6ccc3[nH]6)C=C5)C=C4)cc2)Cc2c([nH]c3ccccc23)[C@@H]1CC(C)C
REMARK SMILES IDX 15 1 14 2 13 3 12 4 11 5 10 6 9 7 7 8 8 9 6 10 5 11 82 12
REMARK SMILES IDX 72 13 74 14 73 15 75 16 81 17 76 18 80 20 77 21 79 22 78 23
REMARK SMILES IDX 3 24 4 25 2 26 1 27 83 28 84 29 85 30 86 31 16 32 17 33
REMARK SMILES IDX 18 34 19 35 20 36 21 37 22 38 23 39 24 40 25 41 71 42 26 43
REMARK SMILES IDX 70 44 27 45 28 46 29 47 64 48 30 49 69 50 63 51 65 52 31 53
REMARK SMILES IDX 68 54 62 55 61 56 32 58 54 59 39 60 53 61 40 62 43 63 52 64
REMARK SMILES IDX 66 65 41 66 42 67 51 69 67 70 44 71 33 72 34 73 38 74 35 75
REMARK SMILES IDX 37 76 36 77 55 78 56 79 60 80 57 81 59 82 58 83 45 84 46 85
REMARK SMILES IDX 50 86 47 87 49 88 48 89
REMARK H PARENT 75 19 65 57 43 68
REMARK Flexibility Score: inf
ROOT
ATOM      1  O   UNL A   1      33.148  30.664  27.755  1.00  0.00    -0.377 OA
ENDROOT
BRANCH   1   2
ATOM      2  C   UNL A   1      33.098  29.398  27.101  1.00  0.00     0.188 C 
BRANCH   2   3
ATOM      3  C   UNL A   1      33.441  29.329  25.607  1.00  0.00     0.188 C 
BRANCH   3   4
ATOM      4  O   UNL A   1      34.020  28.135  25.086  1.00  0.00    -0.376 OA
BRANCH   4   5
ATOM      5  C   UNL A   1      33.463  26.884  25.476  1.00  0.00     0.202 C 
BRANCH   5   6
ATOM      6  C   UNL A   1      34.329  25.681  25.129  1.00  0.00     0.261 C 
BRANCH   6   7
ATOM      7  O   UNL A   1      34.272  25.417  23.714  1.00  0.00    -0.462 OA
BRANCH   7   8
ATOM      8  C   UNL A   1      34.506  24.148  23.322  1.00  0.00     0.329 C 
ATOM      9  O   UNL A   1      35.565  23.553  23.508  1.00  0.00    -0.250 OA
BRANCH   8  10
ATOM     10  C   UNL A   1      33.377  23.545  22.475  1.00  0.00     0.200 C 
ATOM     11  N   UNL A   1      32.353  22.613  23.082  1.00  0.00    -0.320 N 
ATOM     12  C   UNL A   1      31.060  23.159  23.615  1.00  0.00     0.133 C 
ATOM     13  C   UNL A   1      32.790  24.732  21.671  1.00  0.00     0.075 C 
ATOM     14  C   UNL A   1      30.832  24.551  23.167  1.00  0.00     0.042 A 
ATOM     15  C   UNL A   1      31.640  25.329  22.379  1.00  0.00    -0.015 A 
ATOM     16  N   UNL A   1      29.735  25.299  23.501  1.00  0.00    -0.356 N 
ATOM     17  C   UNL A   1      31.231  26.674  22.581  1.00  0.00     0.003 A 
ATOM     18  C   UNL A   1      30.037  26.627  23.307  1.00  0.00     0.046 A 
ATOM     19  H   UNL A   1      28.875  24.947  23.826  1.00  0.00     0.166 HD
ATOM     20  C   UNL A   1      31.787  27.931  22.288  1.00  0.00     0.010 A 
ATOM     21  C   UNL A   1      29.371  27.767  23.764  1.00  0.00     0.026 A 
ATOM     22  C   UNL A   1      31.159  29.083  22.780  1.00  0.00     0.001 A 
ATOM     23  C   UNL A   1      29.972  28.999  23.506  1.00  0.00     0.002 A 
BRANCH  11  24
ATOM     24  C   UNL A   1      32.375  21.225  22.957  1.00  0.00     0.223 C 
ATOM     25  O   UNL A   1      31.898  20.695  21.939  1.00  0.00    -0.275 OA
BRANCH  24  26
ATOM     26  C   UNL A   1      32.856  20.225  24.015  1.00  0.00     0.097 C 
ATOM     27  C   UNL A   1      34.130  20.305  24.818  1.00  0.00     0.014 C 
ENDBRANCH  24  26
ENDBRANCH  11  24
BRANCH  12  28
ATOM     28  C   UNL A   1      30.805  22.965  25.146  1.00  0.00     0.034 C 
BRANCH  28  29
ATOM     29  C   UNL A   1      31.472  23.856  26.227  1.00  0.00    -0.015 C 
ATOM     30  C   UNL A   1      30.651  24.980  26.849  1.00  0.00     0.007 C 
ATOM     31  C   UNL A   1      31.984  22.971  27.370  1.00  0.00     0.007 C 
ENDBRANCH  28  29
ENDBRANCH  12  28
ENDBRANCH   8  10
ENDBRANCH   7   8
ENDBRANCH   6   7
ENDBRANCH   5   6
ENDBRANCH   4   5
ENDBRANCH   3   4
ENDBRANCH   2   3
ENDBRANCH   1   2
BRANCH   1  32
ATOM     32  C   UNL A   1      34.408  31.313  27.799  1.00  0.00     0.188 C 
BRANCH  32  33
ATOM     33  C   UNL A   1      34.378  32.836  27.716  1.00  0.00     0.188 C 
BRANCH  33  34
ATOM     34  O   UNL A   1      33.520  33.429  28.685  1.00  0.00    -0.376 OA
BRANCH  34  35
ATOM     35  C   UNL A   1      34.112  34.542  29.359  1.00  0.00     0.202 C 
BRANCH  35  36
ATOM     36  C   UNL A   1      35.526  34.301  29.920  1.00  0.00     0.261 C 
BRANCH  36  37
ATOM     37  O   UNL A   1      35.662  34.306  31.353  1.00  0.00    -0.460 OA
BRANCH  37  38
ATOM     38  C   UNL A   1      35.460  33.147  32.001  1.00  0.00     0.338 C 
ATOM     39  O   UNL A   1      34.598  32.305  31.764  1.00  0.00    -0.246 OA
BRANCH  38  40
ATOM     40  C   UNL A   1      36.475  33.006  33.060  1.00  0.00     0.060 A 
ATOM     41  C   UNL A   1      36.898  31.736  33.465  1.00  0.00     0.016 A 
ATOM     42  C   UNL A   1      36.952  34.147  33.709  1.00  0.00     0.016 A 
ATOM     43  C   UNL A   1      37.791  31.603  34.536  1.00  0.00     0.010 A 
ATOM     44  C   UNL A   1      37.834  34.013  34.787  1.00  0.00     0.010 A 
ATOM     45  C   UNL A   1      38.238  32.739  35.227  1.00  0.00    -0.014 A 
BRANCH  45  46
ATOM     46  C   UNL A   1      38.979  32.601  36.508  1.00  0.00     0.031 A 
ATOM     47  C   UNL A   1      40.469  32.386  36.460  1.00  0.00     0.074 A 
ATOM     48  C   UNL A   1      38.356  32.660  37.699  1.00  0.00     0.049 A 
ATOM     49  N   UNL A   1      41.313  32.190  37.442  1.00  0.00    -0.248 NA
ATOM     50  C   UNL A   1      41.089  32.401  35.125  1.00  0.00     0.031 C 
ATOM     51  C   UNL A   1      36.933  32.922  37.899  1.00  0.00     0.029 A 
ATOM     52  N   UNL A   1      38.847  32.494  38.972  1.00  0.00    -0.354 N 
ATOM     53  C   UNL A   1      42.561  32.063  36.844  1.00  0.00     0.074 A 
ATOM     54  C   UNL A   1      42.361  32.170  35.416  1.00  0.00     0.031 C 
ATOM     55  C   UNL A   1      36.660  32.878  39.215  1.00  0.00     0.029 A 
ATOM     56  C   UNL A   1      37.883  32.561  39.949  1.00  0.00     0.049 A 
ATOM     57  H   UNL A   1      39.801  32.341  39.165  1.00  0.00     0.167 HD
ATOM     58  C   UNL A   1      43.769  31.882  37.429  1.00  0.00     0.031 A 
ATOM     59  C   UNL A   1      37.974  32.371  41.280  1.00  0.00     0.031 A 
ATOM     60  C   UNL A   1      43.974  31.742  38.847  1.00  0.00     0.049 A 
ATOM     61  C   UNL A   1      39.312  32.055  41.897  1.00  0.00     0.074 A 
ATOM     62  C   UNL A   1      45.162  31.551  39.531  1.00  0.00     0.029 A 
ATOM     63  N   UNL A   1      42.965  31.764  39.795  1.00  0.00    -0.354 N 
ATOM     64  N   UNL A   1      40.488  31.964  41.324  1.00  0.00    -0.248 NA
ATOM     65  C   UNL A   1      39.336  31.824  43.350  1.00  0.00     0.031 C 
ATOM     66  C   UNL A   1      44.864  31.400  40.888  1.00  0.00     0.029 A 
ATOM     67  C   UNL A   1      43.499  31.562  41.057  1.00  0.00     0.049 A 
ATOM     68  H   UNL A   1      42.010  31.903  39.601  1.00  0.00     0.167 HD
ATOM     69  C   UNL A   1      41.392  31.707  42.349  1.00  0.00     0.074 A 
ATOM     70  C   UNL A   1      40.632  31.664  43.579  1.00  0.00     0.031 C 
ATOM     71  C   UNL A   1      42.733  31.527  42.276  1.00  0.00     0.031 A 
BRANCH  58  72
ATOM     72  C   UNL A   1      44.966  31.795  36.524  1.00  0.00    -0.014 A 
ATOM     73  C   UNL A   1      45.699  32.941  36.175  1.00  0.00     0.009 A 
ATOM     74  C   UNL A   1      45.385  30.547  36.038  1.00  0.00     0.009 A 
ATOM     75  C   UNL A   1      46.807  32.842  35.330  1.00  0.00     0.001 A 
ATOM     76  C   UNL A   1      46.510  30.447  35.218  1.00  0.00     0.001 A 
ATOM     77  C   UNL A   1      47.213  31.595  34.857  1.00  0.00     0.000 A 
ENDBRANCH  58  72
BRANCH  59  78
ATOM     78  C   UNL A   1      36.760  32.456  42.138  1.00  0.00    -0.014 A 
ATOM     79  C   UNL A   1      35.960  31.325  42.361  1.00  0.00     0.009 A 
ATOM     80  C   UNL A   1      36.369  33.682  42.699  1.00  0.00     0.009 A 
ATOM     81  C   UNL A   1      34.780  31.426  43.102  1.00  0.00     0.001 A 
ATOM     82  C   UNL A   1      35.204  33.774  43.464  1.00  0.00     0.001 A 
ATOM     83  C   UNL A   1      34.404  32.649  43.655  1.00  0.00     0.000 A 
ENDBRANCH  59  78
BRANCH  71  84
ATOM     84  C   UNL A   1      43.478  31.316  43.567  1.00  0.00    -0.014 A 
ATOM     85  C   UNL A   1      43.711  30.030  44.078  1.00  0.00     0.009 A 
ATOM     86  C   UNL A   1      43.993  32.425  44.257  1.00  0.00     0.009 A 
ATOM     87  C   UNL A   1      44.418  29.862  45.271  1.00  0.00     0.001 A 
ATOM     88  C   UNL A   1      44.726  32.252  45.432  1.00  0.00     0.001 A 
ATOM     89  C   UNL A   1      44.929  30.973  45.944  1.00  0.00     0.000 A 
ENDBRANCH  71  84
ENDBRANCH  45  46
ENDBRANCH  38  40
ENDBRANCH  37  38
ENDBRANCH  36  37
ENDBRANCH  35  36
ENDBRANCH  34  35
ENDBRANCH  33  34
ENDBRANCH  32  33
ENDBRANCH   1  32
TORSDOF 24
ENDMDL
MODEL 3
REMARK VINA RESULT:      -8.6      8.646     12.827
REMARK SMILES CCC(=O)N1[C@H](C(=O)OCCOCCOCCOCCOC(=O)c2ccc(-c3c4nc(c(-c5ccccc5)c5ccc([nH]5)c(-c5ccccc5)c5nc(c(-c6ccccc6)c6ccc3[nH]6)C=C5)C=C4)cc2)Cc2c([nH]c3ccccc23)[C@@H]1CC(C)C
REMARK SMILES IDX 15 1 14 2 13 3 12 4 11 5 10 6 9 7 7 8 8 9 6 10 5 11 82 12
REMARK SMILES IDX 72 13 74 14 73 15 75 16 81 17 76 18 80 20 77 21 79 22 78 23
REMARK SMILES IDX 3 24 4 25 2 26 1 27 83 28 84 29 85 30 86 31 16 32 17 33
REMARK SMILES IDX 18 34 19 35 20 36 21 37 22 38 23 39 24 40 25 41 71 42 26 43
REMARK SMILES IDX 70 44 27 45 28 46 29 47 64 48 30 49 69 50 63 51 65 52 31 53
REMARK SMILES IDX 68 54 62 55 61 56 32 58 54 59 39 60 53 61 40 62 43 63 52 64
REMARK SMILES IDX 66 65 41 66 42 67 51 69 67 70 44 71 33 72 34 73 38 74 35 75
REMARK SMILES IDX 37 76 36 77 55 78 56 79 60 80 57 81 59 82 58 83 45 84 46 85
REMARK SMILES IDX 50 86 47 87 49 88 48 89
REMARK H PARENT 75 19 65 57 43 68
REMARK Flexibility Score: inf
ROOT
ATOM      1  O   UNL A   1      33.432  29.797  27.456  1.00  0.00    -0.377 OA
ENDROOT
BRANCH   1   2
ATOM      2  C   UNL A   1      33.310  28.524  26.826  1.00  0.00     0.188 C 
BRANCH   2   3
ATOM      3  C   UNL A   1      33.469  28.442  25.302  1.00  0.00     0.188 C 
BRANCH   3   4
ATOM      4  O   UNL A   1      34.072  27.283  24.732  1.00  0.00    -0.376 OA
BRANCH   4   5
ATOM      5  C   UNL A   1      33.852  26.024  25.361  1.00  0.00     0.202 C 
BRANCH   5   6
ATOM      6  C   UNL A   1      34.914  24.978  25.052  1.00  0.00     0.261 C 
BRANCH   6   7
ATOM      7  O   UNL A   1      34.723  24.450  23.725  1.00  0.00    -0.462 OA
BRANCH   7   8
ATOM      8  C   UNL A   1      35.062  23.159  23.530  1.00  0.00     0.329 C 
ATOM      9  O   UNL A   1      36.191  22.709  23.705  1.00  0.00    -0.250 OA
BRANCH   8  10
ATOM     10  C   UNL A   1      33.940  22.312  22.914  1.00  0.00     0.200 C 
ATOM     11  N   UNL A   1      33.072  21.417  23.770  1.00  0.00    -0.320 N 
ATOM     12  C   UNL A   1      31.775  21.932  24.324  1.00  0.00     0.133 C 
ATOM     13  C   UNL A   1      33.168  23.275  21.977  1.00  0.00     0.075 C 
ATOM     14  C   UNL A   1      31.365  23.192  23.666  1.00  0.00     0.042 A 
ATOM     15  C   UNL A   1      32.020  23.884  22.680  1.00  0.00    -0.015 A 
ATOM     16  N   UNL A   1      30.225  23.887  23.970  1.00  0.00    -0.356 N 
ATOM     17  C   UNL A   1      31.488  25.201  22.685  1.00  0.00     0.003 A 
ATOM     18  C   UNL A   1      30.367  25.179  23.520  1.00  0.00     0.046 A 
ATOM     19  H   UNL A   1      29.436  23.523  24.433  1.00  0.00     0.166 HD
ATOM     20  C   UNL A   1      31.882  26.429  22.125  1.00  0.00     0.010 A 
ATOM     21  C   UNL A   1      29.623  26.318  23.835  1.00  0.00     0.026 A 
ATOM     22  C   UNL A   1      31.176  27.589  22.469  1.00  0.00     0.001 A 
ATOM     23  C   UNL A   1      30.066  27.531  23.311  1.00  0.00     0.002 A 
BRANCH  11  24
ATOM     24  C   UNL A   1      33.232  20.038  23.885  1.00  0.00     0.223 C 
ATOM     25  O   UNL A   1      34.070  19.583  24.683  1.00  0.00    -0.275 OA
BRANCH  24  26
ATOM     26  C   UNL A   1      32.531  18.968  23.039  1.00  0.00     0.097 C 
ATOM     27  C   UNL A   1      32.798  17.485  23.058  1.00  0.00     0.014 C 
ENDBRANCH  24  26
ENDBRANCH  11  24
BRANCH  12  28
ATOM     28  C   UNL A   1      31.665  21.997  25.882  1.00  0.00     0.034 C 
BRANCH  28  29
ATOM     29  C   UNL A   1      32.401  23.067  26.731  1.00  0.00    -0.015 C 
ATOM     30  C   UNL A   1      31.619  24.290  27.197  1.00  0.00     0.007 C 
ATOM     31  C   UNL A   1      33.004  22.402  27.975  1.00  0.00     0.007 C 
ENDBRANCH  28  29
ENDBRANCH  12  28
ENDBRANCH   8  10
ENDBRANCH   7   8
ENDBRANCH   6   7
ENDBRANCH   5   6
ENDBRANCH   4   5
ENDBRANCH   3   4
ENDBRANCH   2   3
ENDBRANCH   1   2
BRANCH   1  32
ATOM     32  C   UNL A   1      34.747  30.282  27.671  1.00  0.00     0.188 C 
BRANCH  32  33
ATOM     33  C   UNL A   1      34.913  31.799  27.637  1.00  0.00     0.188 C 
BRANCH  33  34
ATOM     34  O   UNL A   1      33.764  32.495  28.107  1.00  0.00    -0.376 OA
BRANCH  34  35
ATOM     35  C   UNL A   1      34.073  33.756  28.703  1.00  0.00     0.202 C 
BRANCH  35  36
ATOM     36  C   UNL A   1      35.404  33.817  29.474  1.00  0.00     0.261 C 
BRANCH  36  37
ATOM     37  O   UNL A   1      35.321  33.810  30.911  1.00  0.00    -0.460 OA
BRANCH  37  38
ATOM     38  C   UNL A   1      35.575  32.651  31.543  1.00  0.00     0.338 C 
ATOM     39  O   UNL A   1      35.288  31.520  31.160  1.00  0.00    -0.246 OA
BRANCH  38  40
ATOM     40  C   UNL A   1      36.300  32.935  32.793  1.00  0.00     0.060 A 
ATOM     41  C   UNL A   1      36.043  34.111  33.505  1.00  0.00     0.016 A 
ATOM     42  C   UNL A   1      37.301  32.060  33.220  1.00  0.00     0.016 A 
ATOM     43  C   UNL A   1      36.800  34.424  34.640  1.00  0.00     0.010 A 
ATOM     44  C   UNL A   1      38.067  32.379  34.347  1.00  0.00     0.010 A 
ATOM     45  C   UNL A   1      37.841  33.578  35.049  1.00  0.00    -0.014 A 
BRANCH  45  46
ATOM     46  C   UNL A   1      38.807  34.015  36.091  1.00  0.00     0.031 A 
ATOM     47  C   UNL A   1      38.491  33.723  37.534  1.00  0.00     0.074 A 
ATOM     48  C   UNL A   1      39.944  34.662  35.779  1.00  0.00     0.049 A 
ATOM     49  N   UNL A   1      39.156  34.051  38.614  1.00  0.00    -0.248 NA
ATOM     50  C   UNL A   1      37.264  32.951  37.793  1.00  0.00     0.031 C 
ATOM     51  C   UNL A   1      40.406  34.959  34.426  1.00  0.00     0.029 A 
ATOM     52  N   UNL A   1      40.917  35.197  36.589  1.00  0.00    -0.354 N 
ATOM     53  C   UNL A   1      38.431  33.524  39.676  1.00  0.00     0.074 A 
ATOM     54  C   UNL A   1      37.261  32.885  39.116  1.00  0.00     0.031 C 
ATOM     55  C   UNL A   1      41.563  35.641  34.498  1.00  0.00     0.029 A 
ATOM     56  C   UNL A   1      41.911  35.850  35.901  1.00  0.00     0.049 A 
ATOM     57  H   UNL A   1      40.903  35.119  37.571  1.00  0.00     0.167 HD
ATOM     58  C   UNL A   1      38.716  33.558  40.999  1.00  0.00     0.031 A 
ATOM     59  C   UNL A   1      42.969  36.552  36.352  1.00  0.00     0.031 A 
ATOM     60  C   UNL A   1      39.861  34.219  41.569  1.00  0.00     0.049 A 
ATOM     61  C   UNL A   1      43.202  36.676  37.836  1.00  0.00     0.074 A 
ATOM     62  C   UNL A   1      40.230  34.311  42.900  1.00  0.00     0.029 A 
ATOM     63  N   UNL A   1      40.813  34.913  40.841  1.00  0.00    -0.354 N 
ATOM     64  N   UNL A   1      42.525  36.150  38.828  1.00  0.00    -0.248 NA
ATOM     65  C   UNL A   1      44.355  37.485  38.262  1.00  0.00     0.031 C 
ATOM     66  C   UNL A   1      41.374  35.109  42.982  1.00  0.00     0.029 A 
ATOM     67  C   UNL A   1      41.755  35.460  41.697  1.00  0.00     0.049 A 
ATOM     68  H   UNL A   1      40.820  35.003  39.860  1.00  0.00     0.167 HD
ATOM     69  C   UNL A   1      43.191  36.531  39.988  1.00  0.00     0.074 A 
ATOM     70  C   UNL A   1      44.330  37.323  39.577  1.00  0.00     0.031 C 
ATOM     71  C   UNL A   1      42.888  36.243  41.277  1.00  0.00     0.031 A 
BRANCH  58  72
ATOM     72  C   UNL A   1      37.748  32.881  41.930  1.00  0.00    -0.014 A 
ATOM     73  C   UNL A   1      37.933  31.547  42.326  1.00  0.00     0.009 A 
ATOM     74  C   UNL A   1      36.654  33.596  42.441  1.00  0.00     0.009 A 
ATOM     75  C   UNL A   1      37.023  30.932  43.189  1.00  0.00     0.001 A 
ATOM     76  C   UNL A   1      35.762  32.989  43.326  1.00  0.00     0.001 A 
ATOM     77  C   UNL A   1      35.941  31.656  43.691  1.00  0.00     0.000 A 
ENDBRANCH  58  72
BRANCH  59  78
ATOM     78  C   UNL A   1      43.896  37.216  35.395  1.00  0.00    -0.014 A 
ATOM     79  C   UNL A   1      43.637  38.515  34.930  1.00  0.00     0.009 A 
ATOM     80  C   UNL A   1      45.021  36.534  34.904  1.00  0.00     0.009 A 
ATOM     81  C   UNL A   1      44.466  39.104  33.973  1.00  0.00     0.001 A 
ATOM     82  C   UNL A   1      45.866  37.137  33.969  1.00  0.00     0.001 A 
ATOM     83  C   UNL A   1      45.581  38.417  33.495  1.00  0.00     0.000 A 
ENDBRANCH  59  78
BRANCH  71  84
ATOM     84  C   UNL A   1      43.826  36.747  42.341  1.00  0.00    -0.014 A 
ATOM     85  C   UNL A   1      43.630  37.987  42.966  1.00  0.00     0.009 A 
ATOM     86  C   UNL A   1      44.899  35.939  42.754  1.00  0.00     0.009 A 
ATOM     87  C   UNL A   1      44.508  38.424  43.961  1.00  0.00     0.001 A 
ATOM     88  C   UNL A   1      45.756  36.364  43.770  1.00  0.00     0.001 A 
ATOM     89  C   UNL A   1      45.567  37.609  44.366  1.00  0.00     0.000 A 
ENDBRANCH  71  84
ENDBRANCH  45  46
ENDBRANCH  38  40
ENDBRANCH  37  38
ENDBRANCH  36  37
ENDBRANCH  35  36
ENDBRANCH  34  35
ENDBRANCH  33  34
ENDBRANCH  32  33
ENDBRANCH   1  32
TORSDOF 24
ENDMDL
