MODEL 1
REMARK VINA RESULT:      -9.3      0.000      0.000
REMARK SMILES CC[N@@H+]1C/C(=C\c2ccccc2C)c2nc3ccccc3c(C(=O)OCCOCCOCCOCCOC(=O)c3ccc(-c4c5nc(c(-c6ccccc6)c6ccc([nH]6)c(-c6ccccc6)c6nc(c(-c7ccccc7)c7ccc4[nH]7)C=C6)C=C5)cc3)c2C1
REMARK SMILES IDX 32 1 31 2 30 3 29 4 28 5 27 6 26 7 25 8 23 9 24 10 22 11
REMARK SMILES IDX 3 12 4 13 89 14 5 16 88 17 6 18 14 19 15 20 21 21 16 22
REMARK SMILES IDX 20 23 17 24 19 25 18 26 2 27 1 28 7 29 8 30 12 31 9 32 11 33
REMARK SMILES IDX 13 34 10 35 33 36 34 37 35 38 36 39 37 40 38 41 39 42 40 43
REMARK SMILES IDX 41 44 87 45 42 46 86 47 43 48 44 49 45 50 80 51 46 52 85 53
REMARK SMILES IDX 79 54 81 55 47 56 84 57 78 58 77 59 48 61 70 62 55 63 69 64
REMARK SMILES IDX 56 65 59 66 68 67 82 68 57 69 58 70 67 72 83 73 60 74 49 75
REMARK SMILES IDX 50 76 54 77 51 78 53 79 52 80 71 81 72 82 76 83 73 84 75 85
REMARK SMILES IDX 74 86 61 87 62 88 66 89 63 90 65 91 64 92
REMARK H PARENT 3 15 81 60 59 71
REMARK Flexibility Score: inf
ROOT
ATOM      1  C   UNL A   1      43.427  36.213  31.858  1.00  0.00     0.188 C 
ENDROOT
BRANCH   1   2
ATOM      2  O   UNL A   1      43.100  35.007  31.180  1.00  0.00    -0.377 OA
BRANCH   2   3
ATOM      3  C   UNL A   1      41.760  34.546  31.203  1.00  0.00     0.188 C 
BRANCH   3   4
ATOM      4  C   UNL A   1      41.100  34.143  29.872  1.00  0.00     0.188 C 
BRANCH   4   5
ATOM      5  O   UNL A   1      39.945  34.900  29.516  1.00  0.00    -0.376 OA
BRANCH   5   6
ATOM      6  C   UNL A   1      38.780  34.619  30.282  1.00  0.00     0.202 C 
BRANCH   6   7
ATOM      7  C   UNL A   1      37.641  34.036  29.447  1.00  0.00     0.261 C 
BRANCH   7   8
ATOM      8  O   UNL A   1      37.139  32.797  29.973  1.00  0.00    -0.460 OA
BRANCH   8   9
ATOM      9  C   UNL A   1      35.846  32.751  30.353  1.00  0.00     0.339 C 
ATOM     10  O   UNL A   1      34.962  32.115  29.805  1.00  0.00    -0.246 OA
BRANCH   9  11
ATOM     11  C   UNL A   1      35.677  33.478  31.643  1.00  0.00     0.080 A 
ATOM     12  N   UNL A   1      38.528  32.179  33.700  1.00  0.00    -0.328 N 
ATOM     13  C   UNL A   1      37.828  32.028  34.974  1.00  0.00     0.301 C 
ATOM     14  C   UNL A   1      37.547  32.013  32.628  1.00  0.00     0.302 C 
ATOM     15  H   UNL A   1      38.919  33.120  33.633  1.00  0.00     0.348 HD
ATOM     16  C   UNL A   1      36.983  33.264  35.185  1.00  0.00     0.033 C 
ATOM     17  C   UNL A   1      36.464  33.067  32.738  1.00  0.00     0.048 A 
ATOM     18  C   UNL A   1      36.928  33.948  36.349  1.00  0.00     0.020 C 
ATOM     19  C   UNL A   1      36.230  33.685  33.968  1.00  0.00     0.082 A 
ATOM     20  N   UNL A   1      35.326  34.680  34.122  1.00  0.00    -0.247 NA
ATOM     21  C   UNL A   1      34.757  34.560  31.773  1.00  0.00     0.015 A 
ATOM     22  C   UNL A   1      34.635  35.118  33.060  1.00  0.00     0.072 A 
ATOM     23  C   UNL A   1      33.969  35.123  30.727  1.00  0.00     0.011 A 
ATOM     24  C   UNL A   1      33.760  36.177  33.261  1.00  0.00     0.029 A 
ATOM     25  C   UNL A   1      33.121  36.208  30.948  1.00  0.00     0.001 A 
ATOM     26  C   UNL A   1      33.009  36.733  32.224  1.00  0.00     0.002 A 
BRANCH  12  27
ATOM     27  C   UNL A   1      39.740  31.378  33.579  1.00  0.00     0.259 C 
ATOM     28  C   UNL A   1      40.132  30.949  32.174  1.00  0.00     0.071 C 
ENDBRANCH  12  27
BRANCH  18  29
ATOM     29  C   UNL A   1      37.640  33.517  37.565  1.00  0.00    -0.022 A 
ATOM     30  C   UNL A   1      37.005  32.609  38.432  1.00  0.00     0.008 A 
ATOM     31  C   UNL A   1      38.882  34.067  37.930  1.00  0.00    -0.044 A 
ATOM     32  C   UNL A   1      37.551  32.310  39.679  1.00  0.00     0.001 A 
ATOM     33  C   UNL A   1      39.426  33.742  39.186  1.00  0.00     0.004 A 
ATOM     34  C   UNL A   1      39.670  34.988  37.040  1.00  0.00     0.045 C 
ATOM     35  C   UNL A   1      38.757  32.887  40.062  1.00  0.00     0.000 A 
ENDBRANCH  18  29
ENDBRANCH   9  11
ENDBRANCH   8   9
ENDBRANCH   7   8
ENDBRANCH   6   7
ENDBRANCH   5   6
ENDBRANCH   4   5
ENDBRANCH   3   4
ENDBRANCH   2   3
ENDBRANCH   1   2
BRANCH   1  36
ATOM     36  C   UNL A   1      44.309  37.290  31.190  1.00  0.00     0.188 C 
BRANCH  36  37
ATOM     37  O   UNL A   1      43.595  38.310  30.502  1.00  0.00    -0.376 OA
BRANCH  37  38
ATOM     38  C   UNL A   1      43.748  38.354  29.092  1.00  0.00     0.202 C 
BRANCH  38  39
ATOM     39  C   UNL A   1      43.617  36.989  28.411  1.00  0.00     0.261 C 
BRANCH  39  40
ATOM     40  O   UNL A   1      44.707  36.636  27.547  1.00  0.00    -0.460 OA
BRANCH  40  41
ATOM     41  C   UNL A   1      45.811  36.095  28.109  1.00  0.00     0.338 C 
ATOM     42  O   UNL A   1      46.704  36.673  28.701  1.00  0.00    -0.246 OA
BRANCH  41  43
ATOM     43  C   UNL A   1      45.643  34.629  28.052  1.00  0.00     0.060 A 
ATOM     44  C   UNL A   1      45.804  33.863  29.209  1.00  0.00     0.016 A 
ATOM     45  C   UNL A   1      45.392  34.016  26.818  1.00  0.00     0.016 A 
ATOM     46  C   UNL A   1      45.685  32.476  29.135  1.00  0.00     0.010 A 
ATOM     47  C   UNL A   1      45.287  32.626  26.743  1.00  0.00     0.010 A 
ATOM     48  C   UNL A   1      45.408  31.851  27.907  1.00  0.00    -0.014 A 
BRANCH  48  49
ATOM     49  C   UNL A   1      45.022  30.422  27.899  1.00  0.00     0.031 A 
ATOM     50  C   UNL A   1      43.636  29.958  28.217  1.00  0.00     0.074 A 
ATOM     51  C   UNL A   1      45.980  29.534  27.571  1.00  0.00     0.049 A 
ATOM     52  N   UNL A   1      43.144  28.748  28.125  1.00  0.00    -0.248 NA
ATOM     53  C   UNL A   1      42.680  30.965  28.699  1.00  0.00     0.031 C 
ATOM     54  C   UNL A   1      47.369  29.882  27.263  1.00  0.00     0.029 A 
ATOM     55  N   UNL A   1      45.934  28.172  27.427  1.00  0.00    -0.354 N 
ATOM     56  C   UNL A   1      41.817  28.846  28.516  1.00  0.00     0.074 A 
ATOM     57  C   UNL A   1      41.589  30.228  28.886  1.00  0.00     0.031 C 
ATOM     58  C   UNL A   1      48.039  28.765  26.946  1.00  0.00     0.029 A 
ATOM     59  C   UNL A   1      47.135  27.624  27.047  1.00  0.00     0.049 A 
ATOM     60  H   UNL A   1      45.122  27.639  27.583  1.00  0.00     0.167 HD
ATOM     61  C   UNL A   1      40.880  27.868  28.546  1.00  0.00     0.031 A 
ATOM     62  C   UNL A   1      47.474  26.347  26.795  1.00  0.00     0.031 A 
ATOM     63  C   UNL A   1      41.128  26.491  28.194  1.00  0.00     0.049 A 
ATOM     64  C   UNL A   1      46.420  25.282  26.867  1.00  0.00     0.074 A 
ATOM     65  C   UNL A   1      40.223  25.444  28.148  1.00  0.00     0.029 A 
ATOM     66  N   UNL A   1      42.363  25.967  27.846  1.00  0.00    -0.354 N 
ATOM     67  N   UNL A   1      45.146  25.406  27.145  1.00  0.00    -0.248 NA
ATOM     68  C   UNL A   1      46.842  23.906  26.567  1.00  0.00     0.031 C 
ATOM     69  C   UNL A   1      40.920  24.275  27.838  1.00  0.00     0.029 A 
ATOM     70  C   UNL A   1      42.249  24.604  27.619  1.00  0.00     0.049 A 
ATOM     71  H   UNL A   1      43.197  26.485  27.770  1.00  0.00     0.167 HD
ATOM     72  C   UNL A   1      44.608  24.131  27.034  1.00  0.00     0.074 A 
ATOM     73  C   UNL A   1      45.690  23.252  26.645  1.00  0.00     0.031 C 
ATOM     74  C   UNL A   1      43.330  23.732  27.238  1.00  0.00     0.031 A 
BRANCH  61  75
ATOM     75  C   UNL A   1      39.479  28.226  28.959  1.00  0.00    -0.014 A 
ATOM     76  C   UNL A   1      38.629  28.884  28.055  1.00  0.00     0.009 A 
ATOM     77  C   UNL A   1      39.058  28.059  30.288  1.00  0.00     0.009 A 
ATOM     78  C   UNL A   1      37.399  29.392  28.479  1.00  0.00     0.001 A 
ATOM     79  C   UNL A   1      37.816  28.546  30.703  1.00  0.00     0.001 A 
ATOM     80  C   UNL A   1      36.994  29.222  29.802  1.00  0.00     0.000 A 
ENDBRANCH  61  75
BRANCH  62  81
ATOM     81  C   UNL A   1      48.874  26.032  26.413  1.00  0.00    -0.014 A 
ATOM     82  C   UNL A   1      49.782  25.553  27.373  1.00  0.00     0.009 A 
ATOM     83  C   UNL A   1      49.327  26.263  25.107  1.00  0.00     0.009 A 
ATOM     84  C   UNL A   1      51.118  25.333  27.038  1.00  0.00     0.001 A 
ATOM     85  C   UNL A   1      50.659  26.012  24.767  1.00  0.00     0.001 A 
ATOM     86  C   UNL A   1      51.554  25.556  25.734  1.00  0.00     0.000 A 
ENDBRANCH  62  81
BRANCH  74  87
ATOM     87  C   UNL A   1      43.010  22.276  27.040  1.00  0.00    -0.014 A 
ATOM     88  C   UNL A   1      43.507  21.599  25.914  1.00  0.00     0.009 A 
ATOM     89  C   UNL A   1      42.138  21.602  27.908  1.00  0.00     0.009 A 
ATOM     90  C   UNL A   1      43.125  20.282  25.653  1.00  0.00     0.001 A 
ATOM     91  C   UNL A   1      41.782  20.274  27.660  1.00  0.00     0.001 A 
ATOM     92  C   UNL A   1      42.267  19.620  26.529  1.00  0.00     0.000 A 
ENDBRANCH  74  87
ENDBRANCH  48  49
ENDBRANCH  41  43
ENDBRANCH  40  41
ENDBRANCH  39  40
ENDBRANCH  38  39
ENDBRANCH  37  38
ENDBRANCH  36  37
ENDBRANCH   1  36
TORSDOF 22
ENDMDL
MODEL 2
REMARK VINA RESULT:      -9.0      3.723      9.387
REMARK SMILES CC[N@@H+]1C/C(=C\c2ccccc2C)c2nc3ccccc3c(C(=O)OCCOCCOCCOCCOC(=O)c3ccc(-c4c5nc(c(-c6ccccc6)c6ccc([nH]6)c(-c6ccccc6)c6nc(c(-c7ccccc7)c7ccc4[nH]7)C=C6)C=C5)cc3)c2C1
REMARK SMILES IDX 32 1 31 2 30 3 29 4 28 5 27 6 26 7 25 8 23 9 24 10 22 11
REMARK SMILES IDX 3 12 4 13 89 14 5 16 88 17 6 18 14 19 15 20 21 21 16 22
REMARK SMILES IDX 20 23 17 24 19 25 18 26 2 27 1 28 7 29 8 30 12 31 9 32 11 33
REMARK SMILES IDX 13 34 10 35 33 36 34 37 35 38 36 39 37 40 38 41 39 42 40 43
REMARK SMILES IDX 41 44 87 45 42 46 86 47 43 48 44 49 45 50 80 51 46 52 85 53
REMARK SMILES IDX 79 54 81 55 47 56 84 57 78 58 77 59 48 61 70 62 55 63 69 64
REMARK SMILES IDX 56 65 59 66 68 67 82 68 57 69 58 70 67 72 83 73 60 74 49 75
REMARK SMILES IDX 50 76 54 77 51 78 53 79 52 80 71 81 72 82 76 83 73 84 75 85
REMARK SMILES IDX 74 86 61 87 62 88 66 89 63 90 65 91 64 92
REMARK H PARENT 3 15 81 60 59 71
REMARK Flexibility Score: inf
ROOT
ATOM      1  C   UNL A   1      34.217  34.349  33.217  1.00  0.00     0.188 C 
ENDROOT
BRANCH   1   2
ATOM      2  O   UNL A   1      34.354  35.304  32.173  1.00  0.00    -0.377 OA
BRANCH   2   3
ATOM      3  C   UNL A   1      33.260  36.151  31.867  1.00  0.00     0.188 C 
BRANCH   3   4
ATOM      4  C   UNL A   1      32.571  35.996  30.499  1.00  0.00     0.188 C 
BRANCH   4   5
ATOM      5  O   UNL A   1      33.202  36.686  29.423  1.00  0.00    -0.376 OA
BRANCH   5   6
ATOM      6  C   UNL A   1      34.068  35.890  28.622  1.00  0.00     0.202 C 
BRANCH   6   7
ATOM      7  C   UNL A   1      33.435  34.568  28.189  1.00  0.00     0.261 C 
BRANCH   7   8
ATOM      8  O   UNL A   1      34.400  33.521  28.002  1.00  0.00    -0.460 OA
BRANCH   8   9
ATOM      9  C   UNL A   1      34.533  32.603  28.982  1.00  0.00     0.339 C 
ATOM     10  O   UNL A   1      34.169  32.734  30.138  1.00  0.00    -0.246 OA
BRANCH   9  11
ATOM     11  C   UNL A   1      35.058  31.332  28.409  1.00  0.00     0.080 A 
ATOM     12  N   UNL A   1      32.322  30.290  26.068  1.00  0.00    -0.328 N 
ATOM     13  C   UNL A   1      32.318  28.858  26.359  1.00  0.00     0.301 C 
ATOM     14  C   UNL A   1      32.778  30.990  27.269  1.00  0.00     0.302 C 
ATOM     15  H   UNL A   1      32.983  30.485  25.314  1.00  0.00     0.348 HD
ATOM     16  C   UNL A   1      33.756  28.395  26.415  1.00  0.00     0.033 C 
ATOM     17  C   UNL A   1      34.179  30.545  27.638  1.00  0.00     0.048 A 
ATOM     18  C   UNL A   1      34.211  27.279  25.804  1.00  0.00     0.020 C 
ATOM     19  C   UNL A   1      34.646  29.308  27.188  1.00  0.00     0.082 A 
ATOM     20  N   UNL A   1      35.908  28.878  27.423  1.00  0.00    -0.247 NA
ATOM     21  C   UNL A   1      36.406  30.920  28.624  1.00  0.00     0.015 A 
ATOM     22  C   UNL A   1      36.762  29.665  28.093  1.00  0.00     0.072 A 
ATOM     23  C   UNL A   1      37.412  31.661  29.309  1.00  0.00     0.011 A 
ATOM     24  C   UNL A   1      38.060  29.200  28.260  1.00  0.00     0.029 A 
ATOM     25  C   UNL A   1      38.718  31.186  29.436  1.00  0.00     0.001 A 
ATOM     26  C   UNL A   1      39.041  29.945  28.916  1.00  0.00     0.002 A 
BRANCH  12  27
ATOM     27  C   UNL A   1      31.088  30.789  25.474  1.00  0.00     0.259 C 
ATOM     28  C   UNL A   1      30.526  29.994  24.307  1.00  0.00     0.071 C 
ENDBRANCH  12  27
BRANCH  18  29
ATOM     29  C   UNL A   1      33.330  26.353  25.070  1.00  0.00    -0.022 A 
ATOM     30  C   UNL A   1      32.783  25.255  25.758  1.00  0.00     0.008 A 
ATOM     31  C   UNL A   1      33.111  26.480  23.686  1.00  0.00    -0.044 A 
ATOM     32  C   UNL A   1      32.097  24.252  25.074  1.00  0.00     0.001 A 
ATOM     33  C   UNL A   1      32.403  25.467  23.015  1.00  0.00     0.004 A 
ATOM     34  C   UNL A   1      33.593  27.654  22.878  1.00  0.00     0.045 C 
ATOM     35  C   UNL A   1      31.917  24.352  23.699  1.00  0.00     0.000 A 
ENDBRANCH  18  29
ENDBRANCH   9  11
ENDBRANCH   8   9
ENDBRANCH   7   8
ENDBRANCH   6   7
ENDBRANCH   5   6
ENDBRANCH   4   5
ENDBRANCH   3   4
ENDBRANCH   2   3
ENDBRANCH   1   2
BRANCH   1  36
ATOM     36  C   UNL A   1      35.450  33.634  33.811  1.00  0.00     0.188 C 
BRANCH  36  37
ATOM     37  O   UNL A   1      36.198  32.855  32.886  1.00  0.00    -0.376 OA
BRANCH  37  38
ATOM     38  C   UNL A   1      36.914  31.751  33.417  1.00  0.00     0.202 C 
BRANCH  38  39
ATOM     39  C   UNL A   1      38.398  32.035  33.666  1.00  0.00     0.261 C 
BRANCH  39  40
ATOM     40  O   UNL A   1      39.097  32.619  32.557  1.00  0.00    -0.460 OA
BRANCH  40  41
ATOM     41  C   UNL A   1      40.120  33.461  32.826  1.00  0.00     0.338 C 
ATOM     42  O   UNL A   1      40.149  34.357  33.648  1.00  0.00    -0.246 OA
BRANCH  41  43
ATOM     43  C   UNL A   1      41.287  32.967  32.069  1.00  0.00     0.060 A 
ATOM     44  C   UNL A   1      42.423  32.522  32.751  1.00  0.00     0.016 A 
ATOM     45  C   UNL A   1      41.269  33.017  30.670  1.00  0.00     0.016 A 
ATOM     46  C   UNL A   1      43.535  32.097  32.027  1.00  0.00     0.010 A 
ATOM     47  C   UNL A   1      42.389  32.604  29.946  1.00  0.00     0.010 A 
ATOM     48  C   UNL A   1      43.519  32.118  30.622  1.00  0.00    -0.014 A 
BRANCH  48  49
ATOM     49  C   UNL A   1      44.592  31.418  29.880  1.00  0.00     0.031 A 
ATOM     50  C   UNL A   1      45.792  32.127  29.336  1.00  0.00     0.074 A 
ATOM     51  C   UNL A   1      44.458  30.087  29.724  1.00  0.00     0.049 A 
ATOM     52  N   UNL A   1      46.855  31.609  28.777  1.00  0.00    -0.248 NA
ATOM     53  C   UNL A   1      45.806  33.594  29.422  1.00  0.00     0.031 C 
ATOM     54  C   UNL A   1      43.315  29.303  30.200  1.00  0.00     0.029 A 
ATOM     55  N   UNL A   1      45.281  29.161  29.141  1.00  0.00    -0.354 N 
ATOM     56  C   UNL A   1      47.680  32.680  28.462  1.00  0.00     0.074 A 
ATOM     57  C   UNL A   1      46.974  33.882  28.856  1.00  0.00     0.031 C 
ATOM     58  C   UNL A   1      43.521  28.011  29.909  1.00  0.00     0.029 A 
ATOM     59  C   UNL A   1      44.795  27.879  29.211  1.00  0.00     0.049 A 
ATOM     60  H   UNL A   1      46.137  29.392  28.713  1.00  0.00     0.167 HD
ATOM     61  C   UNL A   1      48.916  32.648  27.907  1.00  0.00     0.031 A 
ATOM     62  C   UNL A   1      45.317  26.718  28.774  1.00  0.00     0.031 A 
ATOM     63  C   UNL A   1      49.597  31.443  27.502  1.00  0.00     0.049 A 
ATOM     64  C   UNL A   1      46.676  26.721  28.137  1.00  0.00     0.074 A 
ATOM     65  C   UNL A   1      50.872  31.317  26.979  1.00  0.00     0.029 A 
ATOM     66  N   UNL A   1      49.060  30.167  27.558  1.00  0.00    -0.354 N 
ATOM     67  N   UNL A   1      47.484  27.732  27.933  1.00  0.00    -0.248 NA
ATOM     68  C   UNL A   1      47.205  25.425  27.691  1.00  0.00     0.031 C 
ATOM     69  C   UNL A   1      51.082  29.975  26.655  1.00  0.00     0.029 A 
ATOM     70  C   UNL A   1      49.966  29.252  27.044  1.00  0.00     0.049 A 
ATOM     71  H   UNL A   1      48.169  29.942  27.910  1.00  0.00     0.167 HD
ATOM     72  C   UNL A   1      48.625  27.193  27.355  1.00  0.00     0.074 A 
ATOM     73  C   UNL A   1      48.413  25.764  27.259  1.00  0.00     0.031 C 
ATOM     74  C   UNL A   1      49.747  27.831  26.944  1.00  0.00     0.031 A 
BRANCH  61  75
ATOM     75  C   UNL A   1      49.647  33.947  27.707  1.00  0.00    -0.014 A 
ATOM     76  C   UNL A   1      50.409  34.491  28.754  1.00  0.00     0.009 A 
ATOM     77  C   UNL A   1      49.449  34.708  26.544  1.00  0.00     0.009 A 
ATOM     78  C   UNL A   1      50.936  35.780  28.652  1.00  0.00     0.001 A 
ATOM     79  C   UNL A   1      49.999  35.988  26.436  1.00  0.00     0.001 A 
ATOM     80  C   UNL A   1      50.731  36.528  27.493  1.00  0.00     0.000 A 
ENDBRANCH  61  75
BRANCH  62  81
ATOM     81  C   UNL A   1      44.553  25.460  28.970  1.00  0.00    -0.014 A 
ATOM     82  C   UNL A   1      43.578  25.069  28.037  1.00  0.00     0.009 A 
ATOM     83  C   UNL A   1      44.748  24.678  30.117  1.00  0.00     0.009 A 
ATOM     84  C   UNL A   1      42.801  23.931  28.259  1.00  0.00     0.001 A 
ATOM     85  C   UNL A   1      43.990  23.522  30.320  1.00  0.00     0.001 A 
ATOM     86  C   UNL A   1      43.012  23.156  29.396  1.00  0.00     0.000 A 
ENDBRANCH  62  81
BRANCH  74  87
ATOM     87  C   UNL A   1      50.852  26.999  26.353  1.00  0.00    -0.014 A 
ATOM     88  C   UNL A   1      50.955  26.867  24.958  1.00  0.00     0.009 A 
ATOM     89  C   UNL A   1      51.725  26.268  27.172  1.00  0.00     0.009 A 
ATOM     90  C   UNL A   1      51.900  26.008  24.396  1.00  0.00     0.001 A 
ATOM     91  C   UNL A   1      52.690  25.433  26.605  1.00  0.00     0.001 A 
ATOM     92  C   UNL A   1      52.770  25.295  25.220  1.00  0.00     0.000 A 
ENDBRANCH  74  87
ENDBRANCH  48  49
ENDBRANCH  41  43
ENDBRANCH  40  41
ENDBRANCH  39  40
ENDBRANCH  38  39
ENDBRANCH  37  38
ENDBRANCH  36  37
ENDBRANCH   1  36
TORSDOF 22
ENDMDL
MODEL 3
REMARK VINA RESULT:      -8.8      4.455      9.265
REMARK SMILES CC[N@@H+]1C/C(=C\c2ccccc2C)c2nc3ccccc3c(C(=O)OCCOCCOCCOCCOC(=O)c3ccc(-c4c5nc(c(-c6ccccc6)c6ccc([nH]6)c(-c6ccccc6)c6nc(c(-c7ccccc7)c7ccc4[nH]7)C=C6)C=C5)cc3)c2C1
REMARK SMILES IDX 32 1 31 2 30 3 29 4 28 5 27 6 26 7 25 8 23 9 24 10 22 11
REMARK SMILES IDX 3 12 4 13 89 14 5 16 88 17 6 18 14 19 15 20 21 21 16 22
REMARK SMILES IDX 20 23 17 24 19 25 18 26 2 27 1 28 7 29 8 30 12 31 9 32 11 33
REMARK SMILES IDX 13 34 10 35 33 36 34 37 35 38 36 39 37 40 38 41 39 42 40 43
REMARK SMILES IDX 41 44 87 45 42 46 86 47 43 48 44 49 45 50 80 51 46 52 85 53
REMARK SMILES IDX 79 54 81 55 47 56 84 57 78 58 77 59 48 61 70 62 55 63 69 64
REMARK SMILES IDX 56 65 59 66 68 67 82 68 57 69 58 70 67 72 83 73 60 74 49 75
REMARK SMILES IDX 50 76 54 77 51 78 53 79 52 80 71 81 72 82 76 83 73 84 75 85
REMARK SMILES IDX 74 86 61 87 62 88 66 89 63 90 65 91 64 92
REMARK H PARENT 3 15 81 60 59 71
REMARK Flexibility Score: inf
ROOT
ATOM      1  C   UNL A   1      33.742  24.725  25.453  1.00  0.00     0.188 C 
ENDROOT
BRANCH   1   2
ATOM      2  O   UNL A   1      34.033  26.114  25.383  1.00  0.00    -0.377 OA
BRANCH   2   3
ATOM      3  C   UNL A   1      33.020  27.048  25.713  1.00  0.00     0.188 C 
BRANCH   3   4
ATOM      4  C   UNL A   1      33.382  28.232  26.628  1.00  0.00     0.188 C 
BRANCH   4   5
ATOM      5  O   UNL A   1      34.700  28.748  26.456  1.00  0.00    -0.376 OA
BRANCH   5   6
ATOM      6  C   UNL A   1      35.205  29.490  27.559  1.00  0.00     0.202 C 
BRANCH   6   7
ATOM      7  C   UNL A   1      34.526  30.849  27.728  1.00  0.00     0.261 C 
BRANCH   7   8
ATOM      8  O   UNL A   1      34.820  31.468  28.990  1.00  0.00    -0.460 OA
BRANCH   8   9
ATOM      9  C   UNL A   1      35.718  32.475  29.004  1.00  0.00     0.339 C 
ATOM     10  O   UNL A   1      36.477  32.768  28.097  1.00  0.00    -0.246 OA
BRANCH   9  11
ATOM     11  C   UNL A   1      35.545  33.282  30.244  1.00  0.00     0.080 A 
ATOM     12  N   UNL A   1      38.516  32.279  32.300  1.00  0.00    -0.328 N 
ATOM     13  C   UNL A   1      37.859  32.183  33.602  1.00  0.00     0.301 C 
ATOM     14  C   UNL A   1      37.516  31.988  31.272  1.00  0.00     0.302 C 
ATOM     15  H   UNL A   1      38.855  33.231  32.155  1.00  0.00     0.348 HD
ATOM     16  C   UNL A   1      36.956  33.387  33.751  1.00  0.00     0.033 C 
ATOM     17  C   UNL A   1      36.383  32.990  31.341  1.00  0.00     0.048 A 
ATOM     18  C   UNL A   1      36.896  34.148  34.866  1.00  0.00     0.020 C 
ATOM     19  C   UNL A   1      36.150  33.681  32.532  1.00  0.00     0.082 A 
ATOM     20  N   UNL A   1      35.199  34.638  32.644  1.00  0.00    -0.247 NA
ATOM     21  C   UNL A   1      34.573  34.322  30.327  1.00  0.00     0.015 A 
ATOM     22  C   UNL A   1      34.457  34.964  31.575  1.00  0.00     0.072 A 
ATOM     23  C   UNL A   1      33.730  34.769  29.269  1.00  0.00     0.011 A 
ATOM     24  C   UNL A   1      33.533  35.989  31.729  1.00  0.00     0.029 A 
ATOM     25  C   UNL A   1      32.832  35.823  29.440  1.00  0.00     0.001 A 
ATOM     26  C   UNL A   1      32.727  36.431  30.679  1.00  0.00     0.002 A 
BRANCH  12  27
ATOM     27  C   UNL A   1      39.765  31.533  32.197  1.00  0.00     0.259 C 
ATOM     28  C   UNL A   1      40.545  31.337  33.488  1.00  0.00     0.071 C 
ENDBRANCH  12  27
BRANCH  18  29
ATOM     29  C   UNL A   1      37.662  33.841  36.087  1.00  0.00    -0.022 A 
ATOM     30  C   UNL A   1      37.060  33.045  37.078  1.00  0.00     0.008 A 
ATOM     31  C   UNL A   1      38.928  34.406  36.329  1.00  0.00    -0.044 A 
ATOM     32  C   UNL A   1      37.663  32.876  38.324  1.00  0.00     0.001 A 
ATOM     33  C   UNL A   1      39.529  34.212  37.586  1.00  0.00     0.004 A 
ATOM     34  C   UNL A   1      39.681  35.210  35.305  1.00  0.00     0.045 C 
ATOM     35  C   UNL A   1      38.893  33.471  38.582  1.00  0.00     0.000 A 
ENDBRANCH  18  29
ENDBRANCH   9  11
ENDBRANCH   8   9
ENDBRANCH   7   8
ENDBRANCH   6   7
ENDBRANCH   5   6
ENDBRANCH   4   5
ENDBRANCH   3   4
ENDBRANCH   2   3
ENDBRANCH   1   2
BRANCH   1  36
ATOM     36  C   UNL A   1      34.770  23.721  26.019  1.00  0.00     0.188 C 
BRANCH  36  37
ATOM     37  O   UNL A   1      34.957  22.547  25.239  1.00  0.00    -0.376 OA
BRANCH  37  38
ATOM     38  C   UNL A   1      36.094  21.755  25.543  1.00  0.00     0.202 C 
BRANCH  38  39
ATOM     39  C   UNL A   1      37.414  22.346  25.039  1.00  0.00     0.261 C 
BRANCH  39  40
ATOM     40  O   UNL A   1      38.432  22.494  26.040  1.00  0.00    -0.460 OA
BRANCH  40  41
ATOM     41  C   UNL A   1      39.381  21.534  26.126  1.00  0.00     0.338 C 
ATOM     42  O   UNL A   1      39.359  20.421  25.635  1.00  0.00    -0.246 OA
BRANCH  41  43
ATOM     43  C   UNL A   1      40.557  22.155  26.767  1.00  0.00     0.060 A 
ATOM     44  C   UNL A   1      41.740  21.427  26.909  1.00  0.00     0.016 A 
ATOM     45  C   UNL A   1      40.448  23.450  27.291  1.00  0.00     0.016 A 
ATOM     46  C   UNL A   1      42.831  22.008  27.553  1.00  0.00     0.010 A 
ATOM     47  C   UNL A   1      41.537  24.025  27.950  1.00  0.00     0.010 A 
ATOM     48  C   UNL A   1      42.742  23.315  28.060  1.00  0.00    -0.014 A 
BRANCH  48  49
ATOM     49  C   UNL A   1      43.979  24.003  28.494  1.00  0.00     0.031 A 
ATOM     50  C   UNL A   1      44.897  24.694  27.537  1.00  0.00     0.074 A 
ATOM     51  C   UNL A   1      44.247  24.001  29.814  1.00  0.00     0.049 A 
ATOM     52  N   UNL A   1      45.943  25.434  27.806  1.00  0.00    -0.248 NA
ATOM     53  C   UNL A   1      44.618  24.540  26.103  1.00  0.00     0.031 C 
ATOM     54  C   UNL A   1      43.426  23.338  30.831  1.00  0.00     0.029 A 
ATOM     55  N   UNL A   1      45.264  24.577  30.528  1.00  0.00    -0.354 N 
ATOM     56  C   UNL A   1      46.438  25.854  26.580  1.00  0.00     0.074 A 
ATOM     57  C   UNL A   1      45.601  25.252  25.562  1.00  0.00     0.031 C 
ATOM     58  C   UNL A   1      43.960  23.564  32.039  1.00  0.00     0.029 A 
ATOM     59  C   UNL A   1      45.167  24.367  31.881  1.00  0.00     0.049 A 
ATOM     60  H   UNL A   1      45.994  25.091  30.112  1.00  0.00     0.167 HD
ATOM     61  C   UNL A   1      47.487  26.676  26.340  1.00  0.00     0.031 A 
ATOM     62  C   UNL A   1      45.954  24.782  32.891  1.00  0.00     0.031 A 
ATOM     63  C   UNL A   1      48.324  27.251  27.365  1.00  0.00     0.049 A 
ATOM     64  C   UNL A   1      47.126  25.668  32.589  1.00  0.00     0.074 A 
ATOM     65  C   UNL A   1      49.377  28.137  27.213  1.00  0.00     0.029 A 
ATOM     66  N   UNL A   1      48.216  26.990  28.722  1.00  0.00    -0.354 N 
ATOM     67  N   UNL A   1      47.525  26.134  31.431  1.00  0.00    -0.248 NA
ATOM     68  C   UNL A   1      47.943  26.104  33.730  1.00  0.00     0.031 C 
ATOM     69  C   UNL A   1      49.949  28.358  28.466  1.00  0.00     0.029 A 
ATOM     70  C   UNL A   1      49.208  27.669  29.412  1.00  0.00     0.049 A 
ATOM     71  H   UNL A   1      47.536  26.409  29.134  1.00  0.00     0.167 HD
ATOM     72  C   UNL A   1      48.625  26.936  31.705  1.00  0.00     0.074 A 
ATOM     73  C   UNL A   1      48.819  26.907  33.140  1.00  0.00     0.031 C 
ATOM     74  C   UNL A   1      49.400  27.632  30.840  1.00  0.00     0.031 A 
BRANCH  61  75
ATOM     75  C   UNL A   1      47.807  27.037  24.915  1.00  0.00    -0.014 A 
ATOM     76  C   UNL A   1      47.030  27.994  24.243  1.00  0.00     0.009 A 
ATOM     77  C   UNL A   1      48.769  26.314  24.192  1.00  0.00     0.009 A 
ATOM     78  C   UNL A   1      47.190  28.203  22.871  1.00  0.00     0.001 A 
ATOM     79  C   UNL A   1      48.944  26.542  22.825  1.00  0.00     0.001 A 
ATOM     80  C   UNL A   1      48.147  27.477  22.164  1.00  0.00     0.000 A 
ENDBRANCH  61  75
BRANCH  62  81
ATOM     81  C   UNL A   1      45.617  24.385  34.282  1.00  0.00    -0.014 A 
ATOM     82  C   UNL A   1      44.796  25.204  35.076  1.00  0.00     0.009 A 
ATOM     83  C   UNL A   1      46.160  23.221  34.843  1.00  0.00     0.009 A 
ATOM     84  C   UNL A   1      44.544  24.876  36.408  1.00  0.00     0.001 A 
ATOM     85  C   UNL A   1      45.879  22.879  36.168  1.00  0.00     0.001 A 
ATOM     86  C   UNL A   1      45.080  23.711  36.951  1.00  0.00     0.000 A 
ENDBRANCH  62  81
BRANCH  74  87
ATOM     87  C   UNL A   1      50.538  28.436  31.407  1.00  0.00    -0.014 A 
ATOM     88  C   UNL A   1      51.783  27.824  31.626  1.00  0.00     0.009 A 
ATOM     89  C   UNL A   1      50.351  29.765  31.817  1.00  0.00     0.009 A 
ATOM     90  C   UNL A   1      52.814  28.522  32.258  1.00  0.00     0.001 A 
ATOM     91  C   UNL A   1      51.395  30.470  32.421  1.00  0.00     0.001 A 
ATOM     92  C   UNL A   1      52.620  29.845  32.651  1.00  0.00     0.000 A 
ENDBRANCH  74  87
ENDBRANCH  48  49
ENDBRANCH  41  43
ENDBRANCH  40  41
ENDBRANCH  39  40
ENDBRANCH  38  39
ENDBRANCH  37  38
ENDBRANCH  36  37
ENDBRANCH   1  36
TORSDOF 22
ENDMDL
