MODEL 1
REMARK VINA RESULT:      -7.7      0.000      0.000
REMARK SMILES O=C(OCCOCCOCCOCCOC(=O)c1cc(-c2ccoc2)n[nH]1)c1ccc(-c2c3nc(c(-c4ccccc4)c4ccc([nH]4)c(-c4ccccc4)c4nc(c(-c5ccccc5)c5ccc2[nH]5)C=C4)C=C3)cc1
REMARK SMILES IDX 8 1 7 2 6 3 5 4 4 5 3 6 2 7 1 8 28 9 29 10 75 11 30 12 74 13
REMARK SMILES IDX 31 14 32 15 33 16 68 17 34 18 73 19 67 20 69 21 35 22 72 23
REMARK SMILES IDX 66 24 65 25 36 27 58 28 43 29 57 30 44 31 47 32 56 33 70 34
REMARK SMILES IDX 45 35 46 36 55 38 71 39 48 40 37 41 38 42 42 43 39 44 41 45
REMARK SMILES IDX 40 46 59 47 60 48 64 49 61 50 63 51 62 52 49 53 50 54 54 55
REMARK SMILES IDX 51 56 53 57 52 58 9 59 10 60 11 61 12 62 13 63 14 64 15 65
REMARK SMILES IDX 16 66 17 67 18 68 19 69 27 70 20 71 26 72 21 74 22 75 25 76
REMARK SMILES IDX 23 77 24 78
REMARK H PARENT 69 26 47 37 27 73
REMARK Flexibility Score: inf
ROOT
ATOM      1  C   UNL A   1      40.620  30.438  30.617  1.00  0.00     0.188 C 
ENDROOT
BRANCH   1   2
ATOM      2  C   UNL A   1      39.925  29.729  29.450  1.00  0.00     0.188 C 
BRANCH   2   3
ATOM      3  O   UNL A   1      39.736  28.342  29.752  1.00  0.00    -0.376 OA
BRANCH   3   4
ATOM      4  C   UNL A   1      38.542  28.031  30.471  1.00  0.00     0.202 C 
BRANCH   4   5
ATOM      5  C   UNL A   1      37.372  28.972  30.181  1.00  0.00     0.261 C 
BRANCH   5   6
ATOM      6  O   UNL A   1      36.663  29.329  31.374  1.00  0.00    -0.460 OA
BRANCH   6   7
ATOM      7  C   UNL A   1      36.280  30.566  31.774  1.00  0.00     0.338 C 
ATOM      8  O   UNL A   1      35.467  31.171  31.075  1.00  0.00    -0.246 OA
BRANCH   7   9
ATOM      9  C   UNL A   1      36.758  31.245  33.024  1.00  0.00     0.060 A 
ATOM     10  C   UNL A   1      36.265  32.437  33.562  1.00  0.00     0.016 A 
ATOM     11  C   UNL A   1      37.775  30.581  33.736  1.00  0.00     0.016 A 
ATOM     12  C   UNL A   1      36.806  33.002  34.712  1.00  0.00     0.010 A 
ATOM     13  C   UNL A   1      38.317  31.130  34.899  1.00  0.00     0.010 A 
ATOM     14  C   UNL A   1      37.857  32.367  35.361  1.00  0.00    -0.014 A 
BRANCH  14  15
ATOM     15  C   UNL A   1      38.619  33.112  36.373  1.00  0.00     0.031 A 
ATOM     16  C   UNL A   1      38.182  32.969  37.798  1.00  0.00     0.074 A 
ATOM     17  C   UNL A   1      39.700  33.829  36.033  1.00  0.00     0.049 A 
ATOM     18  N   UNL A   1      38.569  33.628  38.856  1.00  0.00    -0.248 NA
ATOM     19  C   UNL A   1      37.167  31.935  38.064  1.00  0.00     0.031 C 
ATOM     20  C   UNL A   1      40.277  33.904  34.691  1.00  0.00     0.029 A 
ATOM     21  N   UNL A   1      40.502  34.632  36.796  1.00  0.00    -0.354 N 
ATOM     22  C   UNL A   1      37.808  33.122  39.901  1.00  0.00     0.074 A 
ATOM     23  C   UNL A   1      36.950  32.095  39.359  1.00  0.00     0.031 C 
ATOM     24  C   UNL A   1      41.339  34.728  34.722  1.00  0.00     0.029 A 
ATOM     25  C   UNL A   1      41.466  35.283  36.067  1.00  0.00     0.049 A 
ATOM     26  H   UNL A   1      40.400  34.733  37.770  1.00  0.00     0.167 HD
ATOM     27  C   UNL A   1      37.811  33.510  41.196  1.00  0.00     0.031 A 
ATOM     28  C   UNL A   1      42.312  36.260  36.444  1.00  0.00     0.031 A 
ATOM     29  C   UNL A   1      38.658  34.556  41.693  1.00  0.00     0.049 A 
ATOM     30  C   UNL A   1      42.243  36.745  37.867  1.00  0.00     0.074 A 
ATOM     31  C   UNL A   1      38.719  35.098  42.961  1.00  0.00     0.029 A 
ATOM     32  N   UNL A   1      39.600  35.222  40.918  1.00  0.00    -0.354 N 
ATOM     33  N   UNL A   1      41.472  36.324  38.844  1.00  0.00    -0.248 NA
ATOM     34  C   UNL A   1      43.142  37.844  38.240  1.00  0.00     0.031 C 
ATOM     35  C   UNL A   1      39.670  36.125  42.941  1.00  0.00     0.029 A 
ATOM     36  C   UNL A   1      40.238  36.183  41.675  1.00  0.00     0.049 A 
ATOM     37  H   UNL A   1      39.783  35.037  39.969  1.00  0.00     0.167 HD
ATOM     38  C   UNL A   1      41.800  37.092  39.950  1.00  0.00     0.074 A 
ATOM     39  C   UNL A   1      42.850  38.001  39.525  1.00  0.00     0.031 C 
ATOM     40  C   UNL A   1      41.285  37.057  41.205  1.00  0.00     0.031 A 
BRANCH  27  41
ATOM     41  C   UNL A   1      36.790  32.868  42.092  1.00  0.00    -0.014 A 
ATOM     42  C   UNL A   1      35.503  33.407  42.252  1.00  0.00     0.009 A 
ATOM     43  C   UNL A   1      37.159  31.753  42.859  1.00  0.00     0.009 A 
ATOM     44  C   UNL A   1      34.628  32.874  43.203  1.00  0.00     0.001 A 
ATOM     45  C   UNL A   1      36.273  31.205  43.788  1.00  0.00     0.001 A 
ATOM     46  C   UNL A   1      35.014  31.776  43.971  1.00  0.00     0.000 A 
ENDBRANCH  27  41
BRANCH  28  47
ATOM     47  C   UNL A   1      43.224  36.871  35.443  1.00  0.00    -0.014 A 
ATOM     48  C   UNL A   1      42.796  37.923  34.621  1.00  0.00     0.009 A 
ATOM     49  C   UNL A   1      44.556  36.433  35.338  1.00  0.00     0.009 A 
ATOM     50  C   UNL A   1      43.680  38.521  33.716  1.00  0.00     0.001 A 
ATOM     51  C   UNL A   1      45.444  37.049  34.454  1.00  0.00     0.001 A 
ATOM     52  C   UNL A   1      45.005  38.091  33.641  1.00  0.00     0.000 A 
ENDBRANCH  28  47
BRANCH  40  53
ATOM     53  C   UNL A   1      41.877  37.995  42.214  1.00  0.00    -0.014 A 
ATOM     54  C   UNL A   1      41.332  39.270  42.426  1.00  0.00     0.009 A 
ATOM     55  C   UNL A   1      42.929  37.551  43.029  1.00  0.00     0.009 A 
ATOM     56  C   UNL A   1      41.841  40.087  43.435  1.00  0.00     0.001 A 
ATOM     57  C   UNL A   1      43.419  38.361  44.050  1.00  0.00     0.001 A 
ATOM     58  C   UNL A   1      42.877  39.631  44.250  1.00  0.00     0.000 A 
ENDBRANCH  40  53
ENDBRANCH  14  15
ENDBRANCH   7   9
ENDBRANCH   6   7
ENDBRANCH   5   6
ENDBRANCH   4   5
ENDBRANCH   3   4
ENDBRANCH   2   3
ENDBRANCH   1   2
BRANCH   1  59
ATOM     59  O   UNL A   1      41.274  31.668  30.284  1.00  0.00    -0.377 OA
BRANCH  59  60
ATOM     60  C   UNL A   1      40.446  32.823  30.188  1.00  0.00     0.188 C 
BRANCH  60  61
ATOM     61  C   UNL A   1      39.291  32.955  31.201  1.00  0.00     0.188 C 
BRANCH  61  62
ATOM     62  O   UNL A   1      38.051  33.262  30.598  1.00  0.00    -0.376 OA
BRANCH  62  63
ATOM     63  C   UNL A   1      37.809  32.863  29.260  1.00  0.00     0.202 C 
BRANCH  63  64
ATOM     64  C   UNL A   1      36.680  33.457  28.389  1.00  0.00     0.261 C 
BRANCH  64  65
ATOM     65  O   UNL A   1      35.866  32.564  27.623  1.00  0.00    -0.459 OA
BRANCH  65  66
ATOM     66  C   UNL A   1      34.594  32.359  28.037  1.00  0.00     0.356 C 
ATOM     67  O   UNL A   1      34.001  31.288  28.004  1.00  0.00    -0.244 OA
BRANCH  66  68
ATOM     68  C   UNL A   1      34.133  33.534  28.717  1.00  0.00     0.144 A 
ATOM     69  C   UNL A   1      34.238  33.952  30.032  1.00  0.00     0.066 A 
ATOM     70  N   UNL A   1      33.365  34.484  28.099  1.00  0.00    -0.271 N 
ATOM     71  C   UNL A   1      33.505  35.154  30.087  1.00  0.00     0.096 A 
ATOM     72  N   UNL A   1      32.929  35.452  28.920  1.00  0.00    -0.175 NA
ATOM     73  H   UNL A   1      33.152  34.458  27.139  1.00  0.00     0.190 HD
BRANCH  71  74
ATOM     74  C   UNL A   1      33.471  36.042  31.232  1.00  0.00     0.040 A 
ATOM     75  C   UNL A   1      34.097  35.745  32.467  1.00  0.00     0.052 A 
ATOM     76  C   UNL A   1      32.903  37.285  31.365  1.00  0.00     0.205 A 
ATOM     77  C   UNL A   1      33.864  36.831  33.277  1.00  0.00     0.195 A 
ATOM     78  O   UNL A   1      33.133  37.770  32.618  1.00  0.00    -0.472 OA
ENDBRANCH  71  74
ENDBRANCH  66  68
ENDBRANCH  65  66
ENDBRANCH  64  65
ENDBRANCH  63  64
ENDBRANCH  62  63
ENDBRANCH  61  62
ENDBRANCH  60  61
ENDBRANCH  59  60
ENDBRANCH   1  59
TORSDOF 21
ENDMDL
MODEL 2
REMARK VINA RESULT:      -7.7      9.452     14.889
REMARK SMILES O=C(OCCOCCOCCOCCOC(=O)c1cc(-c2ccoc2)n[nH]1)c1ccc(-c2c3nc(c(-c4ccccc4)c4ccc([nH]4)c(-c4ccccc4)c4nc(c(-c5ccccc5)c5ccc2[nH]5)C=C4)C=C3)cc1
REMARK SMILES IDX 8 1 7 2 6 3 5 4 4 5 3 6 2 7 1 8 28 9 29 10 75 11 30 12 74 13
REMARK SMILES IDX 31 14 32 15 33 16 68 17 34 18 73 19 67 20 69 21 35 22 72 23
REMARK SMILES IDX 66 24 65 25 36 27 58 28 43 29 57 30 44 31 47 32 56 33 70 34
REMARK SMILES IDX 45 35 46 36 55 38 71 39 48 40 37 41 38 42 42 43 39 44 41 45
REMARK SMILES IDX 40 46 59 47 60 48 64 49 61 50 63 51 62 52 49 53 50 54 54 55
REMARK SMILES IDX 51 56 53 57 52 58 9 59 10 60 11 61 12 62 13 63 14 64 15 65
REMARK SMILES IDX 16 66 17 67 18 68 19 69 27 70 20 71 26 72 21 74 22 75 25 76
REMARK SMILES IDX 23 77 24 78
REMARK H PARENT 69 26 47 37 27 73
REMARK Flexibility Score: inf
ROOT
ATOM      1  C   UNL A   1      48.729  20.796  34.355  1.00  0.00     0.188 C 
ENDROOT
BRANCH   1   2
ATOM      2  C   UNL A   1      49.460  22.142  34.382  1.00  0.00     0.188 C 
BRANCH   2   3
ATOM      3  O   UNL A   1      48.543  23.200  34.686  1.00  0.00    -0.376 OA
BRANCH   3   4
ATOM      4  C   UNL A   1      49.111  24.328  35.353  1.00  0.00     0.202 C 
BRANCH   4   5
ATOM      5  C   UNL A   1      48.262  24.869  36.504  1.00  0.00     0.261 C 
BRANCH   5   6
ATOM      6  O   UNL A   1      47.198  25.706  36.037  1.00  0.00    -0.460 OA
BRANCH   6   7
ATOM      7  C   UNL A   1      45.911  25.728  36.462  1.00  0.00     0.338 C 
ATOM      8  O   UNL A   1      45.607  25.006  37.411  1.00  0.00    -0.246 OA
BRANCH   7   9
ATOM      9  C   UNL A   1      44.833  26.591  35.876  1.00  0.00     0.060 A 
ATOM     10  C   UNL A   1      43.463  26.310  35.856  1.00  0.00     0.016 A 
ATOM     11  C   UNL A   1      45.253  27.820  35.334  1.00  0.00     0.016 A 
ATOM     12  C   UNL A   1      42.547  27.165  35.252  1.00  0.00     0.010 A 
ATOM     13  C   UNL A   1      44.342  28.694  34.737  1.00  0.00     0.010 A 
ATOM     14  C   UNL A   1      42.992  28.340  34.659  1.00  0.00    -0.014 A 
BRANCH  14  15
ATOM     15  C   UNL A   1      42.083  29.071  33.765  1.00  0.00     0.031 A 
ATOM     16  C   UNL A   1      41.390  30.273  34.327  1.00  0.00     0.074 A 
ATOM     17  C   UNL A   1      41.941  28.709  32.481  1.00  0.00     0.049 A 
ATOM     18  N   UNL A   1      40.431  30.994  33.816  1.00  0.00    -0.248 NA
ATOM     19  C   UNL A   1      41.849  30.723  35.653  1.00  0.00     0.031 C 
ATOM     20  C   UNL A   1      42.687  27.641  31.816  1.00  0.00     0.029 A 
ATOM     21  N   UNL A   1      41.116  29.205  31.510  1.00  0.00    -0.354 N 
ATOM     22  C   UNL A   1      40.138  31.950  34.780  1.00  0.00     0.074 A 
ATOM     23  C   UNL A   1      41.027  31.730  35.896  1.00  0.00     0.031 C 
ATOM     24  C   UNL A   1      42.271  27.551  30.541  1.00  0.00     0.029 A 
ATOM     25  C   UNL A   1      41.188  28.508  30.329  1.00  0.00     0.049 A 
ATOM     26  H   UNL A   1      40.530  29.986  31.642  1.00  0.00     0.167 HD
ATOM     27  C   UNL A   1      39.185  32.908  34.739  1.00  0.00     0.031 A 
ATOM     28  C   UNL A   1      40.419  28.604  29.230  1.00  0.00     0.031 A 
ATOM     29  C   UNL A   1      38.300  33.078  33.623  1.00  0.00     0.049 A 
ATOM     30  C   UNL A   1      39.303  29.614  29.232  1.00  0.00     0.074 A 
ATOM     31  C   UNL A   1      37.248  33.959  33.472  1.00  0.00     0.029 A 
ATOM     32  N   UNL A   1      38.376  32.329  32.455  1.00  0.00    -0.354 N 
ATOM     33  N   UNL A   1      38.971  30.471  30.171  1.00  0.00    -0.248 NA
ATOM     34  C   UNL A   1      38.448  29.665  28.040  1.00  0.00     0.031 C 
ATOM     35  C   UNL A   1      36.658  33.711  32.227  1.00  0.00     0.029 A 
ATOM     36  C   UNL A   1      37.378  32.714  31.582  1.00  0.00     0.049 A 
ATOM     37  H   UNL A   1      39.042  31.626  32.277  1.00  0.00     0.167 HD
ATOM     38  C   UNL A   1      37.881  31.174  29.680  1.00  0.00     0.074 A 
ATOM     39  C   UNL A   1      37.614  30.648  28.354  1.00  0.00     0.031 C 
ATOM     40  C   UNL A   1      37.161  32.163  30.267  1.00  0.00     0.031 A 
BRANCH  27  41
ATOM     41  C   UNL A   1      39.010  33.734  35.982  1.00  0.00    -0.014 A 
ATOM     42  C   UNL A   1      39.660  34.968  36.147  1.00  0.00     0.009 A 
ATOM     43  C   UNL A   1      38.249  33.220  37.043  1.00  0.00     0.009 A 
ATOM     44  C   UNL A   1      39.596  35.641  37.371  1.00  0.00     0.001 A 
ATOM     45  C   UNL A   1      38.164  33.908  38.255  1.00  0.00     0.001 A 
ATOM     46  C   UNL A   1      38.851  35.109  38.423  1.00  0.00     0.000 A 
ENDBRANCH  27  41
BRANCH  28  47
ATOM     47  C   UNL A   1      40.642  27.674  28.092  1.00  0.00    -0.014 A 
ATOM     48  C   UNL A   1      40.005  26.427  28.040  1.00  0.00     0.009 A 
ATOM     49  C   UNL A   1      41.464  28.056  27.017  1.00  0.00     0.009 A 
ATOM     50  C   UNL A   1      40.187  25.582  26.940  1.00  0.00     0.001 A 
ATOM     51  C   UNL A   1      41.623  27.224  25.907  1.00  0.00     0.001 A 
ATOM     52  C   UNL A   1      40.987  25.986  25.871  1.00  0.00     0.000 A 
ENDBRANCH  28  47
BRANCH  40  53
ATOM     53  C   UNL A   1      36.048  32.767  29.465  1.00  0.00    -0.014 A 
ATOM     54  C   UNL A   1      34.782  32.165  29.413  1.00  0.00     0.009 A 
ATOM     55  C   UNL A   1      36.248  34.007  28.839  1.00  0.00     0.009 A 
ATOM     56  C   UNL A   1      33.737  32.795  28.737  1.00  0.00     0.001 A 
ATOM     57  C   UNL A   1      35.196  34.644  28.185  1.00  0.00     0.001 A 
ATOM     58  C   UNL A   1      33.942  34.035  28.131  1.00  0.00     0.000 A 
ENDBRANCH  40  53
ENDBRANCH  14  15
ENDBRANCH   7   9
ENDBRANCH   6   7
ENDBRANCH   5   6
ENDBRANCH   4   5
ENDBRANCH   3   4
ENDBRANCH   2   3
ENDBRANCH   1   2
BRANCH   1  59
ATOM     59  O   UNL A   1      48.050  20.444  35.566  1.00  0.00    -0.377 OA
BRANCH  59  60
ATOM     60  C   UNL A   1      46.665  20.131  35.451  1.00  0.00     0.188 C 
BRANCH  60  61
ATOM     61  C   UNL A   1      45.932  19.675  36.729  1.00  0.00     0.188 C 
BRANCH  61  62
ATOM     62  O   UNL A   1      46.790  19.091  37.686  1.00  0.00    -0.376 OA
BRANCH  62  63
ATOM     63  C   UNL A   1      46.588  19.364  39.062  1.00  0.00     0.202 C 
BRANCH  63  64
ATOM     64  C   UNL A   1      46.036  18.323  40.061  1.00  0.00     0.261 C 
BRANCH  64  65
ATOM     65  O   UNL A   1      45.935  18.687  41.441  1.00  0.00    -0.459 OA
BRANCH  65  66
ATOM     66  C   UNL A   1      44.696  18.844  41.962  1.00  0.00     0.356 C 
ATOM     67  O   UNL A   1      44.125  19.915  42.123  1.00  0.00    -0.244 OA
BRANCH  66  68
ATOM     68  C   UNL A   1      44.080  17.556  42.089  1.00  0.00     0.144 A 
ATOM     69  C   UNL A   1      43.341  16.786  41.209  1.00  0.00     0.066 A 
ATOM     70  N   UNL A   1      44.072  16.861  43.268  1.00  0.00    -0.271 N 
ATOM     71  C   UNL A   1      42.947  15.659  41.959  1.00  0.00     0.096 A 
ATOM     72  N   UNL A   1      43.350  15.730  43.230  1.00  0.00    -0.175 NA
ATOM     73  H   UNL A   1      44.554  17.163  44.071  1.00  0.00     0.190 HD
BRANCH  71  74
ATOM     74  C   UNL A   1      42.290  14.493  41.403  1.00  0.00     0.040 A 
ATOM     75  C   UNL A   1      41.677  13.494  42.196  1.00  0.00     0.052 A 
ATOM     76  C   UNL A   1      42.095  14.134  40.093  1.00  0.00     0.205 A 
ATOM     77  C   UNL A   1      41.149  12.583  41.311  1.00  0.00     0.195 A 
ATOM     78  O   UNL A   1      41.404  12.960  40.029  1.00  0.00    -0.472 OA
ENDBRANCH  71  74
ENDBRANCH  66  68
ENDBRANCH  65  66
ENDBRANCH  64  65
ENDBRANCH  63  64
ENDBRANCH  62  63
ENDBRANCH  61  62
ENDBRANCH  60  61
ENDBRANCH  59  60
ENDBRANCH   1  59
TORSDOF 21
ENDMDL
MODEL 3
REMARK VINA RESULT:      -7.6      9.382     14.894
REMARK SMILES O=C(OCCOCCOCCOCCOC(=O)c1cc(-c2ccoc2)n[nH]1)c1ccc(-c2c3nc(c(-c4ccccc4)c4ccc([nH]4)c(-c4ccccc4)c4nc(c(-c5ccccc5)c5ccc2[nH]5)C=C4)C=C3)cc1
REMARK SMILES IDX 8 1 7 2 6 3 5 4 4 5 3 6 2 7 1 8 28 9 29 10 75 11 30 12 74 13
REMARK SMILES IDX 31 14 32 15 33 16 68 17 34 18 73 19 67 20 69 21 35 22 72 23
REMARK SMILES IDX 66 24 65 25 36 27 58 28 43 29 57 30 44 31 47 32 56 33 70 34
REMARK SMILES IDX 45 35 46 36 55 38 71 39 48 40 37 41 38 42 42 43 39 44 41 45
REMARK SMILES IDX 40 46 59 47 60 48 64 49 61 50 63 51 62 52 49 53 50 54 54 55
REMARK SMILES IDX 51 56 53 57 52 58 9 59 10 60 11 61 12 62 13 63 14 64 15 65
REMARK SMILES IDX 16 66 17 67 18 68 19 69 27 70 20 71 26 72 21 74 22 75 25 76
REMARK SMILES IDX 23 77 24 78
REMARK H PARENT 69 26 47 37 27 73
REMARK Flexibility Score: inf
ROOT
ATOM      1  C   UNL A   1      48.555  20.464  34.680  1.00  0.00     0.188 C 
ENDROOT
BRANCH   1   2
ATOM      2  C   UNL A   1      49.146  21.839  34.359  1.00  0.00     0.188 C 
BRANCH   2   3
ATOM      3  O   UNL A   1      48.328  22.875  34.916  1.00  0.00    -0.376 OA
BRANCH   3   4
ATOM      4  C   UNL A   1      49.011  23.807  35.756  1.00  0.00     0.202 C 
BRANCH   4   5
ATOM      5  C   UNL A   1      48.109  24.525  36.760  1.00  0.00     0.261 C 
BRANCH   5   6
ATOM      6  O   UNL A   1      47.044  25.231  36.113  1.00  0.00    -0.460 OA
BRANCH   6   7
ATOM      7  C   UNL A   1      45.710  25.047  36.269  1.00  0.00     0.338 C 
ATOM      8  O   UNL A   1      45.336  24.067  36.915  1.00  0.00    -0.246 OA
BRANCH   7   9
ATOM      9  C   UNL A   1      44.652  25.966  35.733  1.00  0.00     0.060 A 
ATOM     10  C   UNL A   1      43.279  25.707  35.672  1.00  0.00     0.016 A 
ATOM     11  C   UNL A   1      45.097  27.226  35.292  1.00  0.00     0.016 A 
ATOM     12  C   UNL A   1      42.384  26.617  35.121  1.00  0.00     0.010 A 
ATOM     13  C   UNL A   1      44.207  28.155  34.748  1.00  0.00     0.010 A 
ATOM     14  C   UNL A   1      42.854  27.827  34.624  1.00  0.00    -0.014 A 
BRANCH  14  15
ATOM     15  C   UNL A   1      41.969  28.636  33.774  1.00  0.00     0.031 A 
ATOM     16  C   UNL A   1      41.228  29.758  34.431  1.00  0.00     0.074 A 
ATOM     17  C   UNL A   1      41.890  28.413  32.454  1.00  0.00     0.049 A 
ATOM     18  N   UNL A   1      40.276  30.515  33.958  1.00  0.00    -0.248 NA
ATOM     19  C   UNL A   1      41.620  30.070  35.816  1.00  0.00     0.031 C 
ATOM     20  C   UNL A   1      42.685  27.435  31.712  1.00  0.00     0.029 A 
ATOM     21  N   UNL A   1      41.097  28.998  31.505  1.00  0.00    -0.354 N 
ATOM     22  C   UNL A   1      39.923  31.356  35.004  1.00  0.00     0.074 A 
ATOM     23  C   UNL A   1      40.768  31.031  36.130  1.00  0.00     0.031 C 
ATOM     24  C   UNL A   1      42.326  27.478  30.417  1.00  0.00     0.029 A 
ATOM     25  C   UNL A   1      41.233  28.434  30.261  1.00  0.00     0.049 A 
ATOM     26  H   UNL A   1      40.489  29.750  31.695  1.00  0.00     0.167 HD
ATOM     27  C   UNL A   1      38.953  32.297  35.025  1.00  0.00     0.031 A 
ATOM     28  C   UNL A   1      40.510  28.636  29.145  1.00  0.00     0.031 A 
ATOM     29  C   UNL A   1      38.113  32.573  33.895  1.00  0.00     0.049 A 
ATOM     30  C   UNL A   1      39.375  29.622  29.206  1.00  0.00     0.074 A 
ATOM     31  C   UNL A   1      37.050  33.448  33.793  1.00  0.00     0.029 A 
ATOM     32  N   UNL A   1      38.254  31.956  32.658  1.00  0.00    -0.354 N 
ATOM     33  N   UNL A   1      38.985  30.367  30.216  1.00  0.00    -0.248 NA
ATOM     34  C   UNL A   1      38.570  29.787  27.990  1.00  0.00     0.031 C 
ATOM     35  C   UNL A   1      36.519  33.326  32.503  1.00  0.00     0.029 A 
ATOM     36  C   UNL A   1      37.287  32.417  31.788  1.00  0.00     0.049 A 
ATOM     37  H   UNL A   1      38.941  31.287  32.435  1.00  0.00     0.167 HD
ATOM     38  C   UNL A   1      37.902  31.100  29.756  1.00  0.00     0.074 A 
ATOM     39  C   UNL A   1      37.703  30.717  28.370  1.00  0.00     0.031 C 
ATOM     40  C   UNL A   1      37.137  32.008  30.413  1.00  0.00     0.031 A 
BRANCH  27  41
ATOM     41  C   UNL A   1      38.707  32.981  36.340  1.00  0.00    -0.014 A 
ATOM     42  C   UNL A   1      39.330  34.196  36.670  1.00  0.00     0.009 A 
ATOM     43  C   UNL A   1      37.905  32.347  37.300  1.00  0.00     0.009 A 
ATOM     44  C   UNL A   1      39.200  34.730  37.955  1.00  0.00     0.001 A 
ATOM     45  C   UNL A   1      37.753  32.898  38.574  1.00  0.00     0.001 A 
ATOM     46  C   UNL A   1      38.414  34.080  38.906  1.00  0.00     0.000 A 
ENDBRANCH  27  41
BRANCH  28  47
ATOM     47  C   UNL A   1      40.801  27.838  27.925  1.00  0.00    -0.014 A 
ATOM     48  C   UNL A   1      40.200  26.589  27.716  1.00  0.00     0.009 A 
ATOM     49  C   UNL A   1      41.652  28.352  26.930  1.00  0.00     0.009 A 
ATOM     50  C   UNL A   1      40.446  25.872  26.540  1.00  0.00     0.001 A 
ATOM     51  C   UNL A   1      41.875  27.648  25.746  1.00  0.00     0.001 A 
ATOM     52  C   UNL A   1      41.275  26.406  25.553  1.00  0.00     0.000 A 
ENDBRANCH  28  47
BRANCH  40  53
ATOM     53  C   UNL A   1      36.047  32.677  29.631  1.00  0.00    -0.014 A 
ATOM     54  C   UNL A   1      36.233  33.947  29.067  1.00  0.00     0.009 A 
ATOM     55  C   UNL A   1      34.858  31.976  29.374  1.00  0.00     0.009 A 
ATOM     56  C   UNL A   1      35.238  34.508  28.265  1.00  0.00     0.001 A 
ATOM     57  C   UNL A   1      33.877  32.530  28.555  1.00  0.00     0.001 A 
ATOM     58  C   UNL A   1      34.066  33.797  28.004  1.00  0.00     0.000 A 
ENDBRANCH  40  53
ENDBRANCH  14  15
ENDBRANCH   7   9
ENDBRANCH   6   7
ENDBRANCH   5   6
ENDBRANCH   4   5
ENDBRANCH   3   4
ENDBRANCH   2   3
ENDBRANCH   1   2
BRANCH   1  59
ATOM     59  O   UNL A   1      48.166  20.268  36.044  1.00  0.00    -0.377 OA
BRANCH  59  60
ATOM     60  C   UNL A   1      46.768  20.154  36.297  1.00  0.00     0.188 C 
BRANCH  60  61
ATOM     61  C   UNL A   1      46.277  20.476  37.723  1.00  0.00     0.188 C 
BRANCH  61  62
ATOM     62  O   UNL A   1      46.034  19.325  38.504  1.00  0.00    -0.376 OA
BRANCH  62  63
ATOM     63  C   UNL A   1      47.131  18.566  38.985  1.00  0.00     0.202 C 
BRANCH  63  64
ATOM     64  C   UNL A   1      48.135  19.095  40.032  1.00  0.00     0.261 C 
BRANCH  64  65
ATOM     65  O   UNL A   1      49.531  19.048  39.726  1.00  0.00    -0.459 OA
BRANCH  65  66
ATOM     66  C   UNL A   1      50.126  20.193  39.318  1.00  0.00     0.356 C 
ATOM     67  O   UNL A   1      50.210  21.222  39.975  1.00  0.00    -0.244 OA
BRANCH  66  68
ATOM     68  C   UNL A   1      50.828  19.939  38.094  1.00  0.00     0.144 A 
ATOM     69  C   UNL A   1      51.404  20.779  37.157  1.00  0.00     0.066 A 
ATOM     70  N   UNL A   1      50.977  18.677  37.584  1.00  0.00    -0.271 N 
ATOM     71  C   UNL A   1      51.864  19.921  36.138  1.00  0.00     0.096 A 
ATOM     72  N   UNL A   1      51.559  18.643  36.374  1.00  0.00    -0.175 NA
ATOM     73  H   UNL A   1      50.683  17.869  38.061  1.00  0.00     0.190 HD
BRANCH  71  74
ATOM     74  C   UNL A   1      52.685  20.342  35.021  1.00  0.00     0.040 A 
ATOM     75  C   UNL A   1      52.349  20.089  33.669  1.00  0.00     0.052 A 
ATOM     76  C   UNL A   1      53.860  21.052  35.011  1.00  0.00     0.205 A 
ATOM     77  C   UNL A   1      53.350  20.661  32.920  1.00  0.00     0.195 A 
ATOM     78  O   UNL A   1      54.277  21.243  33.727  1.00  0.00    -0.472 OA
ENDBRANCH  71  74
ENDBRANCH  66  68
ENDBRANCH  65  66
ENDBRANCH  64  65
ENDBRANCH  63  64
ENDBRANCH  62  63
ENDBRANCH  61  62
ENDBRANCH  60  61
ENDBRANCH  59  60
ENDBRANCH   1  59
TORSDOF 21
ENDMDL
