MODEL 1
REMARK VINA RESULT:      -8.4      0.000      0.000
REMARK SMILES CCC[NH2+][C@H]1C[C@@H](C(=O)OCCOCCOCCOCCOC(=O)c2ccc(-c3c4nc(c(-c5ccccc5)c5ccc([nH]5)c(-c5ccccc5)c5nc(c(-c6ccccc6)c6ccc3[nH]6)C=C5)C=C4)cc2)C1
REMARK SMILES IDX 15 1 14 2 13 3 12 4 11 5 10 6 8 7 9 8 7 9 5 10 73 11 6 12
REMARK SMILES IDX 4 13 3 16 2 17 1 18 16 19 17 20 18 21 19 22 20 23 21 24
REMARK SMILES IDX 22 25 23 26 24 27 25 28 26 29 72 30 27 31 71 32 28 33 29 34
REMARK SMILES IDX 30 35 65 36 31 37 70 38 64 39 66 40 32 41 69 42 63 43 62 44
REMARK SMILES IDX 33 46 55 47 40 48 54 49 41 50 44 51 53 52 67 53 42 54 43 55
REMARK SMILES IDX 52 57 68 58 45 59 34 60 35 61 39 62 36 63 38 64 37 65 56 66
REMARK SMILES IDX 57 67 61 68 58 69 60 70 59 71 46 72 47 73 51 74 48 75 50 76
REMARK SMILES IDX 49 77
REMARK H PARENT 4 14 4 15 66 45 44 56
REMARK Flexibility Score: inf
ROOT
ATOM      1  C   UNL A   1      42.191  19.696  26.507  1.00  0.00     0.188 C 
ENDROOT
BRANCH   1   2
ATOM      2  C   UNL A   1      40.657  19.762  26.477  1.00  0.00     0.188 C 
BRANCH   2   3
ATOM      3  O   UNL A   1      39.992  20.964  26.124  1.00  0.00    -0.376 OA
BRANCH   3   4
ATOM      4  C   UNL A   1      38.575  21.052  26.115  1.00  0.00     0.202 C 
BRANCH   4   5
ATOM      5  C   UNL A   1      37.765  21.714  24.982  1.00  0.00     0.261 C 
BRANCH   5   6
ATOM      6  O   UNL A   1      36.431  22.123  25.307  1.00  0.00    -0.463 OA
BRANCH   6   7
ATOM      7  C   UNL A   1      36.243  23.438  25.602  1.00  0.00     0.309 C 
ATOM      8  O   UNL A   1      37.139  24.164  26.033  1.00  0.00    -0.252 OA
BRANCH   7   9
ATOM      9  C   UNL A   1      34.828  23.948  25.257  1.00  0.00     0.111 C 
ATOM     10  C   UNL A   1      33.177  25.258  25.549  1.00  0.00     0.184 C 
ATOM     11  C   UNL A   1      34.651  25.491  25.155  1.00  0.00     0.080 C 
ATOM     12  C   UNL A   1      33.668  24.007  26.291  1.00  0.00     0.080 C 
BRANCH  10  13
ATOM     13  N   UNL A   1      32.748  26.272  26.503  1.00  0.00    -0.344 N 
ATOM     14  H   UNL A   1      32.390  25.817  27.343  1.00  0.00     0.346 HD
ATOM     15  H   UNL A   1      33.542  26.865  26.746  1.00  0.00     0.346 HD
BRANCH  13  16
ATOM     16  C   UNL A   1      31.689  27.099  25.908  1.00  0.00     0.260 C 
BRANCH  16  17
ATOM     17  C   UNL A   1      31.718  28.529  26.450  1.00  0.00     0.058 C 
ATOM     18  C   UNL A   1      32.014  29.564  25.375  1.00  0.00     0.010 C 
ENDBRANCH  16  17
ENDBRANCH  13  16
ENDBRANCH  10  13
ENDBRANCH   7   9
ENDBRANCH   6   7
ENDBRANCH   5   6
ENDBRANCH   4   5
ENDBRANCH   3   4
ENDBRANCH   2   3
ENDBRANCH   1   2
BRANCH   1  19
ATOM     19  O   UNL A   1      42.804  19.563  25.241  1.00  0.00    -0.377 OA
BRANCH  19  20
ATOM     20  C   UNL A   1      43.883  18.646  25.144  1.00  0.00     0.188 C 
BRANCH  20  21
ATOM     21  C   UNL A   1      45.317  19.206  25.031  1.00  0.00     0.188 C 
BRANCH  21  22
ATOM     22  O   UNL A   1      45.446  20.317  24.157  1.00  0.00    -0.376 OA
BRANCH  22  23
ATOM     23  C   UNL A   1      46.162  21.460  24.602  1.00  0.00     0.202 C 
BRANCH  23  24
ATOM     24  C   UNL A   1      45.550  22.293  25.741  1.00  0.00     0.261 C 
BRANCH  24  25
ATOM     25  O   UNL A   1      44.974  23.556  25.374  1.00  0.00    -0.460 OA
BRANCH  25  26
ATOM     26  C   UNL A   1      43.666  23.582  25.054  1.00  0.00     0.338 C 
ATOM     27  O   UNL A   1      43.072  22.821  24.307  1.00  0.00    -0.246 OA
BRANCH  26  28
ATOM     28  C   UNL A   1      43.009  24.585  25.919  1.00  0.00     0.060 A 
ATOM     29  C   UNL A   1      43.559  25.871  26.005  1.00  0.00     0.016 A 
ATOM     30  C   UNL A   1      41.858  24.260  26.639  1.00  0.00     0.016 A 
ATOM     31  C   UNL A   1      42.980  26.825  26.843  1.00  0.00     0.010 A 
ATOM     32  C   UNL A   1      41.293  25.209  27.497  1.00  0.00     0.010 A 
ATOM     33  C   UNL A   1      41.872  26.484  27.629  1.00  0.00    -0.014 A 
BRANCH  33  34
ATOM     34  C   UNL A   1      41.448  27.380  28.733  1.00  0.00     0.031 A 
ATOM     35  C   UNL A   1      42.217  27.328  30.028  1.00  0.00     0.074 A 
ATOM     36  C   UNL A   1      40.424  28.242  28.591  1.00  0.00     0.049 A 
ATOM     37  N   UNL A   1      41.997  27.959  31.152  1.00  0.00    -0.248 NA
ATOM     38  C   UNL A   1      43.395  26.443  30.055  1.00  0.00     0.031 C 
ATOM     39  C   UNL A   1      39.639  28.437  27.374  1.00  0.00     0.029 A 
ATOM     40  N   UNL A   1      39.869  29.115  29.494  1.00  0.00    -0.354 N 
ATOM     41  C   UNL A   1      43.004  27.549  32.017  1.00  0.00     0.074 A 
ATOM     42  C   UNL A   1      43.815  26.588  31.302  1.00  0.00     0.031 C 
ATOM     43  C   UNL A   1      38.693  29.364  27.611  1.00  0.00     0.029 A 
ATOM     44  C   UNL A   1      38.782  29.797  29.003  1.00  0.00     0.049 A 
ATOM     45  H   UNL A   1      40.217  29.240  30.406  1.00  0.00     0.167 HD
ATOM     46  C   UNL A   1      43.242  27.944  33.288  1.00  0.00     0.031 A 
ATOM     47  C   UNL A   1      37.939  30.650  29.620  1.00  0.00     0.031 A 
ATOM     48  C   UNL A   1      42.429  28.886  34.008  1.00  0.00     0.049 A 
ATOM     49  C   UNL A   1      38.160  30.983  31.076  1.00  0.00     0.074 A 
ATOM     50  C   UNL A   1      42.580  29.338  35.307  1.00  0.00     0.029 A 
ATOM     51  N   UNL A   1      41.310  29.517  33.491  1.00  0.00    -0.354 N 
ATOM     52  N   UNL A   1      39.122  30.597  31.880  1.00  0.00    -0.248 NA
ATOM     53  C   UNL A   1      37.178  31.878  31.708  1.00  0.00     0.031 C 
ATOM     54  C   UNL A   1      41.520  30.201  35.595  1.00  0.00     0.029 A 
ATOM     55  C   UNL A   1      40.749  30.341  34.451  1.00  0.00     0.049 A 
ATOM     56  H   UNL A   1      40.965  29.398  32.576  1.00  0.00     0.167 HD
ATOM     57  C   UNL A   1      38.884  31.235  33.093  1.00  0.00     0.074 A 
ATOM     58  C   UNL A   1      37.699  32.046  32.915  1.00  0.00     0.031 C 
ATOM     59  C   UNL A   1      39.581  31.157  34.253  1.00  0.00     0.031 A 
BRANCH  46  60
ATOM     60  C   UNL A   1      44.424  27.343  33.996  1.00  0.00    -0.014 A 
ATOM     61  C   UNL A   1      45.681  27.968  33.969  1.00  0.00     0.009 A 
ATOM     62  C   UNL A   1      44.264  26.171  34.752  1.00  0.00     0.009 A 
ATOM     63  C   UNL A   1      46.757  27.421  34.669  1.00  0.00     0.001 A 
ATOM     64  C   UNL A   1      45.335  25.641  35.474  1.00  0.00     0.001 A 
ATOM     65  C   UNL A   1      46.582  26.263  35.427  1.00  0.00     0.000 A 
ENDBRANCH  46  60
BRANCH  47  66
ATOM     66  C   UNL A   1      36.773  31.229  28.897  1.00  0.00    -0.014 A 
ATOM     67  C   UNL A   1      36.741  32.591  28.555  1.00  0.00     0.009 A 
ATOM     68  C   UNL A   1      35.648  30.439  28.616  1.00  0.00     0.009 A 
ATOM     69  C   UNL A   1      35.593  33.157  27.996  1.00  0.00     0.001 A 
ATOM     70  C   UNL A   1      34.514  30.999  28.023  1.00  0.00     0.001 A 
ATOM     71  C   UNL A   1      34.481  32.360  27.730  1.00  0.00     0.000 A 
ENDBRANCH  47  66
BRANCH  59  72
ATOM     72  C   UNL A   1      39.123  32.016  35.399  1.00  0.00    -0.014 A 
ATOM     73  C   UNL A   1      38.183  31.557  36.334  1.00  0.00     0.009 A 
ATOM     74  C   UNL A   1      39.682  33.294  35.571  1.00  0.00     0.009 A 
ATOM     75  C   UNL A   1      37.782  32.376  37.393  1.00  0.00     0.001 A 
ATOM     76  C   UNL A   1      39.306  34.096  36.649  1.00  0.00     0.001 A 
ATOM     77  C   UNL A   1      38.348  33.640  37.552  1.00  0.00     0.000 A 
ENDBRANCH  59  72
ENDBRANCH  33  34
ENDBRANCH  26  28
ENDBRANCH  25  26
ENDBRANCH  24  25
ENDBRANCH  23  24
ENDBRANCH  22  23
ENDBRANCH  21  22
ENDBRANCH  20  21
ENDBRANCH  19  20
ENDBRANCH   1  19
TORSDOF 23
ENDMDL
MODEL 2
REMARK VINA RESULT:      -8.3      1.590      2.603
REMARK SMILES CCC[NH2+][C@H]1C[C@@H](C(=O)OCCOCCOCCOCCOC(=O)c2ccc(-c3c4nc(c(-c5ccccc5)c5ccc([nH]5)c(-c5ccccc5)c5nc(c(-c6ccccc6)c6ccc3[nH]6)C=C5)C=C4)cc2)C1
REMARK SMILES IDX 15 1 14 2 13 3 12 4 11 5 10 6 8 7 9 8 7 9 5 10 73 11 6 12
REMARK SMILES IDX 4 13 3 16 2 17 1 18 16 19 17 20 18 21 19 22 20 23 21 24
REMARK SMILES IDX 22 25 23 26 24 27 25 28 26 29 72 30 27 31 71 32 28 33 29 34
REMARK SMILES IDX 30 35 65 36 31 37 70 38 64 39 66 40 32 41 69 42 63 43 62 44
REMARK SMILES IDX 33 46 55 47 40 48 54 49 41 50 44 51 53 52 67 53 42 54 43 55
REMARK SMILES IDX 52 57 68 58 45 59 34 60 35 61 39 62 36 63 38 64 37 65 56 66
REMARK SMILES IDX 57 67 61 68 58 69 60 70 59 71 46 72 47 73 51 74 48 75 50 76
REMARK SMILES IDX 49 77
REMARK H PARENT 4 14 4 15 66 45 44 56
REMARK Flexibility Score: inf
ROOT
ATOM      1  C   UNL A   1      42.386  19.901  26.756  1.00  0.00     0.188 C 
ENDROOT
BRANCH   1   2
ATOM      2  C   UNL A   1      40.945  20.389  26.969  1.00  0.00     0.188 C 
BRANCH   2   3
ATOM      3  O   UNL A   1      40.475  21.557  26.319  1.00  0.00    -0.376 OA
BRANCH   3   4
ATOM      4  C   UNL A   1      39.088  21.849  26.228  1.00  0.00     0.202 C 
BRANCH   4   5
ATOM      5  C   UNL A   1      38.510  23.278  26.238  1.00  0.00     0.261 C 
BRANCH   5   6
ATOM      6  O   UNL A   1      37.600  23.605  25.180  1.00  0.00    -0.463 OA
BRANCH   6   7
ATOM      7  C   UNL A   1      36.278  23.384  25.412  1.00  0.00     0.309 C 
ATOM      8  O   UNL A   1      35.537  24.224  25.925  1.00  0.00    -0.252 OA
BRANCH   7   9
ATOM      9  C   UNL A   1      35.782  22.021  24.887  1.00  0.00     0.111 C 
ATOM     10  C   UNL A   1      34.241  20.623  24.444  1.00  0.00     0.184 C 
ATOM     11  C   UNL A   1      34.548  22.048  23.939  1.00  0.00     0.080 C 
ATOM     12  C   UNL A   1      34.946  21.030  25.745  1.00  0.00     0.080 C 
BRANCH  10  13
ATOM     13  N   UNL A   1      32.810  20.471  24.673  1.00  0.00    -0.344 N 
ATOM     14  H   UNL A   1      32.632  20.415  25.676  1.00  0.00     0.346 HD
ATOM     15  H   UNL A   1      32.318  21.275  24.282  1.00  0.00     0.346 HD
BRANCH  13  16
ATOM     16  C   UNL A   1      32.329  19.245  24.023  1.00  0.00     0.260 C 
BRANCH  16  17
ATOM     17  C   UNL A   1      33.162  18.028  24.427  1.00  0.00     0.058 C 
ATOM     18  C   UNL A   1      33.636  17.212  23.234  1.00  0.00     0.010 C 
ENDBRANCH  16  17
ENDBRANCH  13  16
ENDBRANCH  10  13
ENDBRANCH   7   9
ENDBRANCH   6   7
ENDBRANCH   5   6
ENDBRANCH   4   5
ENDBRANCH   3   4
ENDBRANCH   2   3
ENDBRANCH   1   2
BRANCH   1  19
ATOM     19  O   UNL A   1      42.834  19.939  25.417  1.00  0.00    -0.377 OA
BRANCH  19  20
ATOM     20  C   UNL A   1      43.736  18.920  25.013  1.00  0.00     0.188 C 
BRANCH  20  21
ATOM     21  C   UNL A   1      45.231  19.273  24.873  1.00  0.00     0.188 C 
BRANCH  21  22
ATOM     22  O   UNL A   1      45.493  20.407  24.058  1.00  0.00    -0.376 OA
BRANCH  22  23
ATOM     23  C   UNL A   1      46.221  21.495  24.610  1.00  0.00     0.202 C 
BRANCH  23  24
ATOM     24  C   UNL A   1      45.635  22.199  25.844  1.00  0.00     0.261 C 
BRANCH  24  25
ATOM     25  O   UNL A   1      45.156  23.539  25.651  1.00  0.00    -0.460 OA
BRANCH  25  26
ATOM     26  C   UNL A   1      43.900  23.700  25.192  1.00  0.00     0.338 C 
ATOM     27  O   UNL A   1      43.342  23.051  24.322  1.00  0.00    -0.246 OA
BRANCH  26  28
ATOM     28  C   UNL A   1      43.224  24.685  26.062  1.00  0.00     0.060 A 
ATOM     29  C   UNL A   1      43.786  25.960  26.208  1.00  0.00     0.016 A 
ATOM     30  C   UNL A   1      42.042  24.354  26.729  1.00  0.00     0.016 A 
ATOM     31  C   UNL A   1      43.187  26.896  27.053  1.00  0.00     0.010 A 
ATOM     32  C   UNL A   1      41.457  25.284  27.593  1.00  0.00     0.010 A 
ATOM     33  C   UNL A   1      42.046  26.546  27.786  1.00  0.00    -0.014 A 
BRANCH  33  34
ATOM     34  C   UNL A   1      41.592  27.414  28.900  1.00  0.00     0.031 A 
ATOM     35  C   UNL A   1      42.353  27.362  30.200  1.00  0.00     0.074 A 
ATOM     36  C   UNL A   1      40.547  28.252  28.764  1.00  0.00     0.049 A 
ATOM     37  N   UNL A   1      42.109  27.971  31.331  1.00  0.00    -0.248 NA
ATOM     38  C   UNL A   1      43.553  26.507  30.221  1.00  0.00     0.031 C 
ATOM     39  C   UNL A   1      39.765  28.445  27.545  1.00  0.00     0.029 A 
ATOM     40  N   UNL A   1      39.964  29.097  29.676  1.00  0.00    -0.354 N 
ATOM     41  C   UNL A   1      43.121  27.573  32.197  1.00  0.00     0.074 A 
ATOM     42  C   UNL A   1      43.961  26.644  31.474  1.00  0.00     0.031 C 
ATOM     43  C   UNL A   1      38.795  29.344  27.788  1.00  0.00     0.029 A 
ATOM     44  C   UNL A   1      38.862  29.758  29.188  1.00  0.00     0.049 A 
ATOM     45  H   UNL A   1      40.302  29.216  30.593  1.00  0.00     0.167 HD
ATOM     46  C   UNL A   1      43.341  27.955  33.476  1.00  0.00     0.031 A 
ATOM     47  C   UNL A   1      37.994  30.580  29.812  1.00  0.00     0.031 A 
ATOM     48  C   UNL A   1      42.498  28.864  34.204  1.00  0.00     0.049 A 
ATOM     49  C   UNL A   1      38.197  30.896  31.274  1.00  0.00     0.074 A 
ATOM     50  C   UNL A   1      42.629  29.300  35.511  1.00  0.00     0.029 A 
ATOM     51  N   UNL A   1      41.367  29.474  33.688  1.00  0.00    -0.354 N 
ATOM     52  N   UNL A   1      39.163  30.523  32.079  1.00  0.00    -0.248 NA
ATOM     53  C   UNL A   1      37.188  31.756  31.912  1.00  0.00     0.031 C 
ATOM     54  C   UNL A   1      41.545  30.132  35.804  1.00  0.00     0.029 A 
ATOM     55  C   UNL A   1      40.778  30.269  34.658  1.00  0.00     0.049 A 
ATOM     56  H   UNL A   1      41.031  29.360  32.770  1.00  0.00     0.167 HD
ATOM     57  C   UNL A   1      38.900  31.136  33.300  1.00  0.00     0.074 A 
ATOM     58  C   UNL A   1      37.696  31.918  33.125  1.00  0.00     0.031 C 
ATOM     59  C   UNL A   1      39.591  31.058  34.463  1.00  0.00     0.031 A 
BRANCH  46  60
ATOM     60  C   UNL A   1      44.533  27.374  34.183  1.00  0.00    -0.014 A 
ATOM     61  C   UNL A   1      44.386  26.338  35.120  1.00  0.00     0.009 A 
ATOM     62  C   UNL A   1      45.823  27.822  33.863  1.00  0.00     0.009 A 
ATOM     63  C   UNL A   1      45.506  25.778  35.736  1.00  0.00     0.001 A 
ATOM     64  C   UNL A   1      46.944  27.241  34.458  1.00  0.00     0.001 A 
ATOM     65  C   UNL A   1      46.784  26.224  35.398  1.00  0.00     0.000 A 
ENDBRANCH  46  60
BRANCH  47  66
ATOM     66  C   UNL A   1      36.818  31.139  29.089  1.00  0.00    -0.014 A 
ATOM     67  C   UNL A   1      35.782  30.302  28.644  1.00  0.00     0.009 A 
ATOM     68  C   UNL A   1      36.765  32.504  28.769  1.00  0.00     0.009 A 
ATOM     69  C   UNL A   1      34.748  30.811  27.853  1.00  0.00     0.001 A 
ATOM     70  C   UNL A   1      35.711  33.018  28.010  1.00  0.00     0.001 A 
ATOM     71  C   UNL A   1      34.713  32.168  27.538  1.00  0.00     0.000 A 
ENDBRANCH  47  66
BRANCH  59  72
ATOM     72  C   UNL A   1      39.104  31.887  35.619  1.00  0.00    -0.014 A 
ATOM     73  C   UNL A   1      38.311  31.337  36.637  1.00  0.00     0.009 A 
ATOM     74  C   UNL A   1      39.487  33.236  35.711  1.00  0.00     0.009 A 
ATOM     75  C   UNL A   1      37.879  32.132  37.703  1.00  0.00     0.001 A 
ATOM     76  C   UNL A   1      39.083  34.018  36.794  1.00  0.00     0.001 A 
ATOM     77  C   UNL A   1      38.270  33.467  37.783  1.00  0.00     0.000 A 
ENDBRANCH  59  72
ENDBRANCH  33  34
ENDBRANCH  26  28
ENDBRANCH  25  26
ENDBRANCH  24  25
ENDBRANCH  23  24
ENDBRANCH  22  23
ENDBRANCH  21  22
ENDBRANCH  20  21
ENDBRANCH  19  20
ENDBRANCH   1  19
TORSDOF 23
ENDMDL
MODEL 3
REMARK VINA RESULT:      -7.8      3.871      6.403
REMARK SMILES CCC[NH2+][C@H]1C[C@@H](C(=O)OCCOCCOCCOCCOC(=O)c2ccc(-c3c4nc(c(-c5ccccc5)c5ccc([nH]5)c(-c5ccccc5)c5nc(c(-c6ccccc6)c6ccc3[nH]6)C=C5)C=C4)cc2)C1
REMARK SMILES IDX 15 1 14 2 13 3 12 4 11 5 10 6 8 7 9 8 7 9 5 10 73 11 6 12
REMARK SMILES IDX 4 13 3 16 2 17 1 18 16 19 17 20 18 21 19 22 20 23 21 24
REMARK SMILES IDX 22 25 23 26 24 27 25 28 26 29 72 30 27 31 71 32 28 33 29 34
REMARK SMILES IDX 30 35 65 36 31 37 70 38 64 39 66 40 32 41 69 42 63 43 62 44
REMARK SMILES IDX 33 46 55 47 40 48 54 49 41 50 44 51 53 52 67 53 42 54 43 55
REMARK SMILES IDX 52 57 68 58 45 59 34 60 35 61 39 62 36 63 38 64 37 65 56 66
REMARK SMILES IDX 57 67 61 68 58 69 60 70 59 71 46 72 47 73 51 74 48 75 50 76
REMARK SMILES IDX 49 77
REMARK H PARENT 4 14 4 15 66 45 44 56
REMARK Flexibility Score: inf
ROOT
ATOM      1  C   UNL A   1      34.711  23.782  25.718  1.00  0.00     0.188 C 
ENDROOT
BRANCH   1   2
ATOM      2  C   UNL A   1      33.498  24.182  26.571  1.00  0.00     0.188 C 
BRANCH   2   3
ATOM      3  O   UNL A   1      32.601  25.185  26.125  1.00  0.00    -0.376 OA
BRANCH   3   4
ATOM      4  C   UNL A   1      31.330  24.857  25.582  1.00  0.00     0.202 C 
BRANCH   4   5
ATOM      5  C   UNL A   1      31.057  23.590  24.746  1.00  0.00     0.261 C 
BRANCH   5   6
ATOM      6  O   UNL A   1      31.687  23.526  23.461  1.00  0.00    -0.463 OA
BRANCH   6   7
ATOM      7  C   UNL A   1      32.537  22.485  23.241  1.00  0.00     0.309 C 
ATOM      8  O   UNL A   1      33.596  22.603  22.624  1.00  0.00    -0.252 OA
BRANCH   7   9
ATOM      9  C   UNL A   1      32.089  21.173  23.919  1.00  0.00     0.111 C 
ATOM     10  C   UNL A   1      32.493  19.306  24.853  1.00  0.00     0.184 C 
ATOM     11  C   UNL A   1      32.853  20.762  25.211  1.00  0.00     0.080 C 
ATOM     12  C   UNL A   1      32.478  19.765  23.388  1.00  0.00     0.080 C 
BRANCH  10  13
ATOM     13  N   UNL A   1      33.636  18.434  25.095  1.00  0.00    -0.344 N 
ATOM     14  H   UNL A   1      34.136  18.280  24.219  1.00  0.00     0.346 HD
ATOM     15  H   UNL A   1      34.258  18.874  25.773  1.00  0.00     0.346 HD
BRANCH  13  16
ATOM     16  C   UNL A   1      33.174  17.144  25.626  1.00  0.00     0.260 C 
BRANCH  16  17
ATOM     17  C   UNL A   1      33.396  16.009  24.626  1.00  0.00     0.058 C 
ATOM     18  C   UNL A   1      34.062  16.475  23.340  1.00  0.00     0.010 C 
ENDBRANCH  16  17
ENDBRANCH  13  16
ENDBRANCH  10  13
ENDBRANCH   7   9
ENDBRANCH   6   7
ENDBRANCH   5   6
ENDBRANCH   4   5
ENDBRANCH   3   4
ENDBRANCH   2   3
ENDBRANCH   1   2
BRANCH   1  19
ATOM     19  O   UNL A   1      35.467  22.705  26.231  1.00  0.00    -0.377 OA
BRANCH  19  20
ATOM     20  C   UNL A   1      36.772  22.528  25.700  1.00  0.00     0.188 C 
BRANCH  20  21
ATOM     21  C   UNL A   1      36.965  21.532  24.538  1.00  0.00     0.188 C 
BRANCH  21  22
ATOM     22  O   UNL A   1      36.989  20.167  24.931  1.00  0.00    -0.376 OA
BRANCH  22  23
ATOM     23  C   UNL A   1      38.220  19.460  24.882  1.00  0.00     0.202 C 
BRANCH  23  24
ATOM     24  C   UNL A   1      39.414  20.043  25.657  1.00  0.00     0.261 C 
BRANCH  24  25
ATOM     25  O   UNL A   1      40.433  19.113  26.058  1.00  0.00    -0.460 OA
BRANCH  25  26
ATOM     26  C   UNL A   1      41.715  19.524  26.010  1.00  0.00     0.338 C 
ATOM     27  O   UNL A   1      42.666  18.925  25.534  1.00  0.00    -0.246 OA
BRANCH  26  28
ATOM     28  C   UNL A   1      41.755  20.930  26.464  1.00  0.00     0.060 A 
ATOM     29  C   UNL A   1      42.010  21.939  25.526  1.00  0.00     0.016 A 
ATOM     30  C   UNL A   1      41.541  21.252  27.806  1.00  0.00     0.016 A 
ATOM     31  C   UNL A   1      42.090  23.271  25.935  1.00  0.00     0.010 A 
ATOM     32  C   UNL A   1      41.646  22.584  28.218  1.00  0.00     0.010 A 
ATOM     33  C   UNL A   1      41.955  23.595  27.291  1.00  0.00    -0.014 A 
BRANCH  33  34
ATOM     34  C   UNL A   1      42.340  24.946  27.768  1.00  0.00     0.031 A 
ATOM     35  C   UNL A   1      43.807  25.258  27.915  1.00  0.00     0.074 A 
ATOM     36  C   UNL A   1      41.419  25.889  28.040  1.00  0.00     0.049 A 
ATOM     37  N   UNL A   1      44.385  26.337  28.374  1.00  0.00    -0.248 NA
ATOM     38  C   UNL A   1      44.746  24.209  27.481  1.00  0.00     0.031 C 
ATOM     39  C   UNL A   1      39.975  25.739  27.881  1.00  0.00     0.029 A 
ATOM     40  N   UNL A   1      41.575  27.168  28.516  1.00  0.00    -0.354 N 
ATOM     41  C   UNL A   1      45.751  26.097  28.287  1.00  0.00     0.074 A 
ATOM     42  C   UNL A   1      45.917  24.759  27.765  1.00  0.00     0.031 C 
ATOM     43  C   UNL A   1      39.373  26.879  28.265  1.00  0.00     0.029 A 
ATOM     44  C   UNL A   1      40.386  27.823  28.733  1.00  0.00     0.049 A 
ATOM     45  H   UNL A   1      42.454  27.576  28.686  1.00  0.00     0.167 HD
ATOM     46  C   UNL A   1      46.778  26.920  28.601  1.00  0.00     0.031 A 
ATOM     47  C   UNL A   1      40.147  29.033  29.276  1.00  0.00     0.031 A 
ATOM     48  C   UNL A   1      46.618  28.244  29.137  1.00  0.00     0.049 A 
ATOM     49  C   UNL A   1      41.310  29.884  29.728  1.00  0.00     0.074 A 
ATOM     50  C   UNL A   1      47.599  29.149  29.503  1.00  0.00     0.029 A 
ATOM     51  N   UNL A   1      45.398  28.851  29.387  1.00  0.00    -0.354 N 
ATOM     52  N   UNL A   1      42.597  29.650  29.630  1.00  0.00    -0.248 NA
ATOM     53  C   UNL A   1      40.983  31.171  30.360  1.00  0.00     0.031 C 
ATOM     54  C   UNL A   1      46.972  30.284  30.025  1.00  0.00     0.029 A 
ATOM     55  C   UNL A   1      45.601  30.112  29.920  1.00  0.00     0.049 A 
ATOM     56  H   UNL A   1      44.518  28.446  29.211  1.00  0.00     0.167 HD
ATOM     57  C   UNL A   1      43.228  30.777  30.147  1.00  0.00     0.074 A 
ATOM     58  C   UNL A   1      42.185  31.699  30.540  1.00  0.00     0.031 C 
ATOM     59  C   UNL A   1      44.553  31.026  30.287  1.00  0.00     0.031 A 
BRANCH  46  60
ATOM     60  C   UNL A   1      48.175  26.404  28.393  1.00  0.00    -0.014 A 
ATOM     61  C   UNL A   1      48.849  25.706  29.408  1.00  0.00     0.009 A 
ATOM     62  C   UNL A   1      48.800  26.563  27.147  1.00  0.00     0.009 A 
ATOM     63  C   UNL A   1      50.128  25.195  29.184  1.00  0.00     0.001 A 
ATOM     64  C   UNL A   1      50.067  26.026  26.916  1.00  0.00     0.001 A 
ATOM     65  C   UNL A   1      50.732  25.347  27.936  1.00  0.00     0.000 A 
ENDBRANCH  46  60
BRANCH  47  66
ATOM     66  C   UNL A   1      38.753  29.519  29.476  1.00  0.00    -0.014 A 
ATOM     67  C   UNL A   1      38.135  30.345  28.523  1.00  0.00     0.009 A 
ATOM     68  C   UNL A   1      38.061  29.226  30.661  1.00  0.00     0.009 A 
ATOM     69  C   UNL A   1      36.880  30.905  28.774  1.00  0.00     0.001 A 
ATOM     70  C   UNL A   1      36.790  29.756  30.894  1.00  0.00     0.001 A 
ATOM     71  C   UNL A   1      36.209  30.609  29.959  1.00  0.00     0.000 A 
ENDBRANCH  47  66
BRANCH  59  72
ATOM     72  C   UNL A   1      44.954  32.372  30.827  1.00  0.00    -0.014 A 
ATOM     73  C   UNL A   1      45.140  33.478  29.984  1.00  0.00     0.009 A 
ATOM     74  C   UNL A   1      45.102  32.543  32.214  1.00  0.00     0.009 A 
ATOM     75  C   UNL A   1      45.506  34.718  30.515  1.00  0.00     0.001 A 
ATOM     76  C   UNL A   1      45.433  33.791  32.745  1.00  0.00     0.001 A 
ATOM     77  C   UNL A   1      45.645  34.873  31.894  1.00  0.00     0.000 A 
ENDBRANCH  59  72
ENDBRANCH  33  34
ENDBRANCH  26  28
ENDBRANCH  25  26
ENDBRANCH  24  25
ENDBRANCH  23  24
ENDBRANCH  22  23
ENDBRANCH  21  22
ENDBRANCH  20  21
ENDBRANCH  19  20
ENDBRANCH   1  19
TORSDOF 23
ENDMDL
