MODEL 1
REMARK VINA RESULT:      -9.9      0.000      0.000
REMARK SMILES CC(C)c1ccc(C(=O)NC[C@H]2CC[C@@H](C(=O)OCCOCCOCCOCCOC(=O)c3ccc(-c4c5nc(c(-c6ccccc6)c6ccc([nH]6)c(-c6ccccc6)c6nc(c(-c7ccccc7)c7ccc4[nH]7)C=C6)C=C5)cc3)O2)cc1
REMARK SMILES IDX 23 1 22 2 21 3 20 4 19 5 18 6 16 7 17 8 15 9 12 10 13 11
REMARK SMILES IDX 81 12 14 13 11 14 10 15 8 16 9 17 7 19 4 20 5 21 83 22 6 23
REMARK SMILES IDX 82 24 2 25 1 26 3 27 24 28 25 29 26 30 27 31 28 32 29 33
REMARK SMILES IDX 30 34 31 35 32 36 33 37 34 38 80 39 35 40 79 41 36 42 37 43
REMARK SMILES IDX 38 44 73 45 39 46 78 47 72 48 74 49 40 50 77 51 71 52 70 53
REMARK SMILES IDX 41 55 63 56 48 57 62 58 49 59 52 60 61 61 75 62 50 63 51 64
REMARK SMILES IDX 60 66 76 67 53 68 42 69 43 70 47 71 44 72 46 73 45 74 64 75
REMARK SMILES IDX 65 76 69 77 66 78 68 79 67 80 54 81 55 82 59 83 56 84 58 85
REMARK SMILES IDX 57 86
REMARK H PARENT 10 18 74 54 52 65
REMARK Flexibility Score: inf
ROOT
ATOM      1  C   UNL A   1      33.277  34.587  29.031  1.00  0.00     0.188 C 
ENDROOT
BRANCH   1   2
ATOM      2  C   UNL A   1      34.173  33.563  28.283  1.00  0.00     0.188 C 
BRANCH   2   3
ATOM      3  O   UNL A   1      33.661  32.243  28.251  1.00  0.00    -0.376 OA
BRANCH   3   4
ATOM      4  C   UNL A   1      34.268  31.304  27.382  1.00  0.00     0.202 C 
BRANCH   4   5
ATOM      5  C   UNL A   1      33.530  29.992  27.098  1.00  0.00     0.261 C 
BRANCH   5   6
ATOM      6  O   UNL A   1      32.975  29.896  25.774  1.00  0.00    -0.461 OA
BRANCH   6   7
ATOM      7  C   UNL A   1      33.029  28.691  25.148  1.00  0.00     0.335 C 
ATOM      8  O   UNL A   1      34.039  28.260  24.619  1.00  0.00    -0.249 OA
BRANCH   7   9
ATOM      9  C   UNL A   1      31.655  27.987  25.186  1.00  0.00     0.228 C 
ATOM     10  C   UNL A   1      31.011  25.758  24.762  1.00  0.00     0.138 C 
ATOM     11  C   UNL A   1      30.365  26.194  26.062  1.00  0.00     0.037 C 
ATOM     12  O   UNL A   1      31.592  26.946  24.197  1.00  0.00    -0.361 OA
ATOM     13  C   UNL A   1      31.280  27.310  26.500  1.00  0.00     0.047 C 
BRANCH  10  14
ATOM     14  C   UNL A   1      32.077  24.673  25.003  1.00  0.00     0.148 C 
BRANCH  14  15
ATOM     15  N   UNL A   1      32.939  24.473  23.855  1.00  0.00    -0.349 N 
ATOM     16  C   UNL A   1      33.643  23.436  23.303  1.00  0.00     0.251 C 
ATOM     17  O   UNL A   1      34.282  23.737  22.289  1.00  0.00    -0.269 OA
ATOM     18  H   UNL A   1      33.049  25.301  23.334  1.00  0.00     0.163 HD
BRANCH  16  19
ATOM     19  C   UNL A   1      33.706  22.017  23.782  1.00  0.00     0.039 A 
ATOM     20  C   UNL A   1      33.622  19.221  24.441  1.00  0.00    -0.045 A 
ATOM     21  C   UNL A   1      32.582  19.829  23.736  1.00  0.00     0.005 A 
ATOM     22  C   UNL A   1      34.667  20.053  24.868  1.00  0.00     0.005 A 
ATOM     23  C   UNL A   1      32.626  21.195  23.414  1.00  0.00     0.014 A 
ATOM     24  C   UNL A   1      34.710  21.422  24.542  1.00  0.00     0.014 A 
BRANCH  20  25
ATOM     25  C   UNL A   1      33.661  17.729  24.753  1.00  0.00     0.013 C 
ATOM     26  C   UNL A   1      32.335  17.124  25.232  1.00  0.00     0.012 C 
ATOM     27  C   UNL A   1      34.146  16.910  23.548  1.00  0.00     0.012 C 
ENDBRANCH  20  25
ENDBRANCH  16  19
ENDBRANCH  14  15
ENDBRANCH  10  14
ENDBRANCH   7   9
ENDBRANCH   6   7
ENDBRANCH   5   6
ENDBRANCH   4   5
ENDBRANCH   3   4
ENDBRANCH   2   3
ENDBRANCH   1   2
BRANCH   1  28
ATOM     28  O   UNL A   1      33.751  35.429  30.073  1.00  0.00    -0.377 OA
BRANCH  28  29
ATOM     29  C   UNL A   1      32.833  35.865  31.056  1.00  0.00     0.188 C 
BRANCH  29  30
ATOM     30  C   UNL A   1      33.302  35.604  32.499  1.00  0.00     0.188 C 
BRANCH  30  31
ATOM     31  O   UNL A   1      34.699  35.811  32.667  1.00  0.00    -0.376 OA
BRANCH  31  32
ATOM     32  C   UNL A   1      35.359  35.134  33.723  1.00  0.00     0.202 C 
BRANCH  32  33
ATOM     33  C   UNL A   1      35.095  33.639  33.985  1.00  0.00     0.261 C 
BRANCH  33  34
ATOM     34  O   UNL A   1      35.919  32.685  33.300  1.00  0.00    -0.460 OA
BRANCH  34  35
ATOM     35  C   UNL A   1      35.473  32.161  32.142  1.00  0.00     0.338 C 
ATOM     36  O   UNL A   1      34.376  32.316  31.634  1.00  0.00    -0.246 OA
BRANCH  35  37
ATOM     37  C   UNL A   1      36.633  31.517  31.487  1.00  0.00     0.060 A 
ATOM     38  C   UNL A   1      37.466  30.681  32.244  1.00  0.00     0.016 A 
ATOM     39  C   UNL A   1      36.861  31.691  30.119  1.00  0.00     0.016 A 
ATOM     40  C   UNL A   1      38.540  30.029  31.638  1.00  0.00     0.010 A 
ATOM     41  C   UNL A   1      37.958  31.068  29.521  1.00  0.00     0.010 A 
ATOM     42  C   UNL A   1      38.819  30.259  30.285  1.00  0.00    -0.014 A 
BRANCH  42  43
ATOM     43  C   UNL A   1      40.129  29.850  29.730  1.00  0.00     0.031 A 
ATOM     44  C   UNL A   1      40.228  28.485  29.107  1.00  0.00     0.074 A 
ATOM     45  C   UNL A   1      41.199  30.663  29.758  1.00  0.00     0.049 A 
ATOM     46  N   UNL A   1      41.267  27.876  28.598  1.00  0.00    -0.248 NA
ATOM     47  C   UNL A   1      38.983  27.699  29.056  1.00  0.00     0.031 C 
ATOM     48  C   UNL A   1      41.217  32.025  30.286  1.00  0.00     0.029 A 
ATOM     49  N   UNL A   1      42.486  30.447  29.334  1.00  0.00    -0.354 N 
ATOM     50  C   UNL A   1      40.803  26.635  28.178  1.00  0.00     0.074 A 
ATOM     51  C   UNL A   1      39.400  26.566  28.514  1.00  0.00     0.031 C 
ATOM     52  C   UNL A   1      42.463  32.521  30.164  1.00  0.00     0.029 A 
ATOM     53  C   UNL A   1      43.333  31.498  29.586  1.00  0.00     0.049 A 
ATOM     54  H   UNL A   1      42.775  29.616  28.890  1.00  0.00     0.167 HD
ATOM     55  C   UNL A   1      41.486  25.641  27.565  1.00  0.00     0.031 A 
ATOM     56  C   UNL A   1      44.662  31.607  29.395  1.00  0.00     0.031 A 
ATOM     57  C   UNL A   1      42.887  25.702  27.251  1.00  0.00     0.049 A 
ATOM     58  C   UNL A   1      45.419  30.451  28.790  1.00  0.00     0.074 A 
ATOM     59  C   UNL A   1      43.669  24.753  26.619  1.00  0.00     0.029 A 
ATOM     60  N   UNL A   1      43.717  26.768  27.559  1.00  0.00    -0.354 N 
ATOM     61  N   UNL A   1      44.967  29.294  28.369  1.00  0.00    -0.248 NA
ATOM     62  C   UNL A   1      46.871  30.623  28.627  1.00  0.00     0.031 C 
ATOM     63  C   UNL A   1      44.988  25.216  26.604  1.00  0.00     0.029 A 
ATOM     64  C   UNL A   1      45.011  26.486  27.160  1.00  0.00     0.049 A 
ATOM     65  H   UNL A   1      43.429  27.601  27.996  1.00  0.00     0.167 HD
ATOM     66  C   UNL A   1      46.070  28.615  27.865  1.00  0.00     0.074 A 
ATOM     67  C   UNL A   1      47.210  29.495  28.018  1.00  0.00     0.031 C 
ATOM     68  C   UNL A   1      46.135  27.374  27.319  1.00  0.00     0.031 A 
BRANCH  55  69
ATOM     69  C   UNL A   1      40.730  24.384  27.240  1.00  0.00    -0.014 A 
ATOM     70  C   UNL A   1      39.661  24.385  26.329  1.00  0.00     0.009 A 
ATOM     71  C   UNL A   1      41.112  23.172  27.836  1.00  0.00     0.009 A 
ATOM     72  C   UNL A   1      38.970  23.204  26.050  1.00  0.00     0.001 A 
ATOM     73  C   UNL A   1      40.440  21.988  27.532  1.00  0.00     0.001 A 
ATOM     74  C   UNL A   1      39.364  22.006  26.646  1.00  0.00     0.000 A 
ENDBRANCH  55  69
BRANCH  56  75
ATOM     75  C   UNL A   1      45.378  32.846  29.803  1.00  0.00    -0.014 A 
ATOM     76  C   UNL A   1      45.783  33.792  28.850  1.00  0.00     0.009 A 
ATOM     77  C   UNL A   1      45.688  33.074  31.154  1.00  0.00     0.009 A 
ATOM     78  C   UNL A   1      46.504  34.925  29.236  1.00  0.00     0.001 A 
ATOM     79  C   UNL A   1      46.382  34.222  31.542  1.00  0.00     0.001 A 
ATOM     80  C   UNL A   1      46.799  35.142  30.582  1.00  0.00     0.000 A 
ENDBRANCH  56  75
BRANCH  68  81
ATOM     81  C   UNL A   1      47.470  26.909  26.806  1.00  0.00    -0.014 A 
ATOM     82  C   UNL A   1      47.969  27.337  25.566  1.00  0.00     0.009 A 
ATOM     83  C   UNL A   1      48.263  26.069  27.604  1.00  0.00     0.009 A 
ATOM     84  C   UNL A   1      49.222  26.905  25.123  1.00  0.00     0.001 A 
ATOM     85  C   UNL A   1      49.528  25.667  27.174  1.00  0.00     0.001 A 
ATOM     86  C   UNL A   1      50.003  26.076  25.929  1.00  0.00     0.000 A 
ENDBRANCH  68  81
ENDBRANCH  42  43
ENDBRANCH  35  37
ENDBRANCH  34  35
ENDBRANCH  33  34
ENDBRANCH  32  33
ENDBRANCH  31  32
ENDBRANCH  30  31
ENDBRANCH  29  30
ENDBRANCH  28  29
ENDBRANCH   1  28
TORSDOF 24
ENDMDL
MODEL 2
REMARK VINA RESULT:      -8.8      6.101      7.587
REMARK SMILES CC(C)c1ccc(C(=O)NC[C@H]2CC[C@@H](C(=O)OCCOCCOCCOCCOC(=O)c3ccc(-c4c5nc(c(-c6ccccc6)c6ccc([nH]6)c(-c6ccccc6)c6nc(c(-c7ccccc7)c7ccc4[nH]7)C=C6)C=C5)cc3)O2)cc1
REMARK SMILES IDX 23 1 22 2 21 3 20 4 19 5 18 6 16 7 17 8 15 9 12 10 13 11
REMARK SMILES IDX 81 12 14 13 11 14 10 15 8 16 9 17 7 19 4 20 5 21 83 22 6 23
REMARK SMILES IDX 82 24 2 25 1 26 3 27 24 28 25 29 26 30 27 31 28 32 29 33
REMARK SMILES IDX 30 34 31 35 32 36 33 37 34 38 80 39 35 40 79 41 36 42 37 43
REMARK SMILES IDX 38 44 73 45 39 46 78 47 72 48 74 49 40 50 77 51 71 52 70 53
REMARK SMILES IDX 41 55 63 56 48 57 62 58 49 59 52 60 61 61 75 62 50 63 51 64
REMARK SMILES IDX 60 66 76 67 53 68 42 69 43 70 47 71 44 72 46 73 45 74 64 75
REMARK SMILES IDX 65 76 69 77 66 78 68 79 67 80 54 81 55 82 59 83 56 84 58 85
REMARK SMILES IDX 57 86
REMARK H PARENT 10 18 74 54 52 65
REMARK Flexibility Score: inf
ROOT
ATOM      1  C   UNL A   1      33.286  34.369  28.559  1.00  0.00     0.188 C 
ENDROOT
BRANCH   1   2
ATOM      2  C   UNL A   1      34.117  33.090  28.269  1.00  0.00     0.188 C 
BRANCH   2   3
ATOM      3  O   UNL A   1      33.368  32.003  27.753  1.00  0.00    -0.376 OA
BRANCH   3   4
ATOM      4  C   UNL A   1      34.067  30.885  27.240  1.00  0.00     0.202 C 
BRANCH   4   5
ATOM      5  C   UNL A   1      33.255  29.678  26.758  1.00  0.00     0.261 C 
BRANCH   5   6
ATOM      6  O   UNL A   1      33.862  28.945  25.678  1.00  0.00    -0.461 OA
BRANCH   6   7
ATOM      7  C   UNL A   1      33.331  27.738  25.351  1.00  0.00     0.335 C 
ATOM      8  O   UNL A   1      33.260  26.807  26.135  1.00  0.00    -0.249 OA
BRANCH   7   9
ATOM      9  C   UNL A   1      32.869  27.719  23.878  1.00  0.00     0.228 C 
ATOM     10  C   UNL A   1      32.781  25.993  22.273  1.00  0.00     0.138 C 
ATOM     11  C   UNL A   1      31.452  26.721  22.252  1.00  0.00     0.037 C 
ATOM     12  O   UNL A   1      33.643  26.776  23.117  1.00  0.00    -0.361 OA
ATOM     13  C   UNL A   1      31.415  27.331  23.631  1.00  0.00     0.047 C 
BRANCH  10  14
ATOM     14  C   UNL A   1      32.625  24.558  22.810  1.00  0.00     0.148 C 
BRANCH  14  15
ATOM     15  N   UNL A   1      33.463  24.299  23.964  1.00  0.00    -0.349 N 
ATOM     16  C   UNL A   1      33.896  23.201  24.657  1.00  0.00     0.251 C 
ATOM     17  O   UNL A   1      34.614  23.463  25.630  1.00  0.00    -0.269 OA
ATOM     18  H   UNL A   1      33.813  25.133  24.353  1.00  0.00     0.163 HD
BRANCH  16  19
ATOM     19  C   UNL A   1      33.607  21.760  24.361  1.00  0.00     0.039 A 
ATOM     20  C   UNL A   1      33.236  18.926  24.072  1.00  0.00    -0.045 A 
ATOM     21  C   UNL A   1      34.347  19.444  24.740  1.00  0.00     0.005 A 
ATOM     22  C   UNL A   1      32.357  19.852  23.493  1.00  0.00     0.005 A 
ATOM     23  C   UNL A   1      34.525  20.830  24.881  1.00  0.00     0.014 A 
ATOM     24  C   UNL A   1      32.536  21.241  23.639  1.00  0.00     0.014 A 
BRANCH  20  25
ATOM     25  C   UNL A   1      32.956  17.431  23.952  1.00  0.00     0.013 C 
ATOM     26  C   UNL A   1      34.069  16.605  23.297  1.00  0.00     0.012 C 
ATOM     27  C   UNL A   1      32.640  16.803  25.317  1.00  0.00     0.012 C 
ENDBRANCH  20  25
ENDBRANCH  16  19
ENDBRANCH  14  15
ENDBRANCH  10  14
ENDBRANCH   7   9
ENDBRANCH   6   7
ENDBRANCH   5   6
ENDBRANCH   4   5
ENDBRANCH   3   4
ENDBRANCH   2   3
ENDBRANCH   1   2
BRANCH   1  28
ATOM     28  O   UNL A   1      33.812  35.511  29.221  1.00  0.00    -0.377 OA
BRANCH  28  29
ATOM     29  C   UNL A   1      32.913  36.374  29.891  1.00  0.00     0.188 C 
BRANCH  29  30
ATOM     30  C   UNL A   1      32.854  36.144  31.412  1.00  0.00     0.188 C 
BRANCH  30  31
ATOM     31  O   UNL A   1      34.135  35.905  31.980  1.00  0.00    -0.376 OA
BRANCH  31  32
ATOM     32  C   UNL A   1      34.325  34.726  32.744  1.00  0.00     0.202 C 
BRANCH  32  33
ATOM     33  C   UNL A   1      34.268  33.339  32.075  1.00  0.00     0.261 C 
BRANCH  33  34
ATOM     34  O   UNL A   1      35.357  32.436  32.317  1.00  0.00    -0.460 OA
BRANCH  34  35
ATOM     35  C   UNL A   1      36.476  32.562  31.580  1.00  0.00     0.338 C 
ATOM     36  O   UNL A   1      36.596  33.130  30.508  1.00  0.00    -0.246 OA
BRANCH  35  37
ATOM     37  C   UNL A   1      37.594  32.057  32.407  1.00  0.00     0.060 A 
ATOM     38  C   UNL A   1      37.307  31.376  33.599  1.00  0.00     0.016 A 
ATOM     39  C   UNL A   1      38.916  32.203  31.978  1.00  0.00     0.016 A 
ATOM     40  C   UNL A   1      38.344  30.854  34.372  1.00  0.00     0.010 A 
ATOM     41  C   UNL A   1      39.955  31.713  32.771  1.00  0.00     0.010 A 
ATOM     42  C   UNL A   1      39.673  31.063  33.986  1.00  0.00    -0.014 A 
BRANCH  42  43
ATOM     43  C   UNL A   1      40.763  30.815  34.958  1.00  0.00     0.031 A 
ATOM     44  C   UNL A   1      41.473  29.492  34.887  1.00  0.00     0.074 A 
ATOM     45  C   UNL A   1      41.129  31.735  35.866  1.00  0.00     0.049 A 
ATOM     46  N   UNL A   1      42.422  29.014  35.650  1.00  0.00    -0.248 NA
ATOM     47  C   UNL A   1      41.051  28.581  33.809  1.00  0.00     0.031 C 
ATOM     48  C   UNL A   1      40.555  33.072  36.001  1.00  0.00     0.029 A 
ATOM     49  N   UNL A   1      42.076  31.672  36.858  1.00  0.00    -0.354 N 
ATOM     50  C   UNL A   1      42.700  27.748  35.153  1.00  0.00     0.074 A 
ATOM     51  C   UNL A   1      41.805  27.519  34.041  1.00  0.00     0.031 C 
ATOM     52  C   UNL A   1      41.155  33.701  37.028  1.00  0.00     0.029 A 
ATOM     53  C   UNL A   1      42.127  32.797  37.643  1.00  0.00     0.049 A 
ATOM     54  H   UNL A   1      42.664  30.893  36.993  1.00  0.00     0.167 HD
ATOM     55  C   UNL A   1      43.621  26.854  35.581  1.00  0.00     0.031 A 
ATOM     56  C   UNL A   1      42.856  33.053  38.747  1.00  0.00     0.031 A 
ATOM     57  C   UNL A   1      44.495  27.075  36.701  1.00  0.00     0.049 A 
ATOM     58  C   UNL A   1      43.814  32.007  39.259  1.00  0.00     0.074 A 
ATOM     59  C   UNL A   1      45.472  26.237  37.207  1.00  0.00     0.029 A 
ATOM     60  N   UNL A   1      44.487  28.211  37.494  1.00  0.00    -0.354 N 
ATOM     61  N   UNL A   1      44.091  30.824  38.764  1.00  0.00    -0.248 NA
ATOM     62  C   UNL A   1      44.565  32.337  40.480  1.00  0.00     0.031 C 
ATOM     63  C   UNL A   1      46.010  26.838  38.349  1.00  0.00     0.029 A 
ATOM     64  C   UNL A   1      45.420  28.082  38.508  1.00  0.00     0.049 A 
ATOM     65  H   UNL A   1      43.905  28.993  37.357  1.00  0.00     0.167 HD
ATOM     66  C   UNL A   1      45.068  30.284  39.593  1.00  0.00     0.074 A 
ATOM     67  C   UNL A   1      45.346  31.273  40.613  1.00  0.00     0.031 C 
ATOM     68  C   UNL A   1      45.684  29.078  39.515  1.00  0.00     0.031 A 
BRANCH  55  69
ATOM     69  C   UNL A   1      43.691  25.537  34.862  1.00  0.00    -0.014 A 
ATOM     70  C   UNL A   1      42.901  24.444  35.254  1.00  0.00     0.009 A 
ATOM     71  C   UNL A   1      44.544  25.395  33.757  1.00  0.00     0.009 A 
ATOM     72  C   UNL A   1      42.990  23.228  34.574  1.00  0.00     0.001 A 
ATOM     73  C   UNL A   1      44.609  24.189  33.060  1.00  0.00     0.001 A 
ATOM     74  C   UNL A   1      43.838  23.103  33.474  1.00  0.00     0.000 A 
ENDBRANCH  55  69
BRANCH  56  75
ATOM     75  C   UNL A   1      42.696  34.345  39.467  1.00  0.00    -0.014 A 
ATOM     76  C   UNL A   1      43.491  35.454  39.144  1.00  0.00     0.009 A 
ATOM     77  C   UNL A   1      41.760  34.466  40.508  1.00  0.00     0.009 A 
ATOM     78  C   UNL A   1      43.373  36.646  39.864  1.00  0.00     0.001 A 
ATOM     79  C   UNL A   1      41.621  35.668  41.206  1.00  0.00     0.001 A 
ATOM     80  C   UNL A   1      42.435  36.754  40.890  1.00  0.00     0.000 A 
ENDBRANCH  56  75
BRANCH  68  81
ATOM     81  C   UNL A   1      46.751  28.775  40.531  1.00  0.00    -0.014 A 
ATOM     82  C   UNL A   1      48.082  29.179  40.340  1.00  0.00     0.009 A 
ATOM     83  C   UNL A   1      46.405  28.120  41.724  1.00  0.00     0.009 A 
ATOM     84  C   UNL A   1      49.049  28.903  41.311  1.00  0.00     0.001 A 
ATOM     85  C   UNL A   1      47.366  27.877  42.706  1.00  0.00     0.001 A 
ATOM     86  C   UNL A   1      48.690  28.258  42.494  1.00  0.00     0.000 A 
ENDBRANCH  68  81
ENDBRANCH  42  43
ENDBRANCH  35  37
ENDBRANCH  34  35
ENDBRANCH  33  34
ENDBRANCH  32  33
ENDBRANCH  31  32
ENDBRANCH  30  31
ENDBRANCH  29  30
ENDBRANCH  28  29
ENDBRANCH   1  28
TORSDOF 24
ENDMDL
MODEL 3
REMARK VINA RESULT:      -8.8      7.333     11.299
REMARK SMILES CC(C)c1ccc(C(=O)NC[C@H]2CC[C@@H](C(=O)OCCOCCOCCOCCOC(=O)c3ccc(-c4c5nc(c(-c6ccccc6)c6ccc([nH]6)c(-c6ccccc6)c6nc(c(-c7ccccc7)c7ccc4[nH]7)C=C6)C=C5)cc3)O2)cc1
REMARK SMILES IDX 23 1 22 2 21 3 20 4 19 5 18 6 16 7 17 8 15 9 12 10 13 11
REMARK SMILES IDX 81 12 14 13 11 14 10 15 8 16 9 17 7 19 4 20 5 21 83 22 6 23
REMARK SMILES IDX 82 24 2 25 1 26 3 27 24 28 25 29 26 30 27 31 28 32 29 33
REMARK SMILES IDX 30 34 31 35 32 36 33 37 34 38 80 39 35 40 79 41 36 42 37 43
REMARK SMILES IDX 38 44 73 45 39 46 78 47 72 48 74 49 40 50 77 51 71 52 70 53
REMARK SMILES IDX 41 55 63 56 48 57 62 58 49 59 52 60 61 61 75 62 50 63 51 64
REMARK SMILES IDX 60 66 76 67 53 68 42 69 43 70 47 71 44 72 46 73 45 74 64 75
REMARK SMILES IDX 65 76 69 77 66 78 68 79 67 80 54 81 55 82 59 83 56 84 58 85
REMARK SMILES IDX 57 86
REMARK H PARENT 10 18 74 54 52 65
REMARK Flexibility Score: inf
ROOT
ATOM      1  C   UNL A   1      33.546  33.882  28.407  1.00  0.00     0.188 C 
ENDROOT
BRANCH   1   2
ATOM      2  C   UNL A   1      34.271  32.513  28.310  1.00  0.00     0.188 C 
BRANCH   2   3
ATOM      3  O   UNL A   1      33.654  31.578  27.443  1.00  0.00    -0.376 OA
BRANCH   3   4
ATOM      4  C   UNL A   1      34.274  30.319  27.258  1.00  0.00     0.202 C 
BRANCH   4   5
ATOM      5  C   UNL A   1      33.411  29.147  26.776  1.00  0.00     0.261 C 
BRANCH   5   6
ATOM      6  O   UNL A   1      33.924  28.468  25.615  1.00  0.00    -0.461 OA
BRANCH   6   7
ATOM      7  C   UNL A   1      33.426  27.238  25.327  1.00  0.00     0.335 C 
ATOM      8  O   UNL A   1      34.128  26.291  25.013  1.00  0.00    -0.249 OA
BRANCH   7   9
ATOM      9  C   UNL A   1      31.885  27.228  25.429  1.00  0.00     0.228 C 
ATOM     10  C   UNL A   1      30.226  26.125  24.167  1.00  0.00     0.138 C 
ATOM     11  C   UNL A   1      29.915  25.915  25.635  1.00  0.00     0.037 C 
ATOM     12  O   UNL A   1      31.292  27.088  24.127  1.00  0.00    -0.361 OA
ATOM     13  C   UNL A   1      31.271  26.111  26.267  1.00  0.00     0.047 C 
BRANCH  10  14
ATOM     14  C   UNL A   1      30.638  24.805  23.488  1.00  0.00     0.148 C 
BRANCH  14  15
ATOM     15  N   UNL A   1      31.976  24.857  22.933  1.00  0.00    -0.349 N 
ATOM     16  C   UNL A   1      33.039  24.003  22.809  1.00  0.00     0.251 C 
ATOM     17  O   UNL A   1      34.029  24.499  22.259  1.00  0.00    -0.269 OA
ATOM     18  H   UNL A   1      32.174  25.739  22.544  1.00  0.00     0.163 HD
BRANCH  16  19
ATOM     19  C   UNL A   1      33.118  22.572  23.248  1.00  0.00     0.039 A 
ATOM     20  C   UNL A   1      33.457  19.941  24.351  1.00  0.00    -0.045 A 
ATOM     21  C   UNL A   1      34.385  20.953  24.599  1.00  0.00     0.005 A 
ATOM     22  C   UNL A   1      32.398  20.252  23.485  1.00  0.00     0.005 A 
ATOM     23  C   UNL A   1      34.216  22.238  24.060  1.00  0.00     0.014 A 
ATOM     24  C   UNL A   1      32.230  21.542  22.948  1.00  0.00     0.014 A 
BRANCH  20  25
ATOM     25  C   UNL A   1      33.551  18.549  24.969  1.00  0.00     0.013 C 
ATOM     26  C   UNL A   1      32.301  17.675  24.811  1.00  0.00     0.012 C 
ATOM     27  C   UNL A   1      34.751  17.764  24.418  1.00  0.00     0.012 C 
ENDBRANCH  20  25
ENDBRANCH  16  19
ENDBRANCH  14  15
ENDBRANCH  10  14
ENDBRANCH   7   9
ENDBRANCH   6   7
ENDBRANCH   5   6
ENDBRANCH   4   5
ENDBRANCH   3   4
ENDBRANCH   2   3
ENDBRANCH   1   2
BRANCH   1  28
ATOM     28  O   UNL A   1      34.135  35.042  28.979  1.00  0.00    -0.377 OA
BRANCH  28  29
ATOM     29  C   UNL A   1      33.300  36.146  29.272  1.00  0.00     0.188 C 
BRANCH  29  30
ATOM     30  C   UNL A   1      32.833  36.195  30.738  1.00  0.00     0.188 C 
BRANCH  30  31
ATOM     31  O   UNL A   1      33.868  35.864  31.655  1.00  0.00    -0.376 OA
BRANCH  31  32
ATOM     32  C   UNL A   1      33.675  34.758  32.521  1.00  0.00     0.202 C 
BRANCH  32  33
ATOM     33  C   UNL A   1      34.188  33.358  32.133  1.00  0.00     0.261 C 
BRANCH  33  34
ATOM     34  O   UNL A   1      35.282  32.815  32.887  1.00  0.00    -0.460 OA
BRANCH  34  35
ATOM     35  C   UNL A   1      36.533  33.203  32.577  1.00  0.00     0.338 C 
ATOM     36  O   UNL A   1      36.912  33.727  31.544  1.00  0.00    -0.246 OA
BRANCH  35  37
ATOM     37  C   UNL A   1      37.342  33.064  33.808  1.00  0.00     0.060 A 
ATOM     38  C   UNL A   1      37.637  31.780  34.289  1.00  0.00     0.016 A 
ATOM     39  C   UNL A   1      37.856  34.194  34.450  1.00  0.00     0.016 A 
ATOM     40  C   UNL A   1      38.434  31.625  35.423  1.00  0.00     0.010 A 
ATOM     41  C   UNL A   1      38.623  34.039  35.607  1.00  0.00     0.010 A 
ATOM     42  C   UNL A   1      38.889  32.754  36.114  1.00  0.00    -0.014 A 
BRANCH  42  43
ATOM     43  C   UNL A   1      39.436  32.603  37.482  1.00  0.00     0.031 A 
ATOM     44  C   UNL A   1      40.918  32.391  37.622  1.00  0.00     0.074 A 
ATOM     45  C   UNL A   1      38.652  32.667  38.572  1.00  0.00     0.049 A 
ATOM     46  N   UNL A   1      41.631  32.183  38.698  1.00  0.00    -0.248 NA
ATOM     47  C   UNL A   1      41.701  32.413  36.375  1.00  0.00     0.031 C 
ATOM     48  C   UNL A   1      37.213  32.918  38.571  1.00  0.00     0.029 A 
ATOM     49  N   UNL A   1      38.968  32.512  39.899  1.00  0.00    -0.354 N 
ATOM     50  C   UNL A   1      42.940  32.039  38.257  1.00  0.00     0.074 A 
ATOM     51  C   UNL A   1      42.921  32.156  36.817  1.00  0.00     0.031 C 
ATOM     52  C   UNL A   1      36.767  32.890  39.841  1.00  0.00     0.029 A 
ATOM     53  C   UNL A   1      37.881  32.582  40.735  1.00  0.00     0.049 A 
ATOM     54  H   UNL A   1      39.888  32.366  40.221  1.00  0.00     0.167 HD
ATOM     55  C   UNL A   1      44.060  31.830  38.986  1.00  0.00     0.031 A 
ATOM     56  C   UNL A   1      37.796  32.390  42.066  1.00  0.00     0.031 A 
ATOM     57  C   UNL A   1      44.074  31.691  40.417  1.00  0.00     0.049 A 
ATOM     58  C   UNL A   1      39.046  32.070  42.848  1.00  0.00     0.074 A 
ATOM     59  C   UNL A   1      45.158  31.490  41.250  1.00  0.00     0.029 A 
ATOM     60  N   UNL A   1      42.947  31.728  41.222  1.00  0.00    -0.354 N 
ATOM     61  N   UNL A   1      40.283  31.965  42.426  1.00  0.00    -0.248 NA
ATOM     62  C   UNL A   1      38.885  31.850  44.293  1.00  0.00     0.031 C 
ATOM     63  C   UNL A   1      44.680  31.337  42.555  1.00  0.00     0.029 A 
ATOM     64  C   UNL A   1      43.306  31.519  42.542  1.00  0.00     0.049 A 
ATOM     65  H   UNL A   1      42.028  31.880  40.903  1.00  0.00     0.167 HD
ATOM     66  C   UNL A   1      41.050  31.699  43.555  1.00  0.00     0.074 A 
ATOM     67  C   UNL A   1      40.141  31.673  44.681  1.00  0.00     0.031 C 
ATOM     68  C   UNL A   1      42.388  31.497  43.652  1.00  0.00     0.031 A 
BRANCH  55  69
ATOM     69  C   UNL A   1      45.355  31.689  38.237  1.00  0.00    -0.014 A 
ATOM     70  C   UNL A   1      46.180  32.796  37.983  1.00  0.00     0.009 A 
ATOM     71  C   UNL A   1      45.768  30.421  37.801  1.00  0.00     0.009 A 
ATOM     72  C   UNL A   1      47.375  32.639  37.278  1.00  0.00     0.001 A 
ATOM     73  C   UNL A   1      46.977  30.262  37.124  1.00  0.00     0.001 A 
ATOM     74  C   UNL A   1      47.776  31.372  36.855  1.00  0.00     0.000 A 
ENDBRANCH  55  69
BRANCH  56  75
ATOM     75  C   UNL A   1      36.478  32.466  42.751  1.00  0.00    -0.014 A 
ATOM     76  C   UNL A   1      35.659  31.333  42.866  1.00  0.00     0.009 A 
ATOM     77  C   UNL A   1      36.017  33.687  43.271  1.00  0.00     0.009 A 
ATOM     78  C   UNL A   1      34.398  31.426  43.461  1.00  0.00     0.001 A 
ATOM     79  C   UNL A   1      34.770  33.771  43.893  1.00  0.00     0.001 A 
ATOM     80  C   UNL A   1      33.956  32.643  43.978  1.00  0.00     0.000 A 
ENDBRANCH  56  75
BRANCH  68  81
ATOM     81  C   UNL A   1      42.960  31.276  45.025  1.00  0.00    -0.014 A 
ATOM     82  C   UNL A   1      43.327  32.351  45.850  1.00  0.00     0.009 A 
ATOM     83  C   UNL A   1      43.083  29.968  45.521  1.00  0.00     0.009 A 
ATOM     84  C   UNL A   1      43.836  32.116  47.130  1.00  0.00     0.001 A 
ATOM     85  C   UNL A   1      43.559  29.739  46.812  1.00  0.00     0.001 A 
ATOM     86  C   UNL A   1      43.946  30.812  47.612  1.00  0.00     0.000 A 
ENDBRANCH  68  81
ENDBRANCH  42  43
ENDBRANCH  35  37
ENDBRANCH  34  35
ENDBRANCH  33  34
ENDBRANCH  32  33
ENDBRANCH  31  32
ENDBRANCH  30  31
ENDBRANCH  29  30
ENDBRANCH  28  29
ENDBRANCH   1  28
TORSDOF 24
ENDMDL
