MODEL 1
REMARK VINA RESULT:      -9.8      0.000      0.000
REMARK SMILES Cc1nc([C@]2(C)CCCO2)nc(C)c1C(=O)OCCOCCOCCOCCOC(=O)c1ccc(-c2c3nc(c(-c4ccccc4)c4ccc([nH]4)c(-c4ccccc4)c4nc(c(-c5ccccc5)c5ccc2[nH]5)C=C4)C=C3)cc1
REMARK SMILES IDX 24 1 23 2 22 3 21 4 20 5 19 6 18 7 17 8 15 9 16 10 14 11
REMARK SMILES IDX 1 12 2 13 3 14 4 15 12 16 11 17 13 18 5 19 7 20 10 21 6 22
REMARK SMILES IDX 8 23 9 24 25 25 26 26 27 27 28 28 29 29 30 30 31 31 32 32
REMARK SMILES IDX 33 33 79 34 34 35 78 36 35 37 36 38 37 39 72 40 38 41 77 42
REMARK SMILES IDX 71 43 73 44 39 45 76 46 70 47 69 48 40 50 62 51 47 52 61 53
REMARK SMILES IDX 48 54 51 55 60 56 74 57 49 58 50 59 59 61 75 62 52 63 41 64
REMARK SMILES IDX 42 65 46 66 43 67 45 68 44 69 63 70 64 71 68 72 65 73 67 74
REMARK SMILES IDX 66 75 53 76 54 77 58 78 55 79 57 80 56 81
REMARK H PARENT 73 49 51 60
REMARK Flexibility Score: inf
ROOT
ATOM      1  C   UNL A   1      36.139  22.973  23.119  1.00  0.00     0.188 C 
ENDROOT
BRANCH   1   2
ATOM      2  O   UNL A   1      34.752  23.278  23.027  1.00  0.00    -0.377 OA
BRANCH   2   3
ATOM      3  C   UNL A   1      33.830  22.557  23.826  1.00  0.00     0.188 C 
BRANCH   3   4
ATOM      4  C   UNL A   1      32.860  23.352  24.722  1.00  0.00     0.188 C 
BRANCH   4   5
ATOM      5  O   UNL A   1      33.436  23.866  25.921  1.00  0.00    -0.376 OA
BRANCH   5   6
ATOM      6  C   UNL A   1      34.155  25.085  25.785  1.00  0.00     0.202 C 
BRANCH   6   7
ATOM      7  C   UNL A   1      33.297  26.236  25.259  1.00  0.00     0.261 C 
BRANCH   7   8
ATOM      8  O   UNL A   1      33.557  26.545  23.881  1.00  0.00    -0.460 OA
BRANCH   8   9
ATOM      9  C   UNL A   1      33.522  27.843  23.522  1.00  0.00     0.341 C 
ATOM     10  O   UNL A   1      34.487  28.536  23.248  1.00  0.00    -0.246 OA
BRANCH   9  11
ATOM     11  C   UNL A   1      32.118  28.285  23.409  1.00  0.00     0.102 A 
ATOM     12  C   UNL A   1      32.280  29.836  25.424  1.00  0.00     0.068 C 
ATOM     13  C   UNL A   1      31.566  29.253  24.239  1.00  0.00     0.056 A 
ATOM     14  N   UNL A   1      30.299  29.704  24.073  1.00  0.00    -0.234 NA
ATOM     15  C   UNL A   1      29.553  29.174  23.083  1.00  0.00     0.160 A 
ATOM     16  C   UNL A   1      31.265  27.740  22.454  1.00  0.00     0.056 A 
ATOM     17  N   UNL A   1      29.998  28.190  22.280  1.00  0.00    -0.234 NA
ATOM     18  C   UNL A   1      31.574  26.502  21.663  1.00  0.00     0.068 C 
BRANCH  15  19
ATOM     19  C   UNL A   1      28.164  29.772  22.820  1.00  0.00     0.125 C 
ATOM     20  C   UNL A   1      28.056  30.300  21.387  1.00  0.00     0.046 C 
ATOM     21  O   UNL A   1      27.937  30.928  23.663  1.00  0.00    -0.367 OA
ATOM     22  C   UNL A   1      27.046  28.766  23.115  1.00  0.00     0.051 C 
ATOM     23  C   UNL A   1      28.575  31.715  21.494  1.00  0.00     0.032 C 
ATOM     24  C   UNL A   1      28.222  32.116  22.912  1.00  0.00     0.161 C 
ENDBRANCH  15  19
ENDBRANCH   9  11
ENDBRANCH   8   9
ENDBRANCH   7   8
ENDBRANCH   6   7
ENDBRANCH   5   6
ENDBRANCH   4   5
ENDBRANCH   3   4
ENDBRANCH   2   3
ENDBRANCH   1   2
BRANCH   1  25
ATOM     25  C   UNL A   1      36.791  22.594  24.466  1.00  0.00     0.188 C 
BRANCH  25  26
ATOM     26  O   UNL A   1      37.565  21.402  24.446  1.00  0.00    -0.376 OA
BRANCH  26  27
ATOM     27  C   UNL A   1      38.476  21.219  25.520  1.00  0.00     0.202 C 
BRANCH  27  28
ATOM     28  C   UNL A   1      39.171  19.853  25.523  1.00  0.00     0.261 C 
BRANCH  28  29
ATOM     29  O   UNL A   1      40.205  19.703  26.508  1.00  0.00    -0.460 OA
BRANCH  29  30
ATOM     30  C   UNL A   1      41.482  19.851  26.094  1.00  0.00     0.338 C 
ATOM     31  O   UNL A   1      42.101  19.144  25.321  1.00  0.00    -0.246 OA
BRANCH  30  32
ATOM     32  C   UNL A   1      41.965  21.145  26.608  1.00  0.00     0.060 A 
ATOM     33  C   UNL A   1      41.845  21.421  27.976  1.00  0.00     0.016 A 
ATOM     34  C   UNL A   1      42.545  22.071  25.739  1.00  0.00     0.016 A 
ATOM     35  C   UNL A   1      42.278  22.650  28.474  1.00  0.00     0.010 A 
ATOM     36  C   UNL A   1      42.957  23.308  26.234  1.00  0.00     0.010 A 
ATOM     37  C   UNL A   1      42.795  23.612  27.597  1.00  0.00    -0.014 A 
BRANCH  37  38
ATOM     38  C   UNL A   1      42.966  25.010  28.053  1.00  0.00     0.031 A 
ATOM     39  C   UNL A   1      44.352  25.471  28.411  1.00  0.00     0.074 A 
ATOM     40  C   UNL A   1      41.923  25.852  28.151  1.00  0.00     0.049 A 
ATOM     41  N   UNL A   1      44.748  26.625  28.881  1.00  0.00    -0.248 NA
ATOM     42  C   UNL A   1      45.437  24.495  28.212  1.00  0.00     0.031 C 
ATOM     43  C   UNL A   1      40.540  25.538  27.799  1.00  0.00     0.029 A 
ATOM     44  N   UNL A   1      41.874  27.151  28.591  1.00  0.00    -0.354 N 
ATOM     45  C   UNL A   1      46.123  26.514  29.032  1.00  0.00     0.074 A 
ATOM     46  C   UNL A   1      46.492  25.173  28.636  1.00  0.00     0.031 C 
ATOM     47  C   UNL A   1      39.774  26.613  28.050  1.00  0.00     0.029 A 
ATOM     48  C   UNL A   1      40.608  27.678  28.607  1.00  0.00     0.049 A 
ATOM     49  H   UNL A   1      42.673  27.657  28.868  1.00  0.00     0.167 HD
ATOM     50  C   UNL A   1      47.006  27.446  29.461  1.00  0.00     0.031 A 
ATOM     51  C   UNL A   1      40.172  28.876  29.044  1.00  0.00     0.031 A 
ATOM     52  C   UNL A   1      46.641  28.769  29.884  1.00  0.00     0.049 A 
ATOM     53  C   UNL A   1      41.163  29.866  29.598  1.00  0.00     0.074 A 
ATOM     54  C   UNL A   1      47.461  29.786  30.336  1.00  0.00     0.029 A 
ATOM     55  N   UNL A   1      45.343  29.254  29.914  1.00  0.00    -0.354 N 
ATOM     56  N   UNL A   1      42.465  29.761  29.712  1.00  0.00    -0.248 NA
ATOM     57  C   UNL A   1      40.621  31.147  30.079  1.00  0.00     0.031 C 
ATOM     58  C   UNL A   1      46.654  30.872  30.690  1.00  0.00     0.029 A 
ATOM     59  C   UNL A   1      45.337  30.549  30.402  1.00  0.00     0.049 A 
ATOM     60  H   UNL A   1      44.545  28.751  29.633  1.00  0.00     0.167 HD
ATOM     61  C   UNL A   1      42.899  30.968  30.248  1.00  0.00     0.074 A 
ATOM     62  C   UNL A   1      41.724  31.796  30.424  1.00  0.00     0.031 C 
ATOM     63  C   UNL A   1      44.158  31.358  30.565  1.00  0.00     0.031 A 
BRANCH  50  64
ATOM     64  C   UNL A   1      48.452  27.046  29.520  1.00  0.00    -0.014 A 
ATOM     65  C   UNL A   1      49.003  26.494  30.688  1.00  0.00     0.009 A 
ATOM     66  C   UNL A   1      49.266  27.203  28.390  1.00  0.00     0.009 A 
ATOM     67  C   UNL A   1      50.352  26.133  30.728  1.00  0.00     0.001 A 
ATOM     68  C   UNL A   1      50.607  26.818  28.426  1.00  0.00     0.001 A 
ATOM     69  C   UNL A   1      51.150  26.291  29.596  1.00  0.00     0.000 A 
ENDBRANCH  50  64
BRANCH  51  70
ATOM     70  C   UNL A   1      38.723  29.207  29.005  1.00  0.00    -0.014 A 
ATOM     71  C   UNL A   1      38.147  29.779  27.860  1.00  0.00     0.009 A 
ATOM     72  C   UNL A   1      37.915  28.989  30.132  1.00  0.00     0.009 A 
ATOM     73  C   UNL A   1      36.802  30.152  27.855  1.00  0.00     0.001 A 
ATOM     74  C   UNL A   1      36.563  29.337  30.114  1.00  0.00     0.001 A 
ATOM     75  C   UNL A   1      36.010  29.928  28.981  1.00  0.00     0.000 A 
ENDBRANCH  51  70
BRANCH  63  76
ATOM     76  C   UNL A   1      44.337  32.754  31.095  1.00  0.00    -0.014 A 
ATOM     77  C   UNL A   1      44.600  33.833  30.238  1.00  0.00     0.009 A 
ATOM     78  C   UNL A   1      44.188  32.996  32.470  1.00  0.00     0.009 A 
ATOM     79  C   UNL A   1      44.742  35.124  30.752  1.00  0.00     0.001 A 
ATOM     80  C   UNL A   1      44.302  34.291  32.978  1.00  0.00     0.001 A 
ATOM     81  C   UNL A   1      44.588  35.352  32.120  1.00  0.00     0.000 A 
ENDBRANCH  63  76
ENDBRANCH  37  38
ENDBRANCH  30  32
ENDBRANCH  29  30
ENDBRANCH  28  29
ENDBRANCH  27  28
ENDBRANCH  26  27
ENDBRANCH  25  26
ENDBRANCH   1  25
TORSDOF 21
ENDMDL
MODEL 2
REMARK VINA RESULT:      -9.6      4.251      9.909
REMARK SMILES Cc1nc([C@]2(C)CCCO2)nc(C)c1C(=O)OCCOCCOCCOCCOC(=O)c1ccc(-c2c3nc(c(-c4ccccc4)c4ccc([nH]4)c(-c4ccccc4)c4nc(c(-c5ccccc5)c5ccc2[nH]5)C=C4)C=C3)cc1
REMARK SMILES IDX 24 1 23 2 22 3 21 4 20 5 19 6 18 7 17 8 15 9 16 10 14 11
REMARK SMILES IDX 1 12 2 13 3 14 4 15 12 16 11 17 13 18 5 19 7 20 10 21 6 22
REMARK SMILES IDX 8 23 9 24 25 25 26 26 27 27 28 28 29 29 30 30 31 31 32 32
REMARK SMILES IDX 33 33 79 34 34 35 78 36 35 37 36 38 37 39 72 40 38 41 77 42
REMARK SMILES IDX 71 43 73 44 39 45 76 46 70 47 69 48 40 50 62 51 47 52 61 53
REMARK SMILES IDX 48 54 51 55 60 56 74 57 49 58 50 59 59 61 75 62 52 63 41 64
REMARK SMILES IDX 42 65 46 66 43 67 45 68 44 69 63 70 64 71 68 72 65 73 67 74
REMARK SMILES IDX 66 75 53 76 54 77 58 78 55 79 57 80 56 81
REMARK H PARENT 73 49 51 60
REMARK Flexibility Score: inf
ROOT
ATOM      1  C   UNL A   1      32.874  29.598  24.806  1.00  0.00     0.188 C 
ENDROOT
BRANCH   1   2
ATOM      2  O   UNL A   1      33.298  28.255  24.606  1.00  0.00    -0.377 OA
BRANCH   2   3
ATOM      3  C   UNL A   1      34.019  27.923  23.433  1.00  0.00     0.188 C 
BRANCH   3   4
ATOM      4  C   UNL A   1      33.268  27.218  22.288  1.00  0.00     0.188 C 
BRANCH   4   5
ATOM      5  O   UNL A   1      33.720  25.897  21.998  1.00  0.00    -0.376 OA
BRANCH   5   6
ATOM      6  C   UNL A   1      33.068  24.853  22.711  1.00  0.00     0.202 C 
BRANCH   6   7
ATOM      7  C   UNL A   1      33.389  24.852  24.206  1.00  0.00     0.261 C 
BRANCH   7   8
ATOM      8  O   UNL A   1      34.401  23.896  24.560  1.00  0.00    -0.460 OA
BRANCH   8   9
ATOM      9  C   UNL A   1      34.197  23.167  25.675  1.00  0.00     0.341 C 
ATOM     10  O   UNL A   1      34.162  23.597  26.815  1.00  0.00    -0.246 OA
BRANCH   9  11
ATOM     11  C   UNL A   1      33.917  21.766  25.302  1.00  0.00     0.102 A 
ATOM     12  C   UNL A   1      31.398  22.033  25.576  1.00  0.00     0.068 C 
ATOM     13  C   UNL A   1      32.627  21.263  25.187  1.00  0.00     0.056 A 
ATOM     14  N   UNL A   1      32.384  19.997  24.769  1.00  0.00    -0.234 NA
ATOM     15  C   UNL A   1      33.434  19.204  24.478  1.00  0.00     0.160 A 
ATOM     16  C   UNL A   1      34.948  20.867  25.047  1.00  0.00     0.056 A 
ATOM     17  N   UNL A   1      34.711  19.601  24.624  1.00  0.00    -0.234 NA
ATOM     18  C   UNL A   1      36.388  21.125  25.387  1.00  0.00     0.068 C 
BRANCH  15  19
ATOM     19  C   UNL A   1      33.154  17.815  23.888  1.00  0.00     0.125 C 
ATOM     20  C   UNL A   1      32.270  16.988  24.826  1.00  0.00     0.046 C 
ATOM     21  O   UNL A   1      34.381  17.056  23.763  1.00  0.00    -0.367 OA
ATOM     22  C   UNL A   1      32.530  17.906  22.491  1.00  0.00     0.051 C 
ATOM     23  C   UNL A   1      33.264  16.324  25.750  1.00  0.00     0.032 C 
ATOM     24  C   UNL A   1      34.506  16.182  24.893  1.00  0.00     0.161 C 
ENDBRANCH  15  19
ENDBRANCH   9  11
ENDBRANCH   8   9
ENDBRANCH   7   8
ENDBRANCH   6   7
ENDBRANCH   5   6
ENDBRANCH   4   5
ENDBRANCH   3   4
ENDBRANCH   2   3
ENDBRANCH   1   2
BRANCH   1  25
ATOM     25  C   UNL A   1      31.738  29.944  25.793  1.00  0.00     0.188 C 
BRANCH  25  26
ATOM     26  O   UNL A   1      32.160  30.242  27.117  1.00  0.00    -0.376 OA
BRANCH  26  27
ATOM     27  C   UNL A   1      33.051  31.338  27.266  1.00  0.00     0.202 C 
BRANCH  27  28
ATOM     28  C   UNL A   1      32.354  32.698  27.378  1.00  0.00     0.261 C 
BRANCH  28  29
ATOM     29  O   UNL A   1      33.239  33.824  27.485  1.00  0.00    -0.460 OA
BRANCH  29  30
ATOM     30  C   UNL A   1      33.324  34.435  28.686  1.00  0.00     0.338 C 
ATOM     31  O   UNL A   1      32.528  35.209  29.186  1.00  0.00    -0.246 OA
BRANCH  30  32
ATOM     32  C   UNL A   1      34.482  33.862  29.392  1.00  0.00     0.060 A 
ATOM     33  C   UNL A   1      35.773  34.182  28.953  1.00  0.00     0.016 A 
ATOM     34  C   UNL A   1      34.288  33.023  30.492  1.00  0.00     0.016 A 
ATOM     35  C   UNL A   1      36.880  33.630  29.598  1.00  0.00     0.010 A 
ATOM     36  C   UNL A   1      35.395  32.455  31.122  1.00  0.00     0.010 A 
ATOM     37  C   UNL A   1      36.691  32.731  30.656  1.00  0.00    -0.014 A 
BRANCH  37  38
ATOM     38  C   UNL A   1      37.826  31.912  31.138  1.00  0.00     0.031 A 
ATOM     39  C   UNL A   1      38.409  32.237  32.486  1.00  0.00     0.074 A 
ATOM     40  C   UNL A   1      38.329  30.905  30.404  1.00  0.00     0.049 A 
ATOM     41  N   UNL A   1      39.431  31.701  33.099  1.00  0.00    -0.248 NA
ATOM     42  C   UNL A   1      37.750  33.318  33.239  1.00  0.00     0.031 C 
ATOM     43  C   UNL A   1      37.829  30.467  29.103  1.00  0.00     0.029 A 
ATOM     44  N   UNL A   1      39.392  30.073  30.657  1.00  0.00    -0.354 N 
ATOM     45  C   UNL A   1      39.536  32.376  34.308  1.00  0.00     0.074 A 
ATOM     46  C   UNL A   1      38.496  33.381  34.330  1.00  0.00     0.031 C 
ATOM     47  C   UNL A   1      38.594  29.452  28.664  1.00  0.00     0.029 A 
ATOM     48  C   UNL A   1      39.653  29.192  29.638  1.00  0.00     0.049 A 
ATOM     49  H   UNL A   1      39.916  30.106  31.490  1.00  0.00     0.167 HD
ATOM     50  C   UNL A   1      40.417  32.176  35.316  1.00  0.00     0.031 A 
ATOM     51  C   UNL A   1      40.649  28.294  29.501  1.00  0.00     0.031 A 
ATOM     52  C   UNL A   1      41.470  31.199  35.285  1.00  0.00     0.049 A 
ATOM     53  C   UNL A   1      41.671  28.150  30.600  1.00  0.00     0.074 A 
ATOM     54  C   UNL A   1      42.415  30.920  36.255  1.00  0.00     0.029 A 
ATOM     55  N   UNL A   1      41.720  30.347  34.222  1.00  0.00    -0.354 N 
ATOM     56  N   UNL A   1      41.744  28.774  31.751  1.00  0.00    -0.248 NA
ATOM     57  C   UNL A   1      42.745  27.168  30.380  1.00  0.00     0.031 C 
ATOM     58  C   UNL A   1      43.271  29.932  35.758  1.00  0.00     0.029 A 
ATOM     59  C   UNL A   1      42.821  29.557  34.501  1.00  0.00     0.049 A 
ATOM     60  H   UNL A   1      41.194  30.309  33.391  1.00  0.00     0.167 HD
ATOM     61  C   UNL A   1      42.852  28.242  32.401  1.00  0.00     0.074 A 
ATOM     62  C   UNL A   1      43.411  27.235  31.524  1.00  0.00     0.031 C 
ATOM     63  C   UNL A   1      43.360  28.556  33.618  1.00  0.00     0.031 A 
BRANCH  50  64
ATOM     64  C   UNL A   1      40.293  33.060  36.522  1.00  0.00    -0.014 A 
ATOM     65  C   UNL A   1      39.464  32.703  37.599  1.00  0.00     0.009 A 
ATOM     66  C   UNL A   1      41.028  34.252  36.593  1.00  0.00     0.009 A 
ATOM     67  C   UNL A   1      39.355  33.541  38.712  1.00  0.00     0.001 A 
ATOM     68  C   UNL A   1      40.936  35.073  37.717  1.00  0.00     0.001 A 
ATOM     69  C   UNL A   1      40.095  34.722  38.771  1.00  0.00     0.000 A 
ENDBRANCH  50  64
BRANCH  51  70
ATOM     70  C   UNL A   1      40.755  27.473  28.266  1.00  0.00    -0.014 A 
ATOM     71  C   UNL A   1      41.452  27.950  27.145  1.00  0.00     0.009 A 
ATOM     72  C   UNL A   1      40.122  26.223  28.190  1.00  0.00     0.009 A 
ATOM     73  C   UNL A   1      41.488  27.204  25.964  1.00  0.00     0.001 A 
ATOM     74  C   UNL A   1      40.184  25.466  27.017  1.00  0.00     0.001 A 
ATOM     75  C   UNL A   1      40.856  25.962  25.902  1.00  0.00     0.000 A 
ENDBRANCH  51  70
BRANCH  63  76
ATOM     76  C   UNL A   1      44.555  27.778  34.091  1.00  0.00    -0.014 A 
ATOM     77  C   UNL A   1      44.411  26.607  34.851  1.00  0.00     0.009 A 
ATOM     78  C   UNL A   1      45.844  28.197  33.724  1.00  0.00     0.009 A 
ATOM     79  C   UNL A   1      45.537  25.890  35.262  1.00  0.00     0.001 A 
ATOM     80  C   UNL A   1      46.966  27.462  34.110  1.00  0.00     0.001 A 
ATOM     81  C   UNL A   1      46.811  26.315  34.887  1.00  0.00     0.000 A 
ENDBRANCH  63  76
ENDBRANCH  37  38
ENDBRANCH  30  32
ENDBRANCH  29  30
ENDBRANCH  28  29
ENDBRANCH  27  28
ENDBRANCH  26  27
ENDBRANCH  25  26
ENDBRANCH   1  25
TORSDOF 21
ENDMDL
MODEL 3
REMARK VINA RESULT:      -9.5      0.985      5.932
REMARK SMILES Cc1nc([C@]2(C)CCCO2)nc(C)c1C(=O)OCCOCCOCCOCCOC(=O)c1ccc(-c2c3nc(c(-c4ccccc4)c4ccc([nH]4)c(-c4ccccc4)c4nc(c(-c5ccccc5)c5ccc2[nH]5)C=C4)C=C3)cc1
REMARK SMILES IDX 24 1 23 2 22 3 21 4 20 5 19 6 18 7 17 8 15 9 16 10 14 11
REMARK SMILES IDX 1 12 2 13 3 14 4 15 12 16 11 17 13 18 5 19 7 20 10 21 6 22
REMARK SMILES IDX 8 23 9 24 25 25 26 26 27 27 28 28 29 29 30 30 31 31 32 32
REMARK SMILES IDX 33 33 79 34 34 35 78 36 35 37 36 38 37 39 72 40 38 41 77 42
REMARK SMILES IDX 71 43 73 44 39 45 76 46 70 47 69 48 40 50 62 51 47 52 61 53
REMARK SMILES IDX 48 54 51 55 60 56 74 57 49 58 50 59 59 61 75 62 52 63 41 64
REMARK SMILES IDX 42 65 46 66 43 67 45 68 44 69 63 70 64 71 68 72 65 73 67 74
REMARK SMILES IDX 66 75 53 76 54 77 58 78 55 79 57 80 56 81
REMARK H PARENT 73 49 51 60
REMARK Flexibility Score: inf
ROOT
ATOM      1  C   UNL A   1      34.469  21.026  24.872  1.00  0.00     0.188 C 
ENDROOT
BRANCH   1   2
ATOM      2  O   UNL A   1      34.165  21.731  26.071  1.00  0.00    -0.377 OA
BRANCH   2   3
ATOM      3  C   UNL A   1      32.820  22.075  26.351  1.00  0.00     0.188 C 
BRANCH   3   4
ATOM      4  C   UNL A   1      32.535  22.989  27.558  1.00  0.00     0.188 C 
BRANCH   4   5
ATOM      5  O   UNL A   1      31.554  23.998  27.328  1.00  0.00    -0.376 OA
BRANCH   5   6
ATOM      6  C   UNL A   1      31.436  24.446  25.983  1.00  0.00     0.202 C 
BRANCH   6   7
ATOM      7  C   UNL A   1      31.959  25.867  25.772  1.00  0.00     0.261 C 
BRANCH   7   8
ATOM      8  O   UNL A   1      32.714  26.011  24.558  1.00  0.00    -0.460 OA
BRANCH   8   9
ATOM      9  C   UNL A   1      33.043  27.263  24.183  1.00  0.00     0.341 C 
ATOM     10  O   UNL A   1      34.173  27.715  24.113  1.00  0.00    -0.246 OA
BRANCH   9  11
ATOM     11  C   UNL A   1      31.826  27.987  23.764  1.00  0.00     0.102 A 
ATOM     12  C   UNL A   1      31.511  26.565  21.673  1.00  0.00     0.068 C 
ATOM     13  C   UNL A   1      31.082  27.622  22.649  1.00  0.00     0.056 A 
ATOM     14  N   UNL A   1      29.926  28.248  22.321  1.00  0.00    -0.234 NA
ATOM     15  C   UNL A   1      29.505  29.268  23.096  1.00  0.00     0.160 A 
ATOM     16  C   UNL A   1      31.363  29.090  24.474  1.00  0.00     0.056 A 
ATOM     17  N   UNL A   1      30.204  29.717  24.154  1.00  0.00    -0.234 NA
ATOM     18  C   UNL A   1      32.163  29.809  25.522  1.00  0.00     0.068 C 
BRANCH  15  19
ATOM     19  C   UNL A   1      28.135  29.893  22.795  1.00  0.00     0.125 C 
ATOM     20  C   UNL A   1      28.067  30.394  21.350  1.00  0.00     0.046 C 
ATOM     21  O   UNL A   1      27.920  31.069  23.611  1.00  0.00    -0.367 OA
ATOM     22  C   UNL A   1      26.989  28.918  23.088  1.00  0.00     0.051 C 
ATOM     23  C   UNL A   1      28.616  31.799  21.440  1.00  0.00     0.032 C 
ATOM     24  C   UNL A   1      28.246  32.236  22.844  1.00  0.00     0.161 C 
ENDBRANCH  15  19
ENDBRANCH   9  11
ENDBRANCH   8   9
ENDBRANCH   7   8
ENDBRANCH   6   7
ENDBRANCH   5   6
ENDBRANCH   4   5
ENDBRANCH   3   4
ENDBRANCH   2   3
ENDBRANCH   1   2
BRANCH   1  25
ATOM     25  C   UNL A   1      34.817  19.522  24.890  1.00  0.00     0.188 C 
BRANCH  25  26
ATOM     26  O   UNL A   1      36.180  19.216  24.632  1.00  0.00    -0.376 OA
BRANCH  26  27
ATOM     27  C   UNL A   1      37.130  20.216  24.970  1.00  0.00     0.202 C 
BRANCH  27  28
ATOM     28  C   UNL A   1      38.500  19.663  25.377  1.00  0.00     0.261 C 
BRANCH  28  29
ATOM     29  O   UNL A   1      39.502  20.660  25.632  1.00  0.00    -0.460 OA
BRANCH  29  30
ATOM     30  C   UNL A   1      40.702  20.233  26.081  1.00  0.00     0.338 C 
ATOM     31  O   UNL A   1      41.195  19.127  25.952  1.00  0.00    -0.246 OA
BRANCH  30  32
ATOM     32  C   UNL A   1      41.415  21.405  26.616  1.00  0.00     0.060 A 
ATOM     33  C   UNL A   1      41.536  21.553  28.004  1.00  0.00     0.016 A 
ATOM     34  C   UNL A   1      41.973  22.343  25.745  1.00  0.00     0.016 A 
ATOM     35  C   UNL A   1      42.191  22.669  28.526  1.00  0.00     0.010 A 
ATOM     36  C   UNL A   1      42.608  23.469  26.269  1.00  0.00     0.010 A 
ATOM     37  C   UNL A   1      42.690  23.651  27.660  1.00  0.00    -0.014 A 
BRANCH  37  38
ATOM     38  C   UNL A   1      43.103  24.967  28.197  1.00  0.00     0.031 A 
ATOM     39  C   UNL A   1      42.038  26.005  28.418  1.00  0.00     0.074 A 
ATOM     40  C   UNL A   1      44.388  25.239  28.482  1.00  0.00     0.049 A 
ATOM     41  N   UNL A   1      42.156  27.240  28.828  1.00  0.00    -0.248 NA
ATOM     42  C   UNL A   1      40.653  25.591  28.134  1.00  0.00     0.031 C 
ATOM     43  C   UNL A   1      45.506  24.308  28.348  1.00  0.00     0.029 A 
ATOM     44  N   UNL A   1      44.966  26.398  28.938  1.00  0.00    -0.354 N 
ATOM     45  C   UNL A   1      40.864  27.749  28.853  1.00  0.00     0.074 A 
ATOM     46  C   UNL A   1      39.981  26.702  28.387  1.00  0.00     0.031 C 
ATOM     47  C   UNL A   1      46.640  24.937  28.701  1.00  0.00     0.029 A 
ATOM     48  C   UNL A   1      46.330  26.321  29.057  1.00  0.00     0.049 A 
ATOM     49  H   UNL A   1      44.449  27.207  29.158  1.00  0.00     0.167 HD
ATOM     50  C   UNL A   1      40.445  28.979  29.233  1.00  0.00     0.031 A 
ATOM     51  C   UNL A   1      47.226  27.270  29.393  1.00  0.00     0.031 A 
ATOM     52  C   UNL A   1      41.321  30.030  29.668  1.00  0.00     0.049 A 
ATOM     53  C   UNL A   1      46.743  28.658  29.728  1.00  0.00     0.074 A 
ATOM     54  C   UNL A   1      40.994  31.312  30.072  1.00  0.00     0.029 A 
ATOM     55  N   UNL A   1      42.700  29.923  29.745  1.00  0.00    -0.354 N 
ATOM     56  N   UNL A   1      45.517  29.121  29.774  1.00  0.00    -0.248 NA
ATOM     57  C   UNL A   1      47.774  29.653  30.066  1.00  0.00     0.031 C 
ATOM     58  C   UNL A   1      42.182  31.998  30.347  1.00  0.00     0.029 A 
ATOM     59  C   UNL A   1      43.243  31.123  30.168  1.00  0.00     0.049 A 
ATOM     60  H   UNL A   1      43.218  29.113  29.530  1.00  0.00     0.167 HD
ATOM     61  C   UNL A   1      45.627  30.448  30.173  1.00  0.00     0.074 A 
ATOM     62  C   UNL A   1      47.037  30.713  30.369  1.00  0.00     0.031 C 
ATOM     63  C   UNL A   1      44.648  31.366  30.362  1.00  0.00     0.031 A 
BRANCH  50  64
ATOM     64  C   UNL A   1      38.972  29.255  29.161  1.00  0.00    -0.014 A 
ATOM     65  C   UNL A   1      38.367  29.651  27.957  1.00  0.00     0.009 A 
ATOM     66  C   UNL A   1      38.175  29.096  30.305  1.00  0.00     0.009 A 
ATOM     67  C   UNL A   1      36.995  29.910  27.910  1.00  0.00     0.001 A 
ATOM     68  C   UNL A   1      36.801  29.331  30.247  1.00  0.00     0.001 A 
ATOM     69  C   UNL A   1      36.214  29.745  29.053  1.00  0.00     0.000 A 
ENDBRANCH  50  64
BRANCH  51  70
ATOM     70  C   UNL A   1      48.680  26.958  29.406  1.00  0.00    -0.014 A 
ATOM     71  C   UNL A   1      49.462  27.130  28.253  1.00  0.00     0.009 A 
ATOM     72  C   UNL A   1      49.285  26.447  30.564  1.00  0.00     0.009 A 
ATOM     73  C   UNL A   1      50.810  26.768  28.252  1.00  0.00     0.001 A 
ATOM     74  C   UNL A   1      50.641  26.113  30.569  1.00  0.00     0.001 A 
ATOM     75  C   UNL A   1      51.400  26.263  29.411  1.00  0.00     0.000 A 
ENDBRANCH  51  70
BRANCH  63  76
ATOM     76  C   UNL A   1      45.061  32.730  30.842  1.00  0.00    -0.014 A 
ATOM     77  C   UNL A   1      45.444  33.736  29.942  1.00  0.00     0.009 A 
ATOM     78  C   UNL A   1      45.015  33.024  32.214  1.00  0.00     0.009 A 
ATOM     79  C   UNL A   1      45.804  35.002  30.411  1.00  0.00     0.001 A 
ATOM     80  C   UNL A   1      45.347  34.298  32.677  1.00  0.00     0.001 A 
ATOM     81  C   UNL A   1      45.749  35.282  31.776  1.00  0.00     0.000 A 
ENDBRANCH  63  76
ENDBRANCH  37  38
ENDBRANCH  30  32
ENDBRANCH  29  30
ENDBRANCH  28  29
ENDBRANCH  27  28
ENDBRANCH  26  27
ENDBRANCH  25  26
ENDBRANCH   1  25
TORSDOF 21
ENDMDL
