MODEL 1
REMARK VINA RESULT:      -8.7      0.000      0.000
REMARK SMILES COCCCOc1cccc(F)c1C(=O)OCCOCCOCCOCCOC(=O)c1ccc(-c2c3nc(c(-c4ccccc4)c4ccc([nH]4)c(-c4ccccc4)c4nc(c(-c5ccccc5)c5ccc2[nH]5)C=C4)C=C3)cc1
REMARK SMILES IDX 20 1 19 2 18 3 17 4 16 5 14 6 15 7 13 8 7 9 8 10 9 11 11 12
REMARK SMILES IDX 10 13 12 14 6 15 5 16 4 17 3 18 2 19 1 20 21 21 22 22 23 23
REMARK SMILES IDX 24 24 25 25 26 26 27 27 28 28 29 29 30 30 31 31 32 32 78 33
REMARK SMILES IDX 33 34 77 35 34 36 35 37 36 38 71 39 37 40 76 41 70 42 72 43
REMARK SMILES IDX 38 44 75 45 69 46 68 47 39 49 61 50 46 51 60 52 47 53 50 54
REMARK SMILES IDX 59 55 73 56 48 57 49 58 58 60 74 61 51 62 40 63 41 64 45 65
REMARK SMILES IDX 42 66 44 67 43 68 62 69 63 70 67 71 64 72 66 73 65 74 52 75
REMARK SMILES IDX 53 76 57 77 54 78 56 79 55 80
REMARK H PARENT 72 48 50 59
REMARK Flexibility Score: inf
ROOT
ATOM      1  C   UNL A   1      30.865  27.677  22.523  1.00  0.00     0.188 C 
ENDROOT
BRANCH   1   2
ATOM      2  O   UNL A   1      31.487  26.463  22.913  1.00  0.00    -0.376 OA
BRANCH   2   3
ATOM      3  C   UNL A   1      30.668  25.427  23.416  1.00  0.00     0.202 C 
BRANCH   3   4
ATOM      4  C   UNL A   1      31.339  24.129  23.892  1.00  0.00     0.261 C 
BRANCH   4   5
ATOM      5  O   UNL A   1      32.718  23.976  23.530  1.00  0.00    -0.459 OA
BRANCH   5   6
ATOM      6  C   UNL A   1      33.166  22.741  23.209  1.00  0.00     0.345 C 
ATOM      7  O   UNL A   1      32.728  22.006  22.344  1.00  0.00    -0.246 OA
BRANCH   6   8
ATOM      8  C   UNL A   1      34.367  22.488  24.028  1.00  0.00     0.137 A 
ATOM      9  C   UNL A   1      34.518  21.353  24.841  1.00  0.00     0.136 A 
ATOM     10  C   UNL A   1      35.765  21.079  25.422  1.00  0.00     0.047 A 
ATOM     11  C   UNL A   1      36.834  21.961  25.268  1.00  0.00     0.007 A 
ATOM     12  C   UNL A   1      35.452  23.354  23.867  1.00  0.00     0.141 A 
ATOM     13  C   UNL A   1      36.674  23.103  24.488  1.00  0.00     0.040 A 
ATOM     14  F   UNL A   1      35.349  24.439  23.085  1.00  0.00    -0.206 F 
BRANCH   9  15
ATOM     15  O   UNL A   1      33.613  20.334  24.940  1.00  0.00    -0.492 OA
BRANCH  15  16
ATOM     16  C   UNL A   1      34.103  19.030  24.611  1.00  0.00     0.232 C 
BRANCH  16  17
ATOM     17  C   UNL A   1      32.998  18.014  24.323  1.00  0.00     0.070 C 
BRANCH  17  18
ATOM     18  C   UNL A   1      33.378  16.816  23.451  1.00  0.00     0.163 C 
BRANCH  18  19
ATOM     19  O   UNL A   1      33.627  15.626  24.193  1.00  0.00    -0.385 OA
ATOM     20  C   UNL A   1      33.141  15.641  25.527  1.00  0.00     0.194 C 
ENDBRANCH  18  19
ENDBRANCH  17  18
ENDBRANCH  16  17
ENDBRANCH  15  16
ENDBRANCH   9  15
ENDBRANCH   6   8
ENDBRANCH   5   6
ENDBRANCH   4   5
ENDBRANCH   3   4
ENDBRANCH   2   3
ENDBRANCH   1   2
BRANCH   1  21
ATOM     21  C   UNL A   1      31.500  28.939  23.156  1.00  0.00     0.188 C 
BRANCH  21  22
ATOM     22  O   UNL A   1      30.903  29.562  24.287  1.00  0.00    -0.377 OA
BRANCH  22  23
ATOM     23  C   UNL A   1      31.555  29.495  25.548  1.00  0.00     0.188 C 
BRANCH  23  24
ATOM     24  C   UNL A   1      32.220  30.759  26.140  1.00  0.00     0.188 C 
BRANCH  24  25
ATOM     25  O   UNL A   1      31.315  31.716  26.663  1.00  0.00    -0.376 OA
BRANCH  25  26
ATOM     26  C   UNL A   1      31.738  33.066  26.727  1.00  0.00     0.202 C 
BRANCH  26  27
ATOM     27  C   UNL A   1      32.760  33.445  27.809  1.00  0.00     0.261 C 
BRANCH  27  28
ATOM     28  O   UNL A   1      32.706  34.796  28.291  1.00  0.00    -0.460 OA
BRANCH  28  29
ATOM     29  C   UNL A   1      33.231  35.045  29.508  1.00  0.00     0.338 C 
ATOM     30  O   UNL A   1      32.744  35.720  30.400  1.00  0.00    -0.246 OA
BRANCH  29  31
ATOM     31  C   UNL A   1      34.428  34.194  29.655  1.00  0.00     0.060 A 
ATOM     32  C   UNL A   1      34.459  33.227  30.668  1.00  0.00     0.016 A 
ATOM     33  C   UNL A   1      35.505  34.337  28.777  1.00  0.00     0.016 A 
ATOM     34  C   UNL A   1      35.580  32.412  30.820  1.00  0.00     0.010 A 
ATOM     35  C   UNL A   1      36.639  33.540  28.949  1.00  0.00     0.010 A 
ATOM     36  C   UNL A   1      36.693  32.596  29.988  1.00  0.00    -0.014 A 
BRANCH  36  37
ATOM     37  C   UNL A   1      37.976  31.936  30.328  1.00  0.00     0.031 A 
ATOM     38  C   UNL A   1      38.893  32.618  31.305  1.00  0.00     0.074 A 
ATOM     39  C   UNL A   1      38.309  30.743  29.806  1.00  0.00     0.049 A 
ATOM     40  N   UNL A   1      40.071  32.249  31.736  1.00  0.00    -0.248 NA
ATOM     41  C   UNL A   1      38.415  33.892  31.869  1.00  0.00     0.031 C 
ATOM     42  C   UNL A   1      37.487  29.957  28.888  1.00  0.00     0.029 A 
ATOM     43  N   UNL A   1      39.441  29.986  29.978  1.00  0.00    -0.354 N 
ATOM     44  C   UNL A   1      40.476  33.245  32.616  1.00  0.00     0.074 A 
ATOM     45  C   UNL A   1      39.436  34.250  32.631  1.00  0.00     0.031 C 
ATOM     46  C   UNL A   1      38.144  28.828  28.573  1.00  0.00     0.029 A 
ATOM     47  C   UNL A   1      39.447  28.829  29.238  1.00  0.00     0.049 A 
ATOM     48  H   UNL A   1      40.178  30.247  30.577  1.00  0.00     0.167 HD
ATOM     49  C   UNL A   1      41.612  33.316  33.349  1.00  0.00     0.031 A 
ATOM     50  C   UNL A   1      40.404  27.891  29.098  1.00  0.00     0.031 A 
ATOM     51  C   UNL A   1      42.656  32.327  33.318  1.00  0.00     0.049 A 
ATOM     52  C   UNL A   1      41.699  28.040  29.856  1.00  0.00     0.074 A 
ATOM     53  C   UNL A   1      43.840  32.302  34.033  1.00  0.00     0.029 A 
ATOM     54  N   UNL A   1      42.647  31.195  32.517  1.00  0.00    -0.354 N 
ATOM     55  N   UNL A   1      42.060  28.969  30.708  1.00  0.00    -0.248 NA
ATOM     56  C   UNL A   1      42.714  26.999  29.637  1.00  0.00     0.031 C 
ATOM     57  C   UNL A   1      44.579  31.191  33.614  1.00  0.00     0.029 A 
ATOM     58  C   UNL A   1      43.821  30.483  32.694  1.00  0.00     0.049 A 
ATOM     59  H   UNL A   1      41.914  30.937  31.912  1.00  0.00     0.167 HD
ATOM     60  C   UNL A   1      43.330  28.611  31.147  1.00  0.00     0.074 A 
ATOM     61  C   UNL A   1      43.665  27.368  30.483  1.00  0.00     0.031 C 
ATOM     62  C   UNL A   1      44.145  29.251  32.021  1.00  0.00     0.031 A 
BRANCH  49  63
ATOM     63  C   UNL A   1      41.799  34.530  34.217  1.00  0.00    -0.014 A 
ATOM     64  C   UNL A   1      42.413  35.694  33.728  1.00  0.00     0.009 A 
ATOM     65  C   UNL A   1      41.329  34.516  35.539  1.00  0.00     0.009 A 
ATOM     66  C   UNL A   1      42.584  36.805  34.557  1.00  0.00     0.001 A 
ATOM     67  C   UNL A   1      41.471  35.638  36.356  1.00  0.00     0.001 A 
ATOM     68  C   UNL A   1      42.108  36.779  35.868  1.00  0.00     0.000 A 
ENDBRANCH  49  63
BRANCH  50  69
ATOM     69  C   UNL A   1      40.194  26.736  28.185  1.00  0.00    -0.014 A 
ATOM     70  C   UNL A   1      40.696  26.753  26.875  1.00  0.00     0.009 A 
ATOM     71  C   UNL A   1      39.459  25.618  28.612  1.00  0.00     0.009 A 
ATOM     72  C   UNL A   1      40.442  25.691  26.004  1.00  0.00     0.001 A 
ATOM     73  C   UNL A   1      39.233  24.543  27.750  1.00  0.00     0.001 A 
ATOM     74  C   UNL A   1      39.716  24.585  26.444  1.00  0.00     0.000 A 
ENDBRANCH  50  69
BRANCH  62  75
ATOM     75  C   UNL A   1      45.465  28.600  32.339  1.00  0.00    -0.014 A 
ATOM     76  C   UNL A   1      46.634  28.930  31.637  1.00  0.00     0.009 A 
ATOM     77  C   UNL A   1      45.543  27.663  33.382  1.00  0.00     0.009 A 
ATOM     78  C   UNL A   1      47.845  28.303  31.942  1.00  0.00     0.001 A 
ATOM     79  C   UNL A   1      46.761  27.064  33.710  1.00  0.00     0.001 A 
ATOM     80  C   UNL A   1      47.907  27.374  32.981  1.00  0.00     0.000 A 
ENDBRANCH  62  75
ENDBRANCH  36  37
ENDBRANCH  29  31
ENDBRANCH  28  29
ENDBRANCH  27  28
ENDBRANCH  26  27
ENDBRANCH  25  26
ENDBRANCH  24  25
ENDBRANCH  23  24
ENDBRANCH  22  23
ENDBRANCH  21  22
ENDBRANCH   1  21
TORSDOF 25
ENDMDL
MODEL 2
REMARK VINA RESULT:      -8.5      2.296      3.243
REMARK SMILES COCCCOc1cccc(F)c1C(=O)OCCOCCOCCOCCOC(=O)c1ccc(-c2c3nc(c(-c4ccccc4)c4ccc([nH]4)c(-c4ccccc4)c4nc(c(-c5ccccc5)c5ccc2[nH]5)C=C4)C=C3)cc1
REMARK SMILES IDX 20 1 19 2 18 3 17 4 16 5 14 6 15 7 13 8 7 9 8 10 9 11 11 12
REMARK SMILES IDX 10 13 12 14 6 15 5 16 4 17 3 18 2 19 1 20 21 21 22 22 23 23
REMARK SMILES IDX 24 24 25 25 26 26 27 27 28 28 29 29 30 30 31 31 32 32 78 33
REMARK SMILES IDX 33 34 77 35 34 36 35 37 36 38 71 39 37 40 76 41 70 42 72 43
REMARK SMILES IDX 38 44 75 45 69 46 68 47 39 49 61 50 46 51 60 52 47 53 50 54
REMARK SMILES IDX 59 55 73 56 48 57 49 58 58 60 74 61 51 62 40 63 41 64 45 65
REMARK SMILES IDX 42 66 44 67 43 68 62 69 63 70 67 71 64 72 66 73 65 74 52 75
REMARK SMILES IDX 53 76 57 77 54 78 56 79 55 80
REMARK H PARENT 72 48 50 59
REMARK Flexibility Score: inf
ROOT
ATOM      1  C   UNL A   1      31.341  26.927  25.612  1.00  0.00     0.188 C 
ENDROOT
BRANCH   1   2
ATOM      2  O   UNL A   1      31.146  25.597  26.067  1.00  0.00    -0.376 OA
BRANCH   2   3
ATOM      3  C   UNL A   1      32.162  25.008  26.854  1.00  0.00     0.202 C 
BRANCH   3   4
ATOM      4  C   UNL A   1      32.146  23.484  27.048  1.00  0.00     0.261 C 
BRANCH   4   5
ATOM      5  O   UNL A   1      31.224  22.764  26.219  1.00  0.00    -0.459 OA
BRANCH   5   6
ATOM      6  C   UNL A   1      31.719  21.893  25.310  1.00  0.00     0.345 C 
ATOM      7  O   UNL A   1      31.565  20.686  25.295  1.00  0.00    -0.246 OA
BRANCH   6   8
ATOM      8  C   UNL A   1      32.393  22.688  24.267  1.00  0.00     0.137 A 
ATOM      9  C   UNL A   1      33.759  22.559  23.962  1.00  0.00     0.136 A 
ATOM     10  C   UNL A   1      34.277  23.194  22.823  1.00  0.00     0.047 A 
ATOM     11  C   UNL A   1      33.472  24.015  22.036  1.00  0.00     0.007 A 
ATOM     12  C   UNL A   1      31.594  23.501  23.458  1.00  0.00     0.141 A 
ATOM     13  C   UNL A   1      32.126  24.169  22.357  1.00  0.00     0.040 A 
ATOM     14  F   UNL A   1      30.283  23.635  23.709  1.00  0.00    -0.206 F 
BRANCH   9  15
ATOM     15  O   UNL A   1      34.610  21.665  24.547  1.00  0.00    -0.492 OA
BRANCH  15  16
ATOM     16  C   UNL A   1      35.986  22.055  24.596  1.00  0.00     0.232 C 
BRANCH  16  17
ATOM     17  C   UNL A   1      36.297  23.066  25.700  1.00  0.00     0.070 C 
BRANCH  17  18
ATOM     18  C   UNL A   1      37.775  23.305  26.015  1.00  0.00     0.163 C 
BRANCH  18  19
ATOM     19  O   UNL A   1      38.588  22.145  25.857  1.00  0.00    -0.385 OA
ATOM     20  C   UNL A   1      39.851  22.210  26.501  1.00  0.00     0.194 C 
ENDBRANCH  18  19
ENDBRANCH  17  18
ENDBRANCH  16  17
ENDBRANCH  15  16
ENDBRANCH   9  15
ENDBRANCH   6   8
ENDBRANCH   5   6
ENDBRANCH   4   5
ENDBRANCH   3   4
ENDBRANCH   2   3
ENDBRANCH   1   2
BRANCH   1  21
ATOM     21  C   UNL A   1      32.536  27.089  24.640  1.00  0.00     0.188 C 
BRANCH  21  22
ATOM     22  O   UNL A   1      33.225  28.328  24.539  1.00  0.00    -0.377 OA
BRANCH  22  23
ATOM     23  C   UNL A   1      32.638  29.502  25.084  1.00  0.00     0.188 C 
BRANCH  23  24
ATOM     24  C   UNL A   1      33.167  30.082  26.416  1.00  0.00     0.188 C 
BRANCH  24  25
ATOM     25  O   UNL A   1      32.181  30.695  27.229  1.00  0.00    -0.376 OA
BRANCH  25  26
ATOM     26  C   UNL A   1      31.749  31.999  26.884  1.00  0.00     0.202 C 
BRANCH  26  27
ATOM     27  C   UNL A   1      32.640  33.180  27.297  1.00  0.00     0.261 C 
BRANCH  27  28
ATOM     28  O   UNL A   1      32.153  33.999  28.371  1.00  0.00    -0.460 OA
BRANCH  28  29
ATOM     29  C   UNL A   1      32.912  35.047  28.748  1.00  0.00     0.338 C 
ATOM     30  O   UNL A   1      32.635  36.232  28.659  1.00  0.00    -0.246 OA
BRANCH  29  31
ATOM     31  C   UNL A   1      34.079  34.510  29.476  1.00  0.00     0.060 A 
ATOM     32  C   UNL A   1      35.346  34.580  28.883  1.00  0.00     0.016 A 
ATOM     33  C   UNL A   1      33.921  33.961  30.751  1.00  0.00     0.016 A 
ATOM     34  C   UNL A   1      36.459  34.080  29.558  1.00  0.00     0.010 A 
ATOM     35  C   UNL A   1      35.032  33.435  31.413  1.00  0.00     0.010 A 
ATOM     36  C   UNL A   1      36.300  33.465  30.807  1.00  0.00    -0.014 A 
BRANCH  36  37
ATOM     37  C   UNL A   1      37.420  32.688  31.387  1.00  0.00     0.031 A 
ATOM     38  C   UNL A   1      37.973  33.118  32.718  1.00  0.00     0.074 A 
ATOM     39  C   UNL A   1      37.919  31.606  30.765  1.00  0.00     0.049 A 
ATOM     40  N   UNL A   1      38.961  32.612  33.410  1.00  0.00    -0.248 NA
ATOM     41  C   UNL A   1      37.323  34.278  33.351  1.00  0.00     0.031 C 
ATOM     42  C   UNL A   1      37.439  31.059  29.497  1.00  0.00     0.029 A 
ATOM     43  N   UNL A   1      38.950  30.774  31.123  1.00  0.00    -0.354 N 
ATOM     44  C   UNL A   1      39.054  33.395  34.555  1.00  0.00     0.074 A 
ATOM     45  C   UNL A   1      38.047  34.428  34.449  1.00  0.00     0.031 C 
ATOM     46  C   UNL A   1      38.179  29.982  29.181  1.00  0.00     0.029 A 
ATOM     47  C   UNL A   1      39.206  29.788  30.204  1.00  0.00     0.049 A 
ATOM     48  H   UNL A   1      39.457  30.875  31.962  1.00  0.00     0.167 HD
ATOM     49  C   UNL A   1      39.899  33.263  35.604  1.00  0.00     0.031 A 
ATOM     50  C   UNL A   1      40.173  28.849  30.182  1.00  0.00     0.031 A 
ATOM     51  C   UNL A   1      40.915  32.248  35.699  1.00  0.00     0.049 A 
ATOM     52  C   UNL A   1      41.160  28.780  31.319  1.00  0.00     0.074 A 
ATOM     53  C   UNL A   1      41.814  32.024  36.727  1.00  0.00     0.029 A 
ATOM     54  N   UNL A   1      41.176  31.298  34.723  1.00  0.00    -0.354 N 
ATOM     55  N   UNL A   1      41.221  29.504  32.411  1.00  0.00    -0.248 NA
ATOM     56  C   UNL A   1      42.208  27.754  31.220  1.00  0.00     0.031 C 
ATOM     57  C   UNL A   1      42.663  30.981  36.342  1.00  0.00     0.029 A 
ATOM     58  C   UNL A   1      42.244  30.508  35.109  1.00  0.00     0.049 A 
ATOM     59  H   UNL A   1      40.674  31.201  33.882  1.00  0.00     0.167 HD
ATOM     60  C   UNL A   1      42.294  29.003  33.140  1.00  0.00     0.074 A 
ATOM     61  C   UNL A   1      42.839  27.900  32.377  1.00  0.00     0.031 C 
ATOM     62  C   UNL A   1      42.782  29.418  34.335  1.00  0.00     0.031 A 
BRANCH  49  63
ATOM     63  C   UNL A   1      39.786  34.272  36.714  1.00  0.00    -0.014 A 
ATOM     64  C   UNL A   1      39.006  34.022  37.855  1.00  0.00     0.009 A 
ATOM     65  C   UNL A   1      40.493  35.481  36.626  1.00  0.00     0.009 A 
ATOM     66  C   UNL A   1      38.909  34.980  38.868  1.00  0.00     0.001 A 
ATOM     67  C   UNL A   1      40.421  36.421  37.655  1.00  0.00     0.001 A 
ATOM     68  C   UNL A   1      39.621  36.175  38.769  1.00  0.00     0.000 A 
ENDBRANCH  49  63
BRANCH  50  69
ATOM     69  C   UNL A   1      40.277  27.908  29.034  1.00  0.00    -0.014 A 
ATOM     70  C   UNL A   1      40.981  28.264  27.874  1.00  0.00     0.009 A 
ATOM     71  C   UNL A   1      39.644  26.655  29.083  1.00  0.00     0.009 A 
ATOM     72  C   UNL A   1      41.024  27.399  26.777  1.00  0.00     0.001 A 
ATOM     73  C   UNL A   1      39.715  25.779  27.998  1.00  0.00     0.001 A 
ATOM     74  C   UNL A   1      40.396  26.157  26.842  1.00  0.00     0.000 A 
ENDBRANCH  50  69
BRANCH  62  75
ATOM     75  C   UNL A   1      43.944  28.651  34.910  1.00  0.00    -0.014 A 
ATOM     76  C   UNL A   1      45.269  28.958  34.562  1.00  0.00     0.009 A 
ATOM     77  C   UNL A   1      43.708  27.626  35.839  1.00  0.00     0.009 A 
ATOM     78  C   UNL A   1      46.330  28.224  35.098  1.00  0.00     0.001 A 
ATOM     79  C   UNL A   1      44.771  26.918  36.402  1.00  0.00     0.001 A 
ATOM     80  C   UNL A   1      46.079  27.209  36.022  1.00  0.00     0.000 A 
ENDBRANCH  62  75
ENDBRANCH  36  37
ENDBRANCH  29  31
ENDBRANCH  28  29
ENDBRANCH  27  28
ENDBRANCH  26  27
ENDBRANCH  25  26
ENDBRANCH  24  25
ENDBRANCH  23  24
ENDBRANCH  22  23
ENDBRANCH  21  22
ENDBRANCH   1  21
TORSDOF 25
ENDMDL
MODEL 3
REMARK VINA RESULT:      -8.5      2.135      3.256
REMARK SMILES COCCCOc1cccc(F)c1C(=O)OCCOCCOCCOCCOC(=O)c1ccc(-c2c3nc(c(-c4ccccc4)c4ccc([nH]4)c(-c4ccccc4)c4nc(c(-c5ccccc5)c5ccc2[nH]5)C=C4)C=C3)cc1
REMARK SMILES IDX 20 1 19 2 18 3 17 4 16 5 14 6 15 7 13 8 7 9 8 10 9 11 11 12
REMARK SMILES IDX 10 13 12 14 6 15 5 16 4 17 3 18 2 19 1 20 21 21 22 22 23 23
REMARK SMILES IDX 24 24 25 25 26 26 27 27 28 28 29 29 30 30 31 31 32 32 78 33
REMARK SMILES IDX 33 34 77 35 34 36 35 37 36 38 71 39 37 40 76 41 70 42 72 43
REMARK SMILES IDX 38 44 75 45 69 46 68 47 39 49 61 50 46 51 60 52 47 53 50 54
REMARK SMILES IDX 59 55 73 56 48 57 49 58 58 60 74 61 51 62 40 63 41 64 45 65
REMARK SMILES IDX 42 66 44 67 43 68 62 69 63 70 67 71 64 72 66 73 65 74 52 75
REMARK SMILES IDX 53 76 57 77 54 78 56 79 55 80
REMARK H PARENT 72 48 50 59
REMARK Flexibility Score: inf
ROOT
ATOM      1  C   UNL A   1      30.045  27.512  23.300  1.00  0.00     0.188 C 
ENDROOT
BRANCH   1   2
ATOM      2  O   UNL A   1      30.709  26.566  24.121  1.00  0.00    -0.376 OA
BRANCH   2   3
ATOM      3  C   UNL A   1      29.920  25.635  24.836  1.00  0.00     0.202 C 
BRANCH   3   4
ATOM      4  C   UNL A   1      30.603  24.383  25.407  1.00  0.00     0.261 C 
BRANCH   4   5
ATOM      5  O   UNL A   1      31.566  24.621  26.443  1.00  0.00    -0.459 OA
BRANCH   5   6
ATOM      6  C   UNL A   1      32.861  24.786  26.092  1.00  0.00     0.345 C 
ATOM      7  O   UNL A   1      33.484  25.831  26.062  1.00  0.00    -0.246 OA
BRANCH   6   8
ATOM      8  C   UNL A   1      33.423  23.442  25.858  1.00  0.00     0.137 A 
ATOM      9  C   UNL A   1      34.106  23.087  24.682  1.00  0.00     0.136 A 
ATOM     10  C   UNL A   1      34.789  21.863  24.621  1.00  0.00     0.047 A 
ATOM     11  C   UNL A   1      34.733  20.961  25.681  1.00  0.00     0.007 A 
ATOM     12  C   UNL A   1      33.390  22.534  26.920  1.00  0.00     0.141 A 
ATOM     13  C   UNL A   1      34.029  21.299  26.834  1.00  0.00     0.040 A 
ATOM     14  F   UNL A   1      32.762  22.846  28.064  1.00  0.00    -0.206 F 
BRANCH   9  15
ATOM     15  O   UNL A   1      34.375  23.937  23.646  1.00  0.00    -0.492 OA
BRANCH  15  16
ATOM     16  C   UNL A   1      33.742  23.622  22.402  1.00  0.00     0.232 C 
BRANCH  16  17
ATOM     17  C   UNL A   1      32.437  24.382  22.168  1.00  0.00     0.070 C 
BRANCH  17  18
ATOM     18  C   UNL A   1      32.496  25.566  21.201  1.00  0.00     0.163 C 
BRANCH  18  19
ATOM     19  O   UNL A   1      33.690  26.335  21.312  1.00  0.00    -0.385 OA
ATOM     20  C   UNL A   1      33.688  27.294  22.358  1.00  0.00     0.194 C 
ENDBRANCH  18  19
ENDBRANCH  17  18
ENDBRANCH  16  17
ENDBRANCH  15  16
ENDBRANCH   9  15
ENDBRANCH   6   8
ENDBRANCH   5   6
ENDBRANCH   4   5
ENDBRANCH   3   4
ENDBRANCH   2   3
ENDBRANCH   1   2
BRANCH   1  21
ATOM     21  C   UNL A   1      30.422  28.983  23.606  1.00  0.00     0.188 C 
BRANCH  21  22
ATOM     22  O   UNL A   1      31.700  29.307  24.140  1.00  0.00    -0.377 OA
BRANCH  22  23
ATOM     23  C   UNL A   1      31.898  29.280  25.547  1.00  0.00     0.188 C 
BRANCH  23  24
ATOM     24  C   UNL A   1      32.446  30.530  26.273  1.00  0.00     0.188 C 
BRANCH  24  25
ATOM     25  O   UNL A   1      31.452  31.408  26.774  1.00  0.00    -0.376 OA
BRANCH  25  26
ATOM     26  C   UNL A   1      31.815  32.755  27.016  1.00  0.00     0.202 C 
BRANCH  26  27
ATOM     27  C   UNL A   1      33.208  33.027  27.602  1.00  0.00     0.261 C 
BRANCH  27  28
ATOM     28  O   UNL A   1      33.476  34.378  28.006  1.00  0.00    -0.460 OA
BRANCH  28  29
ATOM     29  C   UNL A   1      33.473  34.645  29.328  1.00  0.00     0.338 C 
ATOM     30  O   UNL A   1      32.581  35.168  29.975  1.00  0.00    -0.246 OA
BRANCH  29  31
ATOM     31  C   UNL A   1      34.675  34.015  29.909  1.00  0.00     0.060 A 
ATOM     32  C   UNL A   1      35.928  34.276  29.338  1.00  0.00     0.016 A 
ATOM     33  C   UNL A   1      34.565  33.191  31.031  1.00  0.00     0.016 A 
ATOM     34  C   UNL A   1      37.074  33.692  29.876  1.00  0.00     0.010 A 
ATOM     35  C   UNL A   1      35.710  32.584  31.551  1.00  0.00     0.010 A 
ATOM     36  C   UNL A   1      36.964  32.808  30.958  1.00  0.00    -0.014 A 
BRANCH  36  37
ATOM     37  C   UNL A   1      38.128  31.976  31.342  1.00  0.00     0.031 A 
ATOM     38  C   UNL A   1      38.799  32.252  32.660  1.00  0.00     0.074 A 
ATOM     39  C   UNL A   1      38.564  30.976  30.557  1.00  0.00     0.049 A 
ATOM     40  N   UNL A   1      39.842  31.676  33.198  1.00  0.00    -0.248 NA
ATOM     41  C   UNL A   1      38.214  33.327  33.478  1.00  0.00     0.031 C 
ATOM     42  C   UNL A   1      37.971  30.576  29.282  1.00  0.00     0.029 A 
ATOM     43  N   UNL A   1      39.619  30.114  30.724  1.00  0.00    -0.354 N 
ATOM     44  C   UNL A   1      40.040  32.321  34.413  1.00  0.00     0.074 A 
ATOM     45  C   UNL A   1      39.033  33.353  34.517  1.00  0.00     0.031 C 
ATOM     46  C   UNL A   1      38.675  29.548  28.779  1.00  0.00     0.029 A 
ATOM     47  C   UNL A   1      39.788  29.242  29.677  1.00  0.00     0.049 A 
ATOM     48  H   UNL A   1      40.200  30.120  31.520  1.00  0.00     0.167 HD
ATOM     49  C   UNL A   1      40.975  32.073  35.359  1.00  0.00     0.031 A 
ATOM     50  C   UNL A   1      40.745  28.318  29.461  1.00  0.00     0.031 A 
ATOM     51  C   UNL A   1      41.991  31.061  35.246  1.00  0.00     0.049 A 
ATOM     52  C   UNL A   1      41.829  28.124  30.489  1.00  0.00     0.074 A 
ATOM     53  C   UNL A   1      42.977  30.724  36.157  1.00  0.00     0.029 A 
ATOM     54  N   UNL A   1      42.159  30.232  34.148  1.00  0.00    -0.354 N 
ATOM     55  N   UNL A   1      41.991  28.717  31.648  1.00  0.00    -0.248 NA
ATOM     56  C   UNL A   1      42.860  27.122  30.180  1.00  0.00     0.031 C 
ATOM     57  C   UNL A   1      43.784  29.738  35.580  1.00  0.00     0.029 A 
ATOM     58  C   UNL A   1      43.254  29.408  34.343  1.00  0.00     0.049 A 
ATOM     59  H   UNL A   1      41.585  30.229  33.348  1.00  0.00     0.167 HD
ATOM     60  C   UNL A   1      43.122  28.142  32.216  1.00  0.00     0.074 A 
ATOM     61  C   UNL A   1      43.592  27.137  31.285  1.00  0.00     0.031 C 
ATOM     62  C   UNL A   1      43.716  28.417  33.403  1.00  0.00     0.031 A 
BRANCH  49  63
ATOM     63  C   UNL A   1      40.966  32.946  36.585  1.00  0.00    -0.014 A 
ATOM     64  C   UNL A   1      41.863  34.016  36.731  1.00  0.00     0.009 A 
ATOM     65  C   UNL A   1      40.025  32.707  37.598  1.00  0.00     0.009 A 
ATOM     66  C   UNL A   1      41.840  34.806  37.883  1.00  0.00     0.001 A 
ATOM     67  C   UNL A   1      39.982  33.518  38.733  1.00  0.00     0.001 A 
ATOM     68  C   UNL A   1      40.896  34.560  38.880  1.00  0.00     0.000 A 
ENDBRANCH  49  63
BRANCH  50  69
ATOM     69  C   UNL A   1      40.743  27.517  28.207  1.00  0.00    -0.014 A 
ATOM     70  C   UNL A   1      40.031  26.310  28.125  1.00  0.00     0.009 A 
ATOM     71  C   UNL A   1      41.481  27.942  27.091  1.00  0.00     0.009 A 
ATOM     72  C   UNL A   1      40.084  25.534  26.965  1.00  0.00     0.001 A 
ATOM     73  C   UNL A   1      41.506  27.181  25.921  1.00  0.00     0.001 A 
ATOM     74  C   UNL A   1      40.816  25.972  25.863  1.00  0.00     0.000 A 
ENDBRANCH  50  69
BRANCH  62  75
ATOM     75  C   UNL A   1      44.922  27.597  33.779  1.00  0.00    -0.014 A 
ATOM     76  C   UNL A   1      44.796  26.386  34.478  1.00  0.00     0.009 A 
ATOM     77  C   UNL A   1      46.202  28.029  33.398  1.00  0.00     0.009 A 
ATOM     78  C   UNL A   1      45.931  25.650  34.826  1.00  0.00     0.001 A 
ATOM     79  C   UNL A   1      47.331  27.274  33.715  1.00  0.00     0.001 A 
ATOM     80  C   UNL A   1      47.197  26.092  34.440  1.00  0.00     0.000 A 
ENDBRANCH  62  75
ENDBRANCH  36  37
ENDBRANCH  29  31
ENDBRANCH  28  29
ENDBRANCH  27  28
ENDBRANCH  26  27
ENDBRANCH  25  26
ENDBRANCH  24  25
ENDBRANCH  23  24
ENDBRANCH  22  23
ENDBRANCH  21  22
ENDBRANCH   1  21
TORSDOF 25
ENDMDL
