MODEL 1
REMARK VINA RESULT:     -10.4      0.000      0.000
REMARK SMILES Cc1ccc(-c2nc(C)cc(N3CCCC[C@H]3C(=O)OCCOCCOCCOCCOC(=O)c3ccc(-c4c5nc(c(-c6ccccc6)c6ccc([nH]6)c(-c6ccccc6)c6nc(c(-c7ccccc7)c7ccc4[nH]7)C=C6)C=C5)cc3)n2)cc1
REMARK SMILES IDX 26 1 25 2 24 3 23 4 22 5 21 6 20 7 18 8 19 9 17 10 12 11
REMARK SMILES IDX 13 12 14 13 16 14 15 15 11 16 6 17 7 18 83 19 8 20 9 21
REMARK SMILES IDX 10 22 5 23 1 24 2 25 3 26 85 27 4 28 84 29 27 30 28 31 29 32
REMARK SMILES IDX 30 33 31 34 32 35 33 36 34 37 35 38 36 39 82 40 37 41 81 42
REMARK SMILES IDX 38 43 39 44 40 45 75 46 41 47 80 48 74 49 76 50 42 51 79 52
REMARK SMILES IDX 73 53 72 54 43 56 65 57 50 58 64 59 51 60 54 61 63 62 77 63
REMARK SMILES IDX 52 64 53 65 62 67 78 68 55 69 44 70 45 71 49 72 46 73 48 74
REMARK SMILES IDX 47 75 66 76 67 77 71 78 68 79 70 80 69 81 56 82 57 83 61 84
REMARK SMILES IDX 58 85 60 86 59 87
REMARK H PARENT 76 55 54 66
REMARK Flexibility Score: inf
ROOT
ATOM      1  O   UNL A   1      40.705  20.035  27.329  1.00  0.00    -0.377 OA
ENDROOT
BRANCH   1   2
ATOM      2  C   UNL A   1      40.479  20.844  26.189  1.00  0.00     0.188 C 
BRANCH   2   3
ATOM      3  C   UNL A   1      39.066  20.917  25.555  1.00  0.00     0.188 C 
BRANCH   3   4
ATOM      4  O   UNL A   1      38.024  21.700  26.122  1.00  0.00    -0.376 OA
BRANCH   4   5
ATOM      5  C   UNL A   1      38.106  23.092  25.888  1.00  0.00     0.202 C 
BRANCH   5   6
ATOM      6  C   UNL A   1      37.043  23.685  24.965  1.00  0.00     0.261 C 
BRANCH   6   7
ATOM      7  O   UNL A   1      35.962  24.248  25.718  1.00  0.00    -0.462 OA
BRANCH   7   8
ATOM      8  C   UNL A   1      34.768  24.408  25.087  1.00  0.00     0.328 C 
ATOM      9  O   UNL A   1      34.621  24.395  23.881  1.00  0.00    -0.250 OA
BRANCH   8  10
ATOM     10  C   UNL A   1      33.602  24.366  26.116  1.00  0.00     0.193 C 
ATOM     11  N   UNL A   1      32.432  25.116  25.611  1.00  0.00    -0.343 N 
ATOM     12  C   UNL A   1      31.049  24.754  25.953  1.00  0.00     0.119 C 
ATOM     13  C   UNL A   1      30.776  23.287  26.258  1.00  0.00     0.022 C 
ATOM     14  C   UNL A   1      33.278  22.957  26.623  1.00  0.00     0.037 C 
ATOM     15  C   UNL A   1      31.953  22.334  26.213  1.00  0.00     0.005 C 
BRANCH  11  16
ATOM     16  C   UNL A   1      32.641  26.504  25.634  1.00  0.00     0.133 A 
ATOM     17  C   UNL A   1      31.791  28.545  25.050  1.00  0.00     0.161 A 
ATOM     18  N   UNL A   1      32.752  29.265  25.640  1.00  0.00    -0.233 NA
ATOM     19  N   UNL A   1      31.720  27.215  25.019  1.00  0.00    -0.211 NA
ATOM     20  C   UNL A   1      33.695  28.537  26.273  1.00  0.00     0.043 A 
ATOM     21  C   UNL A   1      34.757  29.277  27.034  1.00  0.00     0.067 C 
ATOM     22  C   UNL A   1      33.674  27.150  26.283  1.00  0.00     0.070 A 
BRANCH  17  23
ATOM     23  C   UNL A   1      30.670  29.140  24.351  1.00  0.00     0.019 A 
ATOM     24  C   UNL A   1      27.868  30.956  21.642  1.00  0.00     0.044 C 
ATOM     25  C   UNL A   1      28.833  30.315  22.589  1.00  0.00    -0.051 A 
ATOM     26  C   UNL A   1      29.464  31.081  23.581  1.00  0.00     0.004 A 
ATOM     27  C   UNL A   1      29.118  28.954  22.480  1.00  0.00     0.004 A 
ATOM     28  C   UNL A   1      30.373  30.497  24.463  1.00  0.00     0.012 A 
ATOM     29  C   UNL A   1      30.023  28.375  23.356  1.00  0.00     0.012 A 
ENDBRANCH  17  23
ENDBRANCH  11  16
ENDBRANCH   8  10
ENDBRANCH   7   8
ENDBRANCH   6   7
ENDBRANCH   5   6
ENDBRANCH   4   5
ENDBRANCH   3   4
ENDBRANCH   2   3
ENDBRANCH   1   2
BRANCH   1  30
ATOM     30  C   UNL A   1      42.063  19.687  27.486  1.00  0.00     0.188 C 
BRANCH  30  31
ATOM     31  C   UNL A   1      42.370  18.560  26.530  1.00  0.00     0.188 C 
BRANCH  31  32
ATOM     32  O   UNL A   1      43.723  18.682  26.130  1.00  0.00    -0.376 OA
BRANCH  32  33
ATOM     33  C   UNL A   1      43.865  18.955  24.736  1.00  0.00     0.202 C 
BRANCH  33  34
ATOM     34  C   UNL A   1      45.144  19.739  24.328  1.00  0.00     0.261 C 
BRANCH  34  35
ATOM     35  O   UNL A   1      44.851  21.164  24.151  1.00  0.00    -0.460 OA
BRANCH  35  36
ATOM     36  C   UNL A   1      45.133  22.001  25.199  1.00  0.00     0.338 C 
ATOM     37  O   UNL A   1      46.107  21.890  25.918  1.00  0.00    -0.246 OA
BRANCH  36  38
ATOM     38  C   UNL A   1      43.924  22.850  25.574  1.00  0.00     0.060 A 
ATOM     39  C   UNL A   1      43.568  23.894  24.705  1.00  0.00     0.016 A 
ATOM     40  C   UNL A   1      43.473  22.922  26.891  1.00  0.00     0.016 A 
ATOM     41  C   UNL A   1      43.050  25.106  25.211  1.00  0.00     0.010 A 
ATOM     42  C   UNL A   1      43.093  24.172  27.406  1.00  0.00     0.010 A 
ATOM     43  C   UNL A   1      42.956  25.313  26.591  1.00  0.00    -0.014 A 
BRANCH  43  44
ATOM     44  C   UNL A   1      43.010  26.670  27.237  1.00  0.00     0.031 A 
ATOM     45  C   UNL A   1      41.755  27.435  27.606  1.00  0.00     0.074 A 
ATOM     46  C   UNL A   1      44.182  27.092  27.798  1.00  0.00     0.049 A 
ATOM     47  N   UNL A   1      41.724  28.575  28.225  1.00  0.00    -0.248 NA
ATOM     48  C   UNL A   1      40.399  26.967  27.326  1.00  0.00     0.031 C 
ATOM     49  C   UNL A   1      44.333  28.033  28.913  1.00  0.00     0.029 A 
ATOM     50  N   UNL A   1      45.509  26.703  27.568  1.00  0.00    -0.354 N 
ATOM     51  C   UNL A   1      40.447  28.819  28.696  1.00  0.00     0.074 A 
ATOM     52  C   UNL A   1      39.647  27.810  28.045  1.00  0.00     0.031 C 
ATOM     53  C   UNL A   1      45.616  28.196  29.251  1.00  0.00     0.029 A 
ATOM     54  C   UNL A   1      46.372  27.660  28.157  1.00  0.00     0.049 A 
ATOM     55  H   UNL A   1      45.795  25.898  27.078  1.00  0.00     0.167 HD
ATOM     56  C   UNL A   1      40.241  29.771  29.663  1.00  0.00     0.031 A 
ATOM     57  C   UNL A   1      47.167  28.465  27.392  1.00  0.00     0.031 A 
ATOM     58  C   UNL A   1      41.443  30.602  29.905  1.00  0.00     0.049 A 
ATOM     59  C   UNL A   1      46.704  29.918  27.386  1.00  0.00     0.074 A 
ATOM     60  C   UNL A   1      42.166  31.005  31.021  1.00  0.00     0.029 A 
ATOM     61  N   UNL A   1      42.186  31.043  28.809  1.00  0.00    -0.354 N 
ATOM     62  N   UNL A   1      45.497  30.272  27.767  1.00  0.00    -0.248 NA
ATOM     63  C   UNL A   1      47.515  31.090  27.064  1.00  0.00     0.031 C 
ATOM     64  C   UNL A   1      43.413  31.534  30.580  1.00  0.00     0.029 A 
ATOM     65  C   UNL A   1      43.396  31.575  29.197  1.00  0.00     0.049 A 
ATOM     66  H   UNL A   1      41.883  30.982  27.875  1.00  0.00     0.167 HD
ATOM     67  C   UNL A   1      45.372  31.627  27.796  1.00  0.00     0.074 A 
ATOM     68  C   UNL A   1      46.654  32.101  27.310  1.00  0.00     0.031 C 
ATOM     69  C   UNL A   1      44.239  32.259  28.226  1.00  0.00     0.031 A 
BRANCH  56  70
ATOM     70  C   UNL A   1      38.984  29.887  30.541  1.00  0.00    -0.014 A 
ATOM     71  C   UNL A   1      37.827  30.532  30.049  1.00  0.00     0.009 A 
ATOM     72  C   UNL A   1      38.879  29.447  31.873  1.00  0.00     0.009 A 
ATOM     73  C   UNL A   1      36.674  30.747  30.828  1.00  0.00     0.001 A 
ATOM     74  C   UNL A   1      37.719  29.630  32.654  1.00  0.00     0.001 A 
ATOM     75  C   UNL A   1      36.618  30.291  32.134  1.00  0.00     0.000 A 
ENDBRANCH  56  70
BRANCH  57  76
ATOM     76  C   UNL A   1      48.002  27.635  26.466  1.00  0.00    -0.014 A 
ATOM     77  C   UNL A   1      48.688  26.591  27.134  1.00  0.00     0.009 A 
ATOM     78  C   UNL A   1      47.509  27.367  25.175  1.00  0.00     0.009 A 
ATOM     79  C   UNL A   1      48.572  25.267  26.694  1.00  0.00     0.001 A 
ATOM     80  C   UNL A   1      47.426  26.037  24.724  1.00  0.00     0.001 A 
ATOM     81  C   UNL A   1      47.884  24.985  25.518  1.00  0.00     0.000 A 
ENDBRANCH  57  76
BRANCH  69  82
ATOM     82  C   UNL A   1      43.780  33.630  27.790  1.00  0.00    -0.014 A 
ATOM     83  C   UNL A   1      43.723  34.035  26.454  1.00  0.00     0.009 A 
ATOM     84  C   UNL A   1      43.155  34.482  28.738  1.00  0.00     0.009 A 
ATOM     85  C   UNL A   1      43.093  35.230  26.087  1.00  0.00     0.001 A 
ATOM     86  C   UNL A   1      42.484  35.647  28.371  1.00  0.00     0.001 A 
ATOM     87  C   UNL A   1      42.459  36.025  27.039  1.00  0.00     0.000 A 
ENDBRANCH  69  82
ENDBRANCH  43  44
ENDBRANCH  36  38
ENDBRANCH  35  36
ENDBRANCH  34  35
ENDBRANCH  33  34
ENDBRANCH  32  33
ENDBRANCH  31  32
ENDBRANCH  30  31
ENDBRANCH   1  30
TORSDOF 22
ENDMDL
MODEL 2
REMARK VINA RESULT:      -9.9      1.472      2.408
REMARK SMILES Cc1ccc(-c2nc(C)cc(N3CCCC[C@H]3C(=O)OCCOCCOCCOCCOC(=O)c3ccc(-c4c5nc(c(-c6ccccc6)c6ccc([nH]6)c(-c6ccccc6)c6nc(c(-c7ccccc7)c7ccc4[nH]7)C=C6)C=C5)cc3)n2)cc1
REMARK SMILES IDX 26 1 25 2 24 3 23 4 22 5 21 6 20 7 18 8 19 9 17 10 12 11
REMARK SMILES IDX 13 12 14 13 16 14 15 15 11 16 6 17 7 18 83 19 8 20 9 21
REMARK SMILES IDX 10 22 5 23 1 24 2 25 3 26 85 27 4 28 84 29 27 30 28 31 29 32
REMARK SMILES IDX 30 33 31 34 32 35 33 36 34 37 35 38 36 39 82 40 37 41 81 42
REMARK SMILES IDX 38 43 39 44 40 45 75 46 41 47 80 48 74 49 76 50 42 51 79 52
REMARK SMILES IDX 73 53 72 54 43 56 65 57 50 58 64 59 51 60 54 61 63 62 77 63
REMARK SMILES IDX 52 64 53 65 62 67 78 68 55 69 44 70 45 71 49 72 46 73 48 74
REMARK SMILES IDX 47 75 66 76 67 77 71 78 68 79 70 80 69 81 56 82 57 83 61 84
REMARK SMILES IDX 58 85 60 86 59 87
REMARK H PARENT 76 55 54 66
REMARK Flexibility Score: inf
ROOT
ATOM      1  O   UNL A   1      37.197  22.895  24.839  1.00  0.00    -0.377 OA
ENDROOT
BRANCH   1   2
ATOM      2  C   UNL A   1      36.685  22.820  23.521  1.00  0.00     0.188 C 
BRANCH   2   3
ATOM      3  C   UNL A   1      35.170  22.589  23.286  1.00  0.00     0.188 C 
BRANCH   3   4
ATOM      4  O   UNL A   1      34.512  23.033  22.107  1.00  0.00    -0.376 OA
BRANCH   4   5
ATOM      5  C   UNL A   1      33.198  23.524  22.286  1.00  0.00     0.202 C 
BRANCH   5   6
ATOM      6  C   UNL A   1      32.988  25.010  22.000  1.00  0.00     0.261 C 
BRANCH   6   7
ATOM      7  O   UNL A   1      32.538  25.701  23.172  1.00  0.00    -0.462 OA
BRANCH   7   8
ATOM      8  C   UNL A   1      33.368  25.726  24.249  1.00  0.00     0.328 C 
ATOM      9  O   UNL A   1      34.550  26.001  24.200  1.00  0.00    -0.250 OA
BRANCH   8  10
ATOM     10  C   UNL A   1      32.550  25.592  25.566  1.00  0.00     0.193 C 
ATOM     11  N   UNL A   1      31.269  26.322  25.462  1.00  0.00    -0.343 N 
ATOM     12  C   UNL A   1      30.051  25.893  26.165  1.00  0.00     0.119 C 
ATOM     13  C   UNL A   1      29.909  24.405  26.453  1.00  0.00     0.022 C 
ATOM     14  C   UNL A   1      32.416  24.150  26.064  1.00  0.00     0.037 C 
ATOM     15  C   UNL A   1      31.043  23.499  26.018  1.00  0.00     0.005 C 
BRANCH  11  16
ATOM     16  C   UNL A   1      31.445  27.714  25.501  1.00  0.00     0.133 A 
ATOM     17  C   UNL A   1      30.746  29.725  24.666  1.00  0.00     0.161 A 
ATOM     18  N   UNL A   1      31.512  30.476  25.465  1.00  0.00    -0.233 NA
ATOM     19  N   UNL A   1      30.704  28.393  24.652  1.00  0.00    -0.211 NA
ATOM     20  C   UNL A   1      32.270  29.781  26.338  1.00  0.00     0.043 A 
ATOM     21  C   UNL A   1      33.090  30.558  27.327  1.00  0.00     0.067 C 
ATOM     22  C   UNL A   1      32.267  28.395  26.378  1.00  0.00     0.070 A 
BRANCH  17  23
ATOM     23  C   UNL A   1      29.835  30.282  23.686  1.00  0.00     0.019 A 
ATOM     24  C   UNL A   1      27.799  32.333  20.504  1.00  0.00     0.044 C 
ATOM     25  C   UNL A   1      28.500  31.607  21.608  1.00  0.00    -0.051 A 
ATOM     26  C   UNL A   1      28.391  32.059  22.932  1.00  0.00     0.004 A 
ATOM     27  C   UNL A   1      29.276  30.485  21.322  1.00  0.00     0.004 A 
ATOM     28  C   UNL A   1      29.049  31.398  23.968  1.00  0.00     0.012 A 
ATOM     29  C   UNL A   1      29.931  29.829  22.353  1.00  0.00     0.012 A 
ENDBRANCH  17  23
ENDBRANCH  11  16
ENDBRANCH   8  10
ENDBRANCH   7   8
ENDBRANCH   6   7
ENDBRANCH   5   6
ENDBRANCH   4   5
ENDBRANCH   3   4
ENDBRANCH   2   3
ENDBRANCH   1   2
BRANCH   1  30
ATOM     30  C   UNL A   1      37.674  21.653  25.307  1.00  0.00     0.188 C 
BRANCH  30  31
ATOM     31  C   UNL A   1      38.928  21.907  26.109  1.00  0.00     0.188 C 
BRANCH  31  32
ATOM     32  O   UNL A   1      39.983  21.174  25.513  1.00  0.00    -0.376 OA
BRANCH  32  33
ATOM     33  C   UNL A   1      40.539  20.194  26.390  1.00  0.00     0.202 C 
BRANCH  33  34
ATOM     34  C   UNL A   1      42.065  20.320  26.662  1.00  0.00     0.261 C 
BRANCH  34  35
ATOM     35  O   UNL A   1      42.703  21.196  25.676  1.00  0.00    -0.460 OA
BRANCH  35  36
ATOM     36  C   UNL A   1      43.323  22.326  26.143  1.00  0.00     0.338 C 
ATOM     37  O   UNL A   1      44.504  22.388  26.425  1.00  0.00    -0.246 OA
BRANCH  36  38
ATOM     38  C   UNL A   1      42.310  23.368  26.599  1.00  0.00     0.060 A 
ATOM     39  C   UNL A   1      41.984  24.395  25.698  1.00  0.00     0.016 A 
ATOM     40  C   UNL A   1      42.063  23.592  27.952  1.00  0.00     0.016 A 
ATOM     41  C   UNL A   1      41.716  25.702  26.163  1.00  0.00     0.010 A 
ATOM     42  C   UNL A   1      41.938  24.916  28.405  1.00  0.00     0.010 A 
ATOM     43  C   UNL A   1      41.848  26.009  27.521  1.00  0.00    -0.014 A 
BRANCH  43  44
ATOM     44  C   UNL A   1      42.181  27.382  28.038  1.00  0.00     0.031 A 
ATOM     45  C   UNL A   1      41.107  28.368  28.453  1.00  0.00     0.074 A 
ATOM     46  C   UNL A   1      43.458  27.645  28.448  1.00  0.00     0.049 A 
ATOM     47  N   UNL A   1      41.320  29.538  28.969  1.00  0.00    -0.248 NA
ATOM     48  C   UNL A   1      39.673  28.109  28.341  1.00  0.00     0.031 C 
ATOM     49  C   UNL A   1      43.871  28.625  29.457  1.00  0.00     0.029 A 
ATOM     50  N   UNL A   1      44.676  27.027  28.132  1.00  0.00    -0.354 N 
ATOM     51  C   UNL A   1      40.154  30.022  29.532  1.00  0.00     0.074 A 
ATOM     52  C   UNL A   1      39.142  29.115  29.049  1.00  0.00     0.031 C 
ATOM     53  C   UNL A   1      45.191  28.599  29.659  1.00  0.00     0.029 A 
ATOM     54  C   UNL A   1      45.735  27.869  28.552  1.00  0.00     0.049 A 
ATOM     55  H   UNL A   1      44.779  26.153  27.690  1.00  0.00     0.167 HD
ATOM     56  C   UNL A   1      40.203  31.062  30.427  1.00  0.00     0.031 A 
ATOM     57  C   UNL A   1      46.561  28.475  27.649  1.00  0.00     0.031 A 
ATOM     58  C   UNL A   1      41.539  31.699  30.483  1.00  0.00     0.049 A 
ATOM     59  C   UNL A   1      46.333  29.981  27.558  1.00  0.00     0.074 A 
ATOM     60  C   UNL A   1      42.430  32.058  31.487  1.00  0.00     0.029 A 
ATOM     61  N   UNL A   1      42.222  31.932  29.288  1.00  0.00    -0.354 N 
ATOM     62  N   UNL A   1      45.243  30.554  28.016  1.00  0.00    -0.248 NA
ATOM     63  C   UNL A   1      47.279  30.977  27.060  1.00  0.00     0.031 C 
ATOM     64  C   UNL A   1      43.690  32.341  30.888  1.00  0.00     0.029 A 
ATOM     65  C   UNL A   1      43.535  32.285  29.514  1.00  0.00     0.049 A 
ATOM     66  H   UNL A   1      41.817  31.855  28.395  1.00  0.00     0.167 HD
ATOM     67  C   UNL A   1      45.335  31.910  27.938  1.00  0.00     0.074 A 
ATOM     68  C   UNL A   1      46.617  32.130  27.295  1.00  0.00     0.031 C 
ATOM     69  C   UNL A   1      44.367  32.749  28.413  1.00  0.00     0.031 A 
BRANCH  56  70
ATOM     70  C   UNL A   1      39.080  31.446  31.404  1.00  0.00    -0.014 A 
ATOM     71  C   UNL A   1      38.635  32.784  31.490  1.00  0.00     0.009 A 
ATOM     72  C   UNL A   1      38.455  30.570  32.311  1.00  0.00     0.009 A 
ATOM     73  C   UNL A   1      37.672  33.219  32.420  1.00  0.00     0.001 A 
ATOM     74  C   UNL A   1      37.468  30.987  33.227  1.00  0.00     0.001 A 
ATOM     75  C   UNL A   1      37.083  32.316  33.289  1.00  0.00     0.000 A 
ENDBRANCH  56  70
BRANCH  57  76
ATOM     76  C   UNL A   1      47.154  27.455  26.726  1.00  0.00    -0.014 A 
ATOM     77  C   UNL A   1      46.408  27.296  25.533  1.00  0.00     0.009 A 
ATOM     78  C   UNL A   1      48.555  27.367  26.634  1.00  0.00     0.009 A 
ATOM     79  C   UNL A   1      47.031  27.406  24.283  1.00  0.00     0.001 A 
ATOM     80  C   UNL A   1      49.176  27.443  25.373  1.00  0.00     0.001 A 
ATOM     81  C   UNL A   1      48.413  27.544  24.208  1.00  0.00     0.000 A 
ENDBRANCH  57  76
BRANCH  69  82
ATOM     82  C   UNL A   1      44.084  34.142  27.902  1.00  0.00    -0.014 A 
ATOM     83  C   UNL A   1      43.554  34.406  26.637  1.00  0.00     0.009 A 
ATOM     84  C   UNL A   1      44.133  35.232  28.811  1.00  0.00     0.009 A 
ATOM     85  C   UNL A   1      43.112  35.689  26.292  1.00  0.00     0.001 A 
ATOM     86  C   UNL A   1      43.647  36.498  28.488  1.00  0.00     0.001 A 
ATOM     87  C   UNL A   1      43.141  36.728  27.219  1.00  0.00     0.000 A 
ENDBRANCH  69  82
ENDBRANCH  43  44
ENDBRANCH  36  38
ENDBRANCH  35  36
ENDBRANCH  34  35
ENDBRANCH  33  34
ENDBRANCH  32  33
ENDBRANCH  31  32
ENDBRANCH  30  31
ENDBRANCH   1  30
TORSDOF 22
ENDMDL
MODEL 3
REMARK VINA RESULT:      -9.7      7.182     14.032
REMARK SMILES Cc1ccc(-c2nc(C)cc(N3CCCC[C@H]3C(=O)OCCOCCOCCOCCOC(=O)c3ccc(-c4c5nc(c(-c6ccccc6)c6ccc([nH]6)c(-c6ccccc6)c6nc(c(-c7ccccc7)c7ccc4[nH]7)C=C6)C=C5)cc3)n2)cc1
REMARK SMILES IDX 26 1 25 2 24 3 23 4 22 5 21 6 20 7 18 8 19 9 17 10 12 11
REMARK SMILES IDX 13 12 14 13 16 14 15 15 11 16 6 17 7 18 83 19 8 20 9 21
REMARK SMILES IDX 10 22 5 23 1 24 2 25 3 26 85 27 4 28 84 29 27 30 28 31 29 32
REMARK SMILES IDX 30 33 31 34 32 35 33 36 34 37 35 38 36 39 82 40 37 41 81 42
REMARK SMILES IDX 38 43 39 44 40 45 75 46 41 47 80 48 74 49 76 50 42 51 79 52
REMARK SMILES IDX 73 53 72 54 43 56 65 57 50 58 64 59 51 60 54 61 63 62 77 63
REMARK SMILES IDX 52 64 53 65 62 67 78 68 55 69 44 70 45 71 49 72 46 73 48 74
REMARK SMILES IDX 47 75 66 76 67 77 71 78 68 79 70 80 69 81 56 82 57 83 61 84
REMARK SMILES IDX 58 85 60 86 59 87
REMARK H PARENT 76 55 54 66
REMARK Flexibility Score: inf
ROOT
ATOM      1  O   UNL A   1      35.011  36.060  32.991  1.00  0.00    -0.377 OA
ENDROOT
BRANCH   1   2
ATOM      2  C   UNL A   1      34.637  35.366  34.166  1.00  0.00     0.188 C 
BRANCH   2   3
ATOM      3  C   UNL A   1      35.121  33.911  34.398  1.00  0.00     0.188 C 
BRANCH   3   4
ATOM      4  O   UNL A   1      36.395  33.460  33.959  1.00  0.00    -0.376 OA
BRANCH   4   5
ATOM      5  C   UNL A   1      37.405  33.418  34.948  1.00  0.00     0.202 C 
BRANCH   5   6
ATOM      6  C   UNL A   1      37.687  32.049  35.565  1.00  0.00     0.261 C 
BRANCH   6   7
ATOM      7  O   UNL A   1      38.155  32.178  36.914  1.00  0.00    -0.462 OA
BRANCH   7   8
ATOM      8  C   UNL A   1      37.295  32.690  37.834  1.00  0.00     0.328 C 
ATOM      9  O   UNL A   1      36.305  33.339  37.564  1.00  0.00    -0.250 OA
BRANCH   8  10
ATOM     10  C   UNL A   1      37.620  32.129  39.249  1.00  0.00     0.193 C 
ATOM     11  N   UNL A   1      37.965  33.225  40.179  1.00  0.00    -0.343 N 
ATOM     12  C   UNL A   1      37.679  33.163  41.620  1.00  0.00     0.119 C 
ATOM     13  C   UNL A   1      36.486  32.321  42.051  1.00  0.00     0.022 C 
ATOM     14  C   UNL A   1      36.564  31.157  39.783  1.00  0.00     0.037 C 
ATOM     15  C   UNL A   1      35.715  31.597  40.965  1.00  0.00     0.005 C 
BRANCH  11  16
ATOM     16  C   UNL A   1      39.229  33.773  39.910  1.00  0.00     0.133 A 
ATOM     17  C   UNL A   1      40.506  35.669  39.948  1.00  0.00     0.161 A 
ATOM     18  N   UNL A   1      41.643  35.074  39.571  1.00  0.00    -0.233 NA
ATOM     19  N   UNL A   1      39.326  35.071  40.105  1.00  0.00    -0.211 NA
ATOM     20  C   UNL A   1      41.545  33.743  39.374  1.00  0.00     0.043 A 
ATOM     21  C   UNL A   1      42.800  32.991  39.036  1.00  0.00     0.067 C 
ATOM     22  C   UNL A   1      40.348  33.060  39.527  1.00  0.00     0.070 A 
BRANCH  17  23
ATOM     23  C   UNL A   1      40.411  37.085  40.244  1.00  0.00     0.019 A 
ATOM     24  C   UNL A   1      39.957  41.360  40.319  1.00  0.00     0.044 C 
ATOM     25  C   UNL A   1      40.107  39.871  40.306  1.00  0.00    -0.051 A 
ATOM     26  C   UNL A   1      41.384  39.291  40.296  1.00  0.00     0.004 A 
ATOM     27  C   UNL A   1      38.976  39.056  40.289  1.00  0.00     0.004 A 
ATOM     28  C   UNL A   1      41.538  37.904  40.272  1.00  0.00     0.012 A 
ATOM     29  C   UNL A   1      39.130  37.678  40.263  1.00  0.00     0.012 A 
ENDBRANCH  17  23
ENDBRANCH  11  16
ENDBRANCH   8  10
ENDBRANCH   7   8
ENDBRANCH   6   7
ENDBRANCH   5   6
ENDBRANCH   4   5
ENDBRANCH   3   4
ENDBRANCH   2   3
ENDBRANCH   1   2
BRANCH   1  30
ATOM     30  C   UNL A   1      34.044  37.007  32.589  1.00  0.00     0.188 C 
BRANCH  30  31
ATOM     31  C   UNL A   1      32.697  36.323  32.580  1.00  0.00     0.188 C 
BRANCH  31  32
ATOM     32  O   UNL A   1      32.555  35.656  31.339  1.00  0.00    -0.376 OA
BRANCH  32  33
ATOM     33  C   UNL A   1      32.923  36.472  30.228  1.00  0.00     0.202 C 
BRANCH  33  34
ATOM     34  C   UNL A   1      32.934  35.763  28.843  1.00  0.00     0.261 C 
BRANCH  34  35
ATOM     35  O   UNL A   1      32.809  34.311  28.998  1.00  0.00    -0.460 OA
BRANCH  35  36
ATOM     36  C   UNL A   1      33.852  33.538  28.556  1.00  0.00     0.338 C 
ATOM     37  O   UNL A   1      33.721  32.547  27.865  1.00  0.00    -0.246 OA
BRANCH  36  38
ATOM     38  C   UNL A   1      35.136  33.852  29.314  1.00  0.00     0.060 A 
ATOM     39  C   UNL A   1      36.297  34.083  28.558  1.00  0.00     0.016 A 
ATOM     40  C   UNL A   1      35.297  33.483  30.648  1.00  0.00     0.016 A 
ATOM     41  C   UNL A   1      37.559  33.660  29.029  1.00  0.00     0.010 A 
ATOM     42  C   UNL A   1      36.525  32.936  31.054  1.00  0.00     0.010 A 
ATOM     43  C   UNL A   1      37.661  32.935  30.221  1.00  0.00    -0.014 A 
BRANCH  43  44
ATOM     44  C   UNL A   1      38.765  31.955  30.510  1.00  0.00     0.031 A 
ATOM     45  C   UNL A   1      38.663  30.492  30.126  1.00  0.00     0.074 A 
ATOM     46  C   UNL A   1      40.007  32.429  30.826  1.00  0.00     0.049 A 
ATOM     47  N   UNL A   1      39.598  29.608  30.281  1.00  0.00    -0.248 NA
ATOM     48  C   UNL A   1      37.485  29.891  29.504  1.00  0.00     0.031 C 
ATOM     49  C   UNL A   1      41.289  31.757  30.590  1.00  0.00     0.029 A 
ATOM     50  N   UNL A   1      40.420  33.665  31.343  1.00  0.00    -0.354 N 
ATOM     51  C   UNL A   1      39.309  28.482  29.532  1.00  0.00     0.074 A 
ATOM     52  C   UNL A   1      37.942  28.691  29.121  1.00  0.00     0.031 C 
ATOM     53  C   UNL A   1      42.320  32.515  30.974  1.00  0.00     0.029 A 
ATOM     54  C   UNL A   1      41.757  33.544  31.798  1.00  0.00     0.049 A 
ATOM     55  H   UNL A   1      39.873  34.483  31.383  1.00  0.00     0.167 HD
ATOM     56  C   UNL A   1      40.294  27.566  29.259  1.00  0.00     0.031 A 
ATOM     57  C   UNL A   1      42.064  33.628  33.126  1.00  0.00     0.031 A 
ATOM     58  C   UNL A   1      41.527  27.811  30.041  1.00  0.00     0.049 A 
ATOM     59  C   UNL A   1      42.478  32.286  33.722  1.00  0.00     0.074 A 
ATOM     60  C   UNL A   1      42.883  27.919  29.755  1.00  0.00     0.029 A 
ATOM     61  N   UNL A   1      41.412  28.148  31.390  1.00  0.00    -0.354 N 
ATOM     62  N   UNL A   1      42.219  31.144  33.127  1.00  0.00    -0.248 NA
ATOM     63  C   UNL A   1      43.268  32.078  34.934  1.00  0.00     0.031 C 
ATOM     64  C   UNL A   1      43.537  28.480  30.888  1.00  0.00     0.029 A 
ATOM     65  C   UNL A   1      42.609  28.591  31.908  1.00  0.00     0.049 A 
ATOM     66  H   UNL A   1      40.578  28.079  31.908  1.00  0.00     0.167 HD
ATOM     67  C   UNL A   1      42.802  30.106  33.788  1.00  0.00     0.074 A 
ATOM     68  C   UNL A   1      43.420  30.736  34.940  1.00  0.00     0.031 C 
ATOM     69  C   UNL A   1      42.747  28.817  33.340  1.00  0.00     0.031 A 
BRANCH  56  70
ATOM     70  C   UNL A   1      40.232  26.500  28.153  1.00  0.00    -0.014 A 
ATOM     71  C   UNL A   1      39.542  25.286  28.370  1.00  0.00     0.009 A 
ATOM     72  C   UNL A   1      40.873  26.585  26.903  1.00  0.00     0.009 A 
ATOM     73  C   UNL A   1      39.518  24.234  27.435  1.00  0.00     0.001 A 
ATOM     74  C   UNL A   1      40.831  25.551  25.946  1.00  0.00     0.001 A 
ATOM     75  C   UNL A   1      40.161  24.369  26.216  1.00  0.00     0.000 A 
ENDBRANCH  56  70
BRANCH  57  76
ATOM     76  C   UNL A   1      41.521  34.899  33.701  1.00  0.00    -0.014 A 
ATOM     77  C   UNL A   1      40.639  34.677  34.787  1.00  0.00     0.009 A 
ATOM     78  C   UNL A   1      42.368  36.021  33.772  1.00  0.00     0.009 A 
ATOM     79  C   UNL A   1      40.845  35.318  36.015  1.00  0.00     0.001 A 
ATOM     80  C   UNL A   1      42.546  36.683  35.000  1.00  0.00     0.001 A 
ATOM     81  C   UNL A   1      41.844  36.278  36.136  1.00  0.00     0.000 A 
ENDBRANCH  57  76
BRANCH  69  82
ATOM     82  C   UNL A   1      42.834  27.582  34.206  1.00  0.00    -0.014 A 
ATOM     83  C   UNL A   1      44.041  26.991  34.585  1.00  0.00     0.009 A 
ATOM     84  C   UNL A   1      41.665  27.120  34.866  1.00  0.00     0.009 A 
ATOM     85  C   UNL A   1      44.079  25.982  35.556  1.00  0.00     0.001 A 
ATOM     86  C   UNL A   1      41.705  26.153  35.869  1.00  0.00     0.001 A 
ATOM     87  C   UNL A   1      42.917  25.577  36.210  1.00  0.00     0.000 A 
ENDBRANCH  69  82
ENDBRANCH  43  44
ENDBRANCH  36  38
ENDBRANCH  35  36
ENDBRANCH  34  35
ENDBRANCH  33  34
ENDBRANCH  32  33
ENDBRANCH  31  32
ENDBRANCH  30  31
ENDBRANCH   1  30
TORSDOF 22
ENDMDL
