MODEL 1
REMARK VINA RESULT:      -8.6      0.000      0.000
REMARK SMILES Cc1ccc(C(=O)N2CCC3(CCC(=O)N(CC(=O)OCCOCCOCCOCCOC(=O)c4ccc(-c5c6nc(c(-c7ccccc7)c7ccc([nH]7)c(-c7ccccc7)c7nc(c(-c8ccccc8)c8ccc5[nH]8)C=C7)C=C6)cc4)C3)CC2)cc1O
REMARK SMILES IDX 25 1 24 2 23 3 22 4 21 5 20 6 18 7 19 8 17 9 16 10 6 11 7 12
REMARK SMILES IDX 8 13 9 14 85 15 10 16 84 17 11 18 12 19 83 20 13 21 14 22
REMARK SMILES IDX 15 23 5 24 1 25 2 26 3 27 87 28 4 29 86 30 88 31 26 33 27 34
REMARK SMILES IDX 28 35 29 36 30 37 31 38 32 39 33 40 34 41 35 42 36 43 82 44
REMARK SMILES IDX 37 45 81 46 38 47 39 48 40 49 75 50 41 51 80 52 74 53 76 54
REMARK SMILES IDX 42 55 79 56 73 57 72 58 43 60 65 61 50 62 64 63 51 64 54 65
REMARK SMILES IDX 63 66 77 67 52 68 53 69 62 71 78 72 55 73 44 74 45 75 49 76
REMARK SMILES IDX 46 77 48 78 47 79 66 80 67 81 71 82 68 83 70 84 69 85 56 86
REMARK SMILES IDX 57 87 61 88 58 89 60 90 59 91
REMARK H PARENT 88 32 76 59 54 70
REMARK Flexibility Score: inf
ROOT
ATOM      1  C   UNL A   1      39.976  29.228  29.347  1.00  0.00     0.188 C 
ENDROOT
BRANCH   1   2
ATOM      2  C   UNL A   1      39.950  29.901  30.719  1.00  0.00     0.188 C 
BRANCH   2   3
ATOM      3  O   UNL A   1      40.302  31.273  30.828  1.00  0.00    -0.376 OA
BRANCH   3   4
ATOM      4  C   UNL A   1      39.352  32.282  30.486  1.00  0.00     0.202 C 
BRANCH   4   5
ATOM      5  C   UNL A   1      38.049  32.432  31.308  1.00  0.00     0.261 C 
BRANCH   5   6
ATOM      6  O   UNL A   1      36.818  32.058  30.632  1.00  0.00    -0.462 OA
BRANCH   6   7
ATOM      7  C   UNL A   1      36.321  30.822  30.873  1.00  0.00     0.325 C 
ATOM      8  O   UNL A   1      36.135  30.373  32.004  1.00  0.00    -0.250 OA
BRANCH   7   9
ATOM      9  C   UNL A   1      35.878  30.006  29.628  1.00  0.00     0.242 C 
BRANCH   9  10
ATOM     10  N   UNL A   1      35.705  30.555  28.266  1.00  0.00    -0.331 N 
ATOM     11  C   UNL A   1      31.326  26.250  26.030  1.00  0.00     0.253 C 
ATOM     12  O   UNL A   1      30.230  26.038  26.544  1.00  0.00    -0.269 OA
ATOM     13  N   UNL A   1      31.965  27.474  26.144  1.00  0.00    -0.339 N 
ATOM     14  C   UNL A   1      31.860  28.176  27.405  1.00  0.00     0.120 C 
ATOM     15  C   UNL A   1      32.563  28.207  25.031  1.00  0.00     0.120 C 
ATOM     16  C   UNL A   1      33.272  28.559  27.846  1.00  0.00     0.030 C 
ATOM     17  C   UNL A   1      33.938  28.765  25.400  1.00  0.00     0.030 C 
ATOM     18  C   UNL A   1      33.988  29.449  26.792  1.00  0.00    -0.008 C 
ATOM     19  C   UNL A   1      33.289  30.839  26.713  1.00  0.00     0.019 C 
ATOM     20  C   UNL A   1      35.499  29.632  27.165  1.00  0.00     0.127 C 
ATOM     21  C   UNL A   1      33.574  31.663  27.967  1.00  0.00     0.101 C 
ATOM     22  C   UNL A   1      35.078  31.774  28.006  1.00  0.00     0.223 C 
ATOM     23  O   UNL A   1      35.634  32.718  27.455  1.00  0.00    -0.275 OA
BRANCH  11  24
ATOM     24  C   UNL A   1      32.096  25.111  25.453  1.00  0.00     0.043 A 
ATOM     25  C   UNL A   1      34.750  22.184  23.705  1.00  0.00     0.048 C 
ATOM     26  C   UNL A   1      33.826  23.179  24.341  1.00  0.00    -0.009 A 
ATOM     27  C   UNL A   1      32.902  23.852  23.537  1.00  0.00     0.008 A 
ATOM     28  C   UNL A   1      33.878  23.499  25.704  1.00  0.00     0.119 A 
ATOM     29  C   UNL A   1      32.067  24.824  24.085  1.00  0.00     0.014 A 
ATOM     30  C   UNL A   1      33.015  24.442  26.264  1.00  0.00     0.060 A 
BRANCH  28  31
ATOM     31  O   UNL A   1      34.786  22.939  26.556  1.00  0.00    -0.508 OA
ATOM     32  H   UNL A   1      35.048  23.399  27.330  1.00  0.00     0.293 HD
ENDBRANCH  28  31
ENDBRANCH  11  24
ENDBRANCH   9  10
ENDBRANCH   7   9
ENDBRANCH   6   7
ENDBRANCH   5   6
ENDBRANCH   4   5
ENDBRANCH   3   4
ENDBRANCH   2   3
ENDBRANCH   1   2
BRANCH   1  33
ATOM     33  O   UNL A   1      39.169  28.076  29.275  1.00  0.00    -0.377 OA
BRANCH  33  34
ATOM     34  C   UNL A   1      39.337  27.186  28.186  1.00  0.00     0.188 C 
BRANCH  34  35
ATOM     35  C   UNL A   1      40.141  25.919  28.472  1.00  0.00     0.188 C 
BRANCH  35  36
ATOM     36  O   UNL A   1      40.587  25.265  27.293  1.00  0.00    -0.376 OA
BRANCH  36  37
ATOM     37  C   UNL A   1      40.120  23.954  27.005  1.00  0.00     0.202 C 
BRANCH  37  38
ATOM     38  C   UNL A   1      40.875  22.718  27.531  1.00  0.00     0.261 C 
BRANCH  38  39
ATOM     39  O   UNL A   1      42.251  22.870  27.913  1.00  0.00    -0.460 OA
BRANCH  39  40
ATOM     40  C   UNL A   1      43.214  22.824  26.978  1.00  0.00     0.338 C 
ATOM     41  O   UNL A   1      43.488  21.891  26.239  1.00  0.00    -0.246 OA
BRANCH  40  42
ATOM     42  C   UNL A   1      43.788  24.182  26.863  1.00  0.00     0.060 A 
ATOM     43  C   UNL A   1      43.847  24.796  25.605  1.00  0.00     0.016 A 
ATOM     44  C   UNL A   1      44.282  24.839  27.992  1.00  0.00     0.016 A 
ATOM     45  C   UNL A   1      44.442  26.051  25.464  1.00  0.00     0.010 A 
ATOM     46  C   UNL A   1      44.899  26.084  27.846  1.00  0.00     0.010 A 
ATOM     47  C   UNL A   1      45.017  26.679  26.576  1.00  0.00    -0.014 A 
BRANCH  47  48
ATOM     48  C   UNL A   1      45.922  27.839  26.398  1.00  0.00     0.031 A 
ATOM     49  C   UNL A   1      47.384  27.565  26.165  1.00  0.00     0.074 A 
ATOM     50  C   UNL A   1      45.474  29.105  26.452  1.00  0.00     0.049 A 
ATOM     51  N   UNL A   1      48.390  28.400  26.110  1.00  0.00    -0.248 NA
ATOM     52  C   UNL A   1      47.761  26.154  25.975  1.00  0.00     0.031 C 
ATOM     53  C   UNL A   1      44.077  29.505  26.604  1.00  0.00     0.029 A 
ATOM     54  N   UNL A   1      46.162  30.292  26.401  1.00  0.00    -0.354 N 
ATOM     55  C   UNL A   1      49.517  27.615  25.904  1.00  0.00     0.074 A 
ATOM     56  C   UNL A   1      49.078  26.239  25.861  1.00  0.00     0.031 C 
ATOM     57  C   UNL A   1      44.013  30.848  26.657  1.00  0.00     0.029 A 
ATOM     58  C   UNL A   1      45.367  31.396  26.590  1.00  0.00     0.049 A 
ATOM     59  H   UNL A   1      47.133  30.347  26.244  1.00  0.00     0.167 HD
ATOM     60  C   UNL A   1      50.806  28.006  25.764  1.00  0.00     0.031 A 
ATOM     61  C   UNL A   1      45.700  32.695  26.732  1.00  0.00     0.031 A 
ATOM     62  C   UNL A   1      51.241  29.374  25.822  1.00  0.00     0.049 A 
ATOM     63  C   UNL A   1      47.153  33.098  26.671  1.00  0.00     0.074 A 
ATOM     64  C   UNL A   1      52.524  29.875  25.683  1.00  0.00     0.029 A 
ATOM     65  N   UNL A   1      50.407  30.458  26.044  1.00  0.00    -0.354 N 
ATOM     66  N   UNL A   1      48.211  32.352  26.466  1.00  0.00    -0.248 NA
ATOM     67  C   UNL A   1      47.455  34.526  26.857  1.00  0.00     0.031 C 
ATOM     68  C   UNL A   1      52.474  31.256  25.889  1.00  0.00     0.029 A 
ATOM     69  C   UNL A   1      51.151  31.624  26.075  1.00  0.00     0.049 A 
ATOM     70  H   UNL A   1      49.431  30.406  26.162  1.00  0.00     0.167 HD
ATOM     71  C   UNL A   1      49.296  33.222  26.454  1.00  0.00     0.074 A 
ATOM     72  C   UNL A   1      48.769  34.552  26.671  1.00  0.00     0.031 C 
ATOM     73  C   UNL A   1      50.610  32.944  26.272  1.00  0.00     0.031 A 
BRANCH  60  74
ATOM     74  C   UNL A   1      51.844  26.933  25.587  1.00  0.00    -0.014 A 
ATOM     75  C   UNL A   1      52.292  26.547  24.314  1.00  0.00     0.009 A 
ATOM     76  C   UNL A   1      52.414  26.329  26.719  1.00  0.00     0.009 A 
ATOM     77  C   UNL A   1      53.266  25.555  24.178  1.00  0.00     0.001 A 
ATOM     78  C   UNL A   1      53.409  25.360  26.582  1.00  0.00     0.001 A 
ATOM     79  C   UNL A   1      53.828  24.967  25.311  1.00  0.00     0.000 A 
ENDBRANCH  60  74
BRANCH  61  80
ATOM     80  C   UNL A   1      44.647  33.715  26.987  1.00  0.00    -0.014 A 
ATOM     81  C   UNL A   1      44.260  34.039  28.297  1.00  0.00     0.009 A 
ATOM     82  C   UNL A   1      43.997  34.350  25.916  1.00  0.00     0.009 A 
ATOM     83  C   UNL A   1      43.228  34.951  28.527  1.00  0.00     0.001 A 
ATOM     84  C   UNL A   1      42.988  35.287  26.150  1.00  0.00     0.001 A 
ATOM     85  C   UNL A   1      42.595  35.578  27.455  1.00  0.00     0.000 A 
ENDBRANCH  61  80
BRANCH  73  86
ATOM     86  C   UNL A   1      51.573  34.098  26.223  1.00  0.00    -0.014 A 
ATOM     87  C   UNL A   1      51.747  34.867  25.062  1.00  0.00     0.009 A 
ATOM     88  C   UNL A   1      52.256  34.471  27.392  1.00  0.00     0.009 A 
ATOM     89  C   UNL A   1      52.604  35.971  25.070  1.00  0.00     0.001 A 
ATOM     90  C   UNL A   1      53.085  35.592  27.406  1.00  0.00     0.001 A 
ATOM     91  C   UNL A   1      53.264  36.338  26.243  1.00  0.00     0.000 A 
ENDBRANCH  73  86
ENDBRANCH  47  48
ENDBRANCH  40  42
ENDBRANCH  39  40
ENDBRANCH  38  39
ENDBRANCH  37  38
ENDBRANCH  36  37
ENDBRANCH  35  36
ENDBRANCH  34  35
ENDBRANCH  33  34
ENDBRANCH   1  33
TORSDOF 23
ENDMDL
MODEL 2
REMARK VINA RESULT:      -8.0      6.641     12.048
REMARK SMILES Cc1ccc(C(=O)N2CCC3(CCC(=O)N(CC(=O)OCCOCCOCCOCCOC(=O)c4ccc(-c5c6nc(c(-c7ccccc7)c7ccc([nH]7)c(-c7ccccc7)c7nc(c(-c8ccccc8)c8ccc5[nH]8)C=C7)C=C6)cc4)C3)CC2)cc1O
REMARK SMILES IDX 25 1 24 2 23 3 22 4 21 5 20 6 18 7 19 8 17 9 16 10 6 11 7 12
REMARK SMILES IDX 8 13 9 14 85 15 10 16 84 17 11 18 12 19 83 20 13 21 14 22
REMARK SMILES IDX 15 23 5 24 1 25 2 26 3 27 87 28 4 29 86 30 88 31 26 33 27 34
REMARK SMILES IDX 28 35 29 36 30 37 31 38 32 39 33 40 34 41 35 42 36 43 82 44
REMARK SMILES IDX 37 45 81 46 38 47 39 48 40 49 75 50 41 51 80 52 74 53 76 54
REMARK SMILES IDX 42 55 79 56 73 57 72 58 43 60 65 61 50 62 64 63 51 64 54 65
REMARK SMILES IDX 63 66 77 67 52 68 53 69 62 71 78 72 55 73 44 74 45 75 49 76
REMARK SMILES IDX 46 77 48 78 47 79 66 80 67 81 71 82 68 83 70 84 69 85 56 86
REMARK SMILES IDX 57 87 61 88 58 89 60 90 59 91
REMARK H PARENT 88 32 76 59 54 70
REMARK Flexibility Score: inf
ROOT
ATOM      1  C   UNL A   1      43.409  26.274  28.036  1.00  0.00     0.188 C 
ENDROOT
BRANCH   1   2
ATOM      2  C   UNL A   1      42.633  24.993  28.344  1.00  0.00     0.188 C 
BRANCH   2   3
ATOM      3  O   UNL A   1      42.551  23.975  27.356  1.00  0.00    -0.376 OA
BRANCH   3   4
ATOM      4  C   UNL A   1      41.334  23.778  26.636  1.00  0.00     0.202 C 
BRANCH   4   5
ATOM      5  C   UNL A   1      39.995  23.636  27.399  1.00  0.00     0.261 C 
BRANCH   5   6
ATOM      6  O   UNL A   1      38.815  24.152  26.725  1.00  0.00    -0.462 OA
BRANCH   6   7
ATOM      7  C   UNL A   1      38.013  23.261  26.095  1.00  0.00     0.325 C 
ATOM      8  O   UNL A   1      38.306  22.075  25.939  1.00  0.00    -0.250 OA
BRANCH   7   9
ATOM      9  C   UNL A   1      36.618  23.783  25.659  1.00  0.00     0.242 C 
BRANCH   9  10
ATOM     10  N   UNL A   1      35.322  23.275  26.159  1.00  0.00    -0.331 N 
ATOM     11  C   UNL A   1      31.383  26.321  21.927  1.00  0.00     0.253 C 
ATOM     12  O   UNL A   1      31.444  26.200  20.705  1.00  0.00    -0.269 OA
ATOM     13  N   UNL A   1      31.795  25.314  22.785  1.00  0.00    -0.339 N 
ATOM     14  C   UNL A   1      32.967  24.551  22.416  1.00  0.00     0.120 C 
ATOM     15  C   UNL A   1      31.026  24.829  23.927  1.00  0.00     0.120 C 
ATOM     16  C   UNL A   1      33.919  24.547  23.612  1.00  0.00     0.030 C 
ATOM     17  C   UNL A   1      31.908  24.651  25.164  1.00  0.00     0.030 C 
ATOM     18  C   UNL A   1      33.257  23.939  24.879  1.00  0.00    -0.008 C 
ATOM     19  C   UNL A   1      33.006  22.417  24.666  1.00  0.00     0.019 C 
ATOM     20  C   UNL A   1      34.171  24.159  26.133  1.00  0.00     0.127 C 
ATOM     21  C   UNL A   1      34.323  21.643  24.678  1.00  0.00     0.101 C 
ATOM     22  C   UNL A   1      34.920  21.945  26.030  1.00  0.00     0.223 C 
ATOM     23  O   UNL A   1      34.668  21.218  26.984  1.00  0.00    -0.275 OA
BRANCH  11  24
ATOM     24  C   UNL A   1      31.066  27.654  22.515  1.00  0.00     0.043 A 
ATOM     25  C   UNL A   1      29.995  31.232  24.686  1.00  0.00     0.048 C 
ATOM     26  C   UNL A   1      30.400  30.005  23.927  1.00  0.00    -0.009 A 
ATOM     27  C   UNL A   1      29.466  29.392  23.087  1.00  0.00     0.008 A 
ATOM     28  C   UNL A   1      31.664  29.414  24.058  1.00  0.00     0.119 A 
ATOM     29  C   UNL A   1      29.790  28.217  22.411  1.00  0.00     0.014 A 
ATOM     30  C   UNL A   1      32.005  28.261  23.351  1.00  0.00     0.060 A 
BRANCH  28  31
ATOM     31  O   UNL A   1      32.620  29.904  24.900  1.00  0.00    -0.508 OA
ATOM     32  H   UNL A   1      32.486  30.724  25.335  1.00  0.00     0.293 HD
ENDBRANCH  28  31
ENDBRANCH  11  24
ENDBRANCH   9  10
ENDBRANCH   7   9
ENDBRANCH   6   7
ENDBRANCH   5   6
ENDBRANCH   4   5
ENDBRANCH   3   4
ENDBRANCH   2   3
ENDBRANCH   1   2
BRANCH   1  33
ATOM     33  O   UNL A   1      42.658  27.221  27.314  1.00  0.00    -0.377 OA
BRANCH  33  34
ATOM     34  C   UNL A   1      41.313  27.462  27.686  1.00  0.00     0.188 C 
BRANCH  34  35
ATOM     35  C   UNL A   1      40.562  28.502  26.856  1.00  0.00     0.188 C 
BRANCH  35  36
ATOM     36  O   UNL A   1      39.611  29.237  27.612  1.00  0.00    -0.376 OA
BRANCH  36  37
ATOM     37  C   UNL A   1      38.452  28.578  28.103  1.00  0.00     0.202 C 
BRANCH  37  38
ATOM     38  C   UNL A   1      37.467  29.311  29.035  1.00  0.00     0.261 C 
BRANCH  38  39
ATOM     39  O   UNL A   1      37.437  28.941  30.423  1.00  0.00    -0.460 OA
BRANCH  39  40
ATOM     40  C   UNL A   1      38.562  28.530  31.030  1.00  0.00     0.338 C 
ATOM     41  O   UNL A   1      39.177  27.493  30.830  1.00  0.00    -0.246 OA
BRANCH  40  42
ATOM     42  C   UNL A   1      39.046  29.642  31.875  1.00  0.00     0.060 A 
ATOM     43  C   UNL A   1      40.040  29.395  32.831  1.00  0.00     0.016 A 
ATOM     44  C   UNL A   1      38.507  30.923  31.735  1.00  0.00     0.016 A 
ATOM     45  C   UNL A   1      40.466  30.416  33.682  1.00  0.00     0.010 A 
ATOM     46  C   UNL A   1      38.916  31.939  32.602  1.00  0.00     0.010 A 
ATOM     47  C   UNL A   1      39.869  31.681  33.605  1.00  0.00    -0.014 A 
BRANCH  47  48
ATOM     48  C   UNL A   1      40.069  32.671  34.690  1.00  0.00     0.031 A 
ATOM     49  C   UNL A   1      41.101  33.746  34.483  1.00  0.00     0.074 A 
ATOM     50  C   UNL A   1      39.370  32.619  35.837  1.00  0.00     0.049 A 
ATOM     51  N   UNL A   1      41.552  34.642  35.324  1.00  0.00    -0.248 NA
ATOM     52  C   UNL A   1      41.713  33.815  33.145  1.00  0.00     0.031 C 
ATOM     53  C   UNL A   1      38.298  31.673  36.136  1.00  0.00     0.029 A 
ATOM     54  N   UNL A   1      39.476  33.380  36.975  1.00  0.00    -0.354 N 
ATOM     55  C   UNL A   1      42.514  35.361  34.625  1.00  0.00     0.074 A 
ATOM     56  C   UNL A   1      42.595  34.790  33.300  1.00  0.00     0.031 C 
ATOM     57  C   UNL A   1      37.859  31.895  37.389  1.00  0.00     0.029 A 
ATOM     58  C   UNL A   1      38.651  32.966  37.992  1.00  0.00     0.049 A 
ATOM     59  H   UNL A   1      40.086  34.150  37.055  1.00  0.00     0.167 HD
ATOM     60  C   UNL A   1      43.263  36.405  35.050  1.00  0.00     0.031 A 
ATOM     61  C   UNL A   1      38.573  33.378  39.273  1.00  0.00     0.031 A 
ATOM     62  C   UNL A   1      43.189  36.961  36.373  1.00  0.00     0.049 A 
ATOM     63  C   UNL A   1      39.487  34.478  39.754  1.00  0.00     0.074 A 
ATOM     64  C   UNL A   1      43.900  38.026  36.900  1.00  0.00     0.029 A 
ATOM     65  N   UNL A   1      42.360  36.493  37.381  1.00  0.00    -0.354 N 
ATOM     66  N   UNL A   1      40.386  35.159  39.085  1.00  0.00    -0.248 NA
ATOM     67  C   UNL A   1      39.372  34.868  41.168  1.00  0.00     0.031 C 
ATOM     68  C   UNL A   1      43.551  38.157  38.246  1.00  0.00     0.029 A 
ATOM     69  C   UNL A   1      42.564  37.228  38.535  1.00  0.00     0.049 A 
ATOM     70  H   UNL A   1      41.723  35.749  37.288  1.00  0.00     0.167 HD
ATOM     71  C   UNL A   1      40.909  36.085  39.982  1.00  0.00     0.074 A 
ATOM     72  C   UNL A   1      40.228  35.879  41.242  1.00  0.00     0.031 C 
ATOM     73  C   UNL A   1      41.863  37.025  39.777  1.00  0.00     0.031 A 
BRANCH  60  74
ATOM     74  C   UNL A   1      44.266  36.980  34.090  1.00  0.00    -0.014 A 
ATOM     75  C   UNL A   1      45.576  36.481  34.008  1.00  0.00     0.009 A 
ATOM     76  C   UNL A   1      43.879  38.013  33.222  1.00  0.00     0.009 A 
ATOM     77  C   UNL A   1      46.485  37.027  33.099  1.00  0.00     0.001 A 
ATOM     78  C   UNL A   1      44.779  38.536  32.292  1.00  0.00     0.001 A 
ATOM     79  C   UNL A   1      46.085  38.049  32.238  1.00  0.00     0.000 A 
ENDBRANCH  60  74
BRANCH  61  80
ATOM     80  C   UNL A   1      37.621  32.726  40.214  1.00  0.00    -0.014 A 
ATOM     81  C   UNL A   1      38.044  31.694  41.065  1.00  0.00     0.009 A 
ATOM     82  C   UNL A   1      36.271  33.113  40.243  1.00  0.00     0.009 A 
ATOM     83  C   UNL A   1      37.132  31.044  41.900  1.00  0.00     0.001 A 
ATOM     84  C   UNL A   1      35.368  32.485  41.103  1.00  0.00     0.001 A 
ATOM     85  C   UNL A   1      35.797  31.442  41.922  1.00  0.00     0.000 A 
ENDBRANCH  61  80
BRANCH  73  86
ATOM     86  C   UNL A   1      42.185  37.960  40.910  1.00  0.00    -0.014 A 
ATOM     87  C   UNL A   1      43.211  37.686  41.826  1.00  0.00     0.009 A 
ATOM     88  C   UNL A   1      41.496  39.180  41.008  1.00  0.00     0.009 A 
ATOM     89  C   UNL A   1      43.524  38.606  42.830  1.00  0.00     0.001 A 
ATOM     90  C   UNL A   1      41.832  40.111  41.991  1.00  0.00     0.001 A 
ATOM     91  C   UNL A   1      42.842  39.820  42.906  1.00  0.00     0.000 A 
ENDBRANCH  73  86
ENDBRANCH  47  48
ENDBRANCH  40  42
ENDBRANCH  39  40
ENDBRANCH  38  39
ENDBRANCH  37  38
ENDBRANCH  36  37
ENDBRANCH  35  36
ENDBRANCH  34  35
ENDBRANCH  33  34
ENDBRANCH   1  33
TORSDOF 23
ENDMDL
MODEL 3
REMARK VINA RESULT:      -8.0      6.279     13.496
REMARK SMILES Cc1ccc(C(=O)N2CCC3(CCC(=O)N(CC(=O)OCCOCCOCCOCCOC(=O)c4ccc(-c5c6nc(c(-c7ccccc7)c7ccc([nH]7)c(-c7ccccc7)c7nc(c(-c8ccccc8)c8ccc5[nH]8)C=C7)C=C6)cc4)C3)CC2)cc1O
REMARK SMILES IDX 25 1 24 2 23 3 22 4 21 5 20 6 18 7 19 8 17 9 16 10 6 11 7 12
REMARK SMILES IDX 8 13 9 14 85 15 10 16 84 17 11 18 12 19 83 20 13 21 14 22
REMARK SMILES IDX 15 23 5 24 1 25 2 26 3 27 87 28 4 29 86 30 88 31 26 33 27 34
REMARK SMILES IDX 28 35 29 36 30 37 31 38 32 39 33 40 34 41 35 42 36 43 82 44
REMARK SMILES IDX 37 45 81 46 38 47 39 48 40 49 75 50 41 51 80 52 74 53 76 54
REMARK SMILES IDX 42 55 79 56 73 57 72 58 43 60 65 61 50 62 64 63 51 64 54 65
REMARK SMILES IDX 63 66 77 67 52 68 53 69 62 71 78 72 55 73 44 74 45 75 49 76
REMARK SMILES IDX 46 77 48 78 47 79 66 80 67 81 71 82 68 83 70 84 69 85 56 86
REMARK SMILES IDX 57 87 61 88 58 89 60 90 59 91
REMARK H PARENT 88 32 76 59 54 70
REMARK Flexibility Score: inf
ROOT
ATOM      1  C   UNL A   1      55.702  24.186  34.111  1.00  0.00     0.188 C 
ENDROOT
BRANCH   1   2
ATOM      2  C   UNL A   1      54.240  24.344  34.527  1.00  0.00     0.188 C 
BRANCH   2   3
ATOM      3  O   UNL A   1      53.790  23.740  35.732  1.00  0.00    -0.376 OA
BRANCH   3   4
ATOM      4  C   UNL A   1      53.538  22.335  35.773  1.00  0.00     0.202 C 
BRANCH   4   5
ATOM      5  C   UNL A   1      52.145  21.809  36.197  1.00  0.00     0.261 C 
BRANCH   5   6
ATOM      6  O   UNL A   1      51.832  20.442  35.816  1.00  0.00    -0.462 OA
BRANCH   6   7
ATOM      7  C   UNL A   1      50.599  20.198  35.314  1.00  0.00     0.325 C 
ATOM      8  O   UNL A   1      50.329  20.261  34.115  1.00  0.00    -0.250 OA
BRANCH   7   9
ATOM      9  C   UNL A   1      49.530  19.712  36.330  1.00  0.00     0.242 C 
BRANCH   9  10
ATOM     10  N   UNL A   1      48.851  20.566  37.328  1.00  0.00    -0.331 N 
ATOM     11  C   UNL A   1      44.421  23.329  33.398  1.00  0.00     0.253 C 
ATOM     12  O   UNL A   1      43.591  22.708  32.736  1.00  0.00    -0.269 OA
ATOM     13  N   UNL A   1      44.936  22.828  34.583  1.00  0.00    -0.339 N 
ATOM     14  C   UNL A   1      45.198  21.407  34.658  1.00  0.00     0.120 C 
ATOM     15  C   UNL A   1      45.045  23.584  35.827  1.00  0.00     0.120 C 
ATOM     16  C   UNL A   1      46.630  21.221  35.157  1.00  0.00     0.030 C 
ATOM     17  C   UNL A   1      46.401  23.368  36.500  1.00  0.00     0.030 C 
ATOM     18  C   UNL A   1      46.854  21.884  36.544  1.00  0.00    -0.008 C 
ATOM     19  C   UNL A   1      46.036  21.124  37.630  1.00  0.00     0.019 C 
ATOM     20  C   UNL A   1      48.376  21.874  36.918  1.00  0.00     0.127 C 
ATOM     21  C   UNL A   1      46.647  19.753  37.910  1.00  0.00     0.101 C 
ATOM     22  C   UNL A   1      48.056  20.057  38.356  1.00  0.00     0.223 C 
ATOM     23  O   UNL A   1      48.295  20.229  39.546  1.00  0.00    -0.275 OA
BRANCH  11  24
ATOM     24  C   UNL A   1      45.058  24.545  32.818  1.00  0.00     0.043 A 
ATOM     25  C   UNL A   1      47.146  27.720  30.763  1.00  0.00     0.048 C 
ATOM     26  C   UNL A   1      46.390  26.636  31.470  1.00  0.00    -0.009 A 
ATOM     27  C   UNL A   1      46.962  26.041  32.598  1.00  0.00     0.008 A 
ATOM     28  C   UNL A   1      45.151  26.159  31.022  1.00  0.00     0.119 A 
ATOM     29  C   UNL A   1      46.313  24.991  33.245  1.00  0.00     0.014 A 
ATOM     30  C   UNL A   1      44.480  25.137  31.693  1.00  0.00     0.060 A 
BRANCH  28  31
ATOM     31  O   UNL A   1      44.544  26.636  29.897  1.00  0.00    -0.508 OA
ATOM     32  H   UNL A   1      44.686  27.523  29.627  1.00  0.00     0.293 HD
ENDBRANCH  28  31
ENDBRANCH  11  24
ENDBRANCH   9  10
ENDBRANCH   7   9
ENDBRANCH   6   7
ENDBRANCH   5   6
ENDBRANCH   4   5
ENDBRANCH   3   4
ENDBRANCH   2   3
ENDBRANCH   1   2
BRANCH   1  33
ATOM     33  O   UNL A   1      56.168  25.237  33.298  1.00  0.00    -0.377 OA
BRANCH  33  34
ATOM     34  C   UNL A   1      55.329  25.739  32.274  1.00  0.00     0.188 C 
BRANCH  34  35
ATOM     35  C   UNL A   1      55.373  24.991  30.942  1.00  0.00     0.188 C 
BRANCH  35  36
ATOM     36  O   UNL A   1      54.654  25.650  29.910  1.00  0.00    -0.376 OA
BRANCH  36  37
ATOM     37  C   UNL A   1      55.226  25.741  28.612  1.00  0.00     0.202 C 
BRANCH  37  38
ATOM     38  C   UNL A   1      54.378  26.203  27.411  1.00  0.00     0.261 C 
BRANCH  38  39
ATOM     39  O   UNL A   1      53.105  25.575  27.192  1.00  0.00    -0.460 OA
BRANCH  39  40
ATOM     40  C   UNL A   1      52.547  25.601  25.971  1.00  0.00     0.338 C 
ATOM     41  O   UNL A   1      53.112  25.494  24.894  1.00  0.00    -0.246 OA
BRANCH  40  42
ATOM     42  C   UNL A   1      51.080  25.605  26.152  1.00  0.00     0.060 A 
ATOM     43  C   UNL A   1      50.259  25.992  25.084  1.00  0.00     0.016 A 
ATOM     44  C   UNL A   1      50.516  25.244  27.378  1.00  0.00     0.016 A 
ATOM     45  C   UNL A   1      48.875  26.063  25.252  1.00  0.00     0.010 A 
ATOM     46  C   UNL A   1      49.133  25.339  27.553  1.00  0.00     0.010 A 
ATOM     47  C   UNL A   1      48.310  25.786  26.503  1.00  0.00    -0.014 A 
BRANCH  47  48
ATOM     48  C   UNL A   1      46.904  26.161  26.791  1.00  0.00     0.031 A 
ATOM     49  C   UNL A   1      46.623  27.580  27.206  1.00  0.00     0.074 A 
ATOM     50  C   UNL A   1      45.900  25.272  26.702  1.00  0.00     0.049 A 
ATOM     51  N   UNL A   1      45.509  28.117  27.634  1.00  0.00    -0.248 NA
ATOM     52  C   UNL A   1      47.756  28.518  27.135  1.00  0.00     0.031 C 
ATOM     53  C   UNL A   1      46.028  23.889  26.249  1.00  0.00     0.029 A 
ATOM     54  N   UNL A   1      44.569  25.405  27.012  1.00  0.00    -0.354 N 
ATOM     55  C   UNL A   1      45.814  29.446  27.904  1.00  0.00     0.074 A 
ATOM     56  C   UNL A   1      47.218  29.630  27.611  1.00  0.00     0.031 C 
ATOM     57  C   UNL A   1      44.824  23.293  26.330  1.00  0.00     0.029 A 
ATOM     58  C   UNL A   1      43.857  24.238  26.885  1.00  0.00     0.049 A 
ATOM     59  H   UNL A   1      44.163  26.257  27.296  1.00  0.00     0.167 HD
ATOM     60  C   UNL A   1      44.998  30.425  28.358  1.00  0.00     0.031 A 
ATOM     61  C   UNL A   1      42.580  23.955  27.218  1.00  0.00     0.031 A 
ATOM     62  C   UNL A   1      43.606  30.234  28.663  1.00  0.00     0.049 A 
ATOM     63  C   UNL A   1      41.715  25.038  27.814  1.00  0.00     0.074 A 
ATOM     64  C   UNL A   1      42.690  31.166  29.120  1.00  0.00     0.029 A 
ATOM     65  N   UNL A   1      42.932  29.029  28.548  1.00  0.00    -0.354 N 
ATOM     66  N   UNL A   1      42.007  26.292  28.058  1.00  0.00    -0.248 NA
ATOM     67  C   UNL A   1      40.339  24.663  28.180  1.00  0.00     0.031 C 
ATOM     68  C   UNL A   1      41.479  30.508  29.347  1.00  0.00     0.029 A 
ATOM     69  C   UNL A   1      41.619  29.186  28.955  1.00  0.00     0.049 A 
ATOM     70  H   UNL A   1      43.328  28.187  28.226  1.00  0.00     0.167 HD
ATOM     71  C   UNL A   1      40.844  26.866  28.559  1.00  0.00     0.074 A 
ATOM     72  C   UNL A   1      39.841  25.823  28.586  1.00  0.00     0.031 C 
ATOM     73  C   UNL A   1      40.625  28.143  28.956  1.00  0.00     0.031 A 
BRANCH  60  74
ATOM     74  C   UNL A   1      45.602  31.779  28.602  1.00  0.00    -0.014 A 
ATOM     75  C   UNL A   1      45.516  32.806  27.648  1.00  0.00     0.009 A 
ATOM     76  C   UNL A   1      46.234  32.044  29.828  1.00  0.00     0.009 A 
ATOM     77  C   UNL A   1      46.078  34.059  27.905  1.00  0.00     0.001 A 
ATOM     78  C   UNL A   1      46.767  33.306  30.095  1.00  0.00     0.001 A 
ATOM     79  C   UNL A   1      46.697  34.310  29.130  1.00  0.00     0.000 A 
ENDBRANCH  60  74
BRANCH  61  80
ATOM     80  C   UNL A   1      42.044  22.579  27.035  1.00  0.00    -0.014 A 
ATOM     81  C   UNL A   1      42.333  21.566  27.961  1.00  0.00     0.009 A 
ATOM     82  C   UNL A   1      41.265  22.263  25.910  1.00  0.00     0.009 A 
ATOM     83  C   UNL A   1      41.879  20.261  27.751  1.00  0.00     0.001 A 
ATOM     84  C   UNL A   1      40.784  20.966  25.719  1.00  0.00     0.001 A 
ATOM     85  C   UNL A   1      41.102  19.963  26.633  1.00  0.00     0.000 A 
ENDBRANCH  61  80
BRANCH  73  86
ATOM     86  C   UNL A   1      39.233  28.518  29.385  1.00  0.00    -0.014 A 
ATOM     87  C   UNL A   1      38.800  28.362  30.710  1.00  0.00     0.009 A 
ATOM     88  C   UNL A   1      38.368  29.118  28.455  1.00  0.00     0.009 A 
ATOM     89  C   UNL A   1      37.521  28.779  31.087  1.00  0.00     0.001 A 
ATOM     90  C   UNL A   1      37.104  29.563  28.842  1.00  0.00     0.001 A 
ATOM     91  C   UNL A   1      36.679  29.387  30.156  1.00  0.00     0.000 A 
ENDBRANCH  73  86
ENDBRANCH  47  48
ENDBRANCH  40  42
ENDBRANCH  39  40
ENDBRANCH  38  39
ENDBRANCH  37  38
ENDBRANCH  36  37
ENDBRANCH  35  36
ENDBRANCH  34  35
ENDBRANCH  33  34
ENDBRANCH   1  33
TORSDOF 23
ENDMDL
