MODEL 1
REMARK VINA RESULT:     -10.6      0.000      0.000
REMARK SMILES O=C(OCCOCCOCCOCCOC(=O)c1cc(F)c(F)cc1NS(=O)(=O)c1ccc2c(c1)CCC2)c1ccc(-c2c3nc(c(-c4ccccc4)c4ccc([nH]4)c(-c4ccccc4)c4nc(c(-c5ccccc5)c5ccc2[nH]5)C=C4)C=C3)cc1
REMARK SMILES IDX 10 1 9 2 8 3 7 4 6 5 5 6 4 7 3 8 2 9 1 10 39 11 40 12 86 13
REMARK SMILES IDX 41 14 85 15 42 16 43 17 44 18 79 19 45 20 84 21 78 22 80 23
REMARK SMILES IDX 46 24 83 25 77 26 76 27 47 29 69 30 54 31 68 32 55 33 58 34
REMARK SMILES IDX 67 35 81 36 56 37 57 38 66 40 82 41 59 42 48 43 49 44 53 45
REMARK SMILES IDX 50 46 52 47 51 48 70 49 71 50 75 51 72 52 74 53 73 54 60 55
REMARK SMILES IDX 61 56 65 57 62 58 64 59 63 60 11 61 12 62 13 63 14 64 15 65
REMARK SMILES IDX 16 66 17 67 18 68 19 69 25 70 20 71 24 72 21 73 22 74 23 75
REMARK SMILES IDX 26 76 27 78 28 79 29 80 30 81 31 82 35 83 32 84 34 85 33 86
REMARK SMILES IDX 36 87 38 88 37 89
REMARK H PARENT 80 28 58 39 26 77
REMARK Flexibility Score: inf
ROOT
ATOM      1  C   UNL A   1      35.464  31.306  28.382  1.00  0.00     0.188 C 
ENDROOT
BRANCH   1   2
ATOM      2  O   UNL A   1      35.115  32.472  27.640  1.00  0.00    -0.377 OA
BRANCH   2   3
ATOM      3  C   UNL A   1      34.562  33.553  28.388  1.00  0.00     0.188 C 
BRANCH   3   4
ATOM      4  C   UNL A   1      34.464  33.282  29.886  1.00  0.00     0.188 C 
BRANCH   4   5
ATOM      5  O   UNL A   1      34.369  34.521  30.597  1.00  0.00    -0.376 OA
BRANCH   5   6
ATOM      6  C   UNL A   1      34.185  34.393  32.007  1.00  0.00     0.202 C 
BRANCH   6   7
ATOM      7  C   UNL A   1      35.492  34.152  32.763  1.00  0.00     0.261 C 
BRANCH   7   8
ATOM      8  O   UNL A   1      35.618  32.787  33.192  1.00  0.00    -0.460 OA
BRANCH   8   9
ATOM      9  C   UNL A   1      36.732  32.149  33.632  1.00  0.00     0.338 C 
ATOM     10  O   UNL A   1      36.948  32.135  34.844  1.00  0.00    -0.246 OA
BRANCH   9  11
ATOM     11  C   UNL A   1      37.694  31.407  32.750  1.00  0.00     0.060 A 
ATOM     12  C   UNL A   1      38.677  30.510  33.173  1.00  0.00     0.016 A 
ATOM     13  C   UNL A   1      37.565  31.624  31.364  1.00  0.00     0.016 A 
ATOM     14  C   UNL A   1      39.573  29.936  32.280  1.00  0.00     0.010 A 
ATOM     15  C   UNL A   1      38.442  31.030  30.452  1.00  0.00     0.010 A 
ATOM     16  C   UNL A   1      39.483  30.224  30.922  1.00  0.00    -0.014 A 
BRANCH  16  17
ATOM     17  C   UNL A   1      40.624  29.852  30.068  1.00  0.00     0.031 A 
ATOM     18  C   UNL A   1      40.539  28.550  29.327  1.00  0.00     0.074 A 
ATOM     19  C   UNL A   1      41.612  30.734  29.836  1.00  0.00     0.049 A 
ATOM     20  N   UNL A   1      41.397  28.002  28.509  1.00  0.00    -0.248 NA
ATOM     21  C   UNL A   1      39.303  27.769  29.517  1.00  0.00     0.031 C 
ATOM     22  C   UNL A   1      41.690  32.084  30.396  1.00  0.00     0.029 A 
ATOM     23  N   UNL A   1      42.714  30.638  29.030  1.00  0.00    -0.354 N 
ATOM     24  C   UNL A   1      40.818  26.803  28.114  1.00  0.00     0.074 A 
ATOM     25  C   UNL A   1      39.540  26.699  28.779  1.00  0.00     0.031 C 
ATOM     26  C   UNL A   1      42.767  32.705  29.889  1.00  0.00     0.029 A 
ATOM     27  C   UNL A   1      43.485  31.775  29.022  1.00  0.00     0.049 A 
ATOM     28  H   UNL A   1      42.934  29.834  28.507  1.00  0.00     0.167 HD
ATOM     29  C   UNL A   1      41.317  25.866  27.276  1.00  0.00     0.031 A 
ATOM     30  C   UNL A   1      44.652  32.015  28.396  1.00  0.00     0.031 A 
ATOM     31  C   UNL A   1      42.599  25.986  26.642  1.00  0.00     0.049 A 
ATOM     32  C   UNL A   1      45.246  30.909  27.565  1.00  0.00     0.074 A 
ATOM     33  C   UNL A   1      43.263  25.076  25.843  1.00  0.00     0.029 A 
ATOM     34  N   UNL A   1      43.411  27.109  26.742  1.00  0.00    -0.354 N 
ATOM     35  N   UNL A   1      44.737  29.737  27.264  1.00  0.00    -0.248 NA
ATOM     36  C   UNL A   1      46.579  31.151  27.002  1.00  0.00     0.031 C 
ATOM     37  C   UNL A   1      44.501  25.633  25.497  1.00  0.00     0.029 A 
ATOM     38  C   UNL A   1      44.581  26.909  26.036  1.00  0.00     0.049 A 
ATOM     39  H   UNL A   1      43.186  27.925  27.243  1.00  0.00     0.167 HD
ATOM     40  C   UNL A   1      45.680  29.105  26.465  1.00  0.00     0.074 A 
ATOM     41  C   UNL A   1      46.782  30.037  26.312  1.00  0.00     0.031 C 
ATOM     42  C   UNL A   1      45.649  27.868  25.912  1.00  0.00     0.031 A 
BRANCH  29  43
ATOM     43  C   UNL A   1      40.505  24.615  27.103  1.00  0.00    -0.014 A 
ATOM     44  C   UNL A   1      41.004  23.354  27.466  1.00  0.00     0.009 A 
ATOM     45  C   UNL A   1      39.241  24.696  26.496  1.00  0.00     0.009 A 
ATOM     46  C   UNL A   1      40.275  22.196  27.180  1.00  0.00     0.001 A 
ATOM     47  C   UNL A   1      38.504  23.540  26.235  1.00  0.00     0.001 A 
ATOM     48  C   UNL A   1      39.027  22.291  26.564  1.00  0.00     0.000 A 
ENDBRANCH  29  43
BRANCH  30  49
ATOM     49  C   UNL A   1      45.354  33.314  28.576  1.00  0.00    -0.014 A 
ATOM     50  C   UNL A   1      46.183  33.541  29.685  1.00  0.00     0.009 A 
ATOM     51  C   UNL A   1      45.186  34.348  27.640  1.00  0.00     0.009 A 
ATOM     52  C   UNL A   1      46.809  34.780  29.862  1.00  0.00     0.001 A 
ATOM     53  C   UNL A   1      45.836  35.573  27.802  1.00  0.00     0.001 A 
ATOM     54  C   UNL A   1      46.639  35.792  28.918  1.00  0.00     0.000 A 
ENDBRANCH  30  49
BRANCH  42  55
ATOM     55  C   UNL A   1      46.827  27.477  25.069  1.00  0.00    -0.014 A 
ATOM     56  C   UNL A   1      46.937  27.902  23.737  1.00  0.00     0.009 A 
ATOM     57  C   UNL A   1      47.858  26.714  25.635  1.00  0.00     0.009 A 
ATOM     58  C   UNL A   1      48.050  27.541  22.976  1.00  0.00     0.001 A 
ATOM     59  C   UNL A   1      48.981  26.378  24.881  1.00  0.00     0.001 A 
ATOM     60  C   UNL A   1      49.071  26.785  23.550  1.00  0.00     0.000 A 
ENDBRANCH  42  55
ENDBRANCH  16  17
ENDBRANCH   9  11
ENDBRANCH   8   9
ENDBRANCH   7   8
ENDBRANCH   6   7
ENDBRANCH   5   6
ENDBRANCH   4   5
ENDBRANCH   3   4
ENDBRANCH   2   3
ENDBRANCH   1   2
BRANCH   1  61
ATOM     61  C   UNL A   1      36.121  30.142  27.615  1.00  0.00     0.188 C 
BRANCH  61  62
ATOM     62  O   UNL A   1      35.191  29.411  26.827  1.00  0.00    -0.376 OA
BRANCH  62  63
ATOM     63  C   UNL A   1      33.924  29.174  27.418  1.00  0.00     0.202 C 
BRANCH  63  64
ATOM     64  C   UNL A   1      33.142  27.974  26.874  1.00  0.00     0.261 C 
BRANCH  64  65
ATOM     65  O   UNL A   1      32.563  28.103  25.565  1.00  0.00    -0.460 OA
BRANCH  65  66
ATOM     66  C   UNL A   1      32.751  27.156  24.614  1.00  0.00     0.340 C 
ATOM     67  O   UNL A   1      33.448  27.208  23.633  1.00  0.00    -0.246 OA
BRANCH  66  68
ATOM     68  C   UNL A   1      32.052  25.946  25.129  1.00  0.00     0.087 A 
ATOM     69  C   UNL A   1      30.694  26.083  25.472  1.00  0.00     0.060 A 
ATOM     70  C   UNL A   1      32.774  24.777  25.459  1.00  0.00     0.066 A 
ATOM     71  C   UNL A   1      30.057  25.066  26.164  1.00  0.00     0.159 A 
ATOM     72  C   UNL A   1      32.111  23.802  26.217  1.00  0.00     0.070 A 
ATOM     73  F   UNL A   1      28.764  25.195  26.487  1.00  0.00    -0.204 F 
ATOM     74  C   UNL A   1      30.765  23.941  26.548  1.00  0.00     0.160 A 
ATOM     75  F   UNL A   1      30.162  22.965  27.241  1.00  0.00    -0.204 F 
BRANCH  70  76
ATOM     76  N   UNL A   1      34.112  24.588  24.971  1.00  0.00    -0.279 N 
ATOM     77  H   UNL A   1      34.834  25.032  25.470  1.00  0.00     0.180 HD
BRANCH  76  78
ATOM     78  S   UNL A   1      34.566  23.683  23.627  1.00  0.00     0.261 S 
ATOM     79  O   UNL A   1      34.158  24.430  22.460  1.00  0.00    -0.201 OA
ATOM     80  O   UNL A   1      35.947  23.288  23.825  1.00  0.00    -0.201 OA
BRANCH  78  81
ATOM     81  C   UNL A   1      33.559  22.213  23.690  1.00  0.00     0.088 A 
ATOM     82  C   UNL A   1      32.525  22.074  22.738  1.00  0.00     0.022 A 
ATOM     83  C   UNL A   1      34.000  21.125  24.453  1.00  0.00     0.026 A 
ATOM     84  C   UNL A   1      31.982  20.815  22.473  1.00  0.00     0.005 A 
ATOM     85  C   UNL A   1      33.504  19.877  24.120  1.00  0.00    -0.043 A 
ATOM     86  C   UNL A   1      32.522  19.723  23.132  1.00  0.00    -0.045 A 
ATOM     87  C   UNL A   1      33.958  18.545  24.631  1.00  0.00     0.036 C 
ATOM     88  C   UNL A   1      32.230  18.270  22.903  1.00  0.00     0.036 C 
ATOM     89  C   UNL A   1      33.500  17.631  23.485  1.00  0.00     0.010 C 
ENDBRANCH  78  81
ENDBRANCH  76  78
ENDBRANCH  70  76
ENDBRANCH  66  68
ENDBRANCH  65  66
ENDBRANCH  64  65
ENDBRANCH  63  64
ENDBRANCH  62  63
ENDBRANCH  61  62
ENDBRANCH   1  61
TORSDOF 23
ENDMDL
MODEL 2
REMARK VINA RESULT:     -10.1      4.374     10.437
REMARK SMILES O=C(OCCOCCOCCOCCOC(=O)c1cc(F)c(F)cc1NS(=O)(=O)c1ccc2c(c1)CCC2)c1ccc(-c2c3nc(c(-c4ccccc4)c4ccc([nH]4)c(-c4ccccc4)c4nc(c(-c5ccccc5)c5ccc2[nH]5)C=C4)C=C3)cc1
REMARK SMILES IDX 10 1 9 2 8 3 7 4 6 5 5 6 4 7 3 8 2 9 1 10 39 11 40 12 86 13
REMARK SMILES IDX 41 14 85 15 42 16 43 17 44 18 79 19 45 20 84 21 78 22 80 23
REMARK SMILES IDX 46 24 83 25 77 26 76 27 47 29 69 30 54 31 68 32 55 33 58 34
REMARK SMILES IDX 67 35 81 36 56 37 57 38 66 40 82 41 59 42 48 43 49 44 53 45
REMARK SMILES IDX 50 46 52 47 51 48 70 49 71 50 75 51 72 52 74 53 73 54 60 55
REMARK SMILES IDX 61 56 65 57 62 58 64 59 63 60 11 61 12 62 13 63 14 64 15 65
REMARK SMILES IDX 16 66 17 67 18 68 19 69 25 70 20 71 24 72 21 73 22 74 23 75
REMARK SMILES IDX 26 76 27 78 28 79 29 80 30 81 31 82 35 83 32 84 34 85 33 86
REMARK SMILES IDX 36 87 38 88 37 89
REMARK H PARENT 80 28 58 39 26 77
REMARK Flexibility Score: inf
ROOT
ATOM      1  C   UNL A   1      40.831  19.589  26.016  1.00  0.00     0.188 C 
ENDROOT
BRANCH   1   2
ATOM      2  O   UNL A   1      41.806  18.573  25.796  1.00  0.00    -0.377 OA
BRANCH   2   3
ATOM      3  C   UNL A   1      43.147  18.896  26.161  1.00  0.00     0.188 C 
BRANCH   3   4
ATOM      4  C   UNL A   1      44.122  18.906  24.987  1.00  0.00     0.188 C 
BRANCH   4   5
ATOM      5  O   UNL A   1      45.122  19.910  25.197  1.00  0.00    -0.376 OA
BRANCH   5   6
ATOM      6  C   UNL A   1      44.623  21.243  25.309  1.00  0.00     0.202 C 
BRANCH   6   7
ATOM      7  C   UNL A   1      45.728  22.283  25.492  1.00  0.00     0.261 C 
BRANCH   7   8
ATOM      8  O   UNL A   1      45.274  23.608  25.175  1.00  0.00    -0.460 OA
BRANCH   8   9
ATOM      9  C   UNL A   1      44.058  24.157  25.425  1.00  0.00     0.338 C 
ATOM     10  O   UNL A   1      43.190  24.051  24.559  1.00  0.00    -0.246 OA
BRANCH   9  11
ATOM     11  C   UNL A   1      43.676  24.837  26.707  1.00  0.00     0.060 A 
ATOM     12  C   UNL A   1      42.842  24.318  27.700  1.00  0.00     0.016 A 
ATOM     13  C   UNL A   1      44.240  26.108  26.932  1.00  0.00     0.016 A 
ATOM     14  C   UNL A   1      42.485  25.065  28.816  1.00  0.00     0.010 A 
ATOM     15  C   UNL A   1      43.912  26.858  28.065  1.00  0.00     0.010 A 
ATOM     16  C   UNL A   1      42.988  26.351  28.982  1.00  0.00    -0.014 A 
BRANCH  16  17
ATOM     17  C   UNL A   1      42.348  27.207  29.995  1.00  0.00     0.031 A 
ATOM     18  C   UNL A   1      43.105  27.461  31.266  1.00  0.00     0.074 A 
ATOM     19  C   UNL A   1      41.214  27.869  29.706  1.00  0.00     0.049 A 
ATOM     20  N   UNL A   1      42.771  28.181  32.303  1.00  0.00    -0.248 NA
ATOM     21  C   UNL A   1      44.434  26.831  31.372  1.00  0.00     0.031 C 
ATOM     22  C   UNL A   1      40.497  27.800  28.431  1.00  0.00     0.029 A 
ATOM     23  N   UNL A   1      40.495  28.765  30.450  1.00  0.00    -0.354 N 
ATOM     24  C   UNL A   1      43.833  28.066  33.191  1.00  0.00     0.074 A 
ATOM     25  C   UNL A   1      44.820  27.209  32.578  1.00  0.00     0.031 C 
ATOM     26  C   UNL A   1      39.455  28.647  28.471  1.00  0.00     0.029 A 
ATOM     27  C   UNL A   1      39.399  29.266  29.792  1.00  0.00     0.049 A 
ATOM     28  H   UNL A   1      40.740  29.025  31.367  1.00  0.00     0.167 HD
ATOM     29  C   UNL A   1      43.965  28.622  34.417  1.00  0.00     0.031 A 
ATOM     30  C   UNL A   1      38.450  30.113  30.229  1.00  0.00     0.031 A 
ATOM     31  C   UNL A   1      42.960  29.457  35.011  1.00  0.00     0.049 A 
ATOM     32  C   UNL A   1      38.557  30.623  31.642  1.00  0.00     0.074 A 
ATOM     33  C   UNL A   1      42.924  30.010  36.276  1.00  0.00     0.029 A 
ATOM     34  N   UNL A   1      41.802  29.858  34.358  1.00  0.00    -0.354 N 
ATOM     35  N   UNL A   1      39.521  30.440  32.515  1.00  0.00    -0.248 NA
ATOM     36  C   UNL A   1      37.442  31.440  32.135  1.00  0.00     0.031 C 
ATOM     37  C   UNL A   1      41.719  30.712  36.403  1.00  0.00     0.029 A 
ATOM     38  C   UNL A   1      41.032  30.638  35.199  1.00  0.00     0.049 A 
ATOM     39  H   UNL A   1      41.564  29.622  33.433  1.00  0.00     0.167 HD
ATOM     40  C   UNL A   1      39.136  31.129  33.657  1.00  0.00     0.074 A 
ATOM     41  C   UNL A   1      37.861  31.752  33.353  1.00  0.00     0.031 C 
ATOM     42  C   UNL A   1      39.769  31.237  34.851  1.00  0.00     0.031 A 
BRANCH  29  43
ATOM     43  C   UNL A   1      45.190  28.246  35.199  1.00  0.00    -0.014 A 
ATOM     44  C   UNL A   1      46.448  28.804  34.915  1.00  0.00     0.009 A 
ATOM     45  C   UNL A   1      45.095  27.258  36.192  1.00  0.00     0.009 A 
ATOM     46  C   UNL A   1      47.590  28.344  35.577  1.00  0.00     0.001 A 
ATOM     47  C   UNL A   1      46.234  26.819  36.869  1.00  0.00     0.001 A 
ATOM     48  C   UNL A   1      47.482  27.352  36.551  1.00  0.00     0.000 A 
ENDBRANCH  29  43
BRANCH  30  49
ATOM     49  C   UNL A   1      37.302  30.482  29.356  1.00  0.00    -0.014 A 
ATOM     50  C   UNL A   1      36.210  29.616  29.194  1.00  0.00     0.009 A 
ATOM     51  C   UNL A   1      37.301  31.703  28.662  1.00  0.00     0.009 A 
ATOM     52  C   UNL A   1      35.154  29.958  28.343  1.00  0.00     0.001 A 
ATOM     53  C   UNL A   1      36.232  32.056  27.836  1.00  0.00     0.001 A 
ATOM     54  C   UNL A   1      35.163  31.178  27.669  1.00  0.00     0.000 A 
ENDBRANCH  30  49
BRANCH  42  55
ATOM     55  C   UNL A   1      39.100  32.083  35.894  1.00  0.00    -0.014 A 
ATOM     56  C   UNL A   1      38.300  31.505  36.891  1.00  0.00     0.009 A 
ATOM     57  C   UNL A   1      39.316  33.468  35.901  1.00  0.00     0.009 A 
ATOM     58  C   UNL A   1      37.702  32.310  37.862  1.00  0.00     0.001 A 
ATOM     59  C   UNL A   1      38.738  34.266  36.888  1.00  0.00     0.001 A 
ATOM     60  C   UNL A   1      37.926  33.686  37.862  1.00  0.00     0.000 A 
ENDBRANCH  42  55
ENDBRANCH  16  17
ENDBRANCH   9  11
ENDBRANCH   8   9
ENDBRANCH   7   8
ENDBRANCH   6   7
ENDBRANCH   5   6
ENDBRANCH   4   5
ENDBRANCH   3   4
ENDBRANCH   2   3
ENDBRANCH   1   2
BRANCH   1  61
ATOM     61  C   UNL A   1      41.238  20.793  26.887  1.00  0.00     0.188 C 
BRANCH  61  62
ATOM     62  O   UNL A   1      40.173  21.714  27.080  1.00  0.00    -0.376 OA
BRANCH  62  63
ATOM     63  C   UNL A   1      39.392  22.013  25.936  1.00  0.00     0.202 C 
BRANCH  63  64
ATOM     64  C   UNL A   1      37.876  21.854  26.094  1.00  0.00     0.261 C 
BRANCH  64  65
ATOM     65  O   UNL A   1      37.076  21.955  24.906  1.00  0.00    -0.460 OA
BRANCH  65  66
ATOM     66  C   UNL A   1      35.847  22.526  24.929  1.00  0.00     0.340 C 
ATOM     67  O   UNL A   1      35.542  23.658  24.658  1.00  0.00    -0.246 OA
BRANCH  66  68
ATOM     68  C   UNL A   1      34.903  21.402  25.184  1.00  0.00     0.087 A 
ATOM     69  C   UNL A   1      35.253  20.138  24.678  1.00  0.00     0.060 A 
ATOM     70  C   UNL A   1      33.618  21.643  25.722  1.00  0.00     0.066 A 
ATOM     71  C   UNL A   1      34.320  19.114  24.683  1.00  0.00     0.159 A 
ATOM     72  C   UNL A   1      32.683  20.601  25.647  1.00  0.00     0.070 A 
ATOM     73  F   UNL A   1      34.655  17.910  24.205  1.00  0.00    -0.204 F 
ATOM     74  C   UNL A   1      33.039  19.349  25.149  1.00  0.00     0.160 A 
ATOM     75  F   UNL A   1      32.122  18.371  25.134  1.00  0.00    -0.204 F 
BRANCH  70  76
ATOM     76  N   UNL A   1      33.325  22.890  26.372  1.00  0.00    -0.279 N 
ATOM     77  H   UNL A   1      33.954  23.188  27.067  1.00  0.00     0.180 HD
BRANCH  76  78
ATOM     78  S   UNL A   1      32.008  23.891  26.061  1.00  0.00     0.261 S 
ATOM     79  O   UNL A   1      31.505  23.531  24.756  1.00  0.00    -0.201 OA
ATOM     80  O   UNL A   1      31.157  23.851  27.234  1.00  0.00    -0.201 OA
BRANCH  78  81
ATOM     81  C   UNL A   1      32.687  25.534  25.930  1.00  0.00     0.088 A 
ATOM     82  C   UNL A   1      33.364  25.880  24.740  1.00  0.00     0.022 A 
ATOM     83  C   UNL A   1      32.278  26.509  26.847  1.00  0.00     0.026 A 
ATOM     84  C   UNL A   1      33.556  27.223  24.409  1.00  0.00     0.005 A 
ATOM     85  C   UNL A   1      32.409  27.832  26.463  1.00  0.00    -0.043 A 
ATOM     86  C   UNL A   1      33.024  28.183  25.254  1.00  0.00    -0.045 A 
ATOM     87  C   UNL A   1      31.868  29.044  27.156  1.00  0.00     0.036 C 
ATOM     88  C   UNL A   1      32.953  29.664  25.038  1.00  0.00     0.036 C 
ATOM     89  C   UNL A   1      31.799  30.033  25.984  1.00  0.00     0.010 C 
ENDBRANCH  78  81
ENDBRANCH  76  78
ENDBRANCH  70  76
ENDBRANCH  66  68
ENDBRANCH  65  66
ENDBRANCH  64  65
ENDBRANCH  63  64
ENDBRANCH  62  63
ENDBRANCH  61  62
ENDBRANCH   1  61
TORSDOF 23
ENDMDL
MODEL 3
REMARK VINA RESULT:      -9.8      2.169      2.742
REMARK SMILES O=C(OCCOCCOCCOCCOC(=O)c1cc(F)c(F)cc1NS(=O)(=O)c1ccc2c(c1)CCC2)c1ccc(-c2c3nc(c(-c4ccccc4)c4ccc([nH]4)c(-c4ccccc4)c4nc(c(-c5ccccc5)c5ccc2[nH]5)C=C4)C=C3)cc1
REMARK SMILES IDX 10 1 9 2 8 3 7 4 6 5 5 6 4 7 3 8 2 9 1 10 39 11 40 12 86 13
REMARK SMILES IDX 41 14 85 15 42 16 43 17 44 18 79 19 45 20 84 21 78 22 80 23
REMARK SMILES IDX 46 24 83 25 77 26 76 27 47 29 69 30 54 31 68 32 55 33 58 34
REMARK SMILES IDX 67 35 81 36 56 37 57 38 66 40 82 41 59 42 48 43 49 44 53 45
REMARK SMILES IDX 50 46 52 47 51 48 70 49 71 50 75 51 72 52 74 53 73 54 60 55
REMARK SMILES IDX 61 56 65 57 62 58 64 59 63 60 11 61 12 62 13 63 14 64 15 65
REMARK SMILES IDX 16 66 17 67 18 68 19 69 25 70 20 71 24 72 21 73 22 74 23 75
REMARK SMILES IDX 26 76 27 78 28 79 29 80 30 81 31 82 35 83 32 84 34 85 33 86
REMARK SMILES IDX 36 87 38 88 37 89
REMARK H PARENT 80 28 58 39 26 77
REMARK Flexibility Score: inf
ROOT
ATOM      1  C   UNL A   1      35.535  30.895  28.601  1.00  0.00     0.188 C 
ENDROOT
BRANCH   1   2
ATOM      2  O   UNL A   1      35.080  31.916  27.716  1.00  0.00    -0.377 OA
BRANCH   2   3
ATOM      3  C   UNL A   1      34.546  33.088  28.328  1.00  0.00     0.188 C 
BRANCH   3   4
ATOM      4  C   UNL A   1      34.567  33.054  29.854  1.00  0.00     0.188 C 
BRANCH   4   5
ATOM      5  O   UNL A   1      34.447  34.384  30.370  1.00  0.00    -0.376 OA
BRANCH   5   6
ATOM      6  C   UNL A   1      34.233  34.466  31.779  1.00  0.00     0.202 C 
BRANCH   6   7
ATOM      7  C   UNL A   1      35.519  34.310  32.591  1.00  0.00     0.261 C 
BRANCH   7   8
ATOM      8  O   UNL A   1      35.553  33.064  33.304  1.00  0.00    -0.460 OA
BRANCH   8   9
ATOM      9  C   UNL A   1      36.642  32.377  33.736  1.00  0.00     0.338 C 
ATOM     10  O   UNL A   1      36.838  32.313  34.949  1.00  0.00    -0.246 OA
BRANCH   9  11
ATOM     11  C   UNL A   1      37.596  31.641  32.842  1.00  0.00     0.060 A 
ATOM     12  C   UNL A   1      38.518  30.671  33.239  1.00  0.00     0.016 A 
ATOM     13  C   UNL A   1      37.526  31.947  31.468  1.00  0.00     0.016 A 
ATOM     14  C   UNL A   1      39.415  30.106  32.341  1.00  0.00     0.010 A 
ATOM     15  C   UNL A   1      38.404  31.364  30.549  1.00  0.00     0.010 A 
ATOM     16  C   UNL A   1      39.387  30.480  31.001  1.00  0.00    -0.014 A 
BRANCH  16  17
ATOM     17  C   UNL A   1      40.537  30.101  30.163  1.00  0.00     0.031 A 
ATOM     18  C   UNL A   1      40.480  28.774  29.466  1.00  0.00     0.074 A 
ATOM     19  C   UNL A   1      41.509  30.993  29.903  1.00  0.00     0.049 A 
ATOM     20  N   UNL A   1      41.350  28.215  28.670  1.00  0.00    -0.248 NA
ATOM     21  C   UNL A   1      39.259  27.975  29.681  1.00  0.00     0.031 C 
ATOM     22  C   UNL A   1      41.558  32.363  30.417  1.00  0.00     0.029 A 
ATOM     23  N   UNL A   1      42.614  30.892  29.103  1.00  0.00    -0.354 N 
ATOM     24  C   UNL A   1      40.796  26.991  28.315  1.00  0.00     0.074 A 
ATOM     25  C   UNL A   1      39.518  26.885  28.980  1.00  0.00     0.031 C 
ATOM     26  C   UNL A   1      42.625  32.987  29.891  1.00  0.00     0.029 A 
ATOM     27  C   UNL A   1      43.363  32.043  29.058  1.00  0.00     0.049 A 
ATOM     28  H   UNL A   1      42.851  30.075  28.609  1.00  0.00     0.167 HD
ATOM     29  C   UNL A   1      41.316  26.037  27.510  1.00  0.00     0.031 A 
ATOM     30  C   UNL A   1      44.527  32.284  28.427  1.00  0.00     0.031 A 
ATOM     31  C   UNL A   1      42.596  26.160  26.874  1.00  0.00     0.049 A 
ATOM     32  C   UNL A   1      45.144  31.163  27.635  1.00  0.00     0.074 A 
ATOM     33  C   UNL A   1      43.281  25.236  26.109  1.00  0.00     0.029 A 
ATOM     34  N   UNL A   1      43.386  27.301  26.938  1.00  0.00    -0.354 N 
ATOM     35  N   UNL A   1      44.659  29.971  27.373  1.00  0.00    -0.248 NA
ATOM     36  C   UNL A   1      46.474  31.411  27.066  1.00  0.00     0.031 C 
ATOM     37  C   UNL A   1      44.508  25.805  25.746  1.00  0.00     0.029 A 
ATOM     38  C   UNL A   1      44.562  27.100  26.242  1.00  0.00     0.049 A 
ATOM     39  H   UNL A   1      43.144  28.130  27.410  1.00  0.00     0.167 HD
ATOM     40  C   UNL A   1      45.616  29.331  26.598  1.00  0.00     0.074 A 
ATOM     41  C   UNL A   1      46.700  30.279  26.416  1.00  0.00     0.031 C 
ATOM     42  C   UNL A   1      45.612  28.075  26.087  1.00  0.00     0.031 A 
BRANCH  29  43
ATOM     43  C   UNL A   1      40.528  24.765  27.378  1.00  0.00    -0.014 A 
ATOM     44  C   UNL A   1      41.003  23.546  27.888  1.00  0.00     0.009 A 
ATOM     45  C   UNL A   1      39.320  24.777  26.663  1.00  0.00     0.009 A 
ATOM     46  C   UNL A   1      40.307  22.358  27.643  1.00  0.00     0.001 A 
ATOM     47  C   UNL A   1      38.614  23.594  26.442  1.00  0.00     0.001 A 
ATOM     48  C   UNL A   1      39.115  22.384  26.920  1.00  0.00     0.000 A 
ENDBRANCH  29  43
BRANCH  30  49
ATOM     49  C   UNL A   1      45.203  33.602  28.564  1.00  0.00    -0.014 A 
ATOM     50  C   UNL A   1      44.950  34.642  27.657  1.00  0.00     0.009 A 
ATOM     51  C   UNL A   1      46.125  33.824  29.600  1.00  0.00     0.009 A 
ATOM     52  C   UNL A   1      45.618  35.865  27.774  1.00  0.00     0.001 A 
ATOM     53  C   UNL A   1      46.770  35.055  29.734  1.00  0.00     0.001 A 
ATOM     54  C   UNL A   1      46.523  36.073  28.815  1.00  0.00     0.000 A 
ENDBRANCH  30  49
BRANCH  42  55
ATOM     55  C   UNL A   1      46.799  27.679  25.261  1.00  0.00    -0.014 A 
ATOM     56  C   UNL A   1      46.802  27.851  23.869  1.00  0.00     0.009 A 
ATOM     57  C   UNL A   1      47.943  27.173  25.894  1.00  0.00     0.009 A 
ATOM     58  C   UNL A   1      47.924  27.492  23.121  1.00  0.00     0.001 A 
ATOM     59  C   UNL A   1      49.072  26.840  25.147  1.00  0.00     0.001 A 
ATOM     60  C   UNL A   1      49.058  26.992  23.761  1.00  0.00     0.000 A 
ENDBRANCH  42  55
ENDBRANCH  16  17
ENDBRANCH   9  11
ENDBRANCH   8   9
ENDBRANCH   7   8
ENDBRANCH   6   7
ENDBRANCH   5   6
ENDBRANCH   4   5
ENDBRANCH   3   4
ENDBRANCH   2   3
ENDBRANCH   1   2
BRANCH   1  61
ATOM     61  C   UNL A   1      36.101  29.606  27.974  1.00  0.00     0.188 C 
BRANCH  61  62
ATOM     62  O   UNL A   1      35.225  29.035  27.012  1.00  0.00    -0.376 OA
BRANCH  62  63
ATOM     63  C   UNL A   1      33.969  28.592  27.497  1.00  0.00     0.202 C 
BRANCH  63  64
ATOM     64  C   UNL A   1      32.798  28.676  26.511  1.00  0.00     0.261 C 
BRANCH  64  65
ATOM     65  O   UNL A   1      32.868  29.686  25.492  1.00  0.00    -0.460 OA
BRANCH  65  66
ATOM     66  C   UNL A   1      33.055  29.362  24.188  1.00  0.00     0.340 C 
ATOM     67  O   UNL A   1      34.057  28.969  23.651  1.00  0.00    -0.246 OA
BRANCH  66  68
ATOM     68  C   UNL A   1      31.697  29.414  23.579  1.00  0.00     0.087 A 
ATOM     69  C   UNL A   1      30.786  30.344  24.112  1.00  0.00     0.060 A 
ATOM     70  C   UNL A   1      31.279  28.430  22.655  1.00  0.00     0.066 A 
ATOM     71  C   UNL A   1      29.452  30.284  23.745  1.00  0.00     0.159 A 
ATOM     72  C   UNL A   1      29.910  28.361  22.362  1.00  0.00     0.070 A 
ATOM     73  F   UNL A   1      28.586  31.171  24.250  1.00  0.00    -0.204 F 
ATOM     74  C   UNL A   1      29.014  29.289  22.890  1.00  0.00     0.160 A 
ATOM     75  F   UNL A   1      27.719  29.208  22.551  1.00  0.00    -0.204 F 
BRANCH  70  76
ATOM     76  N   UNL A   1      32.244  27.587  22.005  1.00  0.00    -0.279 N 
ATOM     77  H   UNL A   1      32.893  28.030  21.412  1.00  0.00     0.180 HD
BRANCH  76  78
ATOM     78  S   UNL A   1      32.372  25.916  22.157  1.00  0.00     0.261 S 
ATOM     79  O   UNL A   1      31.086  25.363  21.804  1.00  0.00    -0.201 OA
ATOM     80  O   UNL A   1      33.580  25.516  21.463  1.00  0.00    -0.201 OA
BRANCH  78  81
ATOM     81  C   UNL A   1      32.614  25.620  23.898  1.00  0.00     0.088 A 
ATOM     82  C   UNL A   1      31.479  25.330  24.687  1.00  0.00     0.022 A 
ATOM     83  C   UNL A   1      33.910  25.381  24.369  1.00  0.00     0.026 A 
ATOM     84  C   UNL A   1      31.629  24.706  25.927  1.00  0.00     0.005 A 
ATOM     85  C   UNL A   1      34.032  24.694  25.563  1.00  0.00    -0.043 A 
ATOM     86  C   UNL A   1      32.907  24.346  26.322  1.00  0.00    -0.045 A 
ATOM     87  C   UNL A   1      35.280  24.137  26.175  1.00  0.00     0.036 C 
ATOM     88  C   UNL A   1      33.308  23.531  27.515  1.00  0.00     0.036 C 
ATOM     89  C   UNL A   1      34.691  23.032  27.065  1.00  0.00     0.010 C 
ENDBRANCH  78  81
ENDBRANCH  76  78
ENDBRANCH  70  76
ENDBRANCH  66  68
ENDBRANCH  65  66
ENDBRANCH  64  65
ENDBRANCH  63  64
ENDBRANCH  62  63
ENDBRANCH  61  62
ENDBRANCH   1  61
TORSDOF 23
ENDMDL
