MODEL 1
REMARK VINA RESULT:     -10.0      0.000      0.000
REMARK SMILES COc1ccccc1[C@@H]1CN(C(=O)c2cc(C(C)C)nc(N)n2)C[C@H]1C(=O)OCCOCCOCCOCCOC(=O)c1ccc(-c2c3nc(c(-c4ccccc4)c4ccc([nH]4)c(-c4ccccc4)c4nc(c(-c5ccccc5)c5ccc2[nH]5)C=C4)C=C3)cc1
REMARK SMILES IDX 33 1 32 2 31 3 30 4 29 5 28 6 26 7 27 8 25 9 9 10 10 11
REMARK SMILES IDX 11 12 24 13 8 14 3 15 4 16 5 17 7 18 6 19 2 20 1 21 12 22
REMARK SMILES IDX 13 23 14 24 15 25 23 26 16 27 21 28 20 29 17 30 18 31 19 32
REMARK SMILES IDX 22 33 34 36 35 37 36 38 37 39 38 40 39 41 40 42 41 43 42 44
REMARK SMILES IDX 43 45 44 46 90 47 45 48 89 49 46 50 47 51 48 52 83 53 49 54
REMARK SMILES IDX 88 55 82 56 84 57 50 58 87 59 81 60 80 61 51 63 73 64 58 65
REMARK SMILES IDX 72 66 59 67 62 68 71 69 85 70 60 71 61 72 70 74 86 75 63 76
REMARK SMILES IDX 52 77 53 78 57 79 54 80 56 81 55 82 74 83 75 84 79 85 76 86
REMARK SMILES IDX 78 87 77 88 64 89 65 90 69 91 66 92 68 93 67 94
REMARK H PARENT 22 34 22 35 84 62 62 73
REMARK Flexibility Score: inf
ROOT
ATOM      1  C   UNL A   1      34.963  30.818  27.738  1.00  0.00     0.188 C 
ENDROOT
BRANCH   1   2
ATOM      2  C   UNL A   1      33.768  30.149  27.056  1.00  0.00     0.188 C 
BRANCH   2   3
ATOM      3  O   UNL A   1      33.938  28.927  26.368  1.00  0.00    -0.376 OA
BRANCH   3   4
ATOM      4  C   UNL A   1      33.207  27.770  26.741  1.00  0.00     0.202 C 
BRANCH   4   5
ATOM      5  C   UNL A   1      31.678  27.623  26.580  1.00  0.00     0.261 C 
BRANCH   5   6
ATOM      6  O   UNL A   1      31.024  26.513  27.241  1.00  0.00    -0.463 OA
BRANCH   6   7
ATOM      7  C   UNL A   1      31.226  25.310  26.669  1.00  0.00     0.311 C 
ATOM      8  O   UNL A   1      31.761  24.368  27.254  1.00  0.00    -0.252 OA
BRANCH   7   9
ATOM      9  C   UNL A   1      30.812  25.140  25.219  1.00  0.00     0.128 C 
ATOM     10  C   UNL A   1      31.282  25.924  23.956  1.00  0.00     0.058 C 
ATOM     11  C   UNL A   1      31.231  24.859  22.860  1.00  0.00     0.129 C 
ATOM     12  N   UNL A   1      31.593  23.642  23.547  1.00  0.00    -0.336 N 
ATOM     13  C   UNL A   1      31.138  23.677  24.915  1.00  0.00     0.136 C 
BRANCH  10  14
ATOM     14  C   UNL A   1      30.529  27.148  23.420  1.00  0.00    -0.000 A 
ATOM     15  C   UNL A   1      31.114  28.316  22.893  1.00  0.00     0.122 A 
ATOM     16  C   UNL A   1      30.320  29.325  22.322  1.00  0.00     0.047 A 
ATOM     17  C   UNL A   1      28.929  29.251  22.379  1.00  0.00     0.004 A 
ATOM     18  C   UNL A   1      29.119  27.143  23.539  1.00  0.00     0.008 A 
ATOM     19  C   UNL A   1      28.334  28.191  23.048  1.00  0.00     0.001 A 
BRANCH  15  20
ATOM     20  O   UNL A   1      32.386  28.681  23.255  1.00  0.00    -0.496 OA
ATOM     21  C   UNL A   1      33.435  28.210  22.426  1.00  0.00     0.278 C 
ENDBRANCH  15  20
ENDBRANCH  10  14
BRANCH  12  22
ATOM     22  C   UNL A   1      32.142  22.489  23.017  1.00  0.00     0.272 C 
ATOM     23  O   UNL A   1      31.758  21.988  21.963  1.00  0.00    -0.267 OA
BRANCH  22  24
ATOM     24  C   UNL A   1      33.216  21.831  23.795  1.00  0.00     0.134 A 
ATOM     25  C   UNL A   1      34.443  22.448  23.886  1.00  0.00     0.058 A 
ATOM     26  N   UNL A   1      32.924  20.618  24.294  1.00  0.00    -0.208 NA
ATOM     27  C   UNL A   1      35.431  21.703  24.481  1.00  0.00     0.049 A 
ATOM     28  C   UNL A   1      33.929  20.000  24.900  1.00  0.00     0.220 A 
ATOM     29  N   UNL A   1      35.175  20.481  24.999  1.00  0.00    -0.218 NA
BRANCH  27  30
ATOM     30  C   UNL A   1      36.866  22.185  24.527  1.00  0.00     0.032 C 
ATOM     31  C   UNL A   1      36.931  23.702  24.731  1.00  0.00     0.014 C 
ATOM     32  C   UNL A   1      37.678  21.458  25.601  1.00  0.00     0.014 C 
ENDBRANCH  27  30
BRANCH  28  33
ATOM     33  N   UNL A   1      33.662  18.787  25.459  1.00  0.00    -0.368 N 
ATOM     34  H   UNL A   1      34.090  17.976  25.103  1.00  0.00     0.159 HD
ATOM     35  H   UNL A   1      33.041  18.721  26.221  1.00  0.00     0.159 HD
ENDBRANCH  28  33
ENDBRANCH  22  24
ENDBRANCH  12  22
ENDBRANCH   7   9
ENDBRANCH   6   7
ENDBRANCH   5   6
ENDBRANCH   4   5
ENDBRANCH   3   4
ENDBRANCH   2   3
ENDBRANCH   1   2
BRANCH   1  36
ATOM     36  O   UNL A   1      35.055  32.225  27.656  1.00  0.00    -0.377 OA
BRANCH  36  37
ATOM     37  C   UNL A   1      34.275  33.016  28.536  1.00  0.00     0.188 C 
BRANCH  37  38
ATOM     38  C   UNL A   1      33.584  34.281  28.003  1.00  0.00     0.188 C 
BRANCH  38  39
ATOM     39  O   UNL A   1      33.938  35.471  28.689  1.00  0.00    -0.376 OA
BRANCH  39  40
ATOM     40  C   UNL A   1      32.906  36.265  29.258  1.00  0.00     0.202 C 
BRANCH  40  41
ATOM     41  C   UNL A   1      33.055  36.680  30.729  1.00  0.00     0.261 C 
BRANCH  41  42
ATOM     42  O   UNL A   1      34.072  36.023  31.498  1.00  0.00    -0.460 OA
BRANCH  42  43
ATOM     43  C   UNL A   1      33.753  34.880  32.135  1.00  0.00     0.338 C 
ATOM     44  O   UNL A   1      32.675  34.577  32.618  1.00  0.00    -0.246 OA
BRANCH  43  45
ATOM     45  C   UNL A   1      34.890  33.953  31.967  1.00  0.00     0.060 A 
ATOM     46  C   UNL A   1      34.843  32.707  32.603  1.00  0.00     0.016 A 
ATOM     47  C   UNL A   1      35.985  34.306  31.173  1.00  0.00     0.016 A 
ATOM     48  C   UNL A   1      35.915  31.825  32.486  1.00  0.00     0.010 A 
ATOM     49  C   UNL A   1      37.068  33.430  31.074  1.00  0.00     0.010 A 
ATOM     50  C   UNL A   1      37.053  32.205  31.764  1.00  0.00    -0.014 A 
BRANCH  50  51
ATOM     51  C   UNL A   1      38.304  31.428  31.922  1.00  0.00     0.031 A 
ATOM     52  C   UNL A   1      39.221  31.789  33.057  1.00  0.00     0.074 A 
ATOM     53  C   UNL A   1      38.602  30.401  31.106  1.00  0.00     0.049 A 
ATOM     54  N   UNL A   1      40.377  31.275  33.389  1.00  0.00    -0.248 NA
ATOM     55  C   UNL A   1      38.772  32.879  33.940  1.00  0.00     0.031 C 
ATOM     56  C   UNL A   1      37.768  29.924  30.004  1.00  0.00     0.029 A 
ATOM     57  N   UNL A   1      39.698  29.576  31.084  1.00  0.00    -0.354 N 
ATOM     58  C   UNL A   1      40.792  31.980  34.512  1.00  0.00     0.074 A 
ATOM     59  C   UNL A   1      39.786  32.982  34.783  1.00  0.00     0.031 C 
ATOM     60  C   UNL A   1      38.390  28.893  29.405  1.00  0.00     0.029 A 
ATOM     61  C   UNL A   1      39.676  28.661  30.060  1.00  0.00     0.049 A 
ATOM     62  H   UNL A   1      40.429  29.634  31.740  1.00  0.00     0.167 HD
ATOM     63  C   UNL A   1      41.906  31.802  35.260  1.00  0.00     0.031 A 
ATOM     64  C   UNL A   1      40.603  27.759  29.683  1.00  0.00     0.031 A 
ATOM     65  C   UNL A   1      42.917  30.821  34.974  1.00  0.00     0.049 A 
ATOM     66  C   UNL A   1      41.881  27.643  30.475  1.00  0.00     0.074 A 
ATOM     67  C   UNL A   1      44.086  30.561  35.665  1.00  0.00     0.029 A 
ATOM     68  N   UNL A   1      42.879  29.943  33.902  1.00  0.00    -0.354 N 
ATOM     69  N   UNL A   1      42.253  28.300  31.547  1.00  0.00    -0.248 NA
ATOM     70  C   UNL A   1      42.860  26.650  30.010  1.00  0.00     0.031 C 
ATOM     71  C   UNL A   1      44.788  29.568  34.974  1.00  0.00     0.029 A 
ATOM     72  C   UNL A   1      44.020  29.158  33.895  1.00  0.00     0.049 A 
ATOM     73  H   UNL A   1      42.150  29.886  33.243  1.00  0.00     0.167 HD
ATOM     74  C   UNL A   1      43.494  27.781  31.901  1.00  0.00     0.074 A 
ATOM     75  C   UNL A   1      43.801  26.742  30.940  1.00  0.00     0.031 C 
ATOM     76  C   UNL A   1      44.307  28.129  32.930  1.00  0.00     0.031 A 
BRANCH  63  77
ATOM     77  C   UNL A   1      42.102  32.720  36.435  1.00  0.00    -0.014 A 
ATOM     78  C   UNL A   1      41.573  32.412  37.700  1.00  0.00     0.009 A 
ATOM     79  C   UNL A   1      42.844  33.901  36.280  1.00  0.00     0.009 A 
ATOM     80  C   UNL A   1      41.753  33.287  38.773  1.00  0.00     0.001 A 
ATOM     81  C   UNL A   1      43.050  34.757  37.363  1.00  0.00     0.001 A 
ATOM     82  C   UNL A   1      42.496  34.455  38.606  1.00  0.00     0.000 A 
ENDBRANCH  63  77
BRANCH  64  83
ATOM     83  C   UNL A   1      40.377  26.911  28.481  1.00  0.00    -0.014 A 
ATOM     84  C   UNL A   1      39.593  25.750  28.552  1.00  0.00     0.009 A 
ATOM     85  C   UNL A   1      40.971  27.251  27.255  1.00  0.00     0.009 A 
ATOM     86  C   UNL A   1      39.435  24.932  27.429  1.00  0.00     0.001 A 
ATOM     87  C   UNL A   1      40.784  26.451  26.126  1.00  0.00     0.001 A 
ATOM     88  C   UNL A   1      40.025  25.286  26.217  1.00  0.00     0.000 A 
ENDBRANCH  64  83
BRANCH  76  89
ATOM     89  C   UNL A   1      45.585  27.353  33.096  1.00  0.00    -0.014 A 
ATOM     90  C   UNL A   1      46.801  27.817  32.572  1.00  0.00     0.009 A 
ATOM     91  C   UNL A   1      45.577  26.158  33.833  1.00  0.00     0.009 A 
ATOM     92  C   UNL A   1      47.974  27.082  32.752  1.00  0.00     0.001 A 
ATOM     93  C   UNL A   1      46.757  25.442  34.040  1.00  0.00     0.001 A 
ATOM     94  C   UNL A   1      47.952  25.899  33.489  1.00  0.00     0.000 A 
ENDBRANCH  76  89
ENDBRANCH  50  51
ENDBRANCH  43  45
ENDBRANCH  42  43
ENDBRANCH  41  42
ENDBRANCH  40  41
ENDBRANCH  39  40
ENDBRANCH  38  39
ENDBRANCH  37  38
ENDBRANCH  36  37
ENDBRANCH   1  36
TORSDOF 26
ENDMDL
MODEL 2
REMARK VINA RESULT:      -9.0      3.737      4.765
REMARK SMILES COc1ccccc1[C@@H]1CN(C(=O)c2cc(C(C)C)nc(N)n2)C[C@H]1C(=O)OCCOCCOCCOCCOC(=O)c1ccc(-c2c3nc(c(-c4ccccc4)c4ccc([nH]4)c(-c4ccccc4)c4nc(c(-c5ccccc5)c5ccc2[nH]5)C=C4)C=C3)cc1
REMARK SMILES IDX 33 1 32 2 31 3 30 4 29 5 28 6 26 7 27 8 25 9 9 10 10 11
REMARK SMILES IDX 11 12 24 13 8 14 3 15 4 16 5 17 7 18 6 19 2 20 1 21 12 22
REMARK SMILES IDX 13 23 14 24 15 25 23 26 16 27 21 28 20 29 17 30 18 31 19 32
REMARK SMILES IDX 22 33 34 36 35 37 36 38 37 39 38 40 39 41 40 42 41 43 42 44
REMARK SMILES IDX 43 45 44 46 90 47 45 48 89 49 46 50 47 51 48 52 83 53 49 54
REMARK SMILES IDX 88 55 82 56 84 57 50 58 87 59 81 60 80 61 51 63 73 64 58 65
REMARK SMILES IDX 72 66 59 67 62 68 71 69 85 70 60 71 61 72 70 74 86 75 63 76
REMARK SMILES IDX 52 77 53 78 57 79 54 80 56 81 55 82 74 83 75 84 79 85 76 86
REMARK SMILES IDX 78 87 77 88 64 89 65 90 69 91 66 92 68 93 67 94
REMARK H PARENT 22 34 22 35 84 62 62 73
REMARK Flexibility Score: inf
ROOT
ATOM      1  C   UNL A   1      36.011  30.796  28.079  1.00  0.00     0.188 C 
ENDROOT
BRANCH   1   2
ATOM      2  C   UNL A   1      34.946  29.704  28.201  1.00  0.00     0.188 C 
BRANCH   2   3
ATOM      3  O   UNL A   1      34.835  28.709  27.205  1.00  0.00    -0.376 OA
BRANCH   3   4
ATOM      4  C   UNL A   1      34.165  28.971  25.982  1.00  0.00     0.202 C 
BRANCH   4   5
ATOM      5  C   UNL A   1      32.650  29.244  25.866  1.00  0.00     0.261 C 
BRANCH   5   6
ATOM      6  O   UNL A   1      31.734  28.259  26.399  1.00  0.00    -0.463 OA
BRANCH   6   7
ATOM      7  C   UNL A   1      32.005  26.984  26.058  1.00  0.00     0.311 C 
ATOM      8  O   UNL A   1      32.830  26.290  26.651  1.00  0.00    -0.252 OA
BRANCH   7   9
ATOM      9  C   UNL A   1      31.286  26.408  24.852  1.00  0.00     0.128 C 
ATOM     10  C   UNL A   1      30.777  27.127  23.566  1.00  0.00     0.058 C 
ATOM     11  C   UNL A   1      30.949  26.053  22.490  1.00  0.00     0.129 C 
ATOM     12  N   UNL A   1      32.131  25.337  22.906  1.00  0.00    -0.336 N 
ATOM     13  C   UNL A   1      32.235  25.323  24.344  1.00  0.00     0.136 C 
BRANCH  10  14
ATOM     14  C   UNL A   1      29.345  27.662  23.434  1.00  0.00    -0.000 A 
ATOM     15  C   UNL A   1      28.970  28.893  22.864  1.00  0.00     0.122 A 
ATOM     16  C   UNL A   1      27.615  29.225  22.690  1.00  0.00     0.047 A 
ATOM     17  C   UNL A   1      26.613  28.398  23.195  1.00  0.00     0.004 A 
ATOM     18  C   UNL A   1      28.310  26.888  24.009  1.00  0.00     0.008 A 
ATOM     19  C   UNL A   1      26.967  27.264  23.912  1.00  0.00     0.001 A 
BRANCH  15  20
ATOM     20  O   UNL A   1      29.856  29.940  22.821  1.00  0.00    -0.496 OA
ATOM     21  C   UNL A   1      30.085  30.620  24.045  1.00  0.00     0.278 C 
ENDBRANCH  15  20
ENDBRANCH  10  14
BRANCH  12  22
ATOM     22  C   UNL A   1      33.001  24.595  22.129  1.00  0.00     0.272 C 
ATOM     23  O   UNL A   1      33.109  24.745  20.916  1.00  0.00    -0.267 OA
BRANCH  22  24
ATOM     24  C   UNL A   1      33.799  23.554  22.816  1.00  0.00     0.134 A 
ATOM     25  C   UNL A   1      33.144  22.501  23.415  1.00  0.00     0.058 A 
ATOM     26  N   UNL A   1      35.125  23.767  22.869  1.00  0.00    -0.208 NA
ATOM     27  C   UNL A   1      33.935  21.672  24.170  1.00  0.00     0.049 A 
ATOM     28  C   UNL A   1      35.811  22.879  23.575  1.00  0.00     0.220 A 
ATOM     29  N   UNL A   1      35.273  21.851  24.244  1.00  0.00    -0.218 NA
BRANCH  27  30
ATOM     30  C   UNL A   1      33.342  20.556  25.005  1.00  0.00     0.032 C 
ATOM     31  C   UNL A   1      33.920  19.196  24.599  1.00  0.00     0.014 C 
ATOM     32  C   UNL A   1      33.531  20.801  26.503  1.00  0.00     0.014 C 
ENDBRANCH  27  30
BRANCH  28  33
ATOM     33  N   UNL A   1      37.164  23.034  23.616  1.00  0.00    -0.368 N 
ATOM     34  H   UNL A   1      37.624  23.538  22.907  1.00  0.00     0.159 HD
ATOM     35  H   UNL A   1      37.683  22.641  24.356  1.00  0.00     0.159 HD
ENDBRANCH  28  33
ENDBRANCH  22  24
ENDBRANCH  12  22
ENDBRANCH   7   9
ENDBRANCH   6   7
ENDBRANCH   5   6
ENDBRANCH   4   5
ENDBRANCH   3   4
ENDBRANCH   2   3
ENDBRANCH   1   2
BRANCH   1  36
ATOM     36  O   UNL A   1      35.671  31.957  27.351  1.00  0.00    -0.377 OA
BRANCH  36  37
ATOM     37  C   UNL A   1      35.663  33.208  28.019  1.00  0.00     0.188 C 
BRANCH  37  38
ATOM     38  C   UNL A   1      34.321  33.835  28.432  1.00  0.00     0.188 C 
BRANCH  38  39
ATOM     39  O   UNL A   1      34.441  34.945  29.306  1.00  0.00    -0.376 OA
BRANCH  39  40
ATOM     40  C   UNL A   1      33.699  34.944  30.518  1.00  0.00     0.202 C 
BRANCH  40  41
ATOM     41  C   UNL A   1      34.432  34.537  31.804  1.00  0.00     0.261 C 
BRANCH  41  42
ATOM     42  O   UNL A   1      35.776  34.054  31.669  1.00  0.00    -0.460 OA
BRANCH  42  43
ATOM     43  C   UNL A   1      36.126  32.942  32.342  1.00  0.00     0.338 C 
ATOM     44  O   UNL A   1      35.438  32.297  33.117  1.00  0.00    -0.246 OA
BRANCH  43  45
ATOM     45  C   UNL A   1      37.437  32.507  31.821  1.00  0.00     0.060 A 
ATOM     46  C   UNL A   1      37.883  33.029  30.601  1.00  0.00     0.016 A 
ATOM     47  C   UNL A   1      38.225  31.604  32.540  1.00  0.00     0.016 A 
ATOM     48  C   UNL A   1      39.103  32.613  30.072  1.00  0.00     0.010 A 
ATOM     49  C   UNL A   1      39.437  31.172  31.998  1.00  0.00     0.010 A 
ATOM     50  C   UNL A   1      39.859  31.644  30.743  1.00  0.00    -0.014 A 
BRANCH  50  51
ATOM     51  C   UNL A   1      40.963  30.963  30.028  1.00  0.00     0.031 A 
ATOM     52  C   UNL A   1      42.259  31.708  29.856  1.00  0.00     0.074 A 
ATOM     53  C   UNL A   1      40.837  29.704  29.576  1.00  0.00     0.049 A 
ATOM     54  N   UNL A   1      43.357  31.338  29.251  1.00  0.00    -0.248 NA
ATOM     55  C   UNL A   1      42.323  33.054  30.451  1.00  0.00     0.031 C 
ATOM     56  C   UNL A   1      39.650  28.863  29.727  1.00  0.00     0.029 A 
ATOM     57  N   UNL A   1      41.727  28.914  28.892  1.00  0.00    -0.354 N 
ATOM     58  C   UNL A   1      44.238  32.403  29.389  1.00  0.00     0.074 A 
ATOM     59  C   UNL A   1      43.536  33.449  30.099  1.00  0.00     0.031 C 
ATOM     60  C   UNL A   1      39.884  27.675  29.142  1.00  0.00     0.029 A 
ATOM     61  C   UNL A   1      41.220  27.685  28.549  1.00  0.00     0.049 A 
ATOM     62  H   UNL A   1      42.642  29.201  28.670  1.00  0.00     0.167 HD
ATOM     63  C   UNL A   1      45.521  32.501  28.972  1.00  0.00     0.031 A 
ATOM     64  C   UNL A   1      41.767  26.695  27.818  1.00  0.00     0.031 A 
ATOM     65  C   UNL A   1      46.210  31.469  28.244  1.00  0.00     0.049 A 
ATOM     66  C   UNL A   1      43.166  26.862  27.282  1.00  0.00     0.074 A 
ATOM     67  C   UNL A   1      47.509  31.468  27.770  1.00  0.00     0.029 A 
ATOM     68  N   UNL A   1      45.647  30.256  27.878  1.00  0.00    -0.354 N 
ATOM     69  N   UNL A   1      43.997  27.866  27.435  1.00  0.00    -0.248 NA
ATOM     70  C   UNL A   1      43.706  25.755  26.480  1.00  0.00     0.031 C 
ATOM     71  C   UNL A   1      47.713  30.280  27.062  1.00  0.00     0.029 A 
ATOM     72  C   UNL A   1      46.564  29.510  27.158  1.00  0.00     0.049 A 
ATOM     73  H   UNL A   1      44.731  29.969  28.096  1.00  0.00     0.167 HD
ATOM     74  C   UNL A   1      45.165  27.498  26.777  1.00  0.00     0.074 A 
ATOM     75  C   UNL A   1      44.941  26.172  26.239  1.00  0.00     0.031 C 
ATOM     76  C   UNL A   1      46.322  28.192  26.631  1.00  0.00     0.031 A 
BRANCH  63  77
ATOM     77  C   UNL A   1      46.246  33.786  29.261  1.00  0.00    -0.014 A 
ATOM     78  C   UNL A   1      47.005  33.950  30.432  1.00  0.00     0.009 A 
ATOM     79  C   UNL A   1      46.185  34.843  28.340  1.00  0.00     0.009 A 
ATOM     80  C   UNL A   1      47.657  35.158  30.689  1.00  0.00     0.001 A 
ATOM     81  C   UNL A   1      46.864  36.038  28.585  1.00  0.00     0.001 A 
ATOM     82  C   UNL A   1      47.590  36.198  29.763  1.00  0.00     0.000 A 
ENDBRANCH  63  77
BRANCH  64  83
ATOM     83  C   UNL A   1      40.984  25.464  27.520  1.00  0.00    -0.014 A 
ATOM     84  C   UNL A   1      39.907  25.492  26.621  1.00  0.00     0.009 A 
ATOM     85  C   UNL A   1      41.299  24.254  28.158  1.00  0.00     0.009 A 
ATOM     86  C   UNL A   1      39.145  24.343  26.393  1.00  0.00     0.001 A 
ATOM     87  C   UNL A   1      40.558  23.099  27.902  1.00  0.00     0.001 A 
ATOM     88  C   UNL A   1      39.474  23.147  27.029  1.00  0.00     0.000 A 
ENDBRANCH  64  83
BRANCH  76  89
ATOM     89  C   UNL A   1      47.448  27.515  25.898  1.00  0.00    -0.014 A 
ATOM     90  C   UNL A   1      47.553  27.569  24.500  1.00  0.00     0.009 A 
ATOM     91  C   UNL A   1      48.448  26.852  26.628  1.00  0.00     0.009 A 
ATOM     92  C   UNL A   1      48.616  26.941  23.847  1.00  0.00     0.001 A 
ATOM     93  C   UNL A   1      49.527  26.255  25.975  1.00  0.00     0.001 A 
ATOM     94  C   UNL A   1      49.604  26.290  24.585  1.00  0.00     0.000 A 
ENDBRANCH  76  89
ENDBRANCH  50  51
ENDBRANCH  43  45
ENDBRANCH  42  43
ENDBRANCH  41  42
ENDBRANCH  40  41
ENDBRANCH  39  40
ENDBRANCH  38  39
ENDBRANCH  37  38
ENDBRANCH  36  37
ENDBRANCH   1  36
TORSDOF 26
ENDMDL
MODEL 3
REMARK VINA RESULT:      -8.8      5.089      7.562
REMARK SMILES COc1ccccc1[C@@H]1CN(C(=O)c2cc(C(C)C)nc(N)n2)C[C@H]1C(=O)OCCOCCOCCOCCOC(=O)c1ccc(-c2c3nc(c(-c4ccccc4)c4ccc([nH]4)c(-c4ccccc4)c4nc(c(-c5ccccc5)c5ccc2[nH]5)C=C4)C=C3)cc1
REMARK SMILES IDX 33 1 32 2 31 3 30 4 29 5 28 6 26 7 27 8 25 9 9 10 10 11
REMARK SMILES IDX 11 12 24 13 8 14 3 15 4 16 5 17 7 18 6 19 2 20 1 21 12 22
REMARK SMILES IDX 13 23 14 24 15 25 23 26 16 27 21 28 20 29 17 30 18 31 19 32
REMARK SMILES IDX 22 33 34 36 35 37 36 38 37 39 38 40 39 41 40 42 41 43 42 44
REMARK SMILES IDX 43 45 44 46 90 47 45 48 89 49 46 50 47 51 48 52 83 53 49 54
REMARK SMILES IDX 88 55 82 56 84 57 50 58 87 59 81 60 80 61 51 63 73 64 58 65
REMARK SMILES IDX 72 66 59 67 62 68 71 69 85 70 60 71 61 72 70 74 86 75 63 76
REMARK SMILES IDX 52 77 53 78 57 79 54 80 56 81 55 82 74 83 75 84 79 85 76 86
REMARK SMILES IDX 78 87 77 88 64 89 65 90 69 91 66 92 68 93 67 94
REMARK H PARENT 22 34 22 35 84 62 62 73
REMARK Flexibility Score: inf
ROOT
ATOM      1  C   UNL A   1      34.053  34.348  29.305  1.00  0.00     0.188 C 
ENDROOT
BRANCH   1   2
ATOM      2  C   UNL A   1      34.391  32.882  29.026  1.00  0.00     0.188 C 
BRANCH   2   3
ATOM      3  O   UNL A   1      34.195  32.345  27.734  1.00  0.00    -0.376 OA
BRANCH   3   4
ATOM      4  C   UNL A   1      33.862  30.979  27.552  1.00  0.00     0.202 C 
BRANCH   4   5
ATOM      5  C   UNL A   1      32.844  30.466  26.510  1.00  0.00     0.261 C 
BRANCH   5   6
ATOM      6  O   UNL A   1      32.475  29.066  26.546  1.00  0.00    -0.463 OA
BRANCH   6   7
ATOM      7  C   UNL A   1      32.920  28.333  25.507  1.00  0.00     0.311 C 
ATOM      8  O   UNL A   1      33.982  28.561  24.928  1.00  0.00    -0.252 OA
BRANCH   7   9
ATOM      9  C   UNL A   1      32.035  27.205  25.010  1.00  0.00     0.128 C 
ATOM     10  C   UNL A   1      31.227  27.093  23.681  1.00  0.00     0.058 C 
ATOM     11  C   UNL A   1      31.281  25.594  23.380  1.00  0.00     0.129 C 
ATOM     12  N   UNL A   1      32.578  25.192  23.869  1.00  0.00    -0.336 N 
ATOM     13  C   UNL A   1      32.959  25.987  25.011  1.00  0.00     0.136 C 
BRANCH  10  14
ATOM     14  C   UNL A   1      29.756  27.515  23.573  1.00  0.00    -0.000 A 
ATOM     15  C   UNL A   1      29.283  28.771  23.149  1.00  0.00     0.122 A 
ATOM     16  C   UNL A   1      27.909  29.005  22.978  1.00  0.00     0.047 A 
ATOM     17  C   UNL A   1      26.974  28.036  23.345  1.00  0.00     0.004 A 
ATOM     18  C   UNL A   1      28.784  26.587  24.016  1.00  0.00     0.008 A 
ATOM     19  C   UNL A   1      27.414  26.855  23.926  1.00  0.00     0.001 A 
BRANCH  15  20
ATOM     20  O   UNL A   1      30.074  29.887  23.265  1.00  0.00    -0.496 OA
ATOM     21  C   UNL A   1      29.424  31.078  23.681  1.00  0.00     0.278 C 
ENDBRANCH  15  20
ENDBRANCH  10  14
BRANCH  12  22
ATOM     22  C   UNL A   1      33.343  24.108  23.479  1.00  0.00     0.272 C 
ATOM     23  O   UNL A   1      33.990  24.087  22.437  1.00  0.00    -0.267 OA
BRANCH  22  24
ATOM     24  C   UNL A   1      33.331  22.921  24.363  1.00  0.00     0.134 A 
ATOM     25  C   UNL A   1      33.463  21.671  23.799  1.00  0.00     0.058 A 
ATOM     26  N   UNL A   1      33.107  23.158  25.667  1.00  0.00    -0.208 NA
ATOM     27  C   UNL A   1      33.276  20.618  24.660  1.00  0.00     0.049 A 
ATOM     28  C   UNL A   1      32.998  22.077  26.427  1.00  0.00     0.220 A 
ATOM     29  N   UNL A   1      33.054  20.816  25.978  1.00  0.00    -0.218 NA
BRANCH  27  30
ATOM     30  C   UNL A   1      33.247  19.187  24.163  1.00  0.00     0.032 C 
ATOM     31  C   UNL A   1      32.806  18.227  25.273  1.00  0.00     0.014 C 
ATOM     32  C   UNL A   1      32.361  19.030  22.926  1.00  0.00     0.014 C 
ENDBRANCH  27  30
BRANCH  28  33
ATOM     33  N   UNL A   1      32.816  22.275  27.762  1.00  0.00    -0.368 N 
ATOM     34  H   UNL A   1      33.583  22.226  28.377  1.00  0.00     0.159 HD
ATOM     35  H   UNL A   1      31.916  22.468  28.114  1.00  0.00     0.159 HD
ENDBRANCH  28  33
ENDBRANCH  22  24
ENDBRANCH  12  22
ENDBRANCH   7   9
ENDBRANCH   6   7
ENDBRANCH   5   6
ENDBRANCH   4   5
ENDBRANCH   3   4
ENDBRANCH   2   3
ENDBRANCH   1   2
BRANCH   1  36
ATOM     36  O   UNL A   1      33.185  34.620  30.386  1.00  0.00    -0.377 OA
BRANCH  36  37
ATOM     37  C   UNL A   1      33.717  35.193  31.567  1.00  0.00     0.188 C 
BRANCH  37  38
ATOM     38  C   UNL A   1      34.510  34.310  32.544  1.00  0.00     0.188 C 
BRANCH  38  39
ATOM     39  O   UNL A   1      35.909  34.540  32.535  1.00  0.00    -0.376 OA
BRANCH  39  40
ATOM     40  C   UNL A   1      36.771  33.490  32.119  1.00  0.00     0.202 C 
BRANCH  40  41
ATOM     41  C   UNL A   1      36.739  32.181  32.920  1.00  0.00     0.261 C 
BRANCH  41  42
ATOM     42  O   UNL A   1      36.583  30.961  32.179  1.00  0.00    -0.460 OA
BRANCH  42  43
ATOM     43  C   UNL A   1      37.394  29.928  32.472  1.00  0.00     0.338 C 
ATOM     44  O   UNL A   1      37.094  28.884  33.028  1.00  0.00    -0.246 OA
BRANCH  43  45
ATOM     45  C   UNL A   1      38.690  30.187  31.813  1.00  0.00     0.060 A 
ATOM     46  C   UNL A   1      39.817  30.415  32.610  1.00  0.00     0.016 A 
ATOM     47  C   UNL A   1      38.791  30.189  30.419  1.00  0.00     0.016 A 
ATOM     48  C   UNL A   1      41.046  30.691  32.014  1.00  0.00     0.010 A 
ATOM     49  C   UNL A   1      40.017  30.487  29.823  1.00  0.00     0.010 A 
ATOM     50  C   UNL A   1      41.139  30.780  30.619  1.00  0.00    -0.014 A 
BRANCH  50  51
ATOM     51  C   UNL A   1      42.339  31.399  30.011  1.00  0.00     0.031 A 
ATOM     52  C   UNL A   1      43.478  30.498  29.622  1.00  0.00     0.074 A 
ATOM     53  C   UNL A   1      42.404  32.720  29.772  1.00  0.00     0.049 A 
ATOM     54  N   UNL A   1      44.638  30.800  29.098  1.00  0.00    -0.248 NA
ATOM     55  C   UNL A   1      43.282  29.057  29.857  1.00  0.00     0.031 C 
ATOM     56  C   UNL A   1      41.346  33.687  30.058  1.00  0.00     0.029 A 
ATOM     57  N   UNL A   1      43.416  33.474  29.233  1.00  0.00    -0.354 N 
ATOM     58  C   UNL A   1      45.306  29.592  28.944  1.00  0.00     0.074 A 
ATOM     59  C   UNL A   1      44.442  28.556  29.465  1.00  0.00     0.031 C 
ATOM     60  C   UNL A   1      41.769  34.912  29.697  1.00  0.00     0.029 A 
ATOM     61  C   UNL A   1      43.137  34.818  29.190  1.00  0.00     0.049 A 
ATOM     62  H   UNL A   1      44.260  33.088  28.907  1.00  0.00     0.167 HD
ATOM     63  C   UNL A   1      46.526  29.362  28.406  1.00  0.00     0.031 A 
ATOM     64  C   UNL A   1      43.910  35.853  28.807  1.00  0.00     0.031 A 
ATOM     65  C   UNL A   1      47.393  30.396  27.910  1.00  0.00     0.049 A 
ATOM     66  C   UNL A   1      45.303  35.582  28.299  1.00  0.00     0.074 A 
ATOM     67  C   UNL A   1      48.652  30.271  27.350  1.00  0.00     0.029 A 
ATOM     68  N   UNL A   1      47.091  31.749  27.925  1.00  0.00    -0.354 N 
ATOM     69  N   UNL A   1      45.917  34.434  28.139  1.00  0.00    -0.248 NA
ATOM     70  C   UNL A   1      46.105  36.750  27.908  1.00  0.00     0.031 C 
ATOM     71  C   UNL A   1      49.138  31.555  27.084  1.00  0.00     0.029 A 
ATOM     72  C   UNL A   1      48.152  32.474  27.410  1.00  0.00     0.049 A 
ATOM     73  H   UNL A   1      46.249  32.136  28.255  1.00  0.00     0.167 HD
ATOM     74  C   UNL A   1      47.163  34.739  27.602  1.00  0.00     0.074 A 
ATOM     75  C   UNL A   1      47.209  36.179  27.447  1.00  0.00     0.031 C 
ATOM     76  C   UNL A   1      48.179  33.906  27.264  1.00  0.00     0.031 A 
BRANCH  63  77
ATOM     77  C   UNL A   1      47.005  27.937  28.366  1.00  0.00    -0.014 A 
ATOM     78  C   UNL A   1      46.834  27.139  27.223  1.00  0.00     0.009 A 
ATOM     79  C   UNL A   1      47.656  27.389  29.482  1.00  0.00     0.009 A 
ATOM     80  C   UNL A   1      47.271  25.813  27.213  1.00  0.00     0.001 A 
ATOM     81  C   UNL A   1      48.121  26.073  29.458  1.00  0.00     0.001 A 
ATOM     82  C   UNL A   1      47.919  25.284  28.328  1.00  0.00     0.000 A 
ENDBRANCH  63  77
BRANCH  64  83
ATOM     83  C   UNL A   1      43.401  37.248  28.916  1.00  0.00    -0.014 A 
ATOM     84  C   UNL A   1      42.569  37.794  27.927  1.00  0.00     0.009 A 
ATOM     85  C   UNL A   1      43.771  38.052  30.006  1.00  0.00     0.009 A 
ATOM     86  C   UNL A   1      42.145  39.122  28.012  1.00  0.00     0.001 A 
ATOM     87  C   UNL A   1      43.317  39.368  30.107  1.00  0.00     0.001 A 
ATOM     88  C   UNL A   1      42.514  39.907  29.104  1.00  0.00     0.000 A 
ENDBRANCH  64  83
BRANCH  76  89
ATOM     89  C   UNL A   1      49.408  34.523  26.654  1.00  0.00    -0.014 A 
ATOM     90  C   UNL A   1      50.556  34.783  27.416  1.00  0.00     0.009 A 
ATOM     91  C   UNL A   1      49.429  34.805  25.278  1.00  0.00     0.009 A 
ATOM     92  C   UNL A   1      51.687  35.345  26.821  1.00  0.00     0.001 A 
ATOM     93  C   UNL A   1      50.572  35.336  24.679  1.00  0.00     0.001 A 
ATOM     94  C   UNL A   1      51.696  35.616  25.453  1.00  0.00     0.000 A 
ENDBRANCH  76  89
ENDBRANCH  50  51
ENDBRANCH  43  45
ENDBRANCH  42  43
ENDBRANCH  41  42
ENDBRANCH  40  41
ENDBRANCH  39  40
ENDBRANCH  38  39
ENDBRANCH  37  38
ENDBRANCH  36  37
ENDBRANCH   1  36
TORSDOF 26
ENDMDL
