MODEL 1
REMARK VINA RESULT:      -7.9      0.000      0.000
REMARK SMILES O=C(OCCOCCOCCOCCOC(=O)[C@@H](CCOCCO)c1cccc(F)c1)c1ccc(-c2c3nc(c(-c4ccccc4)c4ccc([nH]4)c(-c4ccccc4)c4nc(c(-c5ccccc5)c5ccc2[nH]5)C=C4)C=C3)cc1
REMARK SMILES IDX 11 1 10 2 9 3 8 4 7 5 6 6 5 7 4 8 3 9 2 10 1 11 32 12 33 13
REMARK SMILES IDX 79 14 34 15 78 16 35 17 36 18 37 19 72 20 38 21 77 22 71 23
REMARK SMILES IDX 73 24 39 25 76 26 70 27 69 28 40 30 62 31 47 32 61 33 48 34
REMARK SMILES IDX 51 35 60 36 74 37 49 38 50 39 59 41 75 42 52 43 41 44 42 45
REMARK SMILES IDX 46 46 43 47 45 48 44 49 63 50 64 51 68 52 65 53 67 54 66 55
REMARK SMILES IDX 53 56 54 57 58 58 55 59 57 60 56 61 12 62 13 63 14 64 15 65
REMARK SMILES IDX 16 66 17 67 18 68 19 69 20 70 21 71 22 72 23 73 24 74 25 76
REMARK SMILES IDX 26 77 31 78 27 79 29 80 28 81 30 82
REMARK H PARENT 73 29 51 40 24 75
REMARK Flexibility Score: inf
ROOT
ATOM      1  C   UNL A   1      32.640  23.550  26.717  1.00  0.00     0.188 C 
ENDROOT
BRANCH   1   2
ATOM      2  C   UNL A   1      33.795  22.552  26.698  1.00  0.00     0.188 C 
BRANCH   2   3
ATOM      3  O   UNL A   1      34.616  22.483  25.543  1.00  0.00    -0.377 OA
BRANCH   3   4
ATOM      4  C   UNL A   1      35.919  23.065  25.601  1.00  0.00     0.188 C 
BRANCH   4   5
ATOM      5  C   UNL A   1      36.637  23.070  24.269  1.00  0.00     0.188 C 
BRANCH   5   6
ATOM      6  O   UNL A   1      37.434  21.896  24.238  1.00  0.00    -0.376 OA
BRANCH   6   7
ATOM      7  C   UNL A   1      38.110  21.558  25.435  1.00  0.00     0.202 C 
BRANCH   7   8
ATOM      8  C   UNL A   1      38.425  20.071  25.568  1.00  0.00     0.261 C 
BRANCH   8   9
ATOM      9  O   UNL A   1      39.786  19.707  25.259  1.00  0.00    -0.460 OA
BRANCH   9  10
ATOM     10  C   UNL A   1      40.919  19.794  25.997  1.00  0.00     0.338 C 
ATOM     11  O   UNL A   1      41.535  18.755  26.235  1.00  0.00    -0.246 OA
BRANCH  10  12
ATOM     12  C   UNL A   1      41.466  21.056  26.584  1.00  0.00     0.060 A 
ATOM     13  C   UNL A   1      41.493  21.354  27.939  1.00  0.00     0.016 A 
ATOM     14  C   UNL A   1      42.078  21.977  25.713  1.00  0.00     0.016 A 
ATOM     15  C   UNL A   1      42.055  22.511  28.438  1.00  0.00     0.010 A 
ATOM     16  C   UNL A   1      42.643  23.166  26.197  1.00  0.00     0.010 A 
ATOM     17  C   UNL A   1      42.599  23.441  27.567  1.00  0.00    -0.014 A 
BRANCH  17  18
ATOM     18  C   UNL A   1      42.831  24.773  28.144  1.00  0.00     0.031 A 
ATOM     19  C   UNL A   1      44.259  25.196  28.317  1.00  0.00     0.074 A 
ATOM     20  C   UNL A   1      41.814  25.649  28.226  1.00  0.00     0.049 A 
ATOM     21  N   UNL A   1      44.743  26.312  28.783  1.00  0.00    -0.248 NA
ATOM     22  C   UNL A   1      45.287  24.236  27.868  1.00  0.00     0.031 C 
ATOM     23  C   UNL A   1      40.424  25.372  27.845  1.00  0.00     0.029 A 
ATOM     24  N   UNL A   1      41.801  26.967  28.593  1.00  0.00    -0.354 N 
ATOM     25  C   UNL A   1      46.123  26.174  28.714  1.00  0.00     0.074 A 
ATOM     26  C   UNL A   1      46.407  24.872  28.164  1.00  0.00     0.031 C 
ATOM     27  C   UNL A   1      39.699  26.495  27.983  1.00  0.00     0.029 A 
ATOM     28  C   UNL A   1      40.554  27.538  28.535  1.00  0.00     0.049 A 
ATOM     29  H   UNL A   1      42.609  27.457  28.870  1.00  0.00     0.167 HD
ATOM     30  C   UNL A   1      47.068  27.063  29.092  1.00  0.00     0.031 A 
ATOM     31  C   UNL A   1      40.155  28.757  28.939  1.00  0.00     0.031 A 
ATOM     32  C   UNL A   1      46.741  28.342  29.654  1.00  0.00     0.049 A 
ATOM     33  C   UNL A   1      41.206  29.667  29.515  1.00  0.00     0.074 A 
ATOM     34  C   UNL A   1      47.575  29.289  30.212  1.00  0.00     0.029 A 
ATOM     35  N   UNL A   1      45.448  28.848  29.717  1.00  0.00    -0.354 N 
ATOM     36  N   UNL A   1      42.505  29.485  29.587  1.00  0.00    -0.248 NA
ATOM     37  C   UNL A   1      40.742  30.938  30.081  1.00  0.00     0.031 C 
ATOM     38  C   UNL A   1      46.778  30.350  30.657  1.00  0.00     0.029 A 
ATOM     39  C   UNL A   1      45.456  30.090  30.318  1.00  0.00     0.049 A 
ATOM     40  H   UNL A   1      44.645  28.387  29.383  1.00  0.00     0.167 HD
ATOM     41  C   UNL A   1      43.018  30.622  30.194  1.00  0.00     0.074 A 
ATOM     42  C   UNL A   1      41.888  31.500  30.440  1.00  0.00     0.031 C 
ATOM     43  C   UNL A   1      44.296  30.919  30.531  1.00  0.00     0.031 A 
BRANCH  30  44
ATOM     44  C   UNL A   1      48.497  26.615  28.996  1.00  0.00    -0.014 A 
ATOM     45  C   UNL A   1      49.267  26.843  27.845  1.00  0.00     0.009 A 
ATOM     46  C   UNL A   1      49.058  25.883  30.053  1.00  0.00     0.009 A 
ATOM     47  C   UNL A   1      50.556  26.311  27.739  1.00  0.00     0.001 A 
ATOM     48  C   UNL A   1      50.354  25.374  29.956  1.00  0.00     0.001 A 
ATOM     49  C   UNL A   1      51.098  25.578  28.796  1.00  0.00     0.000 A 
ENDBRANCH  30  44
BRANCH  31  50
ATOM     50  C   UNL A   1      38.714  29.137  28.923  1.00  0.00    -0.014 A 
ATOM     51  C   UNL A   1      38.123  29.727  27.797  1.00  0.00     0.009 A 
ATOM     52  C   UNL A   1      37.926  28.948  30.072  1.00  0.00     0.009 A 
ATOM     53  C   UNL A   1      36.789  30.150  27.835  1.00  0.00     0.001 A 
ATOM     54  C   UNL A   1      36.585  29.338  30.096  1.00  0.00     0.001 A 
ATOM     55  C   UNL A   1      36.022  29.954  28.983  1.00  0.00     0.000 A 
ENDBRANCH  31  50
BRANCH  43  56
ATOM     56  C   UNL A   1      44.527  32.261  31.158  1.00  0.00    -0.014 A 
ATOM     57  C   UNL A   1      44.506  32.426  32.550  1.00  0.00     0.009 A 
ATOM     58  C   UNL A   1      44.813  33.363  30.338  1.00  0.00     0.009 A 
ATOM     59  C   UNL A   1      44.731  33.684  33.108  1.00  0.00     0.001 A 
ATOM     60  C   UNL A   1      45.071  34.611  30.900  1.00  0.00     0.001 A 
ATOM     61  C   UNL A   1      45.019  34.771  32.284  1.00  0.00     0.000 A 
ENDBRANCH  43  56
ENDBRANCH  17  18
ENDBRANCH  10  12
ENDBRANCH   9  10
ENDBRANCH   8   9
ENDBRANCH   7   8
ENDBRANCH   6   7
ENDBRANCH   5   6
ENDBRANCH   4   5
ENDBRANCH   3   4
ENDBRANCH   2   3
ENDBRANCH   1   2
BRANCH   1  62
ATOM     62  O   UNL A   1      32.801  24.794  26.073  1.00  0.00    -0.376 OA
BRANCH  62  63
ATOM     63  C   UNL A   1      32.138  25.955  26.562  1.00  0.00     0.202 C 
BRANCH  63  64
ATOM     64  C   UNL A   1      30.737  26.372  26.080  1.00  0.00     0.261 C 
BRANCH  64  65
ATOM     65  O   UNL A   1      30.691  27.466  25.123  1.00  0.00    -0.463 OA
BRANCH  65  66
ATOM     66  C   UNL A   1      30.207  27.155  23.885  1.00  0.00     0.313 C 
ATOM     67  O   UNL A   1      29.018  27.175  23.619  1.00  0.00    -0.252 OA
BRANCH  66  68
ATOM     68  C   UNL A   1      31.262  26.734  22.818  1.00  0.00     0.131 C 
BRANCH  68  69
ATOM     69  C   UNL A   1      32.420  27.696  22.432  1.00  0.00     0.048 C 
BRANCH  69  70
ATOM     70  C   UNL A   1      33.468  28.236  23.421  1.00  0.00     0.161 C 
BRANCH  70  71
ATOM     71  O   UNL A   1      33.047  29.184  24.386  1.00  0.00    -0.379 OA
BRANCH  71  72
ATOM     72  C   UNL A   1      33.724  29.167  25.639  1.00  0.00     0.188 C 
BRANCH  72  73
ATOM     73  C   UNL A   1      33.062  29.946  26.779  1.00  0.00     0.184 C 
BRANCH  73  74
ATOM     74  O   UNL A   1      31.698  29.619  27.010  1.00  0.00    -0.394 OA
ATOM     75  H   UNL A   1      31.141  30.072  26.357  1.00  0.00     0.210 HD
ENDBRANCH  73  74
ENDBRANCH  72  73
ENDBRANCH  71  72
ENDBRANCH  70  71
ENDBRANCH  69  70
ENDBRANCH  68  69
BRANCH  68  76
ATOM     76  C   UNL A   1      31.609  25.247  22.907  1.00  0.00    -0.031 A 
ATOM     77  C   UNL A   1      30.690  24.285  23.357  1.00  0.00     0.005 A 
ATOM     78  C   UNL A   1      32.890  24.797  22.543  1.00  0.00     0.043 A 
ATOM     79  C   UNL A   1      30.979  22.922  23.303  1.00  0.00     0.003 A 
ATOM     80  C   UNL A   1      33.177  23.438  22.506  1.00  0.00     0.123 A 
ATOM     81  C   UNL A   1      32.222  22.495  22.854  1.00  0.00     0.039 A 
ATOM     82  F   UNL A   1      34.390  23.035  22.106  1.00  0.00    -0.207 F 
ENDBRANCH  68  76
ENDBRANCH  66  68
ENDBRANCH  65  66
ENDBRANCH  64  65
ENDBRANCH  63  64
ENDBRANCH  62  63
ENDBRANCH   1  62
TORSDOF 27
ENDMDL
MODEL 2
REMARK VINA RESULT:      -7.8      2.508      4.154
REMARK SMILES O=C(OCCOCCOCCOCCOC(=O)[C@@H](CCOCCO)c1cccc(F)c1)c1ccc(-c2c3nc(c(-c4ccccc4)c4ccc([nH]4)c(-c4ccccc4)c4nc(c(-c5ccccc5)c5ccc2[nH]5)C=C4)C=C3)cc1
REMARK SMILES IDX 11 1 10 2 9 3 8 4 7 5 6 6 5 7 4 8 3 9 2 10 1 11 32 12 33 13
REMARK SMILES IDX 79 14 34 15 78 16 35 17 36 18 37 19 72 20 38 21 77 22 71 23
REMARK SMILES IDX 73 24 39 25 76 26 70 27 69 28 40 30 62 31 47 32 61 33 48 34
REMARK SMILES IDX 51 35 60 36 74 37 49 38 50 39 59 41 75 42 52 43 41 44 42 45
REMARK SMILES IDX 46 46 43 47 45 48 44 49 63 50 64 51 68 52 65 53 67 54 66 55
REMARK SMILES IDX 53 56 54 57 58 58 55 59 57 60 56 61 12 62 13 63 14 64 15 65
REMARK SMILES IDX 16 66 17 67 18 68 19 69 20 70 21 71 22 72 23 73 24 74 25 76
REMARK SMILES IDX 26 77 31 78 27 79 29 80 28 81 30 82
REMARK H PARENT 73 29 51 40 24 75
REMARK Flexibility Score: inf
ROOT
ATOM      1  C   UNL A   1      31.300  22.789  26.846  1.00  0.00     0.188 C 
ENDROOT
BRANCH   1   2
ATOM      2  C   UNL A   1      32.226  22.327  25.724  1.00  0.00     0.188 C 
BRANCH   2   3
ATOM      3  O   UNL A   1      32.018  21.045  25.153  1.00  0.00    -0.377 OA
BRANCH   3   4
ATOM      4  C   UNL A   1      33.080  20.457  24.401  1.00  0.00     0.188 C 
BRANCH   4   5
ATOM      5  C   UNL A   1      34.429  20.562  25.078  1.00  0.00     0.188 C 
BRANCH   5   6
ATOM      6  O   UNL A   1      35.051  21.727  24.557  1.00  0.00    -0.376 OA
BRANCH   6   7
ATOM      7  C   UNL A   1      36.302  22.082  25.119  1.00  0.00     0.202 C 
BRANCH   7   8
ATOM      8  C   UNL A   1      37.254  20.903  25.301  1.00  0.00     0.261 C 
BRANCH   8   9
ATOM      9  O   UNL A   1      38.655  21.241  25.265  1.00  0.00    -0.460 OA
BRANCH   9  10
ATOM     10  C   UNL A   1      39.560  21.389  26.263  1.00  0.00     0.338 C 
ATOM     11  O   UNL A   1      40.038  20.372  26.765  1.00  0.00    -0.246 OA
BRANCH  10  12
ATOM     12  C   UNL A   1      40.001  22.699  26.834  1.00  0.00     0.060 A 
ATOM     13  C   UNL A   1      39.431  23.928  26.531  1.00  0.00     0.016 A 
ATOM     14  C   UNL A   1      41.009  22.685  27.815  1.00  0.00     0.016 A 
ATOM     15  C   UNL A   1      39.838  25.105  27.122  1.00  0.00     0.010 A 
ATOM     16  C   UNL A   1      41.449  23.873  28.418  1.00  0.00     0.010 A 
ATOM     17  C   UNL A   1      40.874  25.091  28.041  1.00  0.00    -0.014 A 
BRANCH  17  18
ATOM     18  C   UNL A   1      41.470  26.402  28.329  1.00  0.00     0.031 A 
ATOM     19  C   UNL A   1      42.752  26.733  27.625  1.00  0.00     0.074 A 
ATOM     20  C   UNL A   1      40.741  27.341  28.958  1.00  0.00     0.049 A 
ATOM     21  N   UNL A   1      43.477  27.815  27.685  1.00  0.00    -0.248 NA
ATOM     22  C   UNL A   1      43.272  25.712  26.694  1.00  0.00     0.031 C 
ATOM     23  C   UNL A   1      39.377  27.155  29.466  1.00  0.00     0.029 A 
ATOM     24  N   UNL A   1      41.016  28.655  29.219  1.00  0.00    -0.354 N 
ATOM     25  C   UNL A   1      44.548  27.589  26.830  1.00  0.00     0.074 A 
ATOM     26  C   UNL A   1      44.387  26.274  26.262  1.00  0.00     0.031 C 
ATOM     27  C   UNL A   1      38.931  28.321  29.962  1.00  0.00     0.029 A 
ATOM     28  C   UNL A   1      40.001  29.305  29.879  1.00  0.00     0.049 A 
ATOM     29  H   UNL A   1      41.859  29.093  28.958  1.00  0.00     0.167 HD
ATOM     30  C   UNL A   1      45.582  28.415  26.557  1.00  0.00     0.031 A 
ATOM     31  C   UNL A   1      39.980  30.546  30.398  1.00  0.00     0.031 A 
ATOM     32  C   UNL A   1      45.714  29.709  27.161  1.00  0.00     0.049 A 
ATOM     33  C   UNL A   1      41.217  31.385  30.224  1.00  0.00     0.074 A 
ATOM     34  C   UNL A   1      46.767  30.599  27.098  1.00  0.00     0.029 A 
ATOM     35  N   UNL A   1      44.730  30.296  27.948  1.00  0.00    -0.354 N 
ATOM     36  N   UNL A   1      42.302  31.119  29.533  1.00  0.00    -0.248 NA
ATOM     37  C   UNL A   1      41.239  32.680  30.910  1.00  0.00     0.031 C 
ATOM     38  C   UNL A   1      46.437  31.707  27.888  1.00  0.00     0.029 A 
ATOM     39  C   UNL A   1      45.153  31.533  28.390  1.00  0.00     0.049 A 
ATOM     40  H   UNL A   1      43.859  29.889  28.159  1.00  0.00     0.167 HD
ATOM     41  C   UNL A   1      43.133  32.219  29.689  1.00  0.00     0.074 A 
ATOM     42  C   UNL A   1      42.407  33.166  30.517  1.00  0.00     0.031 C 
ATOM     43  C   UNL A   1      44.382  32.433  29.209  1.00  0.00     0.031 A 
BRANCH  30  44
ATOM     44  C   UNL A   1      46.661  27.877  25.663  1.00  0.00    -0.014 A 
ATOM     45  C   UNL A   1      46.654  28.104  24.278  1.00  0.00     0.009 A 
ATOM     46  C   UNL A   1      47.663  27.062  26.212  1.00  0.00     0.009 A 
ATOM     47  C   UNL A   1      47.606  27.492  23.456  1.00  0.00     0.001 A 
ATOM     48  C   UNL A   1      48.627  26.473  25.393  1.00  0.00     0.001 A 
ATOM     49  C   UNL A   1      48.592  26.679  24.015  1.00  0.00     0.000 A 
ENDBRANCH  30  44
BRANCH  31  50
ATOM     50  C   UNL A   1      38.822  31.016  31.210  1.00  0.00    -0.014 A 
ATOM     51  C   UNL A   1      38.436  30.359  32.387  1.00  0.00     0.009 A 
ATOM     52  C   UNL A   1      38.059  32.114  30.775  1.00  0.00     0.009 A 
ATOM     53  C   UNL A   1      37.296  30.769  33.088  1.00  0.00     0.001 A 
ATOM     54  C   UNL A   1      36.942  32.544  31.495  1.00  0.00     0.001 A 
ATOM     55  C   UNL A   1      36.552  31.861  32.643  1.00  0.00     0.000 A 
ENDBRANCH  31  50
BRANCH  43  56
ATOM     56  C   UNL A   1      45.007  33.755  29.539  1.00  0.00    -0.014 A 
ATOM     57  C   UNL A   1      44.884  34.853  28.675  1.00  0.00     0.009 A 
ATOM     58  C   UNL A   1      45.691  33.908  30.754  1.00  0.00     0.009 A 
ATOM     59  C   UNL A   1      45.470  36.073  29.008  1.00  0.00     0.001 A 
ATOM     60  C   UNL A   1      46.245  35.139  31.099  1.00  0.00     0.001 A 
ATOM     61  C   UNL A   1      46.142  36.216  30.221  1.00  0.00     0.000 A 
ENDBRANCH  43  56
ENDBRANCH  17  18
ENDBRANCH  10  12
ENDBRANCH   9  10
ENDBRANCH   8   9
ENDBRANCH   7   8
ENDBRANCH   6   7
ENDBRANCH   5   6
ENDBRANCH   4   5
ENDBRANCH   3   4
ENDBRANCH   2   3
ENDBRANCH   1   2
BRANCH   1  62
ATOM     62  O   UNL A   1      31.120  24.171  27.057  1.00  0.00    -0.376 OA
BRANCH  62  63
ATOM     63  C   UNL A   1      30.338  24.948  26.156  1.00  0.00     0.202 C 
BRANCH  63  64
ATOM     64  C   UNL A   1      30.548  26.462  25.970  1.00  0.00     0.261 C 
BRANCH  64  65
ATOM     65  O   UNL A   1      31.487  27.092  26.884  1.00  0.00    -0.463 OA
BRANCH  65  66
ATOM     66  C   UNL A   1      31.957  28.317  26.507  1.00  0.00     0.313 C 
ATOM     67  O   UNL A   1      31.257  29.314  26.494  1.00  0.00    -0.252 OA
BRANCH  66  68
ATOM     68  C   UNL A   1      33.447  28.375  26.057  1.00  0.00     0.131 C 
BRANCH  68  69
ATOM     69  C   UNL A   1      33.821  28.277  24.552  1.00  0.00     0.048 C 
BRANCH  69  70
ATOM     70  C   UNL A   1      32.874  27.762  23.453  1.00  0.00     0.161 C 
BRANCH  70  71
ATOM     71  O   UNL A   1      33.448  27.280  22.251  1.00  0.00    -0.379 OA
BRANCH  71  72
ATOM     72  C   UNL A   1      33.225  25.908  21.940  1.00  0.00     0.188 C 
BRANCH  72  73
ATOM     73  C   UNL A   1      33.230  24.934  23.121  1.00  0.00     0.184 C 
BRANCH  73  74
ATOM     74  O   UNL A   1      33.650  23.614  22.803  1.00  0.00    -0.394 OA
ATOM     75  H   UNL A   1      34.569  23.489  23.090  1.00  0.00     0.210 HD
ENDBRANCH  73  74
ENDBRANCH  72  73
ENDBRANCH  71  72
ENDBRANCH  70  71
ENDBRANCH  69  70
ENDBRANCH  68  69
BRANCH  68  76
ATOM     76  C   UNL A   1      34.266  29.353  26.903  1.00  0.00    -0.031 A 
ATOM     77  C   UNL A   1      35.499  29.001  27.477  1.00  0.00     0.005 A 
ATOM     78  C   UNL A   1      33.789  30.653  27.142  1.00  0.00     0.043 A 
ATOM     79  C   UNL A   1      36.292  29.944  28.129  1.00  0.00     0.003 A 
ATOM     80  C   UNL A   1      34.578  31.584  27.806  1.00  0.00     0.123 A 
ATOM     81  C   UNL A   1      35.838  31.249  28.274  1.00  0.00     0.039 A 
ATOM     82  F   UNL A   1      34.119  32.831  27.975  1.00  0.00    -0.207 F 
ENDBRANCH  68  76
ENDBRANCH  66  68
ENDBRANCH  65  66
ENDBRANCH  64  65
ENDBRANCH  63  64
ENDBRANCH  62  63
ENDBRANCH   1  62
TORSDOF 27
ENDMDL
MODEL 3
REMARK VINA RESULT:      -7.6      4.194      8.384
REMARK SMILES O=C(OCCOCCOCCOCCOC(=O)[C@@H](CCOCCO)c1cccc(F)c1)c1ccc(-c2c3nc(c(-c4ccccc4)c4ccc([nH]4)c(-c4ccccc4)c4nc(c(-c5ccccc5)c5ccc2[nH]5)C=C4)C=C3)cc1
REMARK SMILES IDX 11 1 10 2 9 3 8 4 7 5 6 6 5 7 4 8 3 9 2 10 1 11 32 12 33 13
REMARK SMILES IDX 79 14 34 15 78 16 35 17 36 18 37 19 72 20 38 21 77 22 71 23
REMARK SMILES IDX 73 24 39 25 76 26 70 27 69 28 40 30 62 31 47 32 61 33 48 34
REMARK SMILES IDX 51 35 60 36 74 37 49 38 50 39 59 41 75 42 52 43 41 44 42 45
REMARK SMILES IDX 46 46 43 47 45 48 44 49 63 50 64 51 68 52 65 53 67 54 66 55
REMARK SMILES IDX 53 56 54 57 58 58 55 59 57 60 56 61 12 62 13 63 14 64 15 65
REMARK SMILES IDX 16 66 17 67 18 68 19 69 20 70 21 71 22 72 23 73 24 74 25 76
REMARK SMILES IDX 26 77 31 78 27 79 29 80 28 81 30 82
REMARK H PARENT 73 29 51 40 24 75
REMARK Flexibility Score: inf
ROOT
ATOM      1  C   UNL A   1      36.733  29.524  29.927  1.00  0.00     0.188 C 
ENDROOT
BRANCH   1   2
ATOM      2  C   UNL A   1      38.147  29.313  30.460  1.00  0.00     0.188 C 
BRANCH   2   3
ATOM      3  O   UNL A   1      38.703  28.008  30.418  1.00  0.00    -0.377 OA
BRANCH   3   4
ATOM      4  C   UNL A   1      39.749  27.746  29.482  1.00  0.00     0.188 C 
BRANCH   4   5
ATOM      5  C   UNL A   1      39.246  27.333  28.116  1.00  0.00     0.188 C 
BRANCH   5   6
ATOM      6  O   UNL A   1      40.345  26.737  27.446  1.00  0.00    -0.376 OA
BRANCH   6   7
ATOM      7  C   UNL A   1      40.075  25.553  26.716  1.00  0.00     0.202 C 
BRANCH   7   8
ATOM      8  C   UNL A   1      40.398  24.271  27.478  1.00  0.00     0.261 C 
BRANCH   8   9
ATOM      9  O   UNL A   1      41.239  23.337  26.770  1.00  0.00    -0.460 OA
BRANCH   9  10
ATOM     10  C   UNL A   1      42.560  23.380  26.471  1.00  0.00     0.338 C 
ATOM     11  O   UNL A   1      43.136  22.317  26.244  1.00  0.00    -0.246 OA
BRANCH  10  12
ATOM     12  C   UNL A   1      43.391  24.624  26.433  1.00  0.00     0.060 A 
ATOM     13  C   UNL A   1      43.624  25.387  25.297  1.00  0.00     0.016 A 
ATOM     14  C   UNL A   1      43.906  25.110  27.648  1.00  0.00     0.016 A 
ATOM     15  C   UNL A   1      44.355  26.556  25.321  1.00  0.00     0.010 A 
ATOM     16  C   UNL A   1      44.665  26.289  27.693  1.00  0.00     0.010 A 
ATOM     17  C   UNL A   1      44.912  26.994  26.511  1.00  0.00    -0.014 A 
BRANCH  17  18
ATOM     18  C   UNL A   1      45.956  28.018  26.371  1.00  0.00     0.031 A 
ATOM     19  C   UNL A   1      45.532  29.445  26.548  1.00  0.00     0.074 A 
ATOM     20  C   UNL A   1      47.251  27.655  26.377  1.00  0.00     0.049 A 
ATOM     21  N   UNL A   1      46.243  30.536  26.492  1.00  0.00    -0.248 NA
ATOM     22  C   UNL A   1      44.108  29.673  26.869  1.00  0.00     0.031 C 
ATOM     23  C   UNL A   1      47.743  26.274  26.443  1.00  0.00     0.029 A 
ATOM     24  N   UNL A   1      48.389  28.413  26.393  1.00  0.00    -0.354 N 
ATOM     25  C   UNL A   1      45.352  31.573  26.735  1.00  0.00     0.074 A 
ATOM     26  C   UNL A   1      44.048  30.991  26.940  1.00  0.00     0.031 C 
ATOM     27  C   UNL A   1      49.085  26.289  26.510  1.00  0.00     0.029 A 
ATOM     28  C   UNL A   1      49.542  27.668  26.410  1.00  0.00     0.049 A 
ATOM     29  H   UNL A   1      48.381  29.398  26.393  1.00  0.00     0.167 HD
ATOM     30  C   UNL A   1      45.608  32.898  26.772  1.00  0.00     0.031 A 
ATOM     31  C   UNL A   1      50.820  28.073  26.304  1.00  0.00     0.031 A 
ATOM     32  C   UNL A   1      46.918  33.436  26.543  1.00  0.00     0.049 A 
ATOM     33  C   UNL A   1      51.063  29.553  26.175  1.00  0.00     0.074 A 
ATOM     34  C   UNL A   1      47.309  34.753  26.408  1.00  0.00     0.029 A 
ATOM     35  N   UNL A   1      48.061  32.655  26.421  1.00  0.00    -0.354 N 
ATOM     36  N   UNL A   1      50.201  30.540  26.260  1.00  0.00    -0.248 NA
ATOM     37  C   UNL A   1      52.444  29.976  25.919  1.00  0.00     0.031 C 
ATOM     38  C   UNL A   1      48.686  34.764  26.156  1.00  0.00     0.029 A 
ATOM     39  C   UNL A   1      49.160  33.458  26.198  1.00  0.00     0.049 A 
ATOM     40  H   UNL A   1      48.082  31.673  26.484  1.00  0.00     0.167 HD
ATOM     41  C   UNL A   1      50.934  31.704  26.081  1.00  0.00     0.074 A 
ATOM     42  C   UNL A   1      52.317  31.295  25.914  1.00  0.00     0.031 C 
ATOM     43  C   UNL A   1      50.515  32.992  26.044  1.00  0.00     0.031 A 
BRANCH  30  44
ATOM     44  C   UNL A   1      44.431  33.811  26.963  1.00  0.00    -0.014 A 
ATOM     45  C   UNL A   1      43.777  34.410  25.874  1.00  0.00     0.009 A 
ATOM     46  C   UNL A   1      44.019  34.136  28.264  1.00  0.00     0.009 A 
ATOM     47  C   UNL A   1      42.761  35.347  26.088  1.00  0.00     0.001 A 
ATOM     48  C   UNL A   1      42.987  35.052  28.474  1.00  0.00     0.001 A 
ATOM     49  C   UNL A   1      42.367  35.666  27.387  1.00  0.00     0.000 A 
ENDBRANCH  30  44
BRANCH  31  50
ATOM     50  C   UNL A   1      51.930  27.085  26.198  1.00  0.00    -0.014 A 
ATOM     51  C   UNL A   1      52.691  26.713  27.316  1.00  0.00     0.009 A 
ATOM     52  C   UNL A   1      52.268  26.538  24.947  1.00  0.00     0.009 A 
ATOM     53  C   UNL A   1      53.782  25.846  27.177  1.00  0.00     0.001 A 
ATOM     54  C   UNL A   1      53.334  25.645  24.816  1.00  0.00     0.001 A 
ATOM     55  C   UNL A   1      54.100  25.313  25.928  1.00  0.00     0.000 A 
ENDBRANCH  31  50
BRANCH  43  56
ATOM     56  C   UNL A   1      51.575  34.035  25.859  1.00  0.00    -0.014 A 
ATOM     57  C   UNL A   1      51.923  34.499  24.582  1.00  0.00     0.009 A 
ATOM     58  C   UNL A   1      52.199  34.588  26.987  1.00  0.00     0.009 A 
ATOM     59  C   UNL A   1      52.908  35.475  24.438  1.00  0.00     0.001 A 
ATOM     60  C   UNL A   1      53.159  35.588  26.840  1.00  0.00     0.001 A 
ATOM     61  C   UNL A   1      53.519  36.022  25.566  1.00  0.00     0.000 A 
ENDBRANCH  43  56
ENDBRANCH  17  18
ENDBRANCH  10  12
ENDBRANCH   9  10
ENDBRANCH   8   9
ENDBRANCH   7   8
ENDBRANCH   6   7
ENDBRANCH   5   6
ENDBRANCH   4   5
ENDBRANCH   3   4
ENDBRANCH   2   3
ENDBRANCH   1   2
BRANCH   1  62
ATOM     62  O   UNL A   1      36.546  29.722  28.544  1.00  0.00    -0.376 OA
BRANCH  62  63
ATOM     63  C   UNL A   1      35.293  30.169  28.038  1.00  0.00     0.202 C 
BRANCH  63  64
ATOM     64  C   UNL A   1      34.365  29.264  27.207  1.00  0.00     0.261 C 
BRANCH  64  65
ATOM     65  O   UNL A   1      32.940  29.409  27.459  1.00  0.00    -0.463 OA
BRANCH  65  66
ATOM     66  C   UNL A   1      32.185  28.284  27.285  1.00  0.00     0.313 C 
ATOM     67  O   UNL A   1      31.432  27.858  28.141  1.00  0.00    -0.252 OA
BRANCH  66  68
ATOM     68  C   UNL A   1      32.361  27.541  25.927  1.00  0.00     0.131 C 
BRANCH  68  69
ATOM     69  C   UNL A   1      32.958  26.106  25.884  1.00  0.00     0.048 C 
BRANCH  69  70
ATOM     70  C   UNL A   1      33.989  25.624  24.848  1.00  0.00     0.161 C 
BRANCH  70  71
ATOM     71  O   UNL A   1      33.628  24.549  23.999  1.00  0.00    -0.379 OA
BRANCH  71  72
ATOM     72  C   UNL A   1      32.679  24.833  22.975  1.00  0.00     0.188 C 
BRANCH  72  73
ATOM     73  C   UNL A   1      33.126  25.817  21.890  1.00  0.00     0.184 C 
BRANCH  73  74
ATOM     74  O   UNL A   1      32.254  26.922  21.694  1.00  0.00    -0.394 OA
ATOM     75  H   UNL A   1      32.746  27.654  21.288  1.00  0.00     0.210 HD
ENDBRANCH  73  74
ENDBRANCH  72  73
ENDBRANCH  71  72
ENDBRANCH  70  71
ENDBRANCH  69  70
ENDBRANCH  68  69
BRANCH  68  76
ATOM     76  C   UNL A   1      31.214  27.833  24.957  1.00  0.00    -0.031 A 
ATOM     77  C   UNL A   1      31.075  29.070  24.307  1.00  0.00     0.005 A 
ATOM     78  C   UNL A   1      30.241  26.853  24.697  1.00  0.00     0.043 A 
ATOM     79  C   UNL A   1      30.104  29.271  23.327  1.00  0.00     0.003 A 
ATOM     80  C   UNL A   1      29.266  27.065  23.730  1.00  0.00     0.123 A 
ATOM     81  C   UNL A   1      29.208  28.255  23.022  1.00  0.00     0.039 A 
ATOM     82  F   UNL A   1      28.383  26.094  23.466  1.00  0.00    -0.207 F 
ENDBRANCH  68  76
ENDBRANCH  66  68
ENDBRANCH  65  66
ENDBRANCH  64  65
ENDBRANCH  63  64
ENDBRANCH  62  63
ENDBRANCH   1  62
TORSDOF 27
ENDMDL
