MODEL 1
REMARK VINA RESULT:      -9.6      0.000      0.000
REMARK SMILES CC[C@@H]1C=CCN1S(=O)(=O)c1sc2c(c1C(=O)OCCOCCOCCOCCOC(=O)c1ccc(-c3c4nc(c(-c5ccccc5)c5ccc([nH]5)c(-c5ccccc5)c5nc(c(-c6ccccc6)c6ccc3[nH]6)C=C5)C=C4)cc1)CC[NH2+]C2
REMARK SMILES IDX 23 1 22 2 21 3 20 4 19 5 18 6 16 7 17 8 15 9 11 10 12 11
REMARK SMILES IDX 13 12 14 13 84 14 81 15 83 16 82 17 8 20 9 21 10 22 7 23
REMARK SMILES IDX 3 24 4 25 5 26 6 27 2 28 1 29 24 30 25 31 26 32 27 33 28 34
REMARK SMILES IDX 29 35 30 36 31 37 32 38 33 39 34 40 80 41 35 42 79 43 36 44
REMARK SMILES IDX 37 45 38 46 73 47 39 48 78 49 72 50 74 51 40 52 77 53 71 54
REMARK SMILES IDX 70 55 41 57 63 58 48 59 62 60 49 61 52 62 61 63 75 64 50 65
REMARK SMILES IDX 51 66 60 68 76 69 53 70 42 71 43 72 47 73 44 74 46 75 45 76
REMARK SMILES IDX 64 77 65 78 69 79 66 80 68 81 67 82 54 83 55 84 59 85 56 86
REMARK SMILES IDX 58 87 57 88
REMARK H PARENT 83 18 83 19 74 56 52 67
REMARK Flexibility Score: inf
ROOT
ATOM      1  C   UNL A   1      34.626  33.107  27.778  1.00  0.00     0.188 C 
ENDROOT
BRANCH   1   2
ATOM      2  C   UNL A   1      34.062  31.694  28.081  1.00  0.00     0.188 C 
BRANCH   2   3
ATOM      3  O   UNL A   1      34.463  30.690  27.167  1.00  0.00    -0.376 OA
BRANCH   3   4
ATOM      4  C   UNL A   1      33.807  29.441  27.214  1.00  0.00     0.202 C 
BRANCH   4   5
ATOM      5  C   UNL A   1      34.192  28.434  26.124  1.00  0.00     0.261 C 
BRANCH   5   6
ATOM      6  O   UNL A   1      33.692  27.104  26.321  1.00  0.00    -0.460 OA
BRANCH   6   7
ATOM      7  C   UNL A   1      32.381  26.881  26.073  1.00  0.00     0.340 C 
ATOM      8  O   UNL A   1      31.532  26.760  26.946  1.00  0.00    -0.246 OA
BRANCH   7   9
ATOM      9  C   UNL A   1      32.042  27.009  24.653  1.00  0.00     0.095 A 
ATOM     10  C   UNL A   1      32.351  26.072  23.658  1.00  0.00     0.150 A 
ATOM     11  S   UNL A   1      31.671  26.544  22.155  1.00  0.00    -0.120 S 
ATOM     12  C   UNL A   1      30.993  27.948  22.775  1.00  0.00     0.064 A 
ATOM     13  C   UNL A   1      31.343  28.155  24.090  1.00  0.00    -0.007 A 
ATOM     14  C   UNL A   1      30.105  28.841  21.964  1.00  0.00     0.308 C 
ATOM     15  C   UNL A   1      30.993  29.467  24.743  1.00  0.00     0.099 C 
ATOM     16  N   UNL A   1      30.141  30.219  22.480  1.00  0.00    -0.342 N 
ATOM     17  C   UNL A   1      29.913  30.232  23.940  1.00  0.00     0.265 C 
ATOM     18  H   UNL A   1      31.053  30.628  22.280  1.00  0.00     0.346 HD
ATOM     19  H   UNL A   1      29.405  30.760  22.027  1.00  0.00     0.346 HD
BRANCH  10  20
ATOM     20  S   UNL A   1      33.133  24.443  23.672  1.00  0.00     0.254 S 
ATOM     21  O   UNL A   1      34.468  24.717  24.163  1.00  0.00    -0.206 OA
ATOM     22  O   UNL A   1      32.943  23.910  22.338  1.00  0.00    -0.206 OA
BRANCH  20  23
ATOM     23  N   UNL A   1      32.405  23.321  24.743  1.00  0.00    -0.186 NA
ATOM     24  C   UNL A   1      33.125  23.196  26.069  1.00  0.00     0.096 C 
ATOM     25  C   UNL A   1      32.018  23.303  27.072  1.00  0.00    -0.010 C 
ATOM     26  C   UNL A   1      30.827  23.412  26.490  1.00  0.00    -0.013 C 
ATOM     27  C   UNL A   1      30.955  23.490  25.020  1.00  0.00     0.130 C 
BRANCH  24  28
ATOM     28  C   UNL A   1      33.909  21.866  26.127  1.00  0.00     0.021 C 
ATOM     29  C   UNL A   1      34.108  21.141  24.796  1.00  0.00     0.006 C 
ENDBRANCH  24  28
ENDBRANCH  20  23
ENDBRANCH  10  20
ENDBRANCH   7   9
ENDBRANCH   6   7
ENDBRANCH   5   6
ENDBRANCH   4   5
ENDBRANCH   3   4
ENDBRANCH   2   3
ENDBRANCH   1   2
BRANCH   1  30
ATOM     30  O   UNL A   1      33.827  34.287  27.746  1.00  0.00    -0.377 OA
BRANCH  30  31
ATOM     31  C   UNL A   1      34.387  35.526  28.154  1.00  0.00     0.188 C 
BRANCH  31  32
ATOM     32  C   UNL A   1      33.402  36.576  28.718  1.00  0.00     0.188 C 
BRANCH  32  33
ATOM     33  O   UNL A   1      32.777  36.192  29.938  1.00  0.00    -0.376 OA
BRANCH  33  34
ATOM     34  C   UNL A   1      33.024  36.912  31.132  1.00  0.00     0.202 C 
BRANCH  34  35
ATOM     35  C   UNL A   1      32.518  36.336  32.451  1.00  0.00     0.261 C 
BRANCH  35  36
ATOM     36  O   UNL A   1      32.944  35.016  32.715  1.00  0.00    -0.460 OA
BRANCH  36  37
ATOM     37  C   UNL A   1      34.182  34.884  33.215  1.00  0.00     0.338 C 
ATOM     38  O   UNL A   1      34.773  35.657  33.947  1.00  0.00    -0.246 OA
BRANCH  37  39
ATOM     39  C   UNL A   1      34.774  33.684  32.614  1.00  0.00     0.060 A 
ATOM     40  C   UNL A   1      35.538  32.898  33.473  1.00  0.00     0.016 A 
ATOM     41  C   UNL A   1      34.914  33.642  31.218  1.00  0.00     0.016 A 
ATOM     42  C   UNL A   1      36.669  32.322  32.956  1.00  0.00     0.010 A 
ATOM     43  C   UNL A   1      36.062  33.100  30.708  1.00  0.00     0.010 A 
ATOM     44  C   UNL A   1      36.969  32.552  31.608  1.00  0.00    -0.014 A 
BRANCH  44  45
ATOM     45  C   UNL A   1      38.300  32.228  31.171  1.00  0.00     0.031 A 
ATOM     46  C   UNL A   1      38.450  30.844  30.707  1.00  0.00     0.074 A 
ATOM     47  C   UNL A   1      39.283  33.142  31.129  1.00  0.00     0.049 A 
ATOM     48  N   UNL A   1      39.106  29.893  31.279  1.00  0.00    -0.248 NA
ATOM     49  C   UNL A   1      37.652  30.436  29.543  1.00  0.00     0.031 C 
ATOM     50  C   UNL A   1      39.182  34.599  31.244  1.00  0.00     0.029 A 
ATOM     51  N   UNL A   1      40.590  32.938  30.835  1.00  0.00    -0.354 N 
ATOM     52  C   UNL A   1      38.949  28.795  30.448  1.00  0.00     0.074 A 
ATOM     53  C   UNL A   1      37.908  29.131  29.508  1.00  0.00     0.031 C 
ATOM     54  C   UNL A   1      40.326  35.148  30.775  1.00  0.00     0.029 A 
ATOM     55  C   UNL A   1      41.262  34.083  30.451  1.00  0.00     0.049 A 
ATOM     56  H   UNL A   1      41.021  32.055  30.891  1.00  0.00     0.167 HD
ATOM     57  C   UNL A   1      39.863  27.791  30.421  1.00  0.00     0.031 A 
ATOM     58  C   UNL A   1      42.453  34.115  29.804  1.00  0.00     0.031 A 
ATOM     59  C   UNL A   1      40.724  27.804  31.575  1.00  0.00     0.049 A 
ATOM     60  C   UNL A   1      43.108  32.794  29.991  1.00  0.00     0.074 A 
ATOM     61  C   UNL A   1      40.512  27.744  32.939  1.00  0.00     0.029 A 
ATOM     62  N   UNL A   1      42.002  28.286  31.416  1.00  0.00    -0.354 N 
ATOM     63  N   UNL A   1      43.565  32.368  31.135  1.00  0.00    -0.248 NA
ATOM     64  C   UNL A   1      42.857  31.754  29.002  1.00  0.00     0.031 C 
ATOM     65  C   UNL A   1      41.471  28.635  33.502  1.00  0.00     0.029 A 
ATOM     66  C   UNL A   1      42.239  29.149  32.455  1.00  0.00     0.049 A 
ATOM     67  H   UNL A   1      42.629  28.055  30.692  1.00  0.00     0.167 HD
ATOM     68  C   UNL A   1      43.258  31.014  31.164  1.00  0.00     0.074 A 
ATOM     69  C   UNL A   1      42.919  30.673  29.785  1.00  0.00     0.031 C 
ATOM     70  C   UNL A   1      43.023  30.360  32.343  1.00  0.00     0.031 A 
BRANCH  57  71
ATOM     71  C   UNL A   1      40.219  27.071  29.150  1.00  0.00    -0.014 A 
ATOM     72  C   UNL A   1      41.031  27.722  28.209  1.00  0.00     0.009 A 
ATOM     73  C   UNL A   1      39.568  25.895  28.725  1.00  0.00     0.009 A 
ATOM     74  C   UNL A   1      41.140  27.246  26.899  1.00  0.00     0.001 A 
ATOM     75  C   UNL A   1      39.713  25.391  27.434  1.00  0.00     0.001 A 
ATOM     76  C   UNL A   1      40.480  26.084  26.511  1.00  0.00     0.000 A 
ENDBRANCH  57  71
BRANCH  58  77
ATOM     77  C   UNL A   1      42.883  35.088  28.777  1.00  0.00    -0.014 A 
ATOM     78  C   UNL A   1      42.057  35.395  27.687  1.00  0.00     0.009 A 
ATOM     79  C   UNL A   1      44.012  35.905  28.990  1.00  0.00     0.009 A 
ATOM     80  C   UNL A   1      42.335  36.493  26.860  1.00  0.00     0.001 A 
ATOM     81  C   UNL A   1      44.296  36.992  28.161  1.00  0.00     0.001 A 
ATOM     82  C   UNL A   1      43.449  37.295  27.102  1.00  0.00     0.000 A 
ENDBRANCH  58  77
BRANCH  70  83
ATOM     83  C   UNL A   1      43.329  31.081  33.634  1.00  0.00    -0.014 A 
ATOM     84  C   UNL A   1      42.424  31.969  34.243  1.00  0.00     0.009 A 
ATOM     85  C   UNL A   1      44.485  30.723  34.344  1.00  0.00     0.009 A 
ATOM     86  C   UNL A   1      42.686  32.507  35.507  1.00  0.00     0.001 A 
ATOM     87  C   UNL A   1      44.736  31.243  35.616  1.00  0.00     0.001 A 
ATOM     88  C   UNL A   1      43.840  32.139  36.195  1.00  0.00     0.000 A 
ENDBRANCH  70  83
ENDBRANCH  44  45
ENDBRANCH  37  39
ENDBRANCH  36  37
ENDBRANCH  35  36
ENDBRANCH  34  35
ENDBRANCH  33  34
ENDBRANCH  32  33
ENDBRANCH  31  32
ENDBRANCH  30  31
ENDBRANCH   1  30
TORSDOF 23
ENDMDL
MODEL 2
REMARK VINA RESULT:      -9.5      5.118     10.411
REMARK SMILES CC[C@@H]1C=CCN1S(=O)(=O)c1sc2c(c1C(=O)OCCOCCOCCOCCOC(=O)c1ccc(-c3c4nc(c(-c5ccccc5)c5ccc([nH]5)c(-c5ccccc5)c5nc(c(-c6ccccc6)c6ccc3[nH]6)C=C5)C=C4)cc1)CC[NH2+]C2
REMARK SMILES IDX 23 1 22 2 21 3 20 4 19 5 18 6 16 7 17 8 15 9 11 10 12 11
REMARK SMILES IDX 13 12 14 13 84 14 81 15 83 16 82 17 8 20 9 21 10 22 7 23
REMARK SMILES IDX 3 24 4 25 5 26 6 27 2 28 1 29 24 30 25 31 26 32 27 33 28 34
REMARK SMILES IDX 29 35 30 36 31 37 32 38 33 39 34 40 80 41 35 42 79 43 36 44
REMARK SMILES IDX 37 45 38 46 73 47 39 48 78 49 72 50 74 51 40 52 77 53 71 54
REMARK SMILES IDX 70 55 41 57 63 58 48 59 62 60 49 61 52 62 61 63 75 64 50 65
REMARK SMILES IDX 51 66 60 68 76 69 53 70 42 71 43 72 47 73 44 74 46 75 45 76
REMARK SMILES IDX 64 77 65 78 69 79 66 80 68 81 67 82 54 83 55 84 59 85 56 86
REMARK SMILES IDX 58 87 57 88
REMARK H PARENT 83 18 83 19 74 56 52 67
REMARK Flexibility Score: inf
ROOT
ATOM      1  C   UNL A   1      38.689  22.199  26.308  1.00  0.00     0.188 C 
ENDROOT
BRANCH   1   2
ATOM      2  C   UNL A   1      37.895  23.529  26.229  1.00  0.00     0.188 C 
BRANCH   2   3
ATOM      3  O   UNL A   1      36.969  23.601  25.160  1.00  0.00    -0.376 OA
BRANCH   3   4
ATOM      4  C   UNL A   1      37.136  22.720  24.070  1.00  0.00     0.202 C 
BRANCH   4   5
ATOM      5  C   UNL A   1      36.343  23.058  22.801  1.00  0.00     0.261 C 
BRANCH   5   6
ATOM      6  O   UNL A   1      35.207  23.911  23.004  1.00  0.00    -0.460 OA
BRANCH   6   7
ATOM      7  C   UNL A   1      34.007  23.478  22.553  1.00  0.00     0.340 C 
ATOM      8  O   UNL A   1      33.747  23.299  21.370  1.00  0.00    -0.246 OA
BRANCH   7   9
ATOM      9  C   UNL A   1      33.118  23.043  23.633  1.00  0.00     0.095 A 
ATOM     10  C   UNL A   1      32.068  23.797  24.173  1.00  0.00     0.150 A 
ATOM     11  S   UNL A   1      31.199  22.877  25.331  1.00  0.00    -0.120 S 
ATOM     12  C   UNL A   1      32.172  21.522  25.150  1.00  0.00     0.064 A 
ATOM     13  C   UNL A   1      33.230  21.755  24.301  1.00  0.00    -0.007 A 
ATOM     14  C   UNL A   1      31.884  20.224  25.840  1.00  0.00     0.308 C 
ATOM     15  C   UNL A   1      34.316  20.717  24.183  1.00  0.00     0.099 C 
ATOM     16  N   UNL A   1      33.118  19.441  26.013  1.00  0.00    -0.342 N 
ATOM     17  C   UNL A   1      33.855  19.346  24.736  1.00  0.00     0.265 C 
ATOM     18  H   UNL A   1      33.709  19.897  26.709  1.00  0.00     0.346 HD
ATOM     19  H   UNL A   1      32.871  18.501  26.323  1.00  0.00     0.346 HD
BRANCH  10  20
ATOM     20  S   UNL A   1      31.358  25.412  23.781  1.00  0.00     0.254 S 
ATOM     21  O   UNL A   1      30.092  25.401  24.488  1.00  0.00    -0.206 OA
ATOM     22  O   UNL A   1      31.383  25.506  22.335  1.00  0.00    -0.206 OA
BRANCH  20  23
ATOM     23  N   UNL A   1      32.267  26.742  24.363  1.00  0.00    -0.186 NA
ATOM     24  C   UNL A   1      31.640  27.425  25.560  1.00  0.00     0.096 C 
ATOM     25  C   UNL A   1      32.781  27.547  26.523  1.00  0.00    -0.010 C 
ATOM     26  C   UNL A   1      33.919  27.087  26.009  1.00  0.00    -0.013 C 
ATOM     27  C   UNL A   1      33.701  26.502  24.668  1.00  0.00     0.130 C 
BRANCH  24  28
ATOM     28  C   UNL A   1      31.017  28.775  25.139  1.00  0.00     0.021 C 
ATOM     29  C   UNL A   1      31.951  29.985  25.161  1.00  0.00     0.006 C 
ENDBRANCH  24  28
ENDBRANCH  20  23
ENDBRANCH  10  20
ENDBRANCH   7   9
ENDBRANCH   6   7
ENDBRANCH   5   6
ENDBRANCH   4   5
ENDBRANCH   3   4
ENDBRANCH   2   3
ENDBRANCH   1   2
BRANCH   1  30
ATOM     30  O   UNL A   1      40.058  22.118  26.698  1.00  0.00    -0.377 OA
BRANCH  30  31
ATOM     31  C   UNL A   1      40.650  20.848  26.926  1.00  0.00     0.188 C 
BRANCH  31  32
ATOM     32  C   UNL A   1      40.197  19.698  25.998  1.00  0.00     0.188 C 
BRANCH  32  33
ATOM     33  O   UNL A   1      41.235  18.788  25.648  1.00  0.00    -0.376 OA
BRANCH  33  34
ATOM     34  C   UNL A   1      42.465  18.793  26.349  1.00  0.00     0.202 C 
BRANCH  34  35
ATOM     35  C   UNL A   1      43.761  18.670  25.553  1.00  0.00     0.261 C 
BRANCH  35  36
ATOM     36  O   UNL A   1      44.499  19.869  25.449  1.00  0.00    -0.460 OA
BRANCH  36  37
ATOM     37  C   UNL A   1      44.680  20.344  24.206  1.00  0.00     0.338 C 
ATOM     38  O   UNL A   1      44.565  19.739  23.156  1.00  0.00    -0.246 OA
BRANCH  37  39
ATOM     39  C   UNL A   1      45.180  21.718  24.329  1.00  0.00     0.060 A 
ATOM     40  C   UNL A   1      46.166  21.914  25.292  1.00  0.00     0.016 A 
ATOM     41  C   UNL A   1      44.379  22.761  23.838  1.00  0.00     0.016 A 
ATOM     42  C   UNL A   1      46.123  23.083  26.005  1.00  0.00     0.010 A 
ATOM     43  C   UNL A   1      44.309  23.913  24.574  1.00  0.00     0.010 A 
ATOM     44  C   UNL A   1      45.104  23.997  25.711  1.00  0.00    -0.014 A 
BRANCH  44  45
ATOM     45  C   UNL A   1      44.871  25.045  26.667  1.00  0.00     0.031 A 
ATOM     46  C   UNL A   1      45.951  26.037  26.735  1.00  0.00     0.074 A 
ATOM     47  C   UNL A   1      43.731  25.132  27.372  1.00  0.00     0.049 A 
ATOM     48  N   UNL A   1      46.781  26.227  27.702  1.00  0.00    -0.248 NA
ATOM     49  C   UNL A   1      46.228  26.809  25.516  1.00  0.00     0.031 C 
ATOM     50  C   UNL A   1      42.471  24.416  27.163  1.00  0.00     0.029 A 
ATOM     51  N   UNL A   1      43.437  26.005  28.366  1.00  0.00    -0.354 N 
ATOM     52  C   UNL A   1      47.588  27.274  27.285  1.00  0.00     0.074 A 
ATOM     53  C   UNL A   1      47.327  27.465  25.880  1.00  0.00     0.031 C 
ATOM     54  C   UNL A   1      41.490  25.063  27.834  1.00  0.00     0.029 A 
ATOM     55  C   UNL A   1      42.083  26.147  28.603  1.00  0.00     0.049 A 
ATOM     56  H   UNL A   1      44.125  26.493  28.872  1.00  0.00     0.167 HD
ATOM     57  C   UNL A   1      48.217  28.082  28.178  1.00  0.00     0.031 A 
ATOM     58  C   UNL A   1      41.508  27.164  29.290  1.00  0.00     0.031 A 
ATOM     59  C   UNL A   1      48.276  27.502  29.494  1.00  0.00     0.049 A 
ATOM     60  C   UNL A   1      42.564  27.815  30.109  1.00  0.00     0.074 A 
ATOM     61  C   UNL A   1      48.786  26.326  30.009  1.00  0.00     0.029 A 
ATOM     62  N   UNL A   1      47.405  27.980  30.445  1.00  0.00    -0.354 N 
ATOM     63  N   UNL A   1      43.141  27.246  31.130  1.00  0.00    -0.248 NA
ATOM     64  C   UNL A   1      43.302  28.927  29.524  1.00  0.00     0.031 C 
ATOM     65  C   UNL A   1      47.847  25.919  31.001  1.00  0.00     0.029 A 
ATOM     66  C   UNL A   1      46.847  26.891  31.064  1.00  0.00     0.049 A 
ATOM     67  H   UNL A   1      47.218  28.926  30.644  1.00  0.00     0.167 HD
ATOM     68  C   UNL A   1      44.474  27.631  31.051  1.00  0.00     0.074 A 
ATOM     69  C   UNL A   1      44.490  28.747  30.107  1.00  0.00     0.031 C 
ATOM     70  C   UNL A   1      45.477  26.832  31.527  1.00  0.00     0.031 A 
BRANCH  57  71
ATOM     71  C   UNL A   1      48.398  29.554  27.929  1.00  0.00    -0.014 A 
ATOM     72  C   UNL A   1      49.685  30.103  28.023  1.00  0.00     0.009 A 
ATOM     73  C   UNL A   1      47.320  30.462  27.875  1.00  0.00     0.009 A 
ATOM     74  C   UNL A   1      49.876  31.485  28.112  1.00  0.00     0.001 A 
ATOM     75  C   UNL A   1      47.509  31.842  27.914  1.00  0.00     0.001 A 
ATOM     76  C   UNL A   1      48.789  32.354  28.060  1.00  0.00     0.000 A 
ENDBRANCH  57  71
BRANCH  58  77
ATOM     77  C   UNL A   1      40.199  27.795  29.018  1.00  0.00    -0.014 A 
ATOM     78  C   UNL A   1      39.220  27.880  30.018  1.00  0.00     0.009 A 
ATOM     79  C   UNL A   1      39.991  28.538  27.839  1.00  0.00     0.009 A 
ATOM     80  C   UNL A   1      38.092  28.697  29.855  1.00  0.00     0.001 A 
ATOM     81  C   UNL A   1      38.863  29.344  27.670  1.00  0.00     0.001 A 
ATOM     82  C   UNL A   1      37.919  29.434  28.685  1.00  0.00     0.000 A 
ENDBRANCH  58  77
BRANCH  70  83
ATOM     83  C   UNL A   1      45.101  25.624  32.350  1.00  0.00    -0.014 A 
ATOM     84  C   UNL A   1      45.082  25.636  33.756  1.00  0.00     0.009 A 
ATOM     85  C   UNL A   1      44.585  24.497  31.690  1.00  0.00     0.009 A 
ATOM     86  C   UNL A   1      44.593  24.542  34.477  1.00  0.00     0.001 A 
ATOM     87  C   UNL A   1      44.077  23.414  32.410  1.00  0.00     0.001 A 
ATOM     88  C   UNL A   1      44.086  23.433  33.803  1.00  0.00     0.000 A 
ENDBRANCH  70  83
ENDBRANCH  44  45
ENDBRANCH  37  39
ENDBRANCH  36  37
ENDBRANCH  35  36
ENDBRANCH  34  35
ENDBRANCH  33  34
ENDBRANCH  32  33
ENDBRANCH  31  32
ENDBRANCH  30  31
ENDBRANCH   1  30
TORSDOF 23
ENDMDL
MODEL 3
REMARK VINA RESULT:      -9.5      3.933      8.750
REMARK SMILES CC[C@@H]1C=CCN1S(=O)(=O)c1sc2c(c1C(=O)OCCOCCOCCOCCOC(=O)c1ccc(-c3c4nc(c(-c5ccccc5)c5ccc([nH]5)c(-c5ccccc5)c5nc(c(-c6ccccc6)c6ccc3[nH]6)C=C5)C=C4)cc1)CC[NH2+]C2
REMARK SMILES IDX 23 1 22 2 21 3 20 4 19 5 18 6 16 7 17 8 15 9 11 10 12 11
REMARK SMILES IDX 13 12 14 13 84 14 81 15 83 16 82 17 8 20 9 21 10 22 7 23
REMARK SMILES IDX 3 24 4 25 5 26 6 27 2 28 1 29 24 30 25 31 26 32 27 33 28 34
REMARK SMILES IDX 29 35 30 36 31 37 32 38 33 39 34 40 80 41 35 42 79 43 36 44
REMARK SMILES IDX 37 45 38 46 73 47 39 48 78 49 72 50 74 51 40 52 77 53 71 54
REMARK SMILES IDX 70 55 41 57 63 58 48 59 62 60 49 61 52 62 61 63 75 64 50 65
REMARK SMILES IDX 51 66 60 68 76 69 53 70 42 71 43 72 47 73 44 74 46 75 45 76
REMARK SMILES IDX 64 77 65 78 69 79 66 80 68 81 67 82 54 83 55 84 59 85 56 86
REMARK SMILES IDX 58 87 57 88
REMARK H PARENT 83 18 83 19 74 56 52 67
REMARK Flexibility Score: inf
ROOT
ATOM      1  C   UNL A   1      41.474  22.170  25.782  1.00  0.00     0.188 C 
ENDROOT
BRANCH   1   2
ATOM      2  C   UNL A   1      40.081  22.103  26.461  1.00  0.00     0.188 C 
BRANCH   2   3
ATOM      3  O   UNL A   1      39.563  23.355  26.871  1.00  0.00    -0.376 OA
BRANCH   3   4
ATOM      4  C   UNL A   1      38.425  23.859  26.206  1.00  0.00     0.202 C 
BRANCH   4   5
ATOM      5  C   UNL A   1      37.306  22.850  25.923  1.00  0.00     0.261 C 
BRANCH   5   6
ATOM      6  O   UNL A   1      36.086  23.418  25.425  1.00  0.00    -0.460 OA
BRANCH   6   7
ATOM      7  C   UNL A   1      35.743  23.150  24.145  1.00  0.00     0.340 C 
ATOM      8  O   UNL A   1      36.520  23.219  23.201  1.00  0.00    -0.246 OA
BRANCH   7   9
ATOM      9  C   UNL A   1      34.405  22.564  24.027  1.00  0.00     0.095 A 
ATOM     10  C   UNL A   1      33.241  23.262  23.681  1.00  0.00     0.150 A 
ATOM     11  S   UNL A   1      31.913  22.186  23.535  1.00  0.00    -0.120 S 
ATOM     12  C   UNL A   1      32.824  20.831  23.924  1.00  0.00     0.064 A 
ATOM     13  C   UNL A   1      34.114  21.159  24.275  1.00  0.00    -0.007 A 
ATOM     14  C   UNL A   1      32.267  19.442  23.873  1.00  0.00     0.308 C 
ATOM     15  C   UNL A   1      35.010  20.092  24.849  1.00  0.00     0.099 C 
ATOM     16  N   UNL A   1      33.001  18.552  24.787  1.00  0.00    -0.342 N 
ATOM     17  C   UNL A   1      34.458  18.673  24.569  1.00  0.00     0.265 C 
ATOM     18  H   UNL A   1      32.784  18.807  25.750  1.00  0.00     0.346 HD
ATOM     19  H   UNL A   1      32.719  17.589  24.606  1.00  0.00     0.346 HD
BRANCH  10  20
ATOM     20  S   UNL A   1      32.904  24.970  23.198  1.00  0.00     0.254 S 
ATOM     21  O   UNL A   1      31.480  24.967  22.927  1.00  0.00    -0.206 OA
ATOM     22  O   UNL A   1      33.846  25.266  22.136  1.00  0.00    -0.206 OA
BRANCH  20  23
ATOM     23  N   UNL A   1      33.197  26.123  24.431  1.00  0.00    -0.186 NA
ATOM     24  C   UNL A   1      32.595  27.482  24.144  1.00  0.00     0.096 C 
ATOM     25  C   UNL A   1      31.890  27.822  25.420  1.00  0.00    -0.010 C 
ATOM     26  C   UNL A   1      32.065  26.888  26.351  1.00  0.00    -0.013 C 
ATOM     27  C   UNL A   1      32.830  25.740  25.819  1.00  0.00     0.130 C 
BRANCH  24  28
ATOM     28  C   UNL A   1      33.702  28.483  23.743  1.00  0.00     0.021 C 
ATOM     29  C   UNL A   1      33.962  28.637  22.245  1.00  0.00     0.006 C 
ENDBRANCH  24  28
ENDBRANCH  20  23
ENDBRANCH  10  20
ENDBRANCH   7   9
ENDBRANCH   6   7
ENDBRANCH   5   6
ENDBRANCH   4   5
ENDBRANCH   3   4
ENDBRANCH   2   3
ENDBRANCH   1   2
BRANCH   1  30
ATOM     30  O   UNL A   1      42.555  22.961  26.270  1.00  0.00    -0.377 OA
BRANCH  30  31
ATOM     31  C   UNL A   1      42.714  24.294  25.811  1.00  0.00     0.188 C 
BRANCH  31  32
ATOM     32  C   UNL A   1      43.966  25.051  26.309  1.00  0.00     0.188 C 
BRANCH  32  33
ATOM     33  O   UNL A   1      44.843  24.264  27.108  1.00  0.00    -0.376 OA
BRANCH  33  34
ATOM     34  C   UNL A   1      46.202  24.632  27.263  1.00  0.00     0.202 C 
BRANCH  34  35
ATOM     35  C   UNL A   1      46.622  25.362  28.535  1.00  0.00     0.261 C 
BRANCH  35  36
ATOM     36  O   UNL A   1      45.608  26.153  29.117  1.00  0.00    -0.460 OA
BRANCH  36  37
ATOM     37  C   UNL A   1      45.424  25.999  30.437  1.00  0.00     0.338 C 
ATOM     38  O   UNL A   1      46.220  25.568  31.252  1.00  0.00    -0.246 OA
BRANCH  37  39
ATOM     39  C   UNL A   1      44.023  26.320  30.728  1.00  0.00     0.060 A 
ATOM     40  C   UNL A   1      43.172  26.345  29.625  1.00  0.00     0.016 A 
ATOM     41  C   UNL A   1      43.730  26.984  31.929  1.00  0.00     0.016 A 
ATOM     42  C   UNL A   1      42.196  27.307  29.608  1.00  0.00     0.010 A 
ATOM     43  C   UNL A   1      42.781  27.970  31.899  1.00  0.00     0.010 A 
ATOM     44  C   UNL A   1      42.116  28.183  30.697  1.00  0.00    -0.014 A 
BRANCH  44  45
ATOM     45  C   UNL A   1      41.324  29.371  30.522  1.00  0.00     0.031 A 
ATOM     46  C   UNL A   1      42.098  30.541  30.094  1.00  0.00     0.074 A 
ATOM     47  C   UNL A   1      39.989  29.370  30.670  1.00  0.00     0.049 A 
ATOM     48  N   UNL A   1      42.359  31.601  30.780  1.00  0.00    -0.248 NA
ATOM     49  C   UNL A   1      42.785  30.454  28.798  1.00  0.00     0.031 C 
ATOM     50  C   UNL A   1      39.080  28.225  30.765  1.00  0.00     0.029 A 
ATOM     51  N   UNL A   1      39.152  30.436  30.631  1.00  0.00    -0.354 N 
ATOM     52  C   UNL A   1      43.107  32.405  29.932  1.00  0.00     0.074 A 
ATOM     53  C   UNL A   1      43.490  31.582  28.811  1.00  0.00     0.031 C 
ATOM     54  C   UNL A   1      37.820  28.654  30.524  1.00  0.00     0.029 A 
ATOM     55  C   UNL A   1      37.833  30.102  30.383  1.00  0.00     0.049 A 
ATOM     56  H   UNL A   1      39.455  31.361  30.767  1.00  0.00     0.167 HD
ATOM     57  C   UNL A   1      43.136  33.754  30.080  1.00  0.00     0.031 A 
ATOM     58  C   UNL A   1      36.868  30.962  29.976  1.00  0.00     0.031 A 
ATOM     59  C   UNL A   1      42.672  34.173  31.377  1.00  0.00     0.049 A 
ATOM     60  C   UNL A   1      37.330  32.341  30.283  1.00  0.00     0.074 A 
ATOM     61  C   UNL A   1      43.056  33.897  32.675  1.00  0.00     0.029 A 
ATOM     62  N   UNL A   1      41.406  34.701  31.465  1.00  0.00    -0.354 N 
ATOM     63  N   UNL A   1      37.454  32.810  31.493  1.00  0.00    -0.248 NA
ATOM     64  C   UNL A   1      38.083  33.059  29.263  1.00  0.00     0.031 C 
ATOM     65  C   UNL A   1      41.839  33.819  33.412  1.00  0.00     0.029 A 
ATOM     66  C   UNL A   1      40.791  34.095  32.531  1.00  0.00     0.049 A 
ATOM     67  H   UNL A   1      41.013  35.384  30.874  1.00  0.00     0.167 HD
ATOM     68  C   UNL A   1      38.605  33.587  31.461  1.00  0.00     0.074 A 
ATOM     69  C   UNL A   1      38.888  33.788  30.042  1.00  0.00     0.031 C 
ATOM     70  C   UNL A   1      39.385  33.754  32.572  1.00  0.00     0.031 A 
BRANCH  57  71
ATOM     71  C   UNL A   1      43.195  34.683  28.899  1.00  0.00    -0.014 A 
ATOM     72  C   UNL A   1      42.035  35.378  28.526  1.00  0.00     0.009 A 
ATOM     73  C   UNL A   1      44.266  34.693  27.982  1.00  0.00     0.009 A 
ATOM     74  C   UNL A   1      41.938  36.002  27.278  1.00  0.00     0.001 A 
ATOM     75  C   UNL A   1      44.191  35.355  26.758  1.00  0.00     0.001 A 
ATOM     76  C   UNL A   1      43.014  35.988  26.394  1.00  0.00     0.000 A 
ENDBRANCH  57  71
BRANCH  58  77
ATOM     77  C   UNL A   1      35.751  30.675  29.052  1.00  0.00    -0.014 A 
ATOM     78  C   UNL A   1      34.764  31.638  28.797  1.00  0.00     0.009 A 
ATOM     79  C   UNL A   1      35.779  29.536  28.223  1.00  0.00     0.009 A 
ATOM     80  C   UNL A   1      33.859  31.478  27.739  1.00  0.00     0.001 A 
ATOM     81  C   UNL A   1      34.871  29.370  27.175  1.00  0.00     0.001 A 
ATOM     82  C   UNL A   1      33.918  30.349  26.923  1.00  0.00     0.000 A 
ENDBRANCH  58  77
BRANCH  70  83
ATOM     83  C   UNL A   1      38.855  33.266  33.899  1.00  0.00    -0.014 A 
ATOM     84  C   UNL A   1      39.085  31.964  34.379  1.00  0.00     0.009 A 
ATOM     85  C   UNL A   1      38.255  34.194  34.764  1.00  0.00     0.009 A 
ATOM     86  C   UNL A   1      38.698  31.596  35.672  1.00  0.00     0.001 A 
ATOM     87  C   UNL A   1      37.888  33.832  36.063  1.00  0.00     0.001 A 
ATOM     88  C   UNL A   1      38.104  32.533  36.515  1.00  0.00     0.000 A 
ENDBRANCH  70  83
ENDBRANCH  44  45
ENDBRANCH  37  39
ENDBRANCH  36  37
ENDBRANCH  35  36
ENDBRANCH  34  35
ENDBRANCH  33  34
ENDBRANCH  32  33
ENDBRANCH  31  32
ENDBRANCH  30  31
ENDBRANCH   1  30
TORSDOF 23
ENDMDL
