MODEL 1
REMARK VINA RESULT:      -8.5      0.000      0.000
REMARK SMILES C[NH+]1CCC([N@@H+](C)Cc2ccc(C(=O)OCCOCCOCCOCCOC(=O)c3ccc(-c4c5nc(c(-c6ccccc6)c6ccc([nH]6)c(-c6ccccc6)c6nc(c(-c7ccccc7)c7ccc4[nH]7)C=C6)C=C5)cc3)cn2)CC1
REMARK SMILES IDX 20 1 19 2 18 3 17 4 16 5 15 6 13 7 14 8 12 9 9 10 10 11
REMARK SMILES IDX 79 12 11 13 78 14 8 15 6 16 7 17 5 19 1 20 2 21 3 22 81 23
REMARK SMILES IDX 4 25 80 26 21 27 22 28 23 29 24 30 25 31 26 32 27 33 28 34
REMARK SMILES IDX 29 35 30 36 31 37 77 38 32 39 76 40 33 41 34 42 35 43 70 44
REMARK SMILES IDX 36 45 75 46 69 47 71 48 37 49 74 50 68 51 67 52 38 54 60 55
REMARK SMILES IDX 45 56 59 57 46 58 49 59 58 60 72 61 47 62 48 63 57 65 73 66
REMARK SMILES IDX 50 67 39 68 40 69 44 70 41 71 43 72 42 73 61 74 62 75 66 76
REMARK SMILES IDX 63 77 65 78 64 79 51 80 52 81 56 82 53 83 55 84 54 85
REMARK H PARENT 6 18 2 24 71 53 49 64
REMARK Flexibility Score: inf
ROOT
ATOM      1  C   UNL A   1      44.340  20.764  25.099  1.00  0.00     0.188 C 
ENDROOT
BRANCH   1   2
ATOM      2  C   UNL A   1      43.193  19.996  25.791  1.00  0.00     0.188 C 
BRANCH   2   3
ATOM      3  O   UNL A   1      41.910  20.518  25.489  1.00  0.00    -0.376 OA
BRANCH   3   4
ATOM      4  C   UNL A   1      41.318  21.476  26.345  1.00  0.00     0.202 C 
BRANCH   4   5
ATOM      5  C   UNL A   1      39.808  21.445  26.648  1.00  0.00     0.261 C 
BRANCH   5   6
ATOM      6  O   UNL A   1      38.951  21.994  25.645  1.00  0.00    -0.460 OA
BRANCH   6   7
ATOM      7  C   UNL A   1      38.081  21.140  25.075  1.00  0.00     0.339 C 
ATOM      8  O   UNL A   1      38.203  19.933  24.962  1.00  0.00    -0.246 OA
BRANCH   7   9
ATOM      9  C   UNL A   1      36.829  21.866  24.830  1.00  0.00     0.078 A 
ATOM     10  C   UNL A   1      34.331  22.934  24.534  1.00  0.00     0.095 A 
ATOM     11  C   UNL A   1      35.240  23.050  23.475  1.00  0.00     0.031 A 
ATOM     12  N   UNL A   1      34.703  22.502  25.768  1.00  0.00    -0.254 NA
ATOM     13  C   UNL A   1      36.519  22.511  23.632  1.00  0.00     0.019 A 
ATOM     14  C   UNL A   1      35.919  21.931  25.875  1.00  0.00     0.127 A 
BRANCH  10  15
ATOM     15  C   UNL A   1      32.834  22.977  24.261  1.00  0.00     0.319 C 
BRANCH  15  16
ATOM     16  N   UNL A   1      32.079  24.089  24.908  1.00  0.00    -0.330 N 
ATOM     17  C   UNL A   1      31.252  23.607  26.017  1.00  0.00     0.333 C 
ATOM     18  H   UNL A   1      32.828  24.679  25.271  1.00  0.00     0.348 HD
BRANCH  16  19
ATOM     19  C   UNL A   1      31.347  25.047  24.030  1.00  0.00     0.195 C 
ATOM     20  C   UNL A   1      30.324  28.935  22.398  1.00  0.00     0.332 C 
ATOM     21  N   UNL A   1      30.885  27.780  23.090  1.00  0.00    -0.337 N 
ATOM     22  C   UNL A   1      31.401  26.798  22.130  1.00  0.00     0.268 C 
ATOM     23  C   UNL A   1      29.899  27.139  23.965  1.00  0.00     0.268 C 
ATOM     24  H   UNL A   1      31.652  28.122  23.668  1.00  0.00     0.347 HD
ATOM     25  C   UNL A   1      32.135  25.685  22.867  1.00  0.00     0.126 C 
ATOM     26  C   UNL A   1      30.598  26.108  24.853  1.00  0.00     0.126 C 
ENDBRANCH  16  19
ENDBRANCH  15  16
ENDBRANCH  10  15
ENDBRANCH   7   9
ENDBRANCH   6   7
ENDBRANCH   5   6
ENDBRANCH   4   5
ENDBRANCH   3   4
ENDBRANCH   2   3
ENDBRANCH   1   2
BRANCH   1  27
ATOM     27  O   UNL A   1      43.977  21.708  24.105  1.00  0.00    -0.377 OA
BRANCH  27  28
ATOM     28  C   UNL A   1      44.348  23.075  24.276  1.00  0.00     0.188 C 
BRANCH  28  29
ATOM     29  C   UNL A   1      43.630  24.015  25.282  1.00  0.00     0.188 C 
BRANCH  29  30
ATOM     30  O   UNL A   1      43.720  25.400  24.996  1.00  0.00    -0.376 OA
BRANCH  30  31
ATOM     31  C   UNL A   1      42.598  26.218  25.276  1.00  0.00     0.202 C 
BRANCH  31  32
ATOM     32  C   UNL A   1      41.380  25.542  25.920  1.00  0.00     0.261 C 
BRANCH  32  33
ATOM     33  O   UNL A   1      40.402  26.422  26.494  1.00  0.00    -0.460 OA
BRANCH  33  34
ATOM     34  C   UNL A   1      40.043  26.195  27.774  1.00  0.00     0.338 C 
ATOM     35  O   UNL A   1      39.663  25.141  28.262  1.00  0.00    -0.246 OA
BRANCH  34  36
ATOM     36  C   UNL A   1      40.371  27.405  28.551  1.00  0.00     0.060 A 
ATOM     37  C   UNL A   1      39.654  28.586  28.315  1.00  0.00     0.016 A 
ATOM     38  C   UNL A   1      41.375  27.366  29.522  1.00  0.00     0.016 A 
ATOM     39  C   UNL A   1      39.965  29.744  29.026  1.00  0.00     0.010 A 
ATOM     40  C   UNL A   1      41.702  28.532  30.216  1.00  0.00     0.010 A 
ATOM     41  C   UNL A   1      41.024  29.734  29.945  1.00  0.00    -0.014 A 
BRANCH  41  42
ATOM     42  C   UNL A   1      41.558  31.015  30.464  1.00  0.00     0.031 A 
ATOM     43  C   UNL A   1      40.961  31.572  31.727  1.00  0.00     0.074 A 
ATOM     44  C   UNL A   1      42.558  31.664  29.844  1.00  0.00     0.049 A 
ATOM     45  N   UNL A   1      41.225  32.692  32.349  1.00  0.00    -0.248 NA
ATOM     46  C   UNL A   1      39.921  30.754  32.374  1.00  0.00     0.031 C 
ATOM     47  C   UNL A   1      43.254  31.206  28.645  1.00  0.00     0.029 A 
ATOM     48  N   UNL A   1      43.157  32.862  30.148  1.00  0.00    -0.354 N 
ATOM     49  C   UNL A   1      40.379  32.717  33.450  1.00  0.00     0.074 A 
ATOM     50  C   UNL A   1      39.570  31.519  33.394  1.00  0.00     0.031 C 
ATOM     51  C   UNL A   1      44.183  32.117  28.307  1.00  0.00     0.029 A 
ATOM     52  C   UNL A   1      44.121  33.237  29.244  1.00  0.00     0.049 A 
ATOM     53  H   UNL A   1      42.919  33.399  30.937  1.00  0.00     0.167 HD
ATOM     54  C   UNL A   1      40.284  33.652  34.425  1.00  0.00     0.031 A 
ATOM     55  C   UNL A   1      44.850  34.369  29.172  1.00  0.00     0.031 A 
ATOM     56  C   UNL A   1      41.073  34.853  34.469  1.00  0.00     0.049 A 
ATOM     57  C   UNL A   1      44.663  35.438  30.218  1.00  0.00     0.074 A 
ATOM     58  C   UNL A   1      41.061  35.857  35.421  1.00  0.00     0.029 A 
ATOM     59  N   UNL A   1      42.007  35.219  33.512  1.00  0.00    -0.354 N 
ATOM     60  N   UNL A   1      43.879  35.441  31.270  1.00  0.00    -0.248 NA
ATOM     61  C   UNL A   1      45.470  36.658  30.069  1.00  0.00     0.031 C 
ATOM     62  C   UNL A   1      41.939  36.863  35.003  1.00  0.00     0.029 A 
ATOM     63  C   UNL A   1      42.554  36.449  33.832  1.00  0.00     0.049 A 
ATOM     64  H   UNL A   1      42.246  34.682  32.721  1.00  0.00     0.167 HD
ATOM     65  C   UNL A   1      44.124  36.643  31.924  1.00  0.00     0.074 A 
ATOM     66  C   UNL A   1      45.139  37.336  31.158  1.00  0.00     0.031 C 
ATOM     67  C   UNL A   1      43.563  37.129  33.060  1.00  0.00     0.031 A 
BRANCH  54  68
ATOM     68  C   UNL A   1      39.253  33.429  35.497  1.00  0.00    -0.014 A 
ATOM     69  C   UNL A   1      37.919  33.835  35.330  1.00  0.00     0.009 A 
ATOM     70  C   UNL A   1      39.621  32.785  36.690  1.00  0.00     0.009 A 
ATOM     71  C   UNL A   1      36.985  33.635  36.349  1.00  0.00     0.001 A 
ATOM     72  C   UNL A   1      38.679  32.556  37.692  1.00  0.00     0.001 A 
ATOM     73  C   UNL A   1      37.365  32.991  37.527  1.00  0.00     0.000 A 
ENDBRANCH  54  68
BRANCH  55  74
ATOM     74  C   UNL A   1      45.813  34.566  28.054  1.00  0.00    -0.014 A 
ATOM     75  C   UNL A   1      47.148  34.154  28.177  1.00  0.00     0.009 A 
ATOM     76  C   UNL A   1      45.404  35.193  26.866  1.00  0.00     0.009 A 
ATOM     77  C   UNL A   1      48.060  34.389  27.145  1.00  0.00     0.001 A 
ATOM     78  C   UNL A   1      46.310  35.397  25.823  1.00  0.00     0.001 A 
ATOM     79  C   UNL A   1      47.639  35.005  25.966  1.00  0.00     0.000 A 
ENDBRANCH  55  74
BRANCH  67  80
ATOM     80  C   UNL A   1      44.065  38.452  33.571  1.00  0.00    -0.014 A 
ATOM     81  C   UNL A   1      43.461  39.663  33.198  1.00  0.00     0.009 A 
ATOM     82  C   UNL A   1      45.134  38.481  34.481  1.00  0.00     0.009 A 
ATOM     83  C   UNL A   1      43.944  40.876  33.695  1.00  0.00     0.001 A 
ATOM     84  C   UNL A   1      45.592  39.691  35.004  1.00  0.00     0.001 A 
ATOM     85  C   UNL A   1      45.004  40.889  34.601  1.00  0.00     0.000 A 
ENDBRANCH  67  80
ENDBRANCH  41  42
ENDBRANCH  34  36
ENDBRANCH  33  34
ENDBRANCH  32  33
ENDBRANCH  31  32
ENDBRANCH  30  31
ENDBRANCH  29  30
ENDBRANCH  28  29
ENDBRANCH  27  28
ENDBRANCH   1  27
TORSDOF 23
ENDMDL
MODEL 2
REMARK VINA RESULT:      -8.4      4.588      8.989
REMARK SMILES C[NH+]1CCC([N@@H+](C)Cc2ccc(C(=O)OCCOCCOCCOCCOC(=O)c3ccc(-c4c5nc(c(-c6ccccc6)c6ccc([nH]6)c(-c6ccccc6)c6nc(c(-c7ccccc7)c7ccc4[nH]7)C=C6)C=C5)cc3)cn2)CC1
REMARK SMILES IDX 20 1 19 2 18 3 17 4 16 5 15 6 13 7 14 8 12 9 9 10 10 11
REMARK SMILES IDX 79 12 11 13 78 14 8 15 6 16 7 17 5 19 1 20 2 21 3 22 81 23
REMARK SMILES IDX 4 25 80 26 21 27 22 28 23 29 24 30 25 31 26 32 27 33 28 34
REMARK SMILES IDX 29 35 30 36 31 37 77 38 32 39 76 40 33 41 34 42 35 43 70 44
REMARK SMILES IDX 36 45 75 46 69 47 71 48 37 49 74 50 68 51 67 52 38 54 60 55
REMARK SMILES IDX 45 56 59 57 46 58 49 59 58 60 72 61 47 62 48 63 57 65 73 66
REMARK SMILES IDX 50 67 39 68 40 69 44 70 41 71 43 72 42 73 61 74 62 75 66 76
REMARK SMILES IDX 63 77 65 78 64 79 51 80 52 81 56 82 53 83 55 84 54 85
REMARK H PARENT 6 18 2 24 71 53 49 64
REMARK Flexibility Score: inf
ROOT
ATOM      1  C   UNL A   1      38.477  30.130  29.652  1.00  0.00     0.188 C 
ENDROOT
BRANCH   1   2
ATOM      2  C   UNL A   1      37.598  31.104  28.837  1.00  0.00     0.188 C 
BRANCH   2   3
ATOM      3  O   UNL A   1      36.218  30.783  28.883  1.00  0.00    -0.376 OA
BRANCH   3   4
ATOM      4  C   UNL A   1      35.453  30.780  27.693  1.00  0.00     0.202 C 
BRANCH   4   5
ATOM      5  C   UNL A   1      33.999  31.285  27.683  1.00  0.00     0.261 C 
BRANCH   5   6
ATOM      6  O   UNL A   1      32.985  30.288  27.546  1.00  0.00    -0.460 OA
BRANCH   6   7
ATOM      7  C   UNL A   1      31.973  30.579  26.708  1.00  0.00     0.339 C 
ATOM      8  O   UNL A   1      31.398  31.648  26.594  1.00  0.00    -0.246 OA
BRANCH   7   9
ATOM      9  C   UNL A   1      31.834  29.466  25.761  1.00  0.00     0.078 A 
ATOM     10  C   UNL A   1      31.936  27.350  24.036  1.00  0.00     0.095 A 
ATOM     11  C   UNL A   1      31.121  28.441  23.712  1.00  0.00     0.031 A 
ATOM     12  N   UNL A   1      32.511  27.209  25.259  1.00  0.00    -0.254 NA
ATOM     13  C   UNL A   1      31.063  29.518  24.599  1.00  0.00     0.019 A 
ATOM     14  C   UNL A   1      32.493  28.285  26.071  1.00  0.00     0.127 A 
BRANCH  10  15
ATOM     15  C   UNL A   1      32.475  26.447  22.934  1.00  0.00     0.319 C 
BRANCH  15  16
ATOM     16  N   UNL A   1      31.772  25.144  22.750  1.00  0.00    -0.330 N 
ATOM     17  C   UNL A   1      30.523  25.090  23.514  1.00  0.00     0.333 C 
ATOM     18  H   UNL A   1      31.563  25.148  21.752  1.00  0.00     0.348 HD
BRANCH  16  19
ATOM     19  C   UNL A   1      32.570  23.891  22.880  1.00  0.00     0.195 C 
ATOM     20  C   UNL A   1      35.091  20.992  24.898  1.00  0.00     0.332 C 
ATOM     21  N   UNL A   1      34.230  22.097  24.491  1.00  0.00    -0.337 N 
ATOM     22  C   UNL A   1      32.931  21.601  24.024  1.00  0.00     0.268 C 
ATOM     23  C   UNL A   1      34.851  22.910  23.440  1.00  0.00     0.268 C 
ATOM     24  H   UNL A   1      34.092  22.686  25.312  1.00  0.00     0.347 HD
ATOM     25  C   UNL A   1      31.989  22.770  23.767  1.00  0.00     0.126 C 
ATOM     26  C   UNL A   1      34.036  24.189  23.236  1.00  0.00     0.126 C 
ENDBRANCH  16  19
ENDBRANCH  15  16
ENDBRANCH  10  15
ENDBRANCH   7   9
ENDBRANCH   6   7
ENDBRANCH   5   6
ENDBRANCH   4   5
ENDBRANCH   3   4
ENDBRANCH   2   3
ENDBRANCH   1   2
BRANCH   1  27
ATOM     27  O   UNL A   1      38.337  28.747  29.372  1.00  0.00    -0.377 OA
BRANCH  27  28
ATOM     28  C   UNL A   1      39.014  28.194  28.244  1.00  0.00     0.188 C 
BRANCH  28  29
ATOM     29  C   UNL A   1      39.968  26.975  28.358  1.00  0.00     0.188 C 
BRANCH  29  30
ATOM     30  O   UNL A   1      39.341  25.730  28.610  1.00  0.00    -0.376 OA
BRANCH  30  31
ATOM     31  C   UNL A   1      39.129  24.850  27.521  1.00  0.00     0.202 C 
BRANCH  31  32
ATOM     32  C   UNL A   1      40.069  23.642  27.402  1.00  0.00     0.261 C 
BRANCH  32  33
ATOM     33  O   UNL A   1      41.064  23.719  26.370  1.00  0.00    -0.460 OA
BRANCH  33  34
ATOM     34  C   UNL A   1      42.322  23.359  26.698  1.00  0.00     0.338 C 
ATOM     35  O   UNL A   1      42.760  22.226  26.827  1.00  0.00    -0.246 OA
BRANCH  34  36
ATOM     36  C   UNL A   1      43.151  24.580  26.693  1.00  0.00     0.060 A 
ATOM     37  C   UNL A   1      43.488  25.175  25.469  1.00  0.00     0.016 A 
ATOM     38  C   UNL A   1      43.580  25.143  27.898  1.00  0.00     0.016 A 
ATOM     39  C   UNL A   1      44.287  26.316  25.446  1.00  0.00     0.010 A 
ATOM     40  C   UNL A   1      44.400  26.272  27.872  1.00  0.00     0.010 A 
ATOM     41  C   UNL A   1      44.786  26.841  26.646  1.00  0.00    -0.014 A 
BRANCH  41  42
ATOM     42  C   UNL A   1      45.874  27.847  26.611  1.00  0.00     0.031 A 
ATOM     43  C   UNL A   1      45.501  29.299  26.730  1.00  0.00     0.074 A 
ATOM     44  C   UNL A   1      47.163  27.487  26.494  1.00  0.00     0.049 A 
ATOM     45  N   UNL A   1      46.263  30.361  26.680  1.00  0.00    -0.248 NA
ATOM     46  C   UNL A   1      44.071  29.591  26.928  1.00  0.00     0.031 C 
ATOM     47  C   UNL A   1      47.659  26.115  26.421  1.00  0.00     0.029 A 
ATOM     48  N   UNL A   1      48.294  28.262  26.411  1.00  0.00    -0.354 N 
ATOM     49  C   UNL A   1      45.406  31.444  26.829  1.00  0.00     0.074 A 
ATOM     50  C   UNL A   1      44.064  30.915  26.938  1.00  0.00     0.031 C 
ATOM     51  C   UNL A   1      48.998  26.143  26.296  1.00  0.00     0.029 A 
ATOM     52  C   UNL A   1      49.447  27.534  26.242  1.00  0.00     0.049 A 
ATOM     53  H   UNL A   1      48.280  29.244  26.466  1.00  0.00     0.167 HD
ATOM     54  C   UNL A   1      45.707  32.763  26.876  1.00  0.00     0.031 A 
ATOM     55  C   UNL A   1      50.714  27.947  26.042  1.00  0.00     0.031 A 
ATOM     56  C   UNL A   1      47.038  33.291  26.746  1.00  0.00     0.049 A 
ATOM     57  C   UNL A   1      51.013  29.424  26.007  1.00  0.00     0.074 A 
ATOM     58  C   UNL A   1      47.450  34.611  26.793  1.00  0.00     0.029 A 
ATOM     59  N   UNL A   1      48.173  32.523  26.533  1.00  0.00    -0.354 N 
ATOM     60  N   UNL A   1      50.200  30.439  26.176  1.00  0.00    -0.248 NA
ATOM     61  C   UNL A   1      52.411  29.809  25.762  1.00  0.00     0.031 C 
ATOM     62  C   UNL A   1      48.825  34.647  26.538  1.00  0.00     0.029 A 
ATOM     63  C   UNL A   1      49.281  33.344  26.411  1.00  0.00     0.049 A 
ATOM     64  H   UNL A   1      48.188  31.541  26.476  1.00  0.00     0.167 HD
ATOM     65  C   UNL A   1      50.992  31.579  26.090  1.00  0.00     0.074 A 
ATOM     66  C   UNL A   1      52.351  31.129  25.870  1.00  0.00     0.031 C 
ATOM     67  C   UNL A   1      50.628  32.882  26.191  1.00  0.00     0.031 A 
BRANCH  54  68
ATOM     68  C   UNL A   1      44.563  33.728  27.026  1.00  0.00    -0.014 A 
ATOM     69  C   UNL A   1      44.072  34.095  28.290  1.00  0.00     0.009 A 
ATOM     70  C   UNL A   1      43.977  34.292  25.882  1.00  0.00     0.009 A 
ATOM     71  C   UNL A   1      42.994  34.976  28.402  1.00  0.00     0.001 A 
ATOM     72  C   UNL A   1      42.923  35.198  25.997  1.00  0.00     0.001 A 
ATOM     73  C   UNL A   1      42.424  35.531  27.256  1.00  0.00     0.000 A 
ENDBRANCH  54  68
BRANCH  55  74
ATOM     74  C   UNL A   1      51.800  26.951  25.837  1.00  0.00    -0.014 A 
ATOM     75  C   UNL A   1      52.457  26.369  26.932  1.00  0.00     0.009 A 
ATOM     76  C   UNL A   1      52.203  26.596  24.540  1.00  0.00     0.009 A 
ATOM     77  C   UNL A   1      53.511  25.475  26.732  1.00  0.00     0.001 A 
ATOM     78  C   UNL A   1      53.235  25.676  24.343  1.00  0.00     0.001 A 
ATOM     79  C   UNL A   1      53.895  25.124  25.438  1.00  0.00     0.000 A 
ENDBRANCH  55  74
BRANCH  67  80
ATOM     80  C   UNL A   1      51.719  33.916  26.110  1.00  0.00    -0.014 A 
ATOM     81  C   UNL A   1      52.084  34.508  24.891  1.00  0.00     0.009 A 
ATOM     82  C   UNL A   1      52.362  34.337  27.286  1.00  0.00     0.009 A 
ATOM     83  C   UNL A   1      53.095  35.471  24.847  1.00  0.00     0.001 A 
ATOM     84  C   UNL A   1      53.347  35.324  27.245  1.00  0.00     0.001 A 
ATOM     85  C   UNL A   1      53.721  35.882  26.024  1.00  0.00     0.000 A 
ENDBRANCH  67  80
ENDBRANCH  41  42
ENDBRANCH  34  36
ENDBRANCH  33  34
ENDBRANCH  32  33
ENDBRANCH  31  32
ENDBRANCH  30  31
ENDBRANCH  29  30
ENDBRANCH  28  29
ENDBRANCH  27  28
ENDBRANCH   1  27
TORSDOF 23
ENDMDL
MODEL 3
REMARK VINA RESULT:      -8.1      5.438      9.902
REMARK SMILES C[NH+]1CCC([N@@H+](C)Cc2ccc(C(=O)OCCOCCOCCOCCOC(=O)c3ccc(-c4c5nc(c(-c6ccccc6)c6ccc([nH]6)c(-c6ccccc6)c6nc(c(-c7ccccc7)c7ccc4[nH]7)C=C6)C=C5)cc3)cn2)CC1
REMARK SMILES IDX 20 1 19 2 18 3 17 4 16 5 15 6 13 7 14 8 12 9 9 10 10 11
REMARK SMILES IDX 79 12 11 13 78 14 8 15 6 16 7 17 5 19 1 20 2 21 3 22 81 23
REMARK SMILES IDX 4 25 80 26 21 27 22 28 23 29 24 30 25 31 26 32 27 33 28 34
REMARK SMILES IDX 29 35 30 36 31 37 77 38 32 39 76 40 33 41 34 42 35 43 70 44
REMARK SMILES IDX 36 45 75 46 69 47 71 48 37 49 74 50 68 51 67 52 38 54 60 55
REMARK SMILES IDX 45 56 59 57 46 58 49 59 58 60 72 61 47 62 48 63 57 65 73 66
REMARK SMILES IDX 50 67 39 68 40 69 44 70 41 71 43 72 42 73 61 74 62 75 66 76
REMARK SMILES IDX 63 77 65 78 64 79 51 80 52 81 56 82 53 83 55 84 54 85
REMARK H PARENT 6 18 2 24 71 53 49 64
REMARK Flexibility Score: inf
ROOT
ATOM      1  C   UNL A   1      32.190  27.305  26.733  1.00  0.00     0.188 C 
ENDROOT
BRANCH   1   2
ATOM      2  C   UNL A   1      31.341  26.495  25.729  1.00  0.00     0.188 C 
BRANCH   2   3
ATOM      3  O   UNL A   1      30.231  27.217  25.226  1.00  0.00    -0.376 OA
BRANCH   3   4
ATOM      4  C   UNL A   1      30.235  27.680  23.889  1.00  0.00     0.202 C 
BRANCH   4   5
ATOM      5  C   UNL A   1      30.991  28.963  23.495  1.00  0.00     0.261 C 
BRANCH   5   6
ATOM      6  O   UNL A   1      31.861  28.862  22.367  1.00  0.00    -0.460 OA
BRANCH   6   7
ATOM      7  C   UNL A   1      33.146  28.563  22.633  1.00  0.00     0.339 C 
ATOM      8  O   UNL A   1      33.986  29.298  23.121  1.00  0.00    -0.246 OA
BRANCH   7   9
ATOM      9  C   UNL A   1      33.317  27.113  22.472  1.00  0.00     0.078 A 
ATOM     10  C   UNL A   1      33.290  24.414  22.049  1.00  0.00     0.095 A 
ATOM     11  C   UNL A   1      33.899  24.905  23.210  1.00  0.00     0.031 A 
ATOM     12  N   UNL A   1      32.900  25.227  21.033  1.00  0.00    -0.254 NA
ATOM     13  C   UNL A   1      33.920  26.286  23.420  1.00  0.00     0.019 A 
ATOM     14  C   UNL A   1      32.872  26.551  21.285  1.00  0.00     0.127 A 
BRANCH  10  15
ATOM     15  C   UNL A   1      32.745  22.993  22.017  1.00  0.00     0.319 C 
BRANCH  15  16
ATOM     16  N   UNL A   1      31.642  22.690  22.975  1.00  0.00    -0.330 N 
ATOM     17  C   UNL A   1      30.694  23.803  23.076  1.00  0.00     0.333 C 
ATOM     18  H   UNL A   1      31.185  21.890  22.536  1.00  0.00     0.348 HD
BRANCH  16  19
ATOM     19  C   UNL A   1      32.002  22.129  24.309  1.00  0.00     0.195 C 
ATOM     20  C   UNL A   1      34.315  21.778  27.964  1.00  0.00     0.332 C 
ATOM     21  N   UNL A   1      33.712  22.137  26.685  1.00  0.00    -0.337 N 
ATOM     22  C   UNL A   1      32.294  22.474  26.854  1.00  0.00     0.268 C 
ATOM     23  C   UNL A   1      33.845  21.058  25.700  1.00  0.00     0.268 C 
ATOM     24  H   UNL A   1      34.215  22.952  26.336  1.00  0.00     0.347 HD
ATOM     25  C   UNL A   1      31.727  23.010  25.545  1.00  0.00     0.126 C 
ATOM     26  C   UNL A   1      33.437  21.574  24.319  1.00  0.00     0.126 C 
ENDBRANCH  16  19
ENDBRANCH  15  16
ENDBRANCH  10  15
ENDBRANCH   7   9
ENDBRANCH   6   7
ENDBRANCH   5   6
ENDBRANCH   4   5
ENDBRANCH   3   4
ENDBRANCH   2   3
ENDBRANCH   1   2
BRANCH   1  27
ATOM     27  O   UNL A   1      32.807  28.487  26.250  1.00  0.00    -0.377 OA
BRANCH  27  28
ATOM     28  C   UNL A   1      34.173  28.741  26.574  1.00  0.00     0.188 C 
BRANCH  28  29
ATOM     29  C   UNL A   1      34.595  29.609  27.789  1.00  0.00     0.188 C 
BRANCH  29  30
ATOM     30  O   UNL A   1      34.510  31.011  27.598  1.00  0.00    -0.376 OA
BRANCH  30  31
ATOM     31  C   UNL A   1      34.553  31.849  28.738  1.00  0.00     0.202 C 
BRANCH  31  32
ATOM     32  C   UNL A   1      35.766  31.704  29.669  1.00  0.00     0.261 C 
BRANCH  32  33
ATOM     33  O   UNL A   1      35.471  31.466  31.054  1.00  0.00    -0.460 OA
BRANCH  33  34
ATOM     34  C   UNL A   1      34.959  32.494  31.761  1.00  0.00     0.338 C 
ATOM     35  O   UNL A   1      33.926  33.106  31.539  1.00  0.00    -0.246 OA
BRANCH  34  36
ATOM     36  C   UNL A   1      35.771  32.641  32.984  1.00  0.00     0.060 A 
ATOM     37  C   UNL A   1      35.439  33.639  33.912  1.00  0.00     0.016 A 
ATOM     38  C   UNL A   1      36.849  31.784  33.220  1.00  0.00     0.016 A 
ATOM     39  C   UNL A   1      36.208  33.804  35.062  1.00  0.00     0.010 A 
ATOM     40  C   UNL A   1      37.632  31.966  34.360  1.00  0.00     0.010 A 
ATOM     41  C   UNL A   1      37.337  33.000  35.266  1.00  0.00    -0.014 A 
BRANCH  41  42
ATOM     42  C   UNL A   1      38.325  33.372  36.308  1.00  0.00     0.031 A 
ATOM     43  C   UNL A   1      39.508  34.205  35.897  1.00  0.00     0.074 A 
ATOM     44  C   UNL A   1      38.171  32.998  37.589  1.00  0.00     0.049 A 
ATOM     45  N   UNL A   1      40.524  34.617  36.612  1.00  0.00    -0.248 NA
ATOM     46  C   UNL A   1      39.551  34.628  34.487  1.00  0.00     0.031 C 
ATOM     47  C   UNL A   1      37.046  32.236  38.123  1.00  0.00     0.029 A 
ATOM     48  N   UNL A   1      38.982  33.214  38.676  1.00  0.00    -0.354 N 
ATOM     49  C   UNL A   1      41.330  35.334  35.737  1.00  0.00     0.074 A 
ATOM     50  C   UNL A   1      40.704  35.275  34.434  1.00  0.00     0.031 C 
ATOM     51  C   UNL A   1      37.241  32.038  39.439  1.00  0.00     0.029 A 
ATOM     52  C   UNL A   1      38.520  32.628  39.830  1.00  0.00     0.049 A 
ATOM     53  H   UNL A   1      39.814  33.737  38.633  1.00  0.00     0.167 HD
ATOM     54  C   UNL A   1      42.487  35.989  35.995  1.00  0.00     0.031 A 
ATOM     55  C   UNL A   1      39.082  32.556  41.053  1.00  0.00     0.031 A 
ATOM     56  C   UNL A   1      43.120  36.029  37.285  1.00  0.00     0.049 A 
ATOM     57  C   UNL A   1      40.415  33.216  41.294  1.00  0.00     0.074 A 
ATOM     58  C   UNL A   1      44.287  36.675  37.652  1.00  0.00     0.029 A 
ATOM     59  N   UNL A   1      42.644  35.386  38.417  1.00  0.00    -0.354 N 
ATOM     60  N   UNL A   1      41.157  33.914  40.468  1.00  0.00    -0.248 NA
ATOM     61  C   UNL A   1      40.985  33.081  42.643  1.00  0.00     0.031 C 
ATOM     62  C   UNL A   1      44.553  36.365  38.990  1.00  0.00     0.029 A 
ATOM     63  C   UNL A   1      43.511  35.591  39.476  1.00  0.00     0.049 A 
ATOM     64  H   UNL A   1      41.812  34.861  38.461  1.00  0.00     0.167 HD
ATOM     65  C   UNL A   1      42.261  34.329  41.205  1.00  0.00     0.074 A 
ATOM     66  C   UNL A   1      42.083  33.817  42.548  1.00  0.00     0.031 C 
ATOM     67  C   UNL A   1      43.323  35.074  40.807  1.00  0.00     0.031 A 
BRANCH  54  68
ATOM     68  C   UNL A   1      43.165  36.672  34.839  1.00  0.00    -0.014 A 
ATOM     69  C   UNL A   1      42.968  38.037  34.574  1.00  0.00     0.009 A 
ATOM     70  C   UNL A   1      44.031  35.939  34.011  1.00  0.00     0.009 A 
ATOM     71  C   UNL A   1      43.592  38.643  33.482  1.00  0.00     0.001 A 
ATOM     72  C   UNL A   1      44.680  36.555  32.942  1.00  0.00     0.001 A 
ATOM     73  C   UNL A   1      44.452  37.903  32.670  1.00  0.00     0.000 A 
ENDBRANCH  54  68
BRANCH  55  74
ATOM     74  C   UNL A   1      38.397  31.814  42.146  1.00  0.00    -0.014 A 
ATOM     75  C   UNL A   1      37.417  32.437  42.932  1.00  0.00     0.009 A 
ATOM     76  C   UNL A   1      38.742  30.482  42.425  1.00  0.00     0.009 A 
ATOM     77  C   UNL A   1      36.815  31.751  43.990  1.00  0.00     0.001 A 
ATOM     78  C   UNL A   1      38.116  29.788  43.462  1.00  0.00     0.001 A 
ATOM     79  C   UNL A   1      37.161  30.425  44.251  1.00  0.00     0.000 A 
ENDBRANCH  55  74
BRANCH  67  80
ATOM     80  C   UNL A   1      44.356  35.419  41.847  1.00  0.00    -0.014 A 
ATOM     81  C   UNL A   1      45.484  34.611  42.061  1.00  0.00     0.009 A 
ATOM     82  C   UNL A   1      44.219  36.601  42.592  1.00  0.00     0.009 A 
ATOM     83  C   UNL A   1      46.431  34.960  43.027  1.00  0.00     0.001 A 
ATOM     84  C   UNL A   1      45.184  36.967  43.531  1.00  0.00     0.001 A 
ATOM     85  C   UNL A   1      46.283  36.140  43.757  1.00  0.00     0.000 A 
ENDBRANCH  67  80
ENDBRANCH  41  42
ENDBRANCH  34  36
ENDBRANCH  33  34
ENDBRANCH  32  33
ENDBRANCH  31  32
ENDBRANCH  30  31
ENDBRANCH  29  30
ENDBRANCH  28  29
ENDBRANCH  27  28
ENDBRANCH   1  27
TORSDOF 23
ENDMDL
