MODEL 1
REMARK VINA RESULT:      -7.1      0.000      0.000
REMARK SMILES CCN1C(=O)C[C@@H](C(=O)OCCOCCOCCOCCOC(=O)c2ccc(-c3c4nc(c(-c5ccccc5)c5ccc([nH]5)c(-c5ccccc5)c5nc(c(-c6ccccc6)c6ccc3[nH]6)C=C5)C=C4)cc2)[C@H]1c1ccccc1C1CC1
REMARK SMILES IDX 16 1 15 2 14 3 13 4 12 5 11 6 10 7 8 8 9 9 7 10 3 11 4 12
REMARK SMILES IDX 73 13 5 14 6 15 2 16 1 17 74 18 75 19 79 20 76 21 78 22
REMARK SMILES IDX 77 23 80 24 81 25 82 26 17 27 18 28 19 29 20 30 21 31 22 32
REMARK SMILES IDX 23 33 24 34 25 35 26 36 72 37 27 38 71 39 28 40 29 41 30 42
REMARK SMILES IDX 65 43 31 44 70 45 64 46 66 47 32 48 69 49 63 50 62 51 33 53
REMARK SMILES IDX 55 54 40 55 54 56 41 57 44 58 53 59 67 60 42 61 43 62 52 64
REMARK SMILES IDX 68 65 45 66 34 67 35 68 39 69 36 70 38 71 37 72 56 73 57 74
REMARK SMILES IDX 61 75 58 76 60 77 59 78 46 79 47 80 51 81 48 82 50 83 49 84
REMARK H PARENT 66 52 44 63
REMARK Flexibility Score: inf
ROOT
ATOM      1  O   UNL A   1      40.590  25.730  27.359  1.00  0.00    -0.377 OA
ENDROOT
BRANCH   1   2
ATOM      2  C   UNL A   1      39.671  26.746  27.723  1.00  0.00     0.188 C 
BRANCH   2   3
ATOM      3  C   UNL A   1      39.468  26.790  29.240  1.00  0.00     0.188 C 
BRANCH   3   4
ATOM      4  O   UNL A   1      38.629  27.824  29.745  1.00  0.00    -0.376 OA
BRANCH   4   5
ATOM      5  C   UNL A   1      38.895  29.165  29.338  1.00  0.00     0.202 C 
BRANCH   5   6
ATOM      6  C   UNL A   1      37.830  29.924  28.517  1.00  0.00     0.261 C 
BRANCH   6   7
ATOM      7  O   UNL A   1      37.924  31.374  28.435  1.00  0.00    -0.463 OA
BRANCH   7   8
ATOM      8  C   UNL A   1      36.743  32.028  28.525  1.00  0.00     0.312 C 
ATOM      9  O   UNL A   1      36.511  33.088  27.938  1.00  0.00    -0.252 OA
BRANCH   8  10
ATOM     10  C   UNL A   1      35.758  31.552  29.572  1.00  0.00     0.135 C 
ATOM     11  N   UNL A   1      35.128  32.998  31.326  1.00  0.00    -0.335 N 
ATOM     12  C   UNL A   1      34.354  33.358  30.231  1.00  0.00     0.224 C 
ATOM     13  C   UNL A   1      35.796  31.713  31.099  1.00  0.00     0.130 C 
ATOM     14  O   UNL A   1      33.646  34.347  30.126  1.00  0.00    -0.275 OA
ATOM     15  C   UNL A   1      34.444  32.256  29.208  1.00  0.00     0.118 C 
BRANCH  11  16
ATOM     16  C   UNL A   1      35.060  33.698  32.609  1.00  0.00     0.117 C 
ATOM     17  C   UNL A   1      33.928  33.239  33.514  1.00  0.00     0.027 C 
ENDBRANCH  11  16
BRANCH  13  18
ATOM     18  C   UNL A   1      37.020  31.396  31.949  1.00  0.00    -0.021 A 
ATOM     19  C   UNL A   1      37.088  30.090  32.484  1.00  0.00     0.006 A 
ATOM     20  C   UNL A   1      38.164  32.243  32.105  1.00  0.00    -0.040 A 
ATOM     21  C   UNL A   1      38.246  29.586  33.074  1.00  0.00     0.000 A 
ATOM     22  C   UNL A   1      39.243  31.730  32.888  1.00  0.00     0.004 A 
ATOM     23  C   UNL A   1      39.305  30.422  33.339  1.00  0.00     0.000 A 
BRANCH  20  24
ATOM     24  C   UNL A   1      38.499  33.603  31.489  1.00  0.00     0.019 C 
ATOM     25  C   UNL A   1      39.645  34.467  31.936  1.00  0.00     0.009 C 
ATOM     26  C   UNL A   1      39.615  33.895  30.541  1.00  0.00     0.009 C 
ENDBRANCH  20  24
ENDBRANCH  13  18
ENDBRANCH   8  10
ENDBRANCH   7   8
ENDBRANCH   6   7
ENDBRANCH   5   6
ENDBRANCH   4   5
ENDBRANCH   3   4
ENDBRANCH   2   3
ENDBRANCH   1   2
BRANCH   1  27
ATOM     27  C   UNL A   1      40.823  24.641  28.242  1.00  0.00     0.188 C 
BRANCH  27  28
ATOM     28  C   UNL A   1      40.737  23.216  27.689  1.00  0.00     0.188 C 
BRANCH  28  29
ATOM     29  O   UNL A   1      41.931  22.610  27.184  1.00  0.00    -0.376 OA
BRANCH  29  30
ATOM     30  C   UNL A   1      43.189  23.208  27.481  1.00  0.00     0.202 C 
BRANCH  30  31
ATOM     31  C   UNL A   1      44.273  23.028  26.420  1.00  0.00     0.261 C 
BRANCH  31  32
ATOM     32  O   UNL A   1      44.090  23.949  25.329  1.00  0.00    -0.460 OA
BRANCH  32  33
ATOM     33  C   UNL A   1      45.123  24.793  25.122  1.00  0.00     0.338 C 
ATOM     34  O   UNL A   1      46.124  24.593  24.458  1.00  0.00    -0.246 OA
BRANCH  33  35
ATOM     35  C   UNL A   1      44.812  26.115  25.693  1.00  0.00     0.060 A 
ATOM     36  C   UNL A   1      45.823  26.723  26.444  1.00  0.00     0.016 A 
ATOM     37  C   UNL A   1      43.532  26.672  25.624  1.00  0.00     0.016 A 
ATOM     38  C   UNL A   1      45.534  27.841  27.212  1.00  0.00     0.010 A 
ATOM     39  C   UNL A   1      43.239  27.793  26.408  1.00  0.00     0.010 A 
ATOM     40  C   UNL A   1      44.224  28.335  27.253  1.00  0.00    -0.014 A 
BRANCH  40  41
ATOM     41  C   UNL A   1      43.870  29.230  28.377  1.00  0.00     0.031 A 
ATOM     42  C   UNL A   1      43.636  28.612  29.731  1.00  0.00     0.074 A 
ATOM     43  C   UNL A   1      43.891  30.564  28.226  1.00  0.00     0.049 A 
ATOM     44  N   UNL A   1      43.418  29.192  30.882  1.00  0.00    -0.248 NA
ATOM     45  C   UNL A   1      43.669  27.140  29.796  1.00  0.00     0.031 C 
ATOM     46  C   UNL A   1      44.177  31.269  26.977  1.00  0.00     0.029 A 
ATOM     47  N   UNL A   1      43.691  31.563  29.143  1.00  0.00    -0.354 N 
ATOM     48  C   UNL A   1      43.293  28.159  31.804  1.00  0.00     0.074 A 
ATOM     49  C   UNL A   1      43.424  26.917  31.077  1.00  0.00     0.031 C 
ATOM     50  C   UNL A   1      44.142  32.592  27.209  1.00  0.00     0.029 A 
ATOM     51  C   UNL A   1      43.807  32.825  28.612  1.00  0.00     0.049 A 
ATOM     52  H   UNL A   1      43.484  31.393  30.090  1.00  0.00     0.167 HD
ATOM     53  C   UNL A   1      43.094  28.238  33.141  1.00  0.00     0.031 A 
ATOM     54  C   UNL A   1      43.650  34.027  29.197  1.00  0.00     0.031 A 
ATOM     55  C   UNL A   1      42.945  29.476  33.857  1.00  0.00     0.049 A 
ATOM     56  C   UNL A   1      43.340  34.087  30.669  1.00  0.00     0.074 A 
ATOM     57  C   UNL A   1      42.728  29.672  35.207  1.00  0.00     0.029 A 
ATOM     58  N   UNL A   1      42.994  30.730  33.268  1.00  0.00    -0.354 N 
ATOM     59  N   UNL A   1      43.232  33.105  31.531  1.00  0.00    -0.248 NA
ATOM     60  C   UNL A   1      43.141  35.422  31.248  1.00  0.00     0.031 C 
ATOM     61  C   UNL A   1      42.588  31.047  35.428  1.00  0.00     0.029 A 
ATOM     62  C   UNL A   1      42.780  31.707  34.224  1.00  0.00     0.049 A 
ATOM     63  H   UNL A   1      43.156  30.901  32.312  1.00  0.00     0.167 HD
ATOM     64  C   UNL A   1      42.975  33.703  32.759  1.00  0.00     0.074 A 
ATOM     65  C   UNL A   1      42.960  35.134  32.530  1.00  0.00     0.031 C 
ATOM     66  C   UNL A   1      42.767  33.124  33.967  1.00  0.00     0.031 A 
BRANCH  53  67
ATOM     67  C   UNL A   1      42.980  26.945  33.900  1.00  0.00    -0.014 A 
ATOM     68  C   UNL A   1      44.059  26.050  33.992  1.00  0.00     0.009 A 
ATOM     69  C   UNL A   1      41.775  26.622  34.543  1.00  0.00     0.009 A 
ATOM     70  C   UNL A   1      43.921  24.844  34.683  1.00  0.00     0.001 A 
ATOM     71  C   UNL A   1      41.648  25.428  35.256  1.00  0.00     0.001 A 
ATOM     72  C   UNL A   1      42.718  24.536  35.317  1.00  0.00     0.000 A 
ENDBRANCH  53  67
BRANCH  54  73
ATOM     73  C   UNL A   1      43.760  35.268  28.385  1.00  0.00    -0.014 A 
ATOM     74  C   UNL A   1      42.632  35.839  27.779  1.00  0.00     0.009 A 
ATOM     75  C   UNL A   1      45.008  35.886  28.212  1.00  0.00     0.009 A 
ATOM     76  C   UNL A   1      42.756  36.993  26.998  1.00  0.00     0.001 A 
ATOM     77  C   UNL A   1      45.126  37.055  27.456  1.00  0.00     0.001 A 
ATOM     78  C   UNL A   1      44.001  37.603  26.843  1.00  0.00     0.000 A 
ENDBRANCH  54  73
BRANCH  66  79
ATOM     79  C   UNL A   1      42.535  34.040  35.135  1.00  0.00    -0.014 A 
ATOM     80  C   UNL A   1      43.605  34.540  35.892  1.00  0.00     0.009 A 
ATOM     81  C   UNL A   1      41.227  34.443  35.452  1.00  0.00     0.009 A 
ATOM     82  C   UNL A   1      43.366  35.401  36.965  1.00  0.00     0.001 A 
ATOM     83  C   UNL A   1      40.995  35.326  36.505  1.00  0.00     0.001 A 
ATOM     84  C   UNL A   1      42.063  35.796  37.268  1.00  0.00     0.000 A 
ENDBRANCH  66  79
ENDBRANCH  40  41
ENDBRANCH  33  35
ENDBRANCH  32  33
ENDBRANCH  31  32
ENDBRANCH  30  31
ENDBRANCH  29  30
ENDBRANCH  28  29
ENDBRANCH  27  28
ENDBRANCH   1  27
TORSDOF 23
ENDMDL
MODEL 2
REMARK VINA RESULT:      -7.1      4.622     10.311
REMARK SMILES CCN1C(=O)C[C@@H](C(=O)OCCOCCOCCOCCOC(=O)c2ccc(-c3c4nc(c(-c5ccccc5)c5ccc([nH]5)c(-c5ccccc5)c5nc(c(-c6ccccc6)c6ccc3[nH]6)C=C5)C=C4)cc2)[C@H]1c1ccccc1C1CC1
REMARK SMILES IDX 16 1 15 2 14 3 13 4 12 5 11 6 10 7 8 8 9 9 7 10 3 11 4 12
REMARK SMILES IDX 73 13 5 14 6 15 2 16 1 17 74 18 75 19 79 20 76 21 78 22
REMARK SMILES IDX 77 23 80 24 81 25 82 26 17 27 18 28 19 29 20 30 21 31 22 32
REMARK SMILES IDX 23 33 24 34 25 35 26 36 72 37 27 38 71 39 28 40 29 41 30 42
REMARK SMILES IDX 65 43 31 44 70 45 64 46 66 47 32 48 69 49 63 50 62 51 33 53
REMARK SMILES IDX 55 54 40 55 54 56 41 57 44 58 53 59 67 60 42 61 43 62 52 64
REMARK SMILES IDX 68 65 45 66 34 67 35 68 39 69 36 70 38 71 37 72 56 73 57 74
REMARK SMILES IDX 61 75 58 76 60 77 59 78 46 79 47 80 51 81 48 82 50 83 49 84
REMARK H PARENT 66 52 44 63
REMARK Flexibility Score: inf
ROOT
ATOM      1  O   UNL A   1      34.759  32.358  27.399  1.00  0.00    -0.377 OA
ENDROOT
BRANCH   1   2
ATOM      2  C   UNL A   1      33.372  32.100  27.532  1.00  0.00     0.188 C 
BRANCH   2   3
ATOM      3  C   UNL A   1      33.005  30.734  26.947  1.00  0.00     0.188 C 
BRANCH   3   4
ATOM      4  O   UNL A   1      33.962  29.690  27.105  1.00  0.00    -0.376 OA
BRANCH   4   5
ATOM      5  C   UNL A   1      33.485  28.379  27.402  1.00  0.00     0.202 C 
BRANCH   5   6
ATOM      6  C   UNL A   1      31.975  28.086  27.278  1.00  0.00     0.261 C 
BRANCH   6   7
ATOM      7  O   UNL A   1      31.503  27.379  26.096  1.00  0.00    -0.463 OA
BRANCH   7   8
ATOM      8  C   UNL A   1      31.900  27.911  24.917  1.00  0.00     0.312 C 
ATOM      9  O   UNL A   1      31.313  28.846  24.368  1.00  0.00    -0.252 OA
BRANCH   8  10
ATOM     10  C   UNL A   1      32.967  27.170  24.139  1.00  0.00     0.135 C 
ATOM     11  N   UNL A   1      32.402  25.207  22.959  1.00  0.00    -0.335 N 
ATOM     12  C   UNL A   1      32.026  26.269  22.147  1.00  0.00     0.224 C 
ATOM     13  C   UNL A   1      33.256  25.664  24.060  1.00  0.00     0.130 C 
ATOM     14  O   UNL A   1      31.354  26.212  21.130  1.00  0.00    -0.275 OA
ATOM     15  C   UNL A   1      32.681  27.520  22.673  1.00  0.00     0.118 C 
BRANCH  11  16
ATOM     16  C   UNL A   1      32.175  23.810  22.593  1.00  0.00     0.117 C 
ATOM     17  C   UNL A   1      33.435  23.048  22.213  1.00  0.00     0.027 C 
ENDBRANCH  11  16
BRANCH  13  18
ATOM     18  C   UNL A   1      33.368  24.763  25.284  1.00  0.00    -0.021 A 
ATOM     19  C   UNL A   1      32.156  24.439  25.934  1.00  0.00     0.006 A 
ATOM     20  C   UNL A   1      34.558  24.097  25.719  1.00  0.00    -0.040 A 
ATOM     21  C   UNL A   1      32.075  23.447  26.909  1.00  0.00     0.000 A 
ATOM     22  C   UNL A   1      34.437  23.236  26.851  1.00  0.00     0.004 A 
ATOM     23  C   UNL A   1      33.224  22.887  27.419  1.00  0.00     0.000 A 
BRANCH  20  24
ATOM     24  C   UNL A   1      35.964  24.059  25.117  1.00  0.00     0.019 C 
ATOM     25  C   UNL A   1      37.206  23.744  25.905  1.00  0.00     0.009 C 
ATOM     26  C   UNL A   1      36.755  22.835  24.789  1.00  0.00     0.009 C 
ENDBRANCH  20  24
ENDBRANCH  13  18
ENDBRANCH   8  10
ENDBRANCH   7   8
ENDBRANCH   6   7
ENDBRANCH   5   6
ENDBRANCH   4   5
ENDBRANCH   3   4
ENDBRANCH   2   3
ENDBRANCH   1   2
BRANCH   1  27
ATOM     27  C   UNL A   1      35.396  33.262  28.291  1.00  0.00     0.188 C 
BRANCH  27  28
ATOM     28  C   UNL A   1      34.774  33.494  29.671  1.00  0.00     0.188 C 
BRANCH  28  29
ATOM     29  O   UNL A   1      33.542  34.218  29.749  1.00  0.00    -0.376 OA
BRANCH  29  30
ATOM     30  C   UNL A   1      33.568  35.639  29.651  1.00  0.00     0.202 C 
BRANCH  30  31
ATOM     31  C   UNL A   1      33.104  36.395  30.894  1.00  0.00     0.261 C 
BRANCH  31  32
ATOM     32  O   UNL A   1      34.054  36.264  31.966  1.00  0.00    -0.460 OA
BRANCH  32  33
ATOM     33  C   UNL A   1      33.849  35.205  32.777  1.00  0.00     0.338 C 
ATOM     34  O   UNL A   1      32.840  34.531  32.879  1.00  0.00    -0.246 OA
BRANCH  33  35
ATOM     35  C   UNL A   1      35.107  34.837  33.450  1.00  0.00     0.060 A 
ATOM     36  C   UNL A   1      36.282  35.012  32.713  1.00  0.00     0.016 A 
ATOM     37  C   UNL A   1      35.126  34.205  34.696  1.00  0.00     0.016 A 
ATOM     38  C   UNL A   1      37.473  34.468  33.173  1.00  0.00     0.010 A 
ATOM     39  C   UNL A   1      36.324  33.646  35.154  1.00  0.00     0.010 A 
ATOM     40  C   UNL A   1      37.481  33.721  34.358  1.00  0.00    -0.014 A 
BRANCH  40  41
ATOM     41  C   UNL A   1      38.635  32.822  34.587  1.00  0.00     0.031 A 
ATOM     42  C   UNL A   1      38.985  31.828  33.511  1.00  0.00     0.074 A 
ATOM     43  C   UNL A   1      39.428  32.982  35.659  1.00  0.00     0.049 A 
ATOM     44  N   UNL A   1      40.003  31.012  33.433  1.00  0.00    -0.248 NA
ATOM     45  C   UNL A   1      38.069  31.757  32.358  1.00  0.00     0.031 C 
ATOM     46  C   UNL A   1      39.223  33.962  36.724  1.00  0.00     0.029 A 
ATOM     47  N   UNL A   1      40.583  32.332  36.011  1.00  0.00    -0.354 N 
ATOM     48  C   UNL A   1      39.852  30.337  32.227  1.00  0.00     0.074 A 
ATOM     49  C   UNL A   1      38.629  30.811  31.621  1.00  0.00     0.031 C 
ATOM     50  C   UNL A   1      40.228  33.855  37.610  1.00  0.00     0.029 A 
ATOM     51  C   UNL A   1      41.128  32.784  37.188  1.00  0.00     0.049 A 
ATOM     52  H   UNL A   1      40.983  31.612  35.472  1.00  0.00     0.167 HD
ATOM     53  C   UNL A   1      40.665  29.409  31.669  1.00  0.00     0.031 A 
ATOM     54  C   UNL A   1      42.225  32.370  37.848  1.00  0.00     0.031 A 
ATOM     55  C   UNL A   1      41.871  28.928  32.285  1.00  0.00     0.049 A 
ATOM     56  C   UNL A   1      43.066  31.273  37.251  1.00  0.00     0.074 A 
ATOM     57  C   UNL A   1      42.762  27.981  31.816  1.00  0.00     0.029 A 
ATOM     58  N   UNL A   1      42.347  29.358  33.514  1.00  0.00    -0.354 N 
ATOM     59  N   UNL A   1      42.917  30.648  36.107  1.00  0.00    -0.248 NA
ATOM     60  C   UNL A   1      44.229  30.832  38.031  1.00  0.00     0.031 C 
ATOM     61  C   UNL A   1      43.751  27.797  32.788  1.00  0.00     0.029 A 
ATOM     62  C   UNL A   1      43.506  28.674  33.835  1.00  0.00     0.049 A 
ATOM     63  H   UNL A   1      41.924  30.046  34.076  1.00  0.00     0.167 HD
ATOM     64  C   UNL A   1      43.979  29.757  36.019  1.00  0.00     0.074 A 
ATOM     65  C   UNL A   1      44.773  29.936  37.219  1.00  0.00     0.031 C 
ATOM     66  C   UNL A   1      44.273  28.869  35.038  1.00  0.00     0.031 A 
BRANCH  53  67
ATOM     67  C   UNL A   1      40.244  28.826  30.348  1.00  0.00    -0.014 A 
ATOM     68  C   UNL A   1      39.459  27.664  30.275  1.00  0.00     0.009 A 
ATOM     69  C   UNL A   1      40.631  29.459  29.157  1.00  0.00     0.009 A 
ATOM     70  C   UNL A   1      39.101  27.129  29.035  1.00  0.00     0.001 A 
ATOM     71  C   UNL A   1      40.250  28.937  27.919  1.00  0.00     0.001 A 
ATOM     72  C   UNL A   1      39.493  27.767  27.859  1.00  0.00     0.000 A 
ENDBRANCH  53  67
BRANCH  54  73
ATOM     73  C   UNL A   1      42.577  32.977  39.159  1.00  0.00    -0.014 A 
ATOM     74  C   UNL A   1      42.070  32.457  40.358  1.00  0.00     0.009 A 
ATOM     75  C   UNL A   1      43.427  34.093  39.211  1.00  0.00     0.009 A 
ATOM     76  C   UNL A   1      42.391  33.055  41.581  1.00  0.00     0.001 A 
ATOM     77  C   UNL A   1      43.770  34.671  40.436  1.00  0.00     0.001 A 
ATOM     78  C   UNL A   1      43.245  34.156  41.619  1.00  0.00     0.000 A 
ENDBRANCH  54  73
BRANCH  66  79
ATOM     79  C   UNL A   1      45.518  28.045  35.210  1.00  0.00    -0.014 A 
ATOM     80  C   UNL A   1      46.759  28.494  34.734  1.00  0.00     0.009 A 
ATOM     81  C   UNL A   1      45.453  26.824  35.899  1.00  0.00     0.009 A 
ATOM     82  C   UNL A   1      47.905  27.718  34.916  1.00  0.00     0.001 A 
ATOM     83  C   UNL A   1      46.604  26.065  36.106  1.00  0.00     0.001 A 
ATOM     84  C   UNL A   1      47.828  26.508  35.606  1.00  0.00     0.000 A 
ENDBRANCH  66  79
ENDBRANCH  40  41
ENDBRANCH  33  35
ENDBRANCH  32  33
ENDBRANCH  31  32
ENDBRANCH  30  31
ENDBRANCH  29  30
ENDBRANCH  28  29
ENDBRANCH  27  28
ENDBRANCH   1  27
TORSDOF 23
ENDMDL
MODEL 3
REMARK VINA RESULT:      -7.0      4.753     10.540
REMARK SMILES CCN1C(=O)C[C@@H](C(=O)OCCOCCOCCOCCOC(=O)c2ccc(-c3c4nc(c(-c5ccccc5)c5ccc([nH]5)c(-c5ccccc5)c5nc(c(-c6ccccc6)c6ccc3[nH]6)C=C5)C=C4)cc2)[C@H]1c1ccccc1C1CC1
REMARK SMILES IDX 16 1 15 2 14 3 13 4 12 5 11 6 10 7 8 8 9 9 7 10 3 11 4 12
REMARK SMILES IDX 73 13 5 14 6 15 2 16 1 17 74 18 75 19 79 20 76 21 78 22
REMARK SMILES IDX 77 23 80 24 81 25 82 26 17 27 18 28 19 29 20 30 21 31 22 32
REMARK SMILES IDX 23 33 24 34 25 35 26 36 72 37 27 38 71 39 28 40 29 41 30 42
REMARK SMILES IDX 65 43 31 44 70 45 64 46 66 47 32 48 69 49 63 50 62 51 33 53
REMARK SMILES IDX 55 54 40 55 54 56 41 57 44 58 53 59 67 60 42 61 43 62 52 64
REMARK SMILES IDX 68 65 45 66 34 67 35 68 39 69 36 70 38 71 37 72 56 73 57 74
REMARK SMILES IDX 61 75 58 76 60 77 59 78 46 79 47 80 51 81 48 82 50 83 49 84
REMARK H PARENT 66 52 44 63
REMARK Flexibility Score: inf
ROOT
ATOM      1  O   UNL A   1      34.752  32.747  27.885  1.00  0.00    -0.377 OA
ENDROOT
BRANCH   1   2
ATOM      2  C   UNL A   1      33.378  32.407  27.812  1.00  0.00     0.188 C 
BRANCH   2   3
ATOM      3  C   UNL A   1      33.154  31.205  26.892  1.00  0.00     0.188 C 
BRANCH   3   4
ATOM      4  O   UNL A   1      34.084  30.132  27.001  1.00  0.00    -0.376 OA
BRANCH   4   5
ATOM      5  C   UNL A   1      33.583  28.838  27.331  1.00  0.00     0.202 C 
BRANCH   5   6
ATOM      6  C   UNL A   1      32.148  28.460  26.909  1.00  0.00     0.261 C 
BRANCH   6   7
ATOM      7  O   UNL A   1      31.919  27.141  26.338  1.00  0.00    -0.463 OA
BRANCH   7   8
ATOM      8  C   UNL A   1      32.165  27.043  25.011  1.00  0.00     0.312 C 
ATOM      9  O   UNL A   1      31.281  27.109  24.154  1.00  0.00    -0.252 OA
BRANCH   8  10
ATOM     10  C   UNL A   1      33.551  26.605  24.587  1.00  0.00     0.135 C 
ATOM     11  N   UNL A   1      33.802  24.738  23.167  1.00  0.00    -0.335 N 
ATOM     12  C   UNL A   1      33.488  25.810  22.343  1.00  0.00     0.224 C 
ATOM     13  C   UNL A   1      34.155  25.195  24.514  1.00  0.00     0.130 C 
ATOM     14  O   UNL A   1      33.195  25.765  21.159  1.00  0.00    -0.275 OA
ATOM     15  C   UNL A   1      33.673  27.080  23.133  1.00  0.00     0.118 C 
BRANCH  11  16
ATOM     16  C   UNL A   1      33.995  23.379  22.660  1.00  0.00     0.117 C 
ATOM     17  C   UNL A   1      32.712  22.575  22.518  1.00  0.00     0.027 C 
ENDBRANCH  11  16
BRANCH  13  18
ATOM     18  C   UNL A   1      34.062  24.181  25.648  1.00  0.00    -0.021 A 
ATOM     19  C   UNL A   1      32.766  23.925  26.153  1.00  0.00     0.006 A 
ATOM     20  C   UNL A   1      35.136  23.360  26.119  1.00  0.00    -0.040 A 
ATOM     21  C   UNL A   1      32.498  22.863  27.014  1.00  0.00     0.000 A 
ATOM     22  C   UNL A   1      34.825  22.418  27.145  1.00  0.00     0.004 A 
ATOM     23  C   UNL A   1      33.534  22.145  27.566  1.00  0.00     0.000 A 
BRANCH  20  24
ATOM     24  C   UNL A   1      36.584  23.233  25.643  1.00  0.00     0.019 C 
ATOM     25  C   UNL A   1      37.356  21.941  25.641  1.00  0.00     0.009 C 
ATOM     26  C   UNL A   1      37.043  22.651  24.347  1.00  0.00     0.009 C 
ENDBRANCH  20  24
ENDBRANCH  13  18
ENDBRANCH   8  10
ENDBRANCH   7   8
ENDBRANCH   6   7
ENDBRANCH   5   6
ENDBRANCH   4   5
ENDBRANCH   3   4
ENDBRANCH   2   3
ENDBRANCH   1   2
BRANCH   1  27
ATOM     27  C   UNL A   1      35.347  33.003  29.149  1.00  0.00     0.188 C 
BRANCH  27  28
ATOM     28  C   UNL A   1      35.183  31.965  30.263  1.00  0.00     0.188 C 
BRANCH  28  29
ATOM     29  O   UNL A   1      34.578  32.376  31.493  1.00  0.00    -0.376 OA
BRANCH  29  30
ATOM     30  C   UNL A   1      34.867  33.673  32.005  1.00  0.00     0.202 C 
BRANCH  30  31
ATOM     31  C   UNL A   1      35.982  33.738  33.046  1.00  0.00     0.261 C 
BRANCH  31  32
ATOM     32  O   UNL A   1      37.262  33.456  32.454  1.00  0.00    -0.460 OA
BRANCH  32  33
ATOM     33  C   UNL A   1      37.793  32.263  32.796  1.00  0.00     0.338 C 
ATOM     34  O   UNL A   1      37.296  31.402  33.500  1.00  0.00    -0.246 OA
BRANCH  33  35
ATOM     35  C   UNL A   1      39.045  32.040  32.053  1.00  0.00     0.060 A 
ATOM     36  C   UNL A   1      40.233  32.330  32.730  1.00  0.00     0.016 A 
ATOM     37  C   UNL A   1      39.054  31.702  30.697  1.00  0.00     0.016 A 
ATOM     38  C   UNL A   1      41.431  32.382  32.033  1.00  0.00     0.010 A 
ATOM     39  C   UNL A   1      40.261  31.766  29.991  1.00  0.00     0.010 A 
ATOM     40  C   UNL A   1      41.436  32.172  30.648  1.00  0.00    -0.014 A 
BRANCH  40  41
ATOM     41  C   UNL A   1      42.618  32.645  29.893  1.00  0.00     0.031 A 
ATOM     42  C   UNL A   1      42.599  34.050  29.350  1.00  0.00     0.074 A 
ATOM     43  C   UNL A   1      43.728  31.893  29.813  1.00  0.00     0.049 A 
ATOM     44  N   UNL A   1      43.547  34.722  28.752  1.00  0.00    -0.248 NA
ATOM     45  C   UNL A   1      41.344  34.804  29.522  1.00  0.00     0.031 C 
ATOM     46  C   UNL A   1      43.880  30.549  30.367  1.00  0.00     0.029 A 
ATOM     47  N   UNL A   1      44.948  32.172  29.254  1.00  0.00    -0.354 N 
ATOM     48  C   UNL A   1      43.005  35.974  28.480  1.00  0.00     0.074 A 
ATOM     49  C   UNL A   1      41.638  35.959  28.946  1.00  0.00     0.031 C 
ATOM     50  C   UNL A   1      45.130  30.120  30.125  1.00  0.00     0.029 A 
ATOM     51  C   UNL A   1      45.855  31.147  29.380  1.00  0.00     0.049 A 
ATOM     52  H   UNL A   1      45.155  33.023  28.805  1.00  0.00     0.167 HD
ATOM     53  C   UNL A   1      43.597  37.044  27.900  1.00  0.00     0.031 A 
ATOM     54  C   UNL A   1      47.122  31.053  28.935  1.00  0.00     0.031 A 
ATOM     55  C   UNL A   1      44.953  37.047  27.421  1.00  0.00     0.049 A 
ATOM     56  C   UNL A   1      47.730  32.226  28.213  1.00  0.00     0.074 A 
ATOM     57  C   UNL A   1      45.649  38.071  26.807  1.00  0.00     0.029 A 
ATOM     58  N   UNL A   1      45.813  35.963  27.501  1.00  0.00    -0.354 N 
ATOM     59  N   UNL A   1      47.211  33.406  27.968  1.00  0.00    -0.248 NA
ATOM     60  C   UNL A   1      49.101  32.056  27.714  1.00  0.00     0.031 C 
ATOM     61  C   UNL A   1      46.917  37.587  26.463  1.00  0.00     0.029 A 
ATOM     62  C   UNL A   1      47.027  36.282  26.919  1.00  0.00     0.049 A 
ATOM     63  H   UNL A   1      45.593  35.095  27.910  1.00  0.00     0.167 HD
ATOM     64  C   UNL A   1      48.198  34.126  27.309  1.00  0.00     0.074 A 
ATOM     65  C   UNL A   1      49.352  33.255  27.207  1.00  0.00     0.031 C 
ATOM     66  C   UNL A   1      48.157  35.394  26.828  1.00  0.00     0.031 A 
BRANCH  53  67
ATOM     67  C   UNL A   1      42.761  38.280  27.714  1.00  0.00    -0.014 A 
ATOM     68  C   UNL A   1      42.018  38.494  26.541  1.00  0.00     0.009 A 
ATOM     69  C   UNL A   1      42.709  39.242  28.734  1.00  0.00     0.009 A 
ATOM     70  C   UNL A   1      41.267  39.661  26.383  1.00  0.00     0.001 A 
ATOM     71  C   UNL A   1      41.936  40.395  28.584  1.00  0.00     0.001 A 
ATOM     72  C   UNL A   1      41.224  40.609  27.405  1.00  0.00     0.000 A 
ENDBRANCH  53  67
BRANCH  54  73
ATOM     73  C   UNL A   1      47.889  29.796  29.138  1.00  0.00    -0.014 A 
ATOM     74  C   UNL A   1      48.749  29.641  30.234  1.00  0.00     0.009 A 
ATOM     75  C   UNL A   1      47.762  28.739  28.222  1.00  0.00     0.009 A 
ATOM     76  C   UNL A   1      49.482  28.461  30.397  1.00  0.00     0.001 A 
ATOM     77  C   UNL A   1      48.473  27.550  28.402  1.00  0.00     0.001 A 
ATOM     78  C   UNL A   1      49.338  27.416  29.485  1.00  0.00     0.000 A 
ENDBRANCH  54  73
BRANCH  66  79
ATOM     79  C   UNL A   1      49.403  35.919  26.175  1.00  0.00    -0.014 A 
ATOM     80  C   UNL A   1      49.631  35.752  24.800  1.00  0.00     0.009 A 
ATOM     81  C   UNL A   1      50.341  36.632  26.940  1.00  0.00     0.009 A 
ATOM     82  C   UNL A   1      50.790  36.260  24.211  1.00  0.00     0.001 A 
ATOM     83  C   UNL A   1      51.483  37.164  26.343  1.00  0.00     0.001 A 
ATOM     84  C   UNL A   1      51.712  36.970  24.982  1.00  0.00     0.000 A 
ENDBRANCH  66  79
ENDBRANCH  40  41
ENDBRANCH  33  35
ENDBRANCH  32  33
ENDBRANCH  31  32
ENDBRANCH  30  31
ENDBRANCH  29  30
ENDBRANCH  28  29
ENDBRANCH  27  28
ENDBRANCH   1  27
TORSDOF 23
ENDMDL
