MODEL 1
REMARK VINA RESULT:      -7.7      0.000      0.000
REMARK SMILES COC[C@H](C)[C@@](C)(O)C(=O)OCCOCCOCCOCCOC(=O)c1ccc(-c2c3nc(c(-c4ccccc4)c4ccc([nH]4)c(-c4ccccc4)c4nc(c(-c5ccccc5)c5ccc2[nH]5)C=C4)C=C3)cc1
REMARK SMILES IDX 16 1 15 2 14 3 13 4 12 5 11 6 9 7 10 8 6 9 7 10 4 11 5 12
REMARK SMILES IDX 3 13 2 14 1 15 8 16 17 18 18 19 19 20 20 21 21 22 22 23
REMARK SMILES IDX 23 24 24 25 25 26 26 27 27 28 73 29 28 30 72 31 29 32 30 33
REMARK SMILES IDX 31 34 66 35 32 36 71 37 65 38 67 39 33 40 70 41 64 42 63 43
REMARK SMILES IDX 34 45 56 46 41 47 55 48 42 49 45 50 54 51 68 52 43 53 44 54
REMARK SMILES IDX 53 56 69 57 46 58 35 59 36 60 40 61 37 62 39 63 38 64 57 65
REMARK SMILES IDX 58 66 62 67 59 68 61 69 60 70 47 71 48 72 52 73 49 74 51 75
REMARK SMILES IDX 50 76
REMARK H PARENT 8 17 67 44 45 55
REMARK Flexibility Score: inf
ROOT
ATOM      1  C   UNL A   1      29.759  24.286  26.190  1.00  0.00     0.188 C 
ENDROOT
BRANCH   1   2
ATOM      2  C   UNL A   1      30.890  23.361  26.669  1.00  0.00     0.188 C 
BRANCH   2   3
ATOM      3  O   UNL A   1      31.663  22.847  25.589  1.00  0.00    -0.376 OA
BRANCH   3   4
ATOM      4  C   UNL A   1      32.080  21.492  25.694  1.00  0.00     0.202 C 
BRANCH   4   5
ATOM      5  C   UNL A   1      33.257  20.979  24.842  1.00  0.00     0.261 C 
BRANCH   5   6
ATOM      6  O   UNL A   1      34.525  20.844  25.504  1.00  0.00    -0.461 OA
BRANCH   6   7
ATOM      7  C   UNL A   1      35.042  21.909  26.168  1.00  0.00     0.338 C 
ATOM      8  O   UNL A   1      34.451  22.499  27.064  1.00  0.00    -0.249 OA
BRANCH   7   9
ATOM      9  C   UNL A   1      36.429  22.331  25.563  1.00  0.00     0.163 C 
ATOM     10  C   UNL A   1      37.055  21.013  25.075  1.00  0.00     0.055 C 
BRANCH   9  11
ATOM     11  C   UNL A   1      36.341  23.388  24.413  1.00  0.00     0.055 C 
ATOM     12  C   UNL A   1      36.790  22.858  23.050  1.00  0.00     0.014 C 
BRANCH  11  13
ATOM     13  C   UNL A   1      34.991  24.146  24.311  1.00  0.00     0.166 C 
BRANCH  13  14
ATOM     14  O   UNL A   1      34.587  24.342  22.959  1.00  0.00    -0.384 OA
ATOM     15  C   UNL A   1      33.455  23.566  22.585  1.00  0.00     0.194 C 
ENDBRANCH  13  14
ENDBRANCH  11  13
ENDBRANCH   9  11
BRANCH   9  16
ATOM     16  O   UNL A   1      37.376  22.839  26.515  1.00  0.00    -0.378 OA
ATOM     17  H   UNL A   1      38.214  22.360  26.424  1.00  0.00     0.212 HD
ENDBRANCH   9  16
ENDBRANCH   7   9
ENDBRANCH   6   7
ENDBRANCH   5   6
ENDBRANCH   4   5
ENDBRANCH   3   4
ENDBRANCH   2   3
ENDBRANCH   1   2
BRANCH   1  18
ATOM     18  O   UNL A   1      29.936  25.642  26.560  1.00  0.00    -0.377 OA
BRANCH  18  19
ATOM     19  C   UNL A   1      31.220  26.219  26.370  1.00  0.00     0.188 C 
BRANCH  19  20
ATOM     20  C   UNL A   1      31.671  26.821  25.017  1.00  0.00     0.188 C 
BRANCH  20  21
ATOM     21  O   UNL A   1      32.384  28.048  25.102  1.00  0.00    -0.376 OA
BRANCH  21  22
ATOM     22  C   UNL A   1      31.949  29.015  26.042  1.00  0.00     0.202 C 
BRANCH  22  23
ATOM     23  C   UNL A   1      32.903  29.298  27.209  1.00  0.00     0.261 C 
BRANCH  23  24
ATOM     24  O   UNL A   1      34.031  30.134  26.910  1.00  0.00    -0.460 OA
BRANCH  24  25
ATOM     25  C   UNL A   1      34.533  30.903  27.900  1.00  0.00     0.338 C 
ATOM     26  O   UNL A   1      33.962  31.782  28.519  1.00  0.00    -0.246 OA
BRANCH  25  27
ATOM     27  C   UNL A   1      35.860  30.349  28.245  1.00  0.00     0.060 A 
ATOM     28  C   UNL A   1      36.053  29.765  29.506  1.00  0.00     0.016 A 
ATOM     29  C   UNL A   1      36.883  30.338  27.295  1.00  0.00     0.016 A 
ATOM     30  C   UNL A   1      37.276  29.168  29.818  1.00  0.00     0.010 A 
ATOM     31  C   UNL A   1      38.115  29.772  27.622  1.00  0.00     0.010 A 
ATOM     32  C   UNL A   1      38.323  29.200  28.891  1.00  0.00    -0.014 A 
BRANCH  32  33
ATOM     33  C   UNL A   1      39.695  28.815  29.291  1.00  0.00     0.031 A 
ATOM     34  C   UNL A   1      40.215  27.482  28.833  1.00  0.00     0.074 A 
ATOM     35  C   UNL A   1      40.448  29.606  30.078  1.00  0.00     0.049 A 
ATOM     36  N   UNL A   1      41.320  26.865  29.159  1.00  0.00    -0.248 NA
ATOM     37  C   UNL A   1      39.366  26.742  27.884  1.00  0.00     0.031 C 
ATOM     38  C   UNL A   1      40.077  30.938  30.549  1.00  0.00     0.029 A 
ATOM     39  N   UNL A   1      41.681  29.379  30.639  1.00  0.00    -0.354 N 
ATOM     40  C   UNL A   1      41.288  25.657  28.475  1.00  0.00     0.074 A 
ATOM     41  C   UNL A   1      40.055  25.622  27.723  1.00  0.00     0.031 C 
ATOM     42  C   UNL A   1      41.051  31.400  31.355  1.00  0.00     0.029 A 
ATOM     43  C   UNL A   1      42.089  30.380  31.489  1.00  0.00     0.049 A 
ATOM     44  H   UNL A   1      42.221  28.578  30.450  1.00  0.00     0.167 HD
ATOM     45  C   UNL A   1      42.204  24.661  28.482  1.00  0.00     0.031 A 
ATOM     46  C   UNL A   1      43.154  30.440  32.312  1.00  0.00     0.031 A 
ATOM     47  C   UNL A   1      43.423  24.693  29.240  1.00  0.00     0.049 A 
ATOM     48  C   UNL A   1      44.114  29.276  32.367  1.00  0.00     0.074 A 
ATOM     49  C   UNL A   1      44.434  23.749  29.280  1.00  0.00     0.029 A 
ATOM     50  N   UNL A   1      43.788  25.713  30.104  1.00  0.00    -0.354 N 
ATOM     51  N   UNL A   1      44.105  28.162  31.677  1.00  0.00    -0.248 NA
ATOM     52  C   UNL A   1      45.231  29.379  33.320  1.00  0.00     0.031 C 
ATOM     53  C   UNL A   1      45.378  24.164  30.223  1.00  0.00     0.029 A 
ATOM     54  C   UNL A   1      44.987  25.398  30.719  1.00  0.00     0.049 A 
ATOM     55  H   UNL A   1      43.272  26.537  30.256  1.00  0.00     0.167 HD
ATOM     56  C   UNL A   1      45.221  27.445  32.093  1.00  0.00     0.074 A 
ATOM     57  C   UNL A   1      45.897  28.258  33.081  1.00  0.00     0.031 C 
ATOM     58  C   UNL A   1      45.649  26.222  31.696  1.00  0.00     0.031 A 
BRANCH  45  59
ATOM     59  C   UNL A   1      41.897  23.426  27.687  1.00  0.00    -0.014 A 
ATOM     60  C   UNL A   1      42.388  23.250  26.385  1.00  0.00     0.009 A 
ATOM     61  C   UNL A   1      41.148  22.396  28.278  1.00  0.00     0.009 A 
ATOM     62  C   UNL A   1      42.117  22.072  25.682  1.00  0.00     0.001 A 
ATOM     63  C   UNL A   1      40.902  21.210  27.585  1.00  0.00     0.001 A 
ATOM     64  C   UNL A   1      41.382  21.053  26.285  1.00  0.00     0.000 A 
ENDBRANCH  45  59
BRANCH  46  65
ATOM     65  C   UNL A   1      43.349  31.611  33.211  1.00  0.00    -0.014 A 
ATOM     66  C   UNL A   1      44.136  32.703  32.812  1.00  0.00     0.009 A 
ATOM     67  C   UNL A   1      42.792  31.616  34.500  1.00  0.00     0.009 A 
ATOM     68  C   UNL A   1      44.388  33.756  33.695  1.00  0.00     0.001 A 
ATOM     69  C   UNL A   1      43.017  32.686  35.369  1.00  0.00     0.001 A 
ATOM     70  C   UNL A   1      43.826  33.749  34.971  1.00  0.00     0.000 A 
ENDBRANCH  46  65
BRANCH  58  71
ATOM     71  C   UNL A   1      46.920  25.695  32.301  1.00  0.00    -0.014 A 
ATOM     72  C   UNL A   1      48.171  25.986  31.736  1.00  0.00     0.009 A 
ATOM     73  C   UNL A   1      46.868  24.958  33.495  1.00  0.00     0.009 A 
ATOM     74  C   UNL A   1      49.342  25.530  32.343  1.00  0.00     0.001 A 
ATOM     75  C   UNL A   1      48.041  24.530  34.116  1.00  0.00     0.001 A 
ATOM     76  C   UNL A   1      49.277  24.810  33.537  1.00  0.00     0.000 A 
ENDBRANCH  58  71
ENDBRANCH  32  33
ENDBRANCH  25  27
ENDBRANCH  24  25
ENDBRANCH  23  24
ENDBRANCH  22  23
ENDBRANCH  21  22
ENDBRANCH  20  21
ENDBRANCH  19  20
ENDBRANCH  18  19
ENDBRANCH   1  18
TORSDOF 24
ENDMDL
MODEL 2
REMARK VINA RESULT:      -7.6      2.149      7.856
REMARK SMILES COC[C@H](C)[C@@](C)(O)C(=O)OCCOCCOCCOCCOC(=O)c1ccc(-c2c3nc(c(-c4ccccc4)c4ccc([nH]4)c(-c4ccccc4)c4nc(c(-c5ccccc5)c5ccc2[nH]5)C=C4)C=C3)cc1
REMARK SMILES IDX 16 1 15 2 14 3 13 4 12 5 11 6 9 7 10 8 6 9 7 10 4 11 5 12
REMARK SMILES IDX 3 13 2 14 1 15 8 16 17 18 18 19 19 20 20 21 21 22 22 23
REMARK SMILES IDX 23 24 24 25 25 26 26 27 27 28 73 29 28 30 72 31 29 32 30 33
REMARK SMILES IDX 31 34 66 35 32 36 71 37 65 38 67 39 33 40 70 41 64 42 63 43
REMARK SMILES IDX 34 45 56 46 41 47 55 48 42 49 45 50 54 51 68 52 43 53 44 54
REMARK SMILES IDX 53 56 69 57 46 58 35 59 36 60 40 61 37 62 39 63 38 64 57 65
REMARK SMILES IDX 58 66 62 67 59 68 61 69 60 70 47 71 48 72 52 73 49 74 51 75
REMARK SMILES IDX 50 76
REMARK H PARENT 8 17 67 44 45 55
REMARK Flexibility Score: inf
ROOT
ATOM      1  C   UNL A   1      33.691  21.910  24.906  1.00  0.00     0.188 C 
ENDROOT
BRANCH   1   2
ATOM      2  C   UNL A   1      33.418  23.292  25.522  1.00  0.00     0.188 C 
BRANCH   2   3
ATOM      3  O   UNL A   1      32.033  23.511  25.768  1.00  0.00    -0.376 OA
BRANCH   3   4
ATOM      4  C   UNL A   1      31.168  23.446  24.641  1.00  0.00     0.202 C 
BRANCH   4   5
ATOM      5  C   UNL A   1      31.408  24.365  23.429  1.00  0.00     0.261 C 
BRANCH   5   6
ATOM      6  O   UNL A   1      30.316  25.210  23.031  1.00  0.00    -0.461 OA
BRANCH   6   7
ATOM      7  C   UNL A   1      30.008  26.295  23.787  1.00  0.00     0.338 C 
ATOM      8  O   UNL A   1      29.304  26.243  24.789  1.00  0.00    -0.249 OA
BRANCH   7   9
ATOM      9  C   UNL A   1      30.581  27.609  23.146  1.00  0.00     0.163 C 
ATOM     10  C   UNL A   1      29.375  28.560  23.067  1.00  0.00     0.055 C 
BRANCH   9  11
ATOM     11  C   UNL A   1      31.769  28.251  23.937  1.00  0.00     0.055 C 
ATOM     12  C   UNL A   1      33.018  28.493  23.087  1.00  0.00     0.014 C 
BRANCH  11  13
ATOM     13  C   UNL A   1      31.406  29.502  24.779  1.00  0.00     0.166 C 
BRANCH  13  14
ATOM     14  O   UNL A   1      31.704  29.323  26.160  1.00  0.00    -0.384 OA
ATOM     15  C   UNL A   1      32.611  30.291  26.677  1.00  0.00     0.194 C 
ENDBRANCH  13  14
ENDBRANCH  11  13
ENDBRANCH   9  11
BRANCH   9  16
ATOM     16  O   UNL A   1      31.018  27.479  21.785  1.00  0.00    -0.378 OA
ATOM     17  H   UNL A   1      30.294  27.725  21.189  1.00  0.00     0.212 HD
ENDBRANCH   9  16
ENDBRANCH   7   9
ENDBRANCH   6   7
ENDBRANCH   5   6
ENDBRANCH   4   5
ENDBRANCH   3   4
ENDBRANCH   2   3
ENDBRANCH   1   2
BRANCH   1  18
ATOM     18  O   UNL A   1      34.997  21.770  24.375  1.00  0.00    -0.377 OA
BRANCH  18  19
ATOM     19  C   UNL A   1      36.087  22.222  25.166  1.00  0.00     0.188 C 
BRANCH  19  20
ATOM     20  C   UNL A   1      37.415  22.722  24.547  1.00  0.00     0.188 C 
BRANCH  20  21
ATOM     21  O   UNL A   1      38.563  22.584  25.373  1.00  0.00    -0.376 OA
BRANCH  21  22
ATOM     22  C   UNL A   1      38.713  21.392  26.124  1.00  0.00     0.202 C 
BRANCH  22  23
ATOM     23  C   UNL A   1      39.467  20.249  25.433  1.00  0.00     0.261 C 
BRANCH  23  24
ATOM     24  O   UNL A   1      40.398  19.525  26.251  1.00  0.00    -0.460 OA
BRANCH  24  25
ATOM     25  C   UNL A   1      41.716  19.681  26.003  1.00  0.00     0.338 C 
ATOM     26  O   UNL A   1      42.451  18.928  25.390  1.00  0.00    -0.246 OA
BRANCH  25  27
ATOM     27  C   UNL A   1      42.079  21.045  26.445  1.00  0.00     0.060 A 
ATOM     28  C   UNL A   1      42.067  21.349  27.814  1.00  0.00     0.016 A 
ATOM     29  C   UNL A   1      42.504  21.993  25.512  1.00  0.00     0.016 A 
ATOM     30  C   UNL A   1      42.482  22.607  28.253  1.00  0.00     0.010 A 
ATOM     31  C   UNL A   1      42.884  23.261  25.950  1.00  0.00     0.010 A 
ATOM     32  C   UNL A   1      42.859  23.580  27.320  1.00  0.00    -0.014 A 
BRANCH  32  33
ATOM     33  C   UNL A   1      43.045  24.989  27.735  1.00  0.00     0.031 A 
ATOM     34  C   UNL A   1      44.426  25.430  28.129  1.00  0.00     0.074 A 
ATOM     35  C   UNL A   1      42.011  25.847  27.804  1.00  0.00     0.049 A 
ATOM     36  N   UNL A   1      44.819  26.562  28.652  1.00  0.00    -0.248 NA
ATOM     37  C   UNL A   1      45.510  24.456  27.911  1.00  0.00     0.031 C 
ATOM     38  C   UNL A   1      40.635  25.555  27.407  1.00  0.00     0.029 A 
ATOM     39  N   UNL A   1      41.963  27.140  28.264  1.00  0.00    -0.354 N 
ATOM     40  C   UNL A   1      46.187  26.428  28.847  1.00  0.00     0.074 A 
ATOM     41  C   UNL A   1      46.558  25.107  28.395  1.00  0.00     0.031 C 
ATOM     42  C   UNL A   1      39.870  26.630  27.668  1.00  0.00     0.029 A 
ATOM     43  C   UNL A   1      40.693  27.666  28.290  1.00  0.00     0.049 A 
ATOM     44  H   UNL A   1      42.761  27.642  28.547  1.00  0.00     0.167 HD
ATOM     45  C   UNL A   1      47.055  27.326  29.366  1.00  0.00     0.031 A 
ATOM     46  C   UNL A   1      40.245  28.830  28.800  1.00  0.00     0.031 A 
ATOM     47  C   UNL A   1      46.682  28.635  29.826  1.00  0.00     0.049 A 
ATOM     48  C   UNL A   1      41.222  29.776  29.454  1.00  0.00     0.074 A 
ATOM     49  C   UNL A   1      47.499  29.632  30.330  1.00  0.00     0.029 A 
ATOM     50  N   UNL A   1      45.386  29.120  29.855  1.00  0.00    -0.354 N 
ATOM     51  N   UNL A   1      42.522  29.665  29.585  1.00  0.00    -0.248 NA
ATOM     52  C   UNL A   1      40.667  31.009  30.035  1.00  0.00     0.031 C 
ATOM     53  C   UNL A   1      46.686  30.695  30.732  1.00  0.00     0.029 A 
ATOM     54  C   UNL A   1      45.372  30.385  30.415  1.00  0.00     0.049 A 
ATOM     55  H   UNL A   1      44.593  28.637  29.527  1.00  0.00     0.167 HD
ATOM     56  C   UNL A   1      42.941  30.819  30.238  1.00  0.00     0.074 A 
ATOM     57  C   UNL A   1      41.761  31.627  30.461  1.00  0.00     0.031 C 
ATOM     58  C   UNL A   1      44.189  31.178  30.623  1.00  0.00     0.031 A 
BRANCH  45  59
ATOM     59  C   UNL A   1      48.488  26.905  29.516  1.00  0.00    -0.014 A 
ATOM     60  C   UNL A   1      48.935  26.209  30.649  1.00  0.00     0.009 A 
ATOM     61  C   UNL A   1      49.394  27.163  28.475  1.00  0.00     0.009 A 
ATOM     62  C   UNL A   1      50.267  25.797  30.744  1.00  0.00     0.001 A 
ATOM     63  C   UNL A   1      50.716  26.727  28.560  1.00  0.00     0.001 A 
ATOM     64  C   UNL A   1      51.152  26.050  29.698  1.00  0.00     0.000 A 
ENDBRANCH  45  59
BRANCH  46  65
ATOM     65  C   UNL A   1      38.791  29.153  28.782  1.00  0.00    -0.014 A 
ATOM     66  C   UNL A   1      38.187  29.692  27.635  1.00  0.00     0.009 A 
ATOM     67  C   UNL A   1      38.011  28.975  29.936  1.00  0.00     0.009 A 
ATOM     68  C   UNL A   1      36.843  30.076  27.656  1.00  0.00     0.001 A 
ATOM     69  C   UNL A   1      36.660  29.329  29.943  1.00  0.00     0.001 A 
ATOM     70  C   UNL A   1      36.080  29.892  28.808  1.00  0.00     0.000 A 
ENDBRANCH  46  65
BRANCH  58  71
ATOM     71  C   UNL A   1      44.357  32.512  31.296  1.00  0.00    -0.014 A 
ATOM     72  C   UNL A   1      44.550  33.685  30.550  1.00  0.00     0.009 A 
ATOM     73  C   UNL A   1      44.248  32.604  32.693  1.00  0.00     0.009 A 
ATOM     74  C   UNL A   1      44.652  34.920  31.193  1.00  0.00     0.001 A 
ATOM     75  C   UNL A   1      44.319  33.843  33.329  1.00  0.00     0.001 A 
ATOM     76  C   UNL A   1      44.528  34.999  32.580  1.00  0.00     0.000 A 
ENDBRANCH  58  71
ENDBRANCH  32  33
ENDBRANCH  25  27
ENDBRANCH  24  25
ENDBRANCH  23  24
ENDBRANCH  22  23
ENDBRANCH  21  22
ENDBRANCH  20  21
ENDBRANCH  19  20
ENDBRANCH  18  19
ENDBRANCH   1  18
TORSDOF 24
ENDMDL
MODEL 3
REMARK VINA RESULT:      -7.6      3.687      7.799
REMARK SMILES COC[C@H](C)[C@@](C)(O)C(=O)OCCOCCOCCOCCOC(=O)c1ccc(-c2c3nc(c(-c4ccccc4)c4ccc([nH]4)c(-c4ccccc4)c4nc(c(-c5ccccc5)c5ccc2[nH]5)C=C4)C=C3)cc1
REMARK SMILES IDX 16 1 15 2 14 3 13 4 12 5 11 6 9 7 10 8 6 9 7 10 4 11 5 12
REMARK SMILES IDX 3 13 2 14 1 15 8 16 17 18 18 19 19 20 20 21 21 22 22 23
REMARK SMILES IDX 23 24 24 25 25 26 26 27 27 28 73 29 28 30 72 31 29 32 30 33
REMARK SMILES IDX 31 34 66 35 32 36 71 37 65 38 67 39 33 40 70 41 64 42 63 43
REMARK SMILES IDX 34 45 56 46 41 47 55 48 42 49 45 50 54 51 68 52 43 53 44 54
REMARK SMILES IDX 53 56 69 57 46 58 35 59 36 60 40 61 37 62 39 63 38 64 57 65
REMARK SMILES IDX 58 66 62 67 59 68 61 69 60 70 47 71 48 72 52 73 49 74 51 75
REMARK SMILES IDX 50 76
REMARK H PARENT 8 17 67 44 45 55
REMARK Flexibility Score: inf
ROOT
ATOM      1  C   UNL A   1      32.926  31.434  27.208  1.00  0.00     0.188 C 
ENDROOT
BRANCH   1   2
ATOM      2  C   UNL A   1      32.571  30.131  26.474  1.00  0.00     0.188 C 
BRANCH   2   3
ATOM      3  O   UNL A   1      32.881  28.974  27.245  1.00  0.00    -0.376 OA
BRANCH   3   4
ATOM      4  C   UNL A   1      32.458  27.725  26.715  1.00  0.00     0.202 C 
BRANCH   4   5
ATOM      5  C   UNL A   1      31.586  27.679  25.446  1.00  0.00     0.261 C 
BRANCH   5   6
ATOM      6  O   UNL A   1      31.626  26.466  24.677  1.00  0.00    -0.461 OA
BRANCH   6   7
ATOM      7  C   UNL A   1      31.861  26.535  23.342  1.00  0.00     0.338 C 
ATOM      8  O   UNL A   1      31.220  27.247  22.578  1.00  0.00    -0.249 OA
BRANCH   7   9
ATOM      9  C   UNL A   1      32.975  25.515  22.913  1.00  0.00     0.163 C 
ATOM     10  C   UNL A   1      34.057  25.644  23.998  1.00  0.00     0.055 C 
BRANCH   9  11
ATOM     11  C   UNL A   1      32.480  24.037  22.765  1.00  0.00     0.055 C 
ATOM     12  C   UNL A   1      33.250  23.229  21.720  1.00  0.00     0.014 C 
BRANCH  11  13
ATOM     13  C   UNL A   1      32.333  23.252  24.095  1.00  0.00     0.166 C 
BRANCH  13  14
ATOM     14  O   UNL A   1      33.166  22.098  24.131  1.00  0.00    -0.384 OA
ATOM     15  C   UNL A   1      32.445  20.879  24.272  1.00  0.00     0.194 C 
ENDBRANCH  13  14
ENDBRANCH  11  13
ENDBRANCH   9  11
BRANCH   9  16
ATOM     16  O   UNL A   1      33.659  25.841  21.693  1.00  0.00    -0.378 OA
ATOM     17  H   UNL A   1      33.304  26.669  21.336  1.00  0.00     0.212 HD
ENDBRANCH   9  16
ENDBRANCH   7   9
ENDBRANCH   6   7
ENDBRANCH   5   6
ENDBRANCH   4   5
ENDBRANCH   3   4
ENDBRANCH   2   3
ENDBRANCH   1   2
BRANCH   1  18
ATOM     18  O   UNL A   1      33.948  31.283  28.178  1.00  0.00    -0.377 OA
BRANCH  18  19
ATOM     19  C   UNL A   1      35.023  32.211  28.159  1.00  0.00     0.188 C 
BRANCH  19  20
ATOM     20  C   UNL A   1      34.882  33.661  28.682  1.00  0.00     0.188 C 
BRANCH  20  21
ATOM     21  O   UNL A   1      33.900  33.852  29.691  1.00  0.00    -0.376 OA
BRANCH  21  22
ATOM     22  C   UNL A   1      34.335  34.069  31.022  1.00  0.00     0.202 C 
BRANCH  22  23
ATOM     23  C   UNL A   1      34.784  32.824  31.797  1.00  0.00     0.261 C 
BRANCH  23  24
ATOM     24  O   UNL A   1      35.632  33.062  32.931  1.00  0.00    -0.460 OA
BRANCH  24  25
ATOM     25  C   UNL A   1      36.722  33.839  32.756  1.00  0.00     0.338 C 
ATOM     26  O   UNL A   1      36.926  34.948  33.217  1.00  0.00    -0.246 OA
BRANCH  25  27
ATOM     27  C   UNL A   1      37.731  33.015  32.057  1.00  0.00     0.060 A 
ATOM     28  C   UNL A   1      38.496  32.096  32.792  1.00  0.00     0.016 A 
ATOM     29  C   UNL A   1      37.862  33.096  30.669  1.00  0.00     0.016 A 
ATOM     30  C   UNL A   1      39.397  31.256  32.136  1.00  0.00     0.010 A 
ATOM     31  C   UNL A   1      38.789  32.280  30.021  1.00  0.00     0.010 A 
ATOM     32  C   UNL A   1      39.572  31.368  30.752  1.00  0.00    -0.014 A 
BRANCH  32  33
ATOM     33  C   UNL A   1      40.698  30.683  30.078  1.00  0.00     0.031 A 
ATOM     34  C   UNL A   1      41.947  31.475  29.813  1.00  0.00     0.074 A 
ATOM     35  C   UNL A   1      40.604  29.405  29.670  1.00  0.00     0.049 A 
ATOM     36  N   UNL A   1      43.009  31.147  29.125  1.00  0.00    -0.248 NA
ATOM     37  C   UNL A   1      41.999  32.827  30.398  1.00  0.00     0.031 C 
ATOM     38  C   UNL A   1      39.467  28.518  29.906  1.00  0.00     0.029 A 
ATOM     39  N   UNL A   1      41.482  28.641  28.941  1.00  0.00    -0.354 N 
ATOM     40  C   UNL A   1      43.843  32.255  29.175  1.00  0.00     0.074 A 
ATOM     41  C   UNL A   1      43.165  33.269  29.951  1.00  0.00     0.031 C 
ATOM     42  C   UNL A   1      39.705  27.337  29.307  1.00  0.00     0.029 A 
ATOM     43  C   UNL A   1      40.988  27.402  28.610  1.00  0.00     0.049 A 
ATOM     44  H   UNL A   1      42.380  28.951  28.682  1.00  0.00     0.167 HD
ATOM     45  C   UNL A   1      45.064  32.417  28.613  1.00  0.00     0.031 A 
ATOM     46  C   UNL A   1      41.496  26.452  27.800  1.00  0.00     0.031 A 
ATOM     47  C   UNL A   1      45.730  31.413  27.832  1.00  0.00     0.049 A 
ATOM     48  C   UNL A   1      42.819  26.694  27.114  1.00  0.00     0.074 A 
ATOM     49  C   UNL A   1      46.987  31.468  27.256  1.00  0.00     0.029 A 
ATOM     50  N   UNL A   1      45.188  30.182  27.502  1.00  0.00    -0.354 N 
ATOM     51  N   UNL A   1      43.626  27.723  27.210  1.00  0.00    -0.248 NA
ATOM     52  C   UNL A   1      43.299  25.641  26.205  1.00  0.00     0.031 C 
ATOM     53  C   UNL A   1      47.176  30.298  26.516  1.00  0.00     0.029 A 
ATOM     54  C   UNL A   1      46.065  29.487  26.689  1.00  0.00     0.049 A 
ATOM     55  H   UNL A   1      44.309  29.851  27.802  1.00  0.00     0.167 HD
ATOM     56  C   UNL A   1      44.715  27.432  26.396  1.00  0.00     0.074 A 
ATOM     57  C   UNL A   1      44.476  26.122  25.828  1.00  0.00     0.031 C 
ATOM     58  C   UNL A   1      45.814  28.181  26.137  1.00  0.00     0.031 A 
BRANCH  45  59
ATOM     59  C   UNL A   1      45.737  33.748  28.778  1.00  0.00    -0.014 A 
ATOM     60  C   UNL A   1      45.548  34.786  27.852  1.00  0.00     0.009 A 
ATOM     61  C   UNL A   1      46.530  33.983  29.911  1.00  0.00     0.009 A 
ATOM     62  C   UNL A   1      46.158  36.027  28.051  1.00  0.00     0.001 A 
ATOM     63  C   UNL A   1      47.116  35.231  30.122  1.00  0.00     0.001 A 
ATOM     64  C   UNL A   1      46.934  36.250  29.187  1.00  0.00     0.000 A 
ENDBRANCH  45  59
BRANCH  46  65
ATOM     65  C   UNL A   1      40.731  25.204  27.527  1.00  0.00    -0.014 A 
ATOM     66  C   UNL A   1      41.215  23.955  27.946  1.00  0.00     0.009 A 
ATOM     67  C   UNL A   1      39.535  25.252  26.792  1.00  0.00     0.009 A 
ATOM     68  C   UNL A   1      40.536  22.781  27.607  1.00  0.00     0.001 A 
ATOM     69  C   UNL A   1      38.841  24.080  26.483  1.00  0.00     0.001 A 
ATOM     70  C   UNL A   1      39.349  22.845  26.879  1.00  0.00     0.000 A 
ENDBRANCH  46  65
BRANCH  58  71
ATOM     71  C   UNL A   1      46.859  27.600  25.227  1.00  0.00    -0.014 A 
ATOM     72  C   UNL A   1      46.904  27.930  23.864  1.00  0.00     0.009 A 
ATOM     73  C   UNL A   1      47.857  26.767  25.759  1.00  0.00     0.009 A 
ATOM     74  C   UNL A   1      47.915  27.419  23.048  1.00  0.00     0.001 A 
ATOM     75  C   UNL A   1      48.884  26.284  24.948  1.00  0.00     0.001 A 
ATOM     76  C   UNL A   1      48.908  26.605  23.591  1.00  0.00     0.000 A 
ENDBRANCH  58  71
ENDBRANCH  32  33
ENDBRANCH  25  27
ENDBRANCH  24  25
ENDBRANCH  23  24
ENDBRANCH  22  23
ENDBRANCH  21  22
ENDBRANCH  20  21
ENDBRANCH  19  20
ENDBRANCH  18  19
ENDBRANCH   1  18
TORSDOF 24
ENDMDL
