MODEL 1
REMARK VINA RESULT:      -9.5      0.000      0.000
REMARK SMILES C=CC[C@@]1(C(=O)OCCOCCOCCOCCOC(=O)c2ccc(-c3c4nc(c(-c5ccccc5)c5ccc([nH]5)c(-c5ccccc5)c5nc(c(-c6ccccc6)c6ccc3[nH]6)C=C5)C=C4)cc2)CCCN(C(=O)c2ccc3c(c2)OCO3)C1
REMARK SMILES IDX 13 1 12 2 11 3 10 4 9 5 8 6 7 7 5 8 6 9 4 10 70 11 85 12
REMARK SMILES IDX 71 13 73 14 72 15 3 16 2 17 1 18 74 19 75 20 76 21 77 22
REMARK SMILES IDX 81 23 78 24 80 25 79 26 82 27 84 28 83 29 14 30 15 31 16 32
REMARK SMILES IDX 17 33 18 34 19 35 20 36 21 37 22 38 23 39 69 40 24 41 68 42
REMARK SMILES IDX 25 43 26 44 27 45 62 46 28 47 67 48 61 49 63 50 29 51 66 52
REMARK SMILES IDX 60 53 59 54 30 56 52 57 37 58 51 59 38 60 41 61 50 62 64 63
REMARK SMILES IDX 39 64 40 65 49 67 65 68 42 69 31 70 32 71 36 72 33 73 35 74
REMARK SMILES IDX 34 75 53 76 54 77 58 78 55 79 57 80 56 81 43 82 44 83 48 84
REMARK SMILES IDX 45 85 47 86 46 87
REMARK H PARENT 63 55 41 66
REMARK Flexibility Score: inf
ROOT
ATOM      1  O   UNL A   1      40.438  21.377  27.354  1.00  0.00    -0.377 OA
ENDROOT
BRANCH   1   2
ATOM      2  C   UNL A   1      39.885  21.466  26.049  1.00  0.00     0.188 C 
BRANCH   2   3
ATOM      3  C   UNL A   1      38.521  22.146  26.074  1.00  0.00     0.188 C 
BRANCH   3   4
ATOM      4  O   UNL A   1      37.894  22.411  24.820  1.00  0.00    -0.376 OA
BRANCH   4   5
ATOM      5  C   UNL A   1      36.472  22.415  24.740  1.00  0.00     0.202 C 
BRANCH   5   6
ATOM      6  C   UNL A   1      35.704  23.694  25.129  1.00  0.00     0.261 C 
BRANCH   6   7
ATOM      7  O   UNL A   1      34.310  23.558  25.480  1.00  0.00    -0.463 OA
BRANCH   7   8
ATOM      8  C   UNL A   1      33.474  24.363  24.777  1.00  0.00     0.314 C 
ATOM      9  O   UNL A   1      33.356  25.563  25.022  1.00  0.00    -0.252 OA
BRANCH   8  10
ATOM     10  C   UNL A   1      32.554  23.645  23.774  1.00  0.00     0.089 C 
ATOM     11  C   UNL A   1      31.086  24.009  24.182  1.00  0.00     0.023 C 
ATOM     12  C   UNL A   1      32.747  22.134  23.953  1.00  0.00     0.138 C 
ATOM     13  C   UNL A   1      30.672  23.479  25.552  1.00  0.00     0.023 C 
ATOM     14  N   UNL A   1      32.354  21.666  25.270  1.00  0.00    -0.337 N 
ATOM     15  C   UNL A   1      30.989  22.000  25.707  1.00  0.00     0.120 C 
BRANCH  10  16
ATOM     16  C   UNL A   1      32.649  23.974  22.255  1.00  0.00     0.047 C 
BRANCH  16  17
ATOM     17  C   UNL A   1      32.533  25.354  21.703  1.00  0.00    -0.034 C 
ATOM     18  C   UNL A   1      32.667  25.682  20.412  1.00  0.00     0.004 C 
ENDBRANCH  16  17
ENDBRANCH  10  16
BRANCH  14  19
ATOM     19  C   UNL A   1      33.216  20.793  25.934  1.00  0.00     0.254 C 
ATOM     20  O   UNL A   1      33.860  21.061  26.942  1.00  0.00    -0.269 OA
BRANCH  19  21
ATOM     21  C   UNL A   1      33.408  19.483  25.300  1.00  0.00     0.043 A 
ATOM     22  C   UNL A   1      34.626  19.182  24.665  1.00  0.00     0.018 A 
ATOM     23  C   UNL A   1      32.427  18.514  25.539  1.00  0.00     0.064 A 
ATOM     24  C   UNL A   1      34.915  17.855  24.341  1.00  0.00     0.051 A 
ATOM     25  C   UNL A   1      32.773  17.219  25.265  1.00  0.00     0.166 A 
ATOM     26  C   UNL A   1      33.987  16.895  24.699  1.00  0.00     0.165 A 
ATOM     27  O   UNL A   1      32.045  16.125  25.610  1.00  0.00    -0.454 OA
ATOM     28  O   UNL A   1      34.160  15.547  24.624  1.00  0.00    -0.454 OA
ATOM     29  C   UNL A   1      33.041  15.100  25.421  1.00  0.00     0.468 C 
ENDBRANCH  19  21
ENDBRANCH  14  19
ENDBRANCH   8  10
ENDBRANCH   7   8
ENDBRANCH   6   7
ENDBRANCH   5   6
ENDBRANCH   4   5
ENDBRANCH   3   4
ENDBRANCH   2   3
ENDBRANCH   1   2
BRANCH   1  30
ATOM     30  C   UNL A   1      41.847  21.466  27.540  1.00  0.00     0.188 C 
BRANCH  30  31
ATOM     31  C   UNL A   1      42.715  20.436  26.825  1.00  0.00     0.188 C 
BRANCH  31  32
ATOM     32  O   UNL A   1      42.990  20.672  25.444  1.00  0.00    -0.376 OA
BRANCH  32  33
ATOM     33  C   UNL A   1      43.650  21.884  25.085  1.00  0.00     0.202 C 
BRANCH  33  34
ATOM     34  C   UNL A   1      45.016  22.121  25.729  1.00  0.00     0.261 C 
BRANCH  34  35
ATOM     35  O   UNL A   1      45.468  23.479  25.595  1.00  0.00    -0.460 OA
BRANCH  35  36
ATOM     36  C   UNL A   1      45.999  24.011  26.718  1.00  0.00     0.338 C 
ATOM     37  O   UNL A   1      47.174  23.972  27.076  1.00  0.00    -0.246 OA
BRANCH  36  38
ATOM     38  C   UNL A   1      44.993  24.816  27.425  1.00  0.00     0.060 A 
ATOM     39  C   UNL A   1      45.166  26.207  27.448  1.00  0.00     0.016 A 
ATOM     40  C   UNL A   1      43.958  24.214  28.145  1.00  0.00     0.016 A 
ATOM     41  C   UNL A   1      44.338  26.997  28.233  1.00  0.00     0.010 A 
ATOM     42  C   UNL A   1      43.137  25.009  28.950  1.00  0.00     0.010 A 
ATOM     43  C   UNL A   1      43.355  26.396  29.028  1.00  0.00    -0.014 A 
BRANCH  43  44
ATOM     44  C   UNL A   1      42.692  27.220  30.062  1.00  0.00     0.031 A 
ATOM     45  C   UNL A   1      43.353  27.372  31.404  1.00  0.00     0.074 A 
ATOM     46  C   UNL A   1      41.569  27.898  29.771  1.00  0.00     0.049 A 
ATOM     47  N   UNL A   1      42.990  28.097  32.430  1.00  0.00    -0.248 NA
ATOM     48  C   UNL A   1      44.596  26.610  31.615  1.00  0.00     0.031 C 
ATOM     49  C   UNL A   1      40.874  27.868  28.485  1.00  0.00     0.029 A 
ATOM     50  N   UNL A   1      40.829  28.758  30.538  1.00  0.00    -0.354 N 
ATOM     51  C   UNL A   1      43.954  27.875  33.407  1.00  0.00     0.074 A 
ATOM     52  C   UNL A   1      44.898  26.924  32.865  1.00  0.00     0.031 C 
ATOM     53  C   UNL A   1      39.807  28.682  28.549  1.00  0.00     0.029 A 
ATOM     54  C   UNL A   1      39.732  29.264  29.887  1.00  0.00     0.049 A 
ATOM     55  H   UNL A   1      41.062  28.992  31.466  1.00  0.00     0.167 HD
ATOM     56  C   UNL A   1      44.045  28.421  34.642  1.00  0.00     0.031 A 
ATOM     57  C   UNL A   1      38.769  30.094  30.330  1.00  0.00     0.031 A 
ATOM     58  C   UNL A   1      43.089  29.352  35.184  1.00  0.00     0.049 A 
ATOM     59  C   UNL A   1      38.855  30.627  31.734  1.00  0.00     0.074 A 
ATOM     60  C   UNL A   1      43.090  29.969  36.422  1.00  0.00     0.029 A 
ATOM     61  N   UNL A   1      41.956  29.794  34.517  1.00  0.00    -0.354 N 
ATOM     62  N   UNL A   1      39.781  30.428  32.643  1.00  0.00    -0.248 NA
ATOM     63  C   UNL A   1      37.768  31.513  32.167  1.00  0.00     0.031 C 
ATOM     64  C   UNL A   1      41.922  30.732  36.531  1.00  0.00     0.029 A 
ATOM     65  C   UNL A   1      41.231  30.650  35.331  1.00  0.00     0.049 A 
ATOM     66  H   UNL A   1      41.702  29.537  33.602  1.00  0.00     0.167 HD
ATOM     67  C   UNL A   1      39.400  31.184  33.745  1.00  0.00     0.074 A 
ATOM     68  C   UNL A   1      38.176  31.867  33.376  1.00  0.00     0.031 C 
ATOM     69  C   UNL A   1      40.004  31.305  34.954  1.00  0.00     0.031 A 
BRANCH  56  70
ATOM     70  C   UNL A   1      45.196  27.986  35.509  1.00  0.00    -0.014 A 
ATOM     71  C   UNL A   1      46.428  28.658  35.489  1.00  0.00     0.009 A 
ATOM     72  C   UNL A   1      45.034  26.897  36.381  1.00  0.00     0.009 A 
ATOM     73  C   UNL A   1      47.484  28.228  36.297  1.00  0.00     0.001 A 
ATOM     74  C   UNL A   1      46.080  26.488  37.210  1.00  0.00     0.001 A 
ATOM     75  C   UNL A   1      47.307  27.148  37.160  1.00  0.00     0.000 A 
ENDBRANCH  56  70
BRANCH  57  76
ATOM     76  C   UNL A   1      37.633  30.460  29.443  1.00  0.00    -0.014 A 
ATOM     77  C   UNL A   1      37.535  31.744  28.888  1.00  0.00     0.009 A 
ATOM     78  C   UNL A   1      36.625  29.523  29.164  1.00  0.00     0.009 A 
ATOM     79  C   UNL A   1      36.436  32.093  28.098  1.00  0.00     0.001 A 
ATOM     80  C   UNL A   1      35.546  29.862  28.346  1.00  0.00     0.001 A 
ATOM     81  C   UNL A   1      35.446  31.151  27.823  1.00  0.00     0.000 A 
ENDBRANCH  57  76
BRANCH  69  82
ATOM     82  C   UNL A   1      39.358  32.234  35.946  1.00  0.00    -0.014 A 
ATOM     83  C   UNL A   1      38.359  31.788  36.825  1.00  0.00     0.009 A 
ATOM     84  C   UNL A   1      39.754  33.580  35.997  1.00  0.00     0.009 A 
ATOM     85  C   UNL A   1      37.728  32.684  37.692  1.00  0.00     0.001 A 
ATOM     86  C   UNL A   1      39.148  34.464  36.890  1.00  0.00     0.001 A 
ATOM     87  C   UNL A   1      38.125  34.020  37.724  1.00  0.00     0.000 A 
ENDBRANCH  69  82
ENDBRANCH  43  44
ENDBRANCH  36  38
ENDBRANCH  35  36
ENDBRANCH  34  35
ENDBRANCH  33  34
ENDBRANCH  32  33
ENDBRANCH  31  32
ENDBRANCH  30  31
ENDBRANCH   1  30
TORSDOF 24
ENDMDL
MODEL 2
REMARK VINA RESULT:      -9.2      2.611      8.641
REMARK SMILES C=CC[C@@]1(C(=O)OCCOCCOCCOCCOC(=O)c2ccc(-c3c4nc(c(-c5ccccc5)c5ccc([nH]5)c(-c5ccccc5)c5nc(c(-c6ccccc6)c6ccc3[nH]6)C=C5)C=C4)cc2)CCCN(C(=O)c2ccc3c(c2)OCO3)C1
REMARK SMILES IDX 13 1 12 2 11 3 10 4 9 5 8 6 7 7 5 8 6 9 4 10 70 11 85 12
REMARK SMILES IDX 71 13 73 14 72 15 3 16 2 17 1 18 74 19 75 20 76 21 77 22
REMARK SMILES IDX 81 23 78 24 80 25 79 26 82 27 84 28 83 29 14 30 15 31 16 32
REMARK SMILES IDX 17 33 18 34 19 35 20 36 21 37 22 38 23 39 69 40 24 41 68 42
REMARK SMILES IDX 25 43 26 44 27 45 62 46 28 47 67 48 61 49 63 50 29 51 66 52
REMARK SMILES IDX 60 53 59 54 30 56 52 57 37 58 51 59 38 60 41 61 50 62 64 63
REMARK SMILES IDX 39 64 40 65 49 67 65 68 42 69 31 70 32 71 36 72 33 73 35 74
REMARK SMILES IDX 34 75 53 76 54 77 58 78 55 79 57 80 56 81 43 82 44 83 48 84
REMARK SMILES IDX 45 85 47 86 46 87
REMARK H PARENT 63 55 41 66
REMARK Flexibility Score: inf
ROOT
ATOM      1  O   UNL A   1      31.891  29.250  23.718  1.00  0.00    -0.377 OA
ENDROOT
BRANCH   1   2
ATOM      2  C   UNL A   1      30.804  28.972  22.847  1.00  0.00     0.188 C 
BRANCH   2   3
ATOM      3  C   UNL A   1      30.907  27.565  22.269  1.00  0.00     0.188 C 
BRANCH   3   4
ATOM      4  O   UNL A   1      31.131  26.493  23.182  1.00  0.00    -0.376 OA
BRANCH   4   5
ATOM      5  C   UNL A   1      32.211  25.593  22.949  1.00  0.00     0.202 C 
BRANCH   5   6
ATOM      6  C   UNL A   1      33.587  25.898  23.572  1.00  0.00     0.261 C 
BRANCH   6   7
ATOM      7  O   UNL A   1      34.154  24.911  24.462  1.00  0.00    -0.463 OA
BRANCH   7   8
ATOM      8  C   UNL A   1      34.381  23.703  23.887  1.00  0.00     0.314 C 
ATOM      9  O   UNL A   1      35.158  23.560  22.944  1.00  0.00    -0.252 OA
BRANCH   8  10
ATOM     10  C   UNL A   1      33.472  22.560  24.372  1.00  0.00     0.089 C 
ATOM     11  C   UNL A   1      32.929  22.993  25.776  1.00  0.00     0.023 C 
ATOM     12  C   UNL A   1      34.341  21.310  24.553  1.00  0.00     0.138 C 
ATOM     13  C   UNL A   1      34.009  23.126  26.847  1.00  0.00     0.023 C 
ATOM     14  N   UNL A   1      35.364  21.473  25.570  1.00  0.00    -0.337 N 
ATOM     15  C   UNL A   1      34.905  21.899  26.902  1.00  0.00     0.120 C 
BRANCH  10  16
ATOM     16  C   UNL A   1      32.210  22.165  23.551  1.00  0.00     0.047 C 
BRANCH  16  17
ATOM     17  C   UNL A   1      32.056  20.854  22.857  1.00  0.00    -0.034 C 
ATOM     18  C   UNL A   1      31.911  20.693  21.537  1.00  0.00     0.004 C 
ENDBRANCH  16  17
ENDBRANCH  10  16
BRANCH  14  19
ATOM     19  C   UNL A   1      36.656  21.045  25.268  1.00  0.00     0.254 C 
ATOM     20  O   UNL A   1      36.954  19.943  24.822  1.00  0.00    -0.269 OA
BRANCH  19  21
ATOM     21  C   UNL A   1      37.733  21.985  25.604  1.00  0.00     0.043 A 
ATOM     22  C   UNL A   1      37.450  23.354  25.752  1.00  0.00     0.018 A 
ATOM     23  C   UNL A   1      38.968  21.432  25.960  1.00  0.00     0.064 A 
ATOM     24  C   UNL A   1      38.394  24.182  26.363  1.00  0.00     0.051 A 
ATOM     25  C   UNL A   1      39.841  22.261  26.611  1.00  0.00     0.166 A 
ATOM     26  C   UNL A   1      39.557  23.593  26.822  1.00  0.00     0.165 A 
ATOM     27  O   UNL A   1      40.995  21.868  27.210  1.00  0.00    -0.454 OA
ATOM     28  O   UNL A   1      40.511  24.193  27.586  1.00  0.00    -0.454 OA
ATOM     29  C   UNL A   1      41.263  23.035  28.012  1.00  0.00     0.468 C 
ENDBRANCH  19  21
ENDBRANCH  14  19
ENDBRANCH   8  10
ENDBRANCH   7   8
ENDBRANCH   6   7
ENDBRANCH   5   6
ENDBRANCH   4   5
ENDBRANCH   3   4
ENDBRANCH   2   3
ENDBRANCH   1   2
BRANCH   1  30
ATOM     30  C   UNL A   1      31.748  29.054  25.122  1.00  0.00     0.188 C 
BRANCH  30  31
ATOM     31  C   UNL A   1      31.921  30.275  26.020  1.00  0.00     0.188 C 
BRANCH  31  32
ATOM     32  O   UNL A   1      32.566  30.064  27.276  1.00  0.00    -0.376 OA
BRANCH  32  33
ATOM     33  C   UNL A   1      33.989  30.146  27.326  1.00  0.00     0.202 C 
BRANCH  33  34
ATOM     34  C   UNL A   1      34.573  31.535  27.582  1.00  0.00     0.261 C 
BRANCH  34  35
ATOM     35  O   UNL A   1      33.689  32.383  28.336  1.00  0.00    -0.460 OA
BRANCH  35  36
ATOM     36  C   UNL A   1      34.216  33.575  28.693  1.00  0.00     0.338 C 
ATOM     37  O   UNL A   1      33.912  34.682  28.256  1.00  0.00    -0.246 OA
BRANCH  36  38
ATOM     38  C   UNL A   1      35.131  33.406  29.830  1.00  0.00     0.060 A 
ATOM     39  C   UNL A   1      36.365  34.068  29.780  1.00  0.00     0.016 A 
ATOM     40  C   UNL A   1      34.835  32.528  30.876  1.00  0.00     0.016 A 
ATOM     41  C   UNL A   1      37.328  33.816  30.747  1.00  0.00     0.010 A 
ATOM     42  C   UNL A   1      35.813  32.260  31.838  1.00  0.00     0.010 A 
ATOM     43  C   UNL A   1      37.076  32.872  31.749  1.00  0.00    -0.014 A 
BRANCH  43  44
ATOM     44  C   UNL A   1      38.211  32.415  32.580  1.00  0.00     0.031 A 
ATOM     45  C   UNL A   1      39.254  31.528  31.959  1.00  0.00     0.074 A 
ATOM     46  C   UNL A   1      38.354  32.864  33.838  1.00  0.00     0.049 A 
ATOM     47  N   UNL A   1      40.363  31.065  32.475  1.00  0.00    -0.248 NA
ATOM     48  C   UNL A   1      39.020  31.113  30.565  1.00  0.00     0.031 C 
ATOM     49  C   UNL A   1      37.432  33.771  34.521  1.00  0.00     0.029 A 
ATOM     50  N   UNL A   1      39.343  32.629  34.756  1.00  0.00    -0.354 N 
ATOM     51  C   UNL A   1      40.955  30.304  31.474  1.00  0.00     0.074 A 
ATOM     52  C   UNL A   1      40.068  30.338  30.333  1.00  0.00     0.031 C 
ATOM     53  C   UNL A   1      37.905  34.022  35.753  1.00  0.00     0.029 A 
ATOM     54  C   UNL A   1      39.142  33.272  35.952  1.00  0.00     0.049 A 
ATOM     55  H   UNL A   1      40.123  32.055  34.575  1.00  0.00     0.167 HD
ATOM     56  C   UNL A   1      42.135  29.641  31.503  1.00  0.00     0.031 A 
ATOM     57  C   UNL A   1      39.873  33.245  37.082  1.00  0.00     0.031 A 
ATOM     58  C   UNL A   1      43.004  29.594  32.651  1.00  0.00     0.049 A 
ATOM     59  C   UNL A   1      41.143  32.439  37.111  1.00  0.00     0.074 A 
ATOM     60  C   UNL A   1      44.224  28.956  32.785  1.00  0.00     0.029 A 
ATOM     61  N   UNL A   1      42.737  30.207  33.866  1.00  0.00    -0.354 N 
ATOM     62  N   UNL A   1      41.704  31.739  36.153  1.00  0.00    -0.248 NA
ATOM     63  C   UNL A   1      41.887  32.432  38.376  1.00  0.00     0.031 C 
ATOM     64  C   UNL A   1      44.664  29.127  34.102  1.00  0.00     0.029 A 
ATOM     65  C   UNL A   1      43.754  29.934  34.767  1.00  0.00     0.049 A 
ATOM     66  H   UNL A   1      41.942  30.754  34.061  1.00  0.00     0.167 HD
ATOM     67  C   UNL A   1      42.879  31.230  36.693  1.00  0.00     0.074 A 
ATOM     68  C   UNL A   1      42.962  31.730  38.051  1.00  0.00     0.031 C 
ATOM     69  C   UNL A   1      43.808  30.424  36.121  1.00  0.00     0.031 A 
BRANCH  56  70
ATOM     70  C   UNL A   1      42.530  28.873  30.270  1.00  0.00    -0.014 A 
ATOM     71  C   UNL A   1      42.169  27.528  30.093  1.00  0.00     0.009 A 
ATOM     72  C   UNL A   1      43.257  29.517  29.256  1.00  0.00     0.009 A 
ATOM     73  C   UNL A   1      42.556  26.836  28.943  1.00  0.00     0.001 A 
ATOM     74  C   UNL A   1      43.616  28.832  28.094  1.00  0.00     0.001 A 
ATOM     75  C   UNL A   1      43.274  27.490  27.943  1.00  0.00     0.000 A 
ENDBRANCH  56  70
BRANCH  57  76
ATOM     76  C   UNL A   1      39.415  33.991  38.284  1.00  0.00    -0.014 A 
ATOM     77  C   UNL A   1      39.676  35.361  38.426  1.00  0.00     0.009 A 
ATOM     78  C   UNL A   1      38.727  33.323  39.310  1.00  0.00     0.009 A 
ATOM     79  C   UNL A   1      39.286  36.041  39.584  1.00  0.00     0.001 A 
ATOM     80  C   UNL A   1      38.308  34.011  40.451  1.00  0.00     0.001 A 
ATOM     81  C   UNL A   1      38.599  35.367  40.591  1.00  0.00     0.000 A 
ENDBRANCH  57  76
BRANCH  69  82
ATOM     82  C   UNL A   1      45.003  30.063  36.962  1.00  0.00    -0.014 A 
ATOM     83  C   UNL A   1      45.024  28.898  37.745  1.00  0.00     0.009 A 
ATOM     84  C   UNL A   1      46.126  30.907  36.973  1.00  0.00     0.009 A 
ATOM     85  C   UNL A   1      46.117  28.617  38.568  1.00  0.00     0.001 A 
ATOM     86  C   UNL A   1      47.233  30.604  37.767  1.00  0.00     0.001 A 
ATOM     87  C   UNL A   1      47.220  29.470  38.576  1.00  0.00     0.000 A 
ENDBRANCH  69  82
ENDBRANCH  43  44
ENDBRANCH  36  38
ENDBRANCH  35  36
ENDBRANCH  34  35
ENDBRANCH  33  34
ENDBRANCH  32  33
ENDBRANCH  31  32
ENDBRANCH  30  31
ENDBRANCH   1  30
TORSDOF 24
ENDMDL
MODEL 3
REMARK VINA RESULT:      -8.4      2.992      5.343
REMARK SMILES C=CC[C@@]1(C(=O)OCCOCCOCCOCCOC(=O)c2ccc(-c3c4nc(c(-c5ccccc5)c5ccc([nH]5)c(-c5ccccc5)c5nc(c(-c6ccccc6)c6ccc3[nH]6)C=C5)C=C4)cc2)CCCN(C(=O)c2ccc3c(c2)OCO3)C1
REMARK SMILES IDX 13 1 12 2 11 3 10 4 9 5 8 6 7 7 5 8 6 9 4 10 70 11 85 12
REMARK SMILES IDX 71 13 73 14 72 15 3 16 2 17 1 18 74 19 75 20 76 21 77 22
REMARK SMILES IDX 81 23 78 24 80 25 79 26 82 27 84 28 83 29 14 30 15 31 16 32
REMARK SMILES IDX 17 33 18 34 19 35 20 36 21 37 22 38 23 39 69 40 24 41 68 42
REMARK SMILES IDX 25 43 26 44 27 45 62 46 28 47 67 48 61 49 63 50 29 51 66 52
REMARK SMILES IDX 60 53 59 54 30 56 52 57 37 58 51 59 38 60 41 61 50 62 64 63
REMARK SMILES IDX 39 64 40 65 49 67 65 68 42 69 31 70 32 71 36 72 33 73 35 74
REMARK SMILES IDX 34 75 53 76 54 77 58 78 55 79 57 80 56 81 43 82 44 83 48 84
REMARK SMILES IDX 45 85 47 86 46 87
REMARK H PARENT 63 55 41 66
REMARK Flexibility Score: inf
ROOT
ATOM      1  O   UNL A   1      40.720  21.703  27.354  1.00  0.00    -0.377 OA
ENDROOT
BRANCH   1   2
ATOM      2  C   UNL A   1      40.035  21.460  26.134  1.00  0.00     0.188 C 
BRANCH   2   3
ATOM      3  C   UNL A   1      38.738  22.258  26.062  1.00  0.00     0.188 C 
BRANCH   3   4
ATOM      4  O   UNL A   1      37.753  21.831  25.122  1.00  0.00    -0.376 OA
BRANCH   4   5
ATOM      5  C   UNL A   1      36.379  22.110  25.379  1.00  0.00     0.202 C 
BRANCH   5   6
ATOM      6  C   UNL A   1      35.944  23.568  25.623  1.00  0.00     0.261 C 
BRANCH   6   7
ATOM      7  O   UNL A   1      34.592  23.798  26.075  1.00  0.00    -0.463 OA
BRANCH   7   8
ATOM      8  C   UNL A   1      34.002  24.897  25.541  1.00  0.00     0.314 C 
ATOM      9  O   UNL A   1      34.033  25.995  26.095  1.00  0.00    -0.252 OA
BRANCH   8  10
ATOM     10  C   UNL A   1      33.141  24.642  24.291  1.00  0.00     0.089 C 
ATOM     11  C   UNL A   1      31.754  25.316  24.565  1.00  0.00     0.023 C 
ATOM     12  C   UNL A   1      32.928  23.129  24.162  1.00  0.00     0.138 C 
ATOM     13  C   UNL A   1      30.975  24.690  25.719  1.00  0.00     0.023 C 
ATOM     14  N   UNL A   1      32.195  22.564  25.281  1.00  0.00    -0.337 N 
ATOM     15  C   UNL A   1      30.893  23.177  25.591  1.00  0.00     0.120 C 
BRANCH  10  16
ATOM     16  C   UNL A   1      33.595  25.192  22.906  1.00  0.00     0.047 C 
BRANCH  16  17
ATOM     17  C   UNL A   1      32.946  24.815  21.618  1.00  0.00    -0.034 C 
ATOM     18  C   UNL A   1      32.244  25.645  20.837  1.00  0.00     0.004 C 
ENDBRANCH  16  17
ENDBRANCH  10  16
BRANCH  14  19
ATOM     19  C   UNL A   1      32.681  21.388  25.851  1.00  0.00     0.254 C 
ATOM     20  O   UNL A   1      33.253  21.306  26.932  1.00  0.00    -0.269 OA
BRANCH  19  21
ATOM     21  C   UNL A   1      32.556  20.181  25.025  1.00  0.00     0.043 A 
ATOM     22  C   UNL A   1      32.296  20.295  23.648  1.00  0.00     0.018 A 
ATOM     23  C   UNL A   1      32.905  18.965  25.624  1.00  0.00     0.064 A 
ATOM     24  C   UNL A   1      32.482  19.183  22.825  1.00  0.00     0.051 A 
ATOM     25  C   UNL A   1      33.138  17.916  24.777  1.00  0.00     0.166 A 
ATOM     26  C   UNL A   1      32.949  18.024  23.416  1.00  0.00     0.165 A 
ATOM     27  O   UNL A   1      33.675  16.721  25.140  1.00  0.00    -0.454 OA
ATOM     28  O   UNL A   1      33.352  16.898  22.764  1.00  0.00    -0.454 OA
ATOM     29  C   UNL A   1      34.022  16.205  23.840  1.00  0.00     0.468 C 
ENDBRANCH  19  21
ENDBRANCH  14  19
ENDBRANCH   8  10
ENDBRANCH   7   8
ENDBRANCH   6   7
ENDBRANCH   5   6
ENDBRANCH   4   5
ENDBRANCH   3   4
ENDBRANCH   2   3
ENDBRANCH   1   2
BRANCH   1  30
ATOM     30  C   UNL A   1      42.017  22.290  27.340  1.00  0.00     0.188 C 
BRANCH  30  31
ATOM     31  C   UNL A   1      43.096  21.585  26.523  1.00  0.00     0.188 C 
BRANCH  31  32
ATOM     32  O   UNL A   1      43.089  21.814  25.114  1.00  0.00    -0.376 OA
BRANCH  32  33
ATOM     33  C   UNL A   1      43.354  23.134  24.643  1.00  0.00     0.202 C 
BRANCH  33  34
ATOM     34  C   UNL A   1      44.779  23.647  24.851  1.00  0.00     0.261 C 
BRANCH  34  35
ATOM     35  O   UNL A   1      44.902  25.062  24.622  1.00  0.00    -0.460 OA
BRANCH  35  36
ATOM     36  C   UNL A   1      45.988  25.633  25.187  1.00  0.00     0.338 C 
ATOM     37  O   UNL A   1      47.095  25.789  24.678  1.00  0.00    -0.246 OA
BRANCH  36  38
ATOM     38  C   UNL A   1      45.636  26.217  26.489  1.00  0.00     0.060 A 
ATOM     39  C   UNL A   1      44.277  26.381  26.787  1.00  0.00     0.016 A 
ATOM     40  C   UNL A   1      46.619  26.699  27.357  1.00  0.00     0.016 A 
ATOM     41  C   UNL A   1      43.894  27.071  27.929  1.00  0.00     0.010 A 
ATOM     42  C   UNL A   1      46.232  27.411  28.496  1.00  0.00     0.010 A 
ATOM     43  C   UNL A   1      44.870  27.634  28.759  1.00  0.00    -0.014 A 
BRANCH  43  44
ATOM     44  C   UNL A   1      44.435  28.600  29.791  1.00  0.00     0.031 A 
ATOM     45  C   UNL A   1      44.302  30.051  29.419  1.00  0.00     0.074 A 
ATOM     46  C   UNL A   1      44.074  28.170  31.012  1.00  0.00     0.049 A 
ATOM     47  N   UNL A   1      43.875  31.056  30.138  1.00  0.00    -0.248 NA
ATOM     48  C   UNL A   1      44.697  30.417  28.048  1.00  0.00     0.031 C 
ATOM     49  C   UNL A   1      44.110  26.780  31.463  1.00  0.00     0.029 A 
ATOM     50  N   UNL A   1      43.588  28.865  32.088  1.00  0.00    -0.354 N 
ATOM     51  C   UNL A   1      43.953  32.171  29.311  1.00  0.00     0.074 A 
ATOM     52  C   UNL A   1      44.499  31.726  28.048  1.00  0.00     0.031 C 
ATOM     53  C   UNL A   1      43.656  26.722  32.726  1.00  0.00     0.029 A 
ATOM     54  C   UNL A   1      43.328  28.071  33.178  1.00  0.00     0.049 A 
ATOM     55  H   UNL A   1      43.439  29.838  32.081  1.00  0.00     0.167 HD
ATOM     56  C   UNL A   1      43.595  33.448  29.579  1.00  0.00     0.031 A 
ATOM     57  C   UNL A   1      42.886  28.404  34.405  1.00  0.00     0.031 A 
ATOM     58  C   UNL A   1      43.071  33.888  30.846  1.00  0.00     0.049 A 
ATOM     59  C   UNL A   1      42.567  29.845  34.699  1.00  0.00     0.074 A 
ATOM     60  C   UNL A   1      42.672  35.159  31.222  1.00  0.00     0.029 A 
ATOM     61  N   UNL A   1      42.879  33.066  31.947  1.00  0.00    -0.354 N 
ATOM     62  N   UNL A   1      42.625  30.888  33.905  1.00  0.00    -0.248 NA
ATOM     63  C   UNL A   1      42.107  30.150  36.060  1.00  0.00     0.031 C 
ATOM     64  C   UNL A   1      42.303  35.119  32.571  1.00  0.00     0.029 A 
ATOM     65  C   UNL A   1      42.400  33.809  33.015  1.00  0.00     0.049 A 
ATOM     66  H   UNL A   1      43.059  32.099  31.969  1.00  0.00     0.167 HD
ATOM     67  C   UNL A   1      42.185  31.966  34.661  1.00  0.00     0.074 A 
ATOM     68  C   UNL A   1      41.835  31.443  35.967  1.00  0.00     0.031 C 
ATOM     69  C   UNL A   1      42.077  33.273  34.312  1.00  0.00     0.031 A 
BRANCH  56  70
ATOM     70  C   UNL A   1      43.805  34.470  28.494  1.00  0.00    -0.014 A 
ATOM     71  C   UNL A   1      42.774  34.829  27.612  1.00  0.00     0.009 A 
ATOM     72  C   UNL A   1      45.053  35.101  28.368  1.00  0.00     0.009 A 
ATOM     73  C   UNL A   1      42.998  35.774  26.607  1.00  0.00     0.001 A 
ATOM     74  C   UNL A   1      45.266  36.067  27.383  1.00  0.00     0.001 A 
ATOM     75  C   UNL A   1      44.241  36.395  26.497  1.00  0.00     0.000 A 
ENDBRANCH  56  70
BRANCH  57  76
ATOM     76  C   UNL A   1      42.734  27.360  35.452  1.00  0.00    -0.014 A 
ATOM     77  C   UNL A   1      43.800  27.027  36.300  1.00  0.00     0.009 A 
ATOM     78  C   UNL A   1      41.517  26.673  35.592  1.00  0.00     0.009 A 
ATOM     79  C   UNL A   1      43.661  26.007  37.246  1.00  0.00     0.001 A 
ATOM     80  C   UNL A   1      41.370  25.678  36.561  1.00  0.00     0.001 A 
ATOM     81  C   UNL A   1      42.446  25.338  37.379  1.00  0.00     0.000 A 
ENDBRANCH  57  76
BRANCH  69  82
ATOM     82  C   UNL A   1      41.533  34.212  35.355  1.00  0.00    -0.014 A 
ATOM     83  C   UNL A   1      42.382  34.912  36.227  1.00  0.00     0.009 A 
ATOM     84  C   UNL A   1      40.145  34.394  35.470  1.00  0.00     0.009 A 
ATOM     85  C   UNL A   1      41.850  35.726  37.230  1.00  0.00     0.001 A 
ATOM     86  C   UNL A   1      39.619  35.238  36.448  1.00  0.00     0.001 A 
ATOM     87  C   UNL A   1      40.470  35.890  37.338  1.00  0.00     0.000 A 
ENDBRANCH  69  82
ENDBRANCH  43  44
ENDBRANCH  36  38
ENDBRANCH  35  36
ENDBRANCH  34  35
ENDBRANCH  33  34
ENDBRANCH  32  33
ENDBRANCH  31  32
ENDBRANCH  30  31
ENDBRANCH   1  30
TORSDOF 24
ENDMDL
