MODEL 1
REMARK VINA RESULT:      -6.9      0.000      0.000
REMARK SMILES O=C(OCCOCCOCCOCCOC(=O)c1ccc(-c2c3nc(c(-c4ccccc4)c4ccc([nH]4)c(-c4ccccc4)c4nc(c(-c5ccccc5)c5ccc2[nH]5)C=C4)C=C3)cc1)c1ccc(NC(=O)[C@@H]2CC=CC[C@H]2C(=O)Nc2cccc([N+](=O)[O-])c2)cc1
REMARK SMILES IDX 7 1 6 2 5 3 4 4 3 5 2 6 1 7 66 8 67 9 92 10 68 11 91 12
REMARK SMILES IDX 69 13 70 14 71 15 72 17 73 18 74 19 78 20 75 21 77 22 76 23
REMARK SMILES IDX 79 24 80 25 81 26 82 28 83 29 90 30 84 31 86 32 85 33 87 34
REMARK SMILES IDX 88 35 89 36 8 37 9 38 10 39 11 40 12 41 13 42 14 43 15 44
REMARK SMILES IDX 16 45 17 46 18 47 19 48 65 49 20 50 64 51 21 52 22 53 23 54
REMARK SMILES IDX 58 55 24 56 63 57 57 58 59 59 25 60 62 61 56 62 55 63 26 65
REMARK SMILES IDX 48 66 33 67 47 68 34 69 37 70 46 71 60 72 35 73 36 74 45 76
REMARK SMILES IDX 61 77 38 78 27 79 28 80 32 81 29 82 31 83 30 84 49 85 50 86
REMARK SMILES IDX 54 87 51 88 53 89 52 90 39 91 40 92 44 93 41 94 43 95 42 96
REMARK H PARENT 70 16 81 27 59 64 37 75
REMARK Flexibility Score: inf
ROOT
ATOM      1  C   UNL A   1      50.997  26.635  25.390  1.00  0.00     0.188 C 
ENDROOT
BRANCH   1   2
ATOM      2  O   UNL A   1      49.986  25.630  25.472  1.00  0.00    -0.376 OA
BRANCH   2   3
ATOM      3  C   UNL A   1      49.566  25.308  26.794  1.00  0.00     0.202 C 
BRANCH   3   4
ATOM      4  C   UNL A   1      48.043  25.227  26.896  1.00  0.00     0.261 C 
BRANCH   4   5
ATOM      5  O   UNL A   1      47.525  24.065  26.221  1.00  0.00    -0.460 OA
BRANCH   5   6
ATOM      6  C   UNL A   1      46.484  23.904  25.367  1.00  0.00     0.338 C 
ATOM      7  O   UNL A   1      46.741  23.925  24.161  1.00  0.00    -0.246 OA
BRANCH   6   8
ATOM      8  C   UNL A   1      45.039  23.728  25.749  1.00  0.00     0.060 A 
ATOM      9  C   UNL A   1      44.556  22.984  26.811  1.00  0.00     0.018 A 
ATOM     10  C   UNL A   1      44.071  24.436  25.010  1.00  0.00     0.018 A 
ATOM     11  C   UNL A   1      43.202  23.025  27.181  1.00  0.00     0.027 A 
ATOM     12  C   UNL A   1      42.728  24.526  25.439  1.00  0.00     0.027 A 
ATOM     13  C   UNL A   1      42.311  23.902  26.616  1.00  0.00     0.041 A 
BRANCH  13  14
ATOM     14  N   UNL A   1      41.067  24.251  27.177  1.00  0.00    -0.326 N 
ATOM     15  C   UNL A   1      40.416  25.394  27.562  1.00  0.00     0.228 C 
ATOM     16  H   UNL A   1      40.512  23.454  27.335  1.00  0.00     0.169 HD
ATOM     17  O   UNL A   1      39.255  25.202  27.955  1.00  0.00    -0.274 OA
BRANCH  15  18
ATOM     18  C   UNL A   1      40.997  26.831  27.598  1.00  0.00     0.095 C 
ATOM     19  C   UNL A   1      40.875  27.442  26.172  1.00  0.00     0.041 C 
ATOM     20  C   UNL A   1      42.439  26.984  28.146  1.00  0.00     0.095 C 
ATOM     21  C   UNL A   1      41.599  28.733  25.950  1.00  0.00    -0.030 C 
ATOM     22  C   UNL A   1      43.310  28.171  27.648  1.00  0.00     0.041 C 
ATOM     23  C   UNL A   1      42.710  29.055  26.613  1.00  0.00    -0.030 C 
BRANCH  20  24
ATOM     24  C   UNL A   1      42.584  26.947  29.662  1.00  0.00     0.228 C 
ATOM     25  O   UNL A   1      43.422  26.177  30.151  1.00  0.00    -0.274 OA
ATOM     26  N   UNL A   1      41.905  27.763  30.538  1.00  0.00    -0.326 N 
ATOM     27  H   UNL A   1      42.331  27.787  31.426  1.00  0.00     0.169 HD
BRANCH  26  28
ATOM     28  C   UNL A   1      40.752  28.577  30.484  1.00  0.00     0.048 A 
ATOM     29  C   UNL A   1      40.789  29.744  29.714  1.00  0.00     0.026 A 
ATOM     30  C   UNL A   1      39.618  28.376  31.262  1.00  0.00     0.111 A 
ATOM     31  C   UNL A   1      39.692  30.624  29.671  1.00  0.00     0.009 A 
ATOM     32  C   UNL A   1      38.521  29.246  31.236  1.00  0.00     0.271 A 
ATOM     33  C   UNL A   1      38.546  30.374  30.427  1.00  0.00     0.086 A 
BRANCH  32  34
ATOM     34  N   UNL A   1      37.375  28.969  32.116  1.00  0.00     0.062 N 
ATOM     35  O   UNL A   1      37.534  28.144  33.025  1.00  0.00    -0.258 OA
ATOM     36  O   UNL A   1      36.315  29.572  31.889  1.00  0.00    -0.258 OA
ENDBRANCH  32  34
ENDBRANCH  26  28
ENDBRANCH  20  24
ENDBRANCH  15  18
ENDBRANCH  13  14
ENDBRANCH   6   8
ENDBRANCH   5   6
ENDBRANCH   4   5
ENDBRANCH   3   4
ENDBRANCH   2   3
ENDBRANCH   1   2
BRANCH   1  37
ATOM     37  C   UNL A   1      50.538  28.107  25.412  1.00  0.00     0.188 C 
BRANCH  37  38
ATOM     38  O   UNL A   1      51.011  29.076  26.340  1.00  0.00    -0.377 OA
BRANCH  38  39
ATOM     39  C   UNL A   1      51.592  30.290  25.931  1.00  0.00     0.188 C 
BRANCH  39  40
ATOM     40  C   UNL A   1      52.580  30.937  26.919  1.00  0.00     0.188 C 
BRANCH  40  41
ATOM     41  O   UNL A   1      53.551  30.163  27.591  1.00  0.00    -0.376 OA
BRANCH  41  42
ATOM     42  C   UNL A   1      53.563  30.163  29.013  1.00  0.00     0.202 C 
BRANCH  42  43
ATOM     43  C   UNL A   1      52.964  28.968  29.784  1.00  0.00     0.261 C 
BRANCH  43  44
ATOM     44  O   UNL A   1      51.751  28.425  29.226  1.00  0.00    -0.460 OA
BRANCH  44  45
ATOM     45  C   UNL A   1      50.954  27.727  30.066  1.00  0.00     0.338 C 
ATOM     46  O   UNL A   1      51.284  26.813  30.810  1.00  0.00    -0.246 OA
BRANCH  45  47
ATOM     47  C   UNL A   1      49.636  28.391  30.162  1.00  0.00     0.060 A 
ATOM     48  C   UNL A   1      49.469  29.429  31.097  1.00  0.00     0.016 A 
ATOM     49  C   UNL A   1      48.563  27.981  29.372  1.00  0.00     0.016 A 
ATOM     50  C   UNL A   1      48.238  30.064  31.241  1.00  0.00     0.010 A 
ATOM     51  C   UNL A   1      47.311  28.575  29.562  1.00  0.00     0.010 A 
ATOM     52  C   UNL A   1      47.139  29.596  30.515  1.00  0.00    -0.014 A 
BRANCH  52  53
ATOM     53  C   UNL A   1      45.776  29.960  30.964  1.00  0.00     0.031 A 
ATOM     54  C   UNL A   1      45.162  31.199  30.374  1.00  0.00     0.074 A 
ATOM     55  C   UNL A   1      45.093  29.219  31.853  1.00  0.00     0.049 A 
ATOM     56  N   UNL A   1      44.031  31.787  30.661  1.00  0.00    -0.248 NA
ATOM     57  C   UNL A   1      45.938  31.867  29.314  1.00  0.00     0.031 C 
ATOM     58  C   UNL A   1      45.544  27.959  32.438  1.00  0.00     0.029 A 
ATOM     59  N   UNL A   1      43.865  29.439  32.426  1.00  0.00    -0.354 N 
ATOM     60  C   UNL A   1      43.971  32.901  29.834  1.00  0.00     0.074 A 
ATOM     61  C   UNL A   1      45.182  32.919  29.047  1.00  0.00     0.031 C 
ATOM     62  C   UNL A   1      44.613  27.527  33.308  1.00  0.00     0.029 A 
ATOM     63  C   UNL A   1      43.523  28.501  33.370  1.00  0.00     0.049 A 
ATOM     64  H   UNL A   1      43.284  30.196  32.184  1.00  0.00     0.167 HD
ATOM     65  C   UNL A   1      42.993  33.833  29.739  1.00  0.00     0.031 A 
ATOM     66  C   UNL A   1      42.468  28.460  34.208  1.00  0.00     0.031 A 
ATOM     67  C   UNL A   1      41.804  33.832  30.545  1.00  0.00     0.049 A 
ATOM     68  C   UNL A   1      41.443  29.564  34.160  1.00  0.00     0.074 A 
ATOM     69  C   UNL A   1      40.753  34.730  30.532  1.00  0.00     0.029 A 
ATOM     70  N   UNL A   1      41.517  32.889  31.520  1.00  0.00    -0.354 N 
ATOM     71  N   UNL A   1      41.386  30.610  33.367  1.00  0.00    -0.248 NA
ATOM     72  C   UNL A   1      40.333  29.481  35.120  1.00  0.00     0.031 C 
ATOM     73  C   UNL A   1      39.861  34.368  31.545  1.00  0.00     0.029 A 
ATOM     74  C   UNL A   1      40.319  33.200  32.137  1.00  0.00     0.049 A 
ATOM     75  H   UNL A   1      42.083  32.114  31.741  1.00  0.00     0.167 HD
ATOM     76  C   UNL A   1      40.220  31.286  33.710  1.00  0.00     0.074 A 
ATOM     77  C   UNL A   1      39.594  30.526  34.772  1.00  0.00     0.031 C 
ATOM     78  C   UNL A   1      39.709  32.430  33.190  1.00  0.00     0.031 A 
BRANCH  65  79
ATOM     79  C   UNL A   1      43.211  34.961  28.770  1.00  0.00    -0.014 A 
ATOM     80  C   UNL A   1      42.830  34.856  27.422  1.00  0.00     0.009 A 
ATOM     81  C   UNL A   1      43.806  36.151  29.215  1.00  0.00     0.009 A 
ATOM     82  C   UNL A   1      43.075  35.906  26.535  1.00  0.00     0.001 A 
ATOM     83  C   UNL A   1      44.020  37.211  28.334  1.00  0.00     0.001 A 
ATOM     84  C   UNL A   1      43.665  37.083  26.991  1.00  0.00     0.000 A 
ENDBRANCH  65  79
BRANCH  66  85
ATOM     85  C   UNL A   1      42.337  27.351  35.192  1.00  0.00    -0.014 A 
ATOM     86  C   UNL A   1      41.592  26.202  34.885  1.00  0.00     0.009 A 
ATOM     87  C   UNL A   1      42.931  27.450  36.460  1.00  0.00     0.009 A 
ATOM     88  C   UNL A   1      41.424  25.190  35.832  1.00  0.00     0.001 A 
ATOM     89  C   UNL A   1      42.789  26.422  37.395  1.00  0.00     0.001 A 
ATOM     90  C   UNL A   1      42.027  25.298  37.085  1.00  0.00     0.000 A 
ENDBRANCH  66  85
BRANCH  78  91
ATOM     91  C   UNL A   1      38.383  32.904  33.721  1.00  0.00    -0.014 A 
ATOM     92  C   UNL A   1      37.173  32.552  33.105  1.00  0.00     0.009 A 
ATOM     93  C   UNL A   1      38.348  33.674  34.895  1.00  0.00     0.009 A 
ATOM     94  C   UNL A   1      35.957  32.991  33.634  1.00  0.00     0.001 A 
ATOM     95  C   UNL A   1      37.130  34.081  35.442  1.00  0.00     0.001 A 
ATOM     96  C   UNL A   1      35.937  33.749  34.805  1.00  0.00     0.000 A 
ENDBRANCH  78  91
ENDBRANCH  52  53
ENDBRANCH  45  47
ENDBRANCH  44  45
ENDBRANCH  43  44
ENDBRANCH  42  43
ENDBRANCH  41  42
ENDBRANCH  40  41
ENDBRANCH  39  40
ENDBRANCH  38  39
ENDBRANCH  37  38
ENDBRANCH   1  37
TORSDOF 25
ENDMDL
MODEL 2
REMARK VINA RESULT:      -6.3      7.043     12.368
REMARK SMILES O=C(OCCOCCOCCOCCOC(=O)c1ccc(-c2c3nc(c(-c4ccccc4)c4ccc([nH]4)c(-c4ccccc4)c4nc(c(-c5ccccc5)c5ccc2[nH]5)C=C4)C=C3)cc1)c1ccc(NC(=O)[C@@H]2CC=CC[C@H]2C(=O)Nc2cccc([N+](=O)[O-])c2)cc1
REMARK SMILES IDX 7 1 6 2 5 3 4 4 3 5 2 6 1 7 66 8 67 9 92 10 68 11 91 12
REMARK SMILES IDX 69 13 70 14 71 15 72 17 73 18 74 19 78 20 75 21 77 22 76 23
REMARK SMILES IDX 79 24 80 25 81 26 82 28 83 29 90 30 84 31 86 32 85 33 87 34
REMARK SMILES IDX 88 35 89 36 8 37 9 38 10 39 11 40 12 41 13 42 14 43 15 44
REMARK SMILES IDX 16 45 17 46 18 47 19 48 65 49 20 50 64 51 21 52 22 53 23 54
REMARK SMILES IDX 58 55 24 56 63 57 57 58 59 59 25 60 62 61 56 62 55 63 26 65
REMARK SMILES IDX 48 66 33 67 47 68 34 69 37 70 46 71 60 72 35 73 36 74 45 76
REMARK SMILES IDX 61 77 38 78 27 79 28 80 32 81 29 82 31 83 30 84 49 85 50 86
REMARK SMILES IDX 54 87 51 88 53 89 52 90 39 91 40 92 44 93 41 94 43 95 42 96
REMARK H PARENT 70 16 81 27 59 64 37 75
REMARK Flexibility Score: inf
ROOT
ATOM      1  C   UNL A   1      35.991  32.054  31.230  1.00  0.00     0.188 C 
ENDROOT
BRANCH   1   2
ATOM      2  O   UNL A   1      36.766  30.863  31.083  1.00  0.00    -0.376 OA
BRANCH   2   3
ATOM      3  C   UNL A   1      36.136  29.827  30.336  1.00  0.00     0.202 C 
BRANCH   3   4
ATOM      4  C   UNL A   1      36.922  29.490  29.069  1.00  0.00     0.261 C 
BRANCH   4   5
ATOM      5  O   UNL A   1      36.441  30.230  27.931  1.00  0.00    -0.460 OA
BRANCH   5   6
ATOM      6  C   UNL A   1      35.236  30.793  27.662  1.00  0.00     0.338 C 
ATOM      7  O   UNL A   1      35.069  31.958  28.027  1.00  0.00    -0.246 OA
BRANCH   6   8
ATOM      8  C   UNL A   1      34.074  30.121  26.981  1.00  0.00     0.060 A 
ATOM      9  C   UNL A   1      32.769  30.580  26.943  1.00  0.00     0.018 A 
ATOM     10  C   UNL A   1      34.329  28.948  26.246  1.00  0.00     0.018 A 
ATOM     11  C   UNL A   1      31.797  29.966  26.136  1.00  0.00     0.027 A 
ATOM     12  C   UNL A   1      33.361  28.386  25.383  1.00  0.00     0.027 A 
ATOM     13  C   UNL A   1      32.106  28.978  25.237  1.00  0.00     0.041 A 
BRANCH  13  14
ATOM     14  N   UNL A   1      31.282  28.588  24.163  1.00  0.00    -0.326 N 
ATOM     15  C   UNL A   1      30.963  27.431  23.501  1.00  0.00     0.228 C 
ATOM     16  H   UNL A   1      30.803  29.359  23.783  1.00  0.00     0.169 HD
ATOM     17  O   UNL A   1      30.097  27.577  22.624  1.00  0.00    -0.274 OA
BRANCH  15  18
ATOM     18  C   UNL A   1      31.599  26.033  23.708  1.00  0.00     0.095 C 
ATOM     19  C   UNL A   1      31.956  25.447  22.312  1.00  0.00     0.041 C 
ATOM     20  C   UNL A   1      30.781  25.015  24.543  1.00  0.00     0.095 C 
ATOM     21  C   UNL A   1      32.360  24.006  22.290  1.00  0.00    -0.030 C 
ATOM     22  C   UNL A   1      30.977  23.496  24.279  1.00  0.00     0.041 C 
ATOM     23  C   UNL A   1      31.904  23.121  23.177  1.00  0.00    -0.030 C 
BRANCH  20  24
ATOM     24  C   UNL A   1      30.830  25.200  26.055  1.00  0.00     0.228 C 
ATOM     25  O   UNL A   1      30.064  26.027  26.568  1.00  0.00    -0.274 OA
ATOM     26  N   UNL A   1      31.610  24.460  26.914  1.00  0.00    -0.326 N 
ATOM     27  H   UNL A   1      31.300  24.530  27.846  1.00  0.00     0.169 HD
BRANCH  26  28
ATOM     28  C   UNL A   1      32.743  23.625  26.795  1.00  0.00     0.048 A 
ATOM     29  C   UNL A   1      32.727  22.378  27.427  1.00  0.00     0.026 A 
ATOM     30  C   UNL A   1      33.941  24.014  26.210  1.00  0.00     0.111 A 
ATOM     31  C   UNL A   1      33.848  21.529  27.395  1.00  0.00     0.009 A 
ATOM     32  C   UNL A   1      35.069  23.185  26.175  1.00  0.00     0.271 A 
ATOM     33  C   UNL A   1      35.025  21.926  26.759  1.00  0.00     0.086 A 
BRANCH  32  34
ATOM     34  N   UNL A   1      36.304  23.692  25.559  1.00  0.00     0.062 N 
ATOM     35  O   UNL A   1      37.312  23.774  26.273  1.00  0.00    -0.258 OA
ATOM     36  O   UNL A   1      36.261  24.017  24.362  1.00  0.00    -0.258 OA
ENDBRANCH  32  34
ENDBRANCH  26  28
ENDBRANCH  20  24
ENDBRANCH  15  18
ENDBRANCH  13  14
ENDBRANCH   6   8
ENDBRANCH   5   6
ENDBRANCH   4   5
ENDBRANCH   3   4
ENDBRANCH   2   3
ENDBRANCH   1   2
BRANCH   1  37
ATOM     37  C   UNL A   1      36.753  33.369  31.493  1.00  0.00     0.188 C 
BRANCH  37  38
ATOM     38  O   UNL A   1      36.459  34.260  32.561  1.00  0.00    -0.377 OA
BRANCH  38  39
ATOM     39  C   UNL A   1      35.941  33.816  33.792  1.00  0.00     0.188 C 
BRANCH  39  40
ATOM     40  C   UNL A   1      36.805  32.804  34.567  1.00  0.00     0.188 C 
BRANCH  40  41
ATOM     41  O   UNL A   1      37.880  33.232  35.376  1.00  0.00    -0.376 OA
BRANCH  41  42
ATOM     42  C   UNL A   1      38.488  32.295  36.257  1.00  0.00     0.202 C 
BRANCH  42  43
ATOM     43  C   UNL A   1      38.415  32.519  37.782  1.00  0.00     0.261 C 
BRANCH  43  44
ATOM     44  O   UNL A   1      39.607  33.066  38.379  1.00  0.00    -0.460 OA
BRANCH  44  45
ATOM     45  C   UNL A   1      39.700  34.414  38.426  1.00  0.00     0.338 C 
ATOM     46  O   UNL A   1      39.406  35.145  39.363  1.00  0.00    -0.246 OA
BRANCH  45  47
ATOM     47  C   UNL A   1      40.462  34.898  37.253  1.00  0.00     0.060 A 
ATOM     48  C   UNL A   1      41.723  34.334  36.988  1.00  0.00     0.016 A 
ATOM     49  C   UNL A   1      39.964  35.916  36.441  1.00  0.00     0.016 A 
ATOM     50  C   UNL A   1      42.486  34.778  35.910  1.00  0.00     0.010 A 
ATOM     51  C   UNL A   1      40.758  36.406  35.399  1.00  0.00     0.010 A 
ATOM     52  C   UNL A   1      42.031  35.858  35.149  1.00  0.00    -0.014 A 
BRANCH  52  53
ATOM     53  C   UNL A   1      42.996  36.599  34.306  1.00  0.00     0.031 A 
ATOM     54  C   UNL A   1      43.781  37.702  34.962  1.00  0.00     0.074 A 
ATOM     55  C   UNL A   1      43.188  36.305  33.009  1.00  0.00     0.049 A 
ATOM     56  N   UNL A   1      44.614  38.559  34.434  1.00  0.00    -0.248 NA
ATOM     57  C   UNL A   1      43.592  37.858  36.414  1.00  0.00     0.031 C 
ATOM     58  C   UNL A   1      42.549  35.213  32.279  1.00  0.00     0.029 A 
ATOM     59  N   UNL A   1      43.980  36.923  32.073  1.00  0.00    -0.354 N 
ATOM     60  C   UNL A   1      45.032  39.366  35.484  1.00  0.00     0.074 A 
ATOM     61  C   UNL A   1      44.351  38.911  36.674  1.00  0.00     0.031 C 
ATOM     62  C   UNL A   1      42.957  35.252  30.998  1.00  0.00     0.029 A 
ATOM     63  C   UNL A   1      43.851  36.394  30.811  1.00  0.00     0.049 A 
ATOM     64  H   UNL A   1      44.581  37.672  32.285  1.00  0.00     0.167 HD
ATOM     65  C   UNL A   1      45.905  40.400  35.462  1.00  0.00     0.031 A 
ATOM     66  C   UNL A   1      44.372  36.812  29.640  1.00  0.00     0.031 A 
ATOM     67  C   UNL A   1      46.557  40.873  34.272  1.00  0.00     0.049 A 
ATOM     68  C   UNL A   1      45.259  38.031  29.619  1.00  0.00     0.074 A 
ATOM     69  C   UNL A   1      47.456  41.914  34.138  1.00  0.00     0.029 A 
ATOM     70  N   UNL A   1      46.366  40.338  33.007  1.00  0.00    -0.354 N 
ATOM     71  N   UNL A   1      45.659  38.783  30.618  1.00  0.00    -0.248 NA
ATOM     72  C   UNL A   1      45.769  38.457  28.308  1.00  0.00     0.031 C 
ATOM     73  C   UNL A   1      47.759  42.053  32.780  1.00  0.00     0.029 A 
ATOM     74  C   UNL A   1      47.108  41.047  32.080  1.00  0.00     0.049 A 
ATOM     75  H   UNL A   1      45.788  39.569  32.800  1.00  0.00     0.167 HD
ATOM     76  C   UNL A   1      46.494  39.746  30.060  1.00  0.00     0.074 A 
ATOM     77  C   UNL A   1      46.552  39.475  28.639  1.00  0.00     0.031 C 
ATOM     78  C   UNL A   1      47.157  40.760  30.669  1.00  0.00     0.031 A 
BRANCH  65  79
ATOM     79  C   UNL A   1      46.148  41.123  36.757  1.00  0.00    -0.014 A 
ATOM     80  C   UNL A   1      45.307  42.163  37.188  1.00  0.00     0.009 A 
ATOM     81  C   UNL A   1      47.236  40.753  37.562  1.00  0.00     0.009 A 
ATOM     82  C   UNL A   1      45.576  42.841  38.378  1.00  0.00     0.001 A 
ATOM     83  C   UNL A   1      47.482  41.410  38.768  1.00  0.00     0.001 A 
ATOM     84  C   UNL A   1      46.659  42.461  39.169  1.00  0.00     0.000 A 
ENDBRANCH  65  79
BRANCH  66  85
ATOM     85  C   UNL A   1      44.045  36.094  28.378  1.00  0.00    -0.014 A 
ATOM     86  C   UNL A   1      44.855  35.045  27.918  1.00  0.00     0.009 A 
ATOM     87  C   UNL A   1      42.937  36.478  27.606  1.00  0.00     0.009 A 
ATOM     88  C   UNL A   1      44.578  34.413  26.703  1.00  0.00     0.001 A 
ATOM     89  C   UNL A   1      42.642  35.823  26.408  1.00  0.00     0.001 A 
ATOM     90  C   UNL A   1      43.468  34.798  25.952  1.00  0.00     0.000 A 
ENDBRANCH  66  85
BRANCH  78  91
ATOM     91  C   UNL A   1      48.047  41.622  29.814  1.00  0.00    -0.014 A 
ATOM     92  C   UNL A   1      47.583  42.810  29.229  1.00  0.00     0.009 A 
ATOM     93  C   UNL A   1      49.393  41.261  29.640  1.00  0.00     0.009 A 
ATOM     94  C   UNL A   1      48.440  43.599  28.457  1.00  0.00     0.001 A 
ATOM     95  C   UNL A   1      50.256  42.069  28.899  1.00  0.00     0.001 A 
ATOM     96  C   UNL A   1      49.776  43.231  28.299  1.00  0.00     0.000 A 
ENDBRANCH  78  91
ENDBRANCH  52  53
ENDBRANCH  45  47
ENDBRANCH  44  45
ENDBRANCH  43  44
ENDBRANCH  42  43
ENDBRANCH  41  42
ENDBRANCH  40  41
ENDBRANCH  39  40
ENDBRANCH  38  39
ENDBRANCH  37  38
ENDBRANCH   1  37
TORSDOF 25
ENDMDL
MODEL 3
REMARK VINA RESULT:      -6.3      6.063     10.214
REMARK SMILES O=C(OCCOCCOCCOCCOC(=O)c1ccc(-c2c3nc(c(-c4ccccc4)c4ccc([nH]4)c(-c4ccccc4)c4nc(c(-c5ccccc5)c5ccc2[nH]5)C=C4)C=C3)cc1)c1ccc(NC(=O)[C@@H]2CC=CC[C@H]2C(=O)Nc2cccc([N+](=O)[O-])c2)cc1
REMARK SMILES IDX 7 1 6 2 5 3 4 4 3 5 2 6 1 7 66 8 67 9 92 10 68 11 91 12
REMARK SMILES IDX 69 13 70 14 71 15 72 17 73 18 74 19 78 20 75 21 77 22 76 23
REMARK SMILES IDX 79 24 80 25 81 26 82 28 83 29 90 30 84 31 86 32 85 33 87 34
REMARK SMILES IDX 88 35 89 36 8 37 9 38 10 39 11 40 12 41 13 42 14 43 15 44
REMARK SMILES IDX 16 45 17 46 18 47 19 48 65 49 20 50 64 51 21 52 22 53 23 54
REMARK SMILES IDX 58 55 24 56 63 57 57 58 59 59 25 60 62 61 56 62 55 63 26 65
REMARK SMILES IDX 48 66 33 67 47 68 34 69 37 70 46 71 60 72 35 73 36 74 45 76
REMARK SMILES IDX 61 77 38 78 27 79 28 80 32 81 29 82 31 83 30 84 49 85 50 86
REMARK SMILES IDX 54 87 51 88 53 89 52 90 39 91 40 92 44 93 41 94 43 95 42 96
REMARK H PARENT 70 16 81 27 59 64 37 75
REMARK Flexibility Score: inf
ROOT
ATOM      1  C   UNL A   1      44.535  19.391  24.822  1.00  0.00     0.188 C 
ENDROOT
BRANCH   1   2
ATOM      2  O   UNL A   1      43.132  19.666  24.842  1.00  0.00    -0.376 OA
BRANCH   2   3
ATOM      3  C   UNL A   1      42.489  19.412  26.087  1.00  0.00     0.202 C 
BRANCH   3   4
ATOM      4  C   UNL A   1      41.705  20.632  26.573  1.00  0.00     0.261 C 
BRANCH   4   5
ATOM      5  O   UNL A   1      40.309  20.328  26.757  1.00  0.00    -0.460 OA
BRANCH   5   6
ATOM      6  C   UNL A   1      39.289  20.191  25.874  1.00  0.00     0.338 C 
ATOM      7  O   UNL A   1      39.274  19.164  25.192  1.00  0.00    -0.246 OA
BRANCH   6   8
ATOM      8  C   UNL A   1      38.186  21.185  25.628  1.00  0.00     0.060 A 
ATOM      9  C   UNL A   1      36.829  20.917  25.610  1.00  0.00     0.018 A 
ATOM     10  C   UNL A   1      38.542  22.538  25.468  1.00  0.00     0.018 A 
ATOM     11  C   UNL A   1      35.877  21.947  25.542  1.00  0.00     0.027 A 
ATOM     12  C   UNL A   1      37.574  23.567  25.475  1.00  0.00     0.027 A 
ATOM     13  C   UNL A   1      36.219  23.271  25.634  1.00  0.00     0.041 A 
BRANCH  13  14
ATOM     14  N   UNL A   1      35.320  24.311  25.940  1.00  0.00    -0.326 N 
ATOM     15  C   UNL A   1      33.975  24.552  25.827  1.00  0.00     0.228 C 
ATOM     16  H   UNL A   1      35.785  25.076  26.348  1.00  0.00     0.169 HD
ATOM     17  O   UNL A   1      33.616  25.633  26.320  1.00  0.00    -0.274 OA
BRANCH  15  18
ATOM     18  C   UNL A   1      32.923  23.657  25.123  1.00  0.00     0.095 C 
ATOM     19  C   UNL A   1      33.676  22.635  24.223  1.00  0.00     0.041 C 
ATOM     20  C   UNL A   1      31.813  24.387  24.325  1.00  0.00     0.095 C 
ATOM     21  C   UNL A   1      32.825  21.843  23.280  1.00  0.00    -0.030 C 
ATOM     22  C   UNL A   1      31.152  23.660  23.120  1.00  0.00     0.041 C 
ATOM     23  C   UNL A   1      31.686  22.316  22.772  1.00  0.00    -0.030 C 
BRANCH  20  24
ATOM     24  C   UNL A   1      30.677  24.979  25.150  1.00  0.00     0.228 C 
ATOM     25  O   UNL A   1      30.199  24.293  26.063  1.00  0.00    -0.274 OA
ATOM     26  N   UNL A   1      30.185  26.256  25.010  1.00  0.00    -0.326 N 
ATOM     27  H   UNL A   1      29.666  26.540  25.798  1.00  0.00     0.169 HD
BRANCH  26  28
ATOM     28  C   UNL A   1      30.237  27.264  24.021  1.00  0.00     0.048 A 
ATOM     29  C   UNL A   1      31.486  27.750  23.623  1.00  0.00     0.026 A 
ATOM     30  C   UNL A   1      29.121  27.916  23.513  1.00  0.00     0.111 A 
ATOM     31  C   UNL A   1      31.598  28.794  22.687  1.00  0.00     0.009 A 
ATOM     32  C   UNL A   1      29.214  28.962  22.587  1.00  0.00     0.271 A 
ATOM     33  C   UNL A   1      30.460  29.401  22.156  1.00  0.00     0.086 A 
BRANCH  32  34
ATOM     34  N   UNL A   1      27.979  29.614  22.125  1.00  0.00     0.062 N 
ATOM     35  O   UNL A   1      27.005  29.607  22.888  1.00  0.00    -0.258 OA
ATOM     36  O   UNL A   1      27.984  30.124  20.993  1.00  0.00    -0.258 OA
ENDBRANCH  32  34
ENDBRANCH  26  28
ENDBRANCH  20  24
ENDBRANCH  15  18
ENDBRANCH  13  14
ENDBRANCH   6   8
ENDBRANCH   5   6
ENDBRANCH   4   5
ENDBRANCH   3   4
ENDBRANCH   2   3
ENDBRANCH   1   2
BRANCH   1  37
ATOM     37  C   UNL A   1      45.481  20.555  24.465  1.00  0.00     0.188 C 
BRANCH  37  38
ATOM     38  O   UNL A   1      45.486  21.811  25.130  1.00  0.00    -0.377 OA
BRANCH  38  39
ATOM     39  C   UNL A   1      45.036  21.964  26.454  1.00  0.00     0.188 C 
BRANCH  39  40
ATOM     40  C   UNL A   1      44.075  23.139  26.713  1.00  0.00     0.188 C 
BRANCH  40  41
ATOM     41  O   UNL A   1      44.419  24.458  26.345  1.00  0.00    -0.376 OA
BRANCH  41  42
ATOM     42  C   UNL A   1      45.309  25.190  27.179  1.00  0.00     0.202 C 
BRANCH  42  43
ATOM     43  C   UNL A   1      46.831  24.955  27.067  1.00  0.00     0.261 C 
BRANCH  43  44
ATOM     44  O   UNL A   1      47.654  26.057  27.497  1.00  0.00    -0.460 OA
BRANCH  44  45
ATOM     45  C   UNL A   1      48.046  26.932  26.543  1.00  0.00     0.338 C 
ATOM     46  O   UNL A   1      48.519  26.668  25.445  1.00  0.00    -0.246 OA
BRANCH  45  47
ATOM     47  C   UNL A   1      47.584  28.292  26.900  1.00  0.00     0.060 A 
ATOM     48  C   UNL A   1      46.785  28.997  25.982  1.00  0.00     0.016 A 
ATOM     49  C   UNL A   1      47.956  28.884  28.106  1.00  0.00     0.016 A 
ATOM     50  C   UNL A   1      46.351  30.290  26.266  1.00  0.00     0.010 A 
ATOM     51  C   UNL A   1      47.574  30.206  28.362  1.00  0.00     0.010 A 
ATOM     52  C   UNL A   1      46.796  30.920  27.431  1.00  0.00    -0.014 A 
BRANCH  52  53
ATOM     53  C   UNL A   1      46.703  32.394  27.530  1.00  0.00     0.031 A 
ATOM     54  C   UNL A   1      45.438  32.969  28.104  1.00  0.00     0.074 A 
ATOM     55  C   UNL A   1      47.703  33.202  27.139  1.00  0.00     0.049 A 
ATOM     56  N   UNL A   1      45.065  34.217  28.214  1.00  0.00    -0.248 NA
ATOM     57  C   UNL A   1      44.459  31.998  28.621  1.00  0.00     0.031 C 
ATOM     58  C   UNL A   1      49.005  32.767  26.640  1.00  0.00     0.029 A 
ATOM     59  N   UNL A   1      47.763  34.573  27.095  1.00  0.00    -0.354 N 
ATOM     60  C   UNL A   1      43.803  34.178  28.793  1.00  0.00     0.074 A 
ATOM     61  C   UNL A   1      43.466  32.788  28.996  1.00  0.00     0.031 C 
ATOM     62  C   UNL A   1      49.730  33.854  26.316  1.00  0.00     0.029 A 
ATOM     63  C   UNL A   1      48.927  35.055  26.547  1.00  0.00     0.049 A 
ATOM     64  H   UNL A   1      47.041  35.156  27.424  1.00  0.00     0.167 HD
ATOM     65  C   UNL A   1      42.991  35.209  29.124  1.00  0.00     0.031 A 
ATOM     66  C   UNL A   1      49.281  36.318  26.237  1.00  0.00     0.031 A 
ATOM     67  C   UNL A   1      43.315  36.590  28.892  1.00  0.00     0.049 A 
ATOM     68  C   UNL A   1      48.319  37.444  26.518  1.00  0.00     0.074 A 
ATOM     69  C   UNL A   1      42.563  37.712  29.187  1.00  0.00     0.029 A 
ATOM     70  N   UNL A   1      44.485  37.033  28.295  1.00  0.00    -0.354 N 
ATOM     71  N   UNL A   1      47.131  37.402  27.076  1.00  0.00    -0.248 NA
ATOM     72  C   UNL A   1      48.748  38.795  26.128  1.00  0.00     0.031 C 
ATOM     73  C   UNL A   1      43.249  38.831  28.707  1.00  0.00     0.029 A 
ATOM     74  C   UNL A   1      44.463  38.411  28.183  1.00  0.00     0.049 A 
ATOM     75  H   UNL A   1      45.221  36.452  27.993  1.00  0.00     0.167 HD
ATOM     76  C   UNL A   1      46.689  38.719  27.136  1.00  0.00     0.074 A 
ATOM     77  C   UNL A   1      47.742  39.538  26.569  1.00  0.00     0.031 C 
ATOM     78  C   UNL A   1      45.522  39.209  27.620  1.00  0.00     0.031 A 
BRANCH  65  79
ATOM     79  C   UNL A   1      41.652  34.867  29.714  1.00  0.00    -0.014 A 
ATOM     80  C   UNL A   1      40.475  34.929  28.950  1.00  0.00     0.009 A 
ATOM     81  C   UNL A   1      41.568  34.472  31.058  1.00  0.00     0.009 A 
ATOM     82  C   UNL A   1      39.239  34.640  29.533  1.00  0.00     0.001 A 
ATOM     83  C   UNL A   1      40.336  34.151  31.628  1.00  0.00     0.001 A 
ATOM     84  C   UNL A   1      39.171  34.247  30.868  1.00  0.00     0.000 A 
ENDBRANCH  65  79
BRANCH  66  85
ATOM     85  C   UNL A   1      50.596  36.591  25.595  1.00  0.00    -0.014 A 
ATOM     86  C   UNL A   1      50.809  36.295  24.240  1.00  0.00     0.009 A 
ATOM     87  C   UNL A   1      51.659  37.120  26.345  1.00  0.00     0.009 A 
ATOM     88  C   UNL A   1      52.061  36.499  23.657  1.00  0.00     0.001 A 
ATOM     89  C   UNL A   1      52.901  37.354  25.751  1.00  0.00     0.001 A 
ATOM     90  C   UNL A   1      53.105  37.034  24.411  1.00  0.00     0.000 A 
ENDBRANCH  66  85
BRANCH  78  91
ATOM     91  C   UNL A   1      45.337  40.703  27.611  1.00  0.00    -0.014 A 
ATOM     92  C   UNL A   1      44.765  41.370  26.517  1.00  0.00     0.009 A 
ATOM     93  C   UNL A   1      45.694  41.448  28.748  1.00  0.00     0.009 A 
ATOM     94  C   UNL A   1      44.588  42.755  26.548  1.00  0.00     0.001 A 
ATOM     95  C   UNL A   1      45.483  42.827  28.790  1.00  0.00     0.001 A 
ATOM     96  C   UNL A   1      44.941  43.480  27.686  1.00  0.00     0.000 A 
ENDBRANCH  78  91
ENDBRANCH  52  53
ENDBRANCH  45  47
ENDBRANCH  44  45
ENDBRANCH  43  44
ENDBRANCH  42  43
ENDBRANCH  41  42
ENDBRANCH  40  41
ENDBRANCH  39  40
ENDBRANCH  38  39
ENDBRANCH  37  38
ENDBRANCH   1  37
TORSDOF 25
ENDMDL
