MODEL 1
REMARK VINA RESULT:      -8.8      0.000      0.000
REMARK SMILES O=C(OCCOCCOCCOCCOC(=O)c1ccc(-c2c3nc(c(-c4ccccc4)c4ccc([nH]4)c(-c4ccccc4)c4nc(c(-c5ccccc5)c5ccc2[nH]5)C=C4)C=C3)cc1)c1ccc(CN2C(=O)CSC2=S)cc1
REMARK SMILES IDX 9 1 8 2 7 3 6 4 5 5 4 6 3 7 2 8 1 9 66 10 67 11 79 12 68 13
REMARK SMILES IDX 78 14 69 15 70 16 71 17 72 18 76 19 73 20 74 21 75 22 77 23
REMARK SMILES IDX 10 24 11 25 12 26 13 27 14 28 15 29 16 30 17 31 18 32 19 33
REMARK SMILES IDX 65 34 20 35 64 36 21 37 22 38 23 39 58 40 24 41 63 42 57 43
REMARK SMILES IDX 59 44 25 45 62 46 56 47 55 48 26 50 48 51 33 52 47 53 34 54
REMARK SMILES IDX 37 55 46 56 60 57 35 58 36 59 45 61 61 62 38 63 27 64 28 65
REMARK SMILES IDX 32 66 29 67 31 68 30 69 49 70 50 71 54 72 51 73 53 74 52 75
REMARK SMILES IDX 39 76 40 77 44 78 41 79 43 80 42 81
REMARK H PARENT 59 49 37 60
REMARK Flexibility Score: inf
ROOT
ATOM      1  O   UNL A   1      34.382  23.895  22.388  1.00  0.00    -0.377 OA
ENDROOT
BRANCH   1   2
ATOM      2  C   UNL A   1      33.137  24.587  22.522  1.00  0.00     0.188 C 
BRANCH   2   3
ATOM      3  C   UNL A   1      33.082  25.941  21.809  1.00  0.00     0.188 C 
BRANCH   3   4
ATOM      4  O   UNL A   1      33.853  26.877  22.562  1.00  0.00    -0.376 OA
BRANCH   4   5
ATOM      5  C   UNL A   1      34.019  28.177  22.026  1.00  0.00     0.202 C 
BRANCH   5   6
ATOM      6  C   UNL A   1      33.619  29.328  22.942  1.00  0.00     0.261 C 
BRANCH   6   7
ATOM      7  O   UNL A   1      33.582  29.002  24.342  1.00  0.00    -0.460 OA
BRANCH   7   8
ATOM      8  C   UNL A   1      32.484  28.744  25.089  1.00  0.00     0.338 C 
ATOM      9  O   UNL A   1      31.696  29.639  25.379  1.00  0.00    -0.246 OA
BRANCH   8  10
ATOM     10  C   UNL A   1      32.148  27.360  25.468  1.00  0.00     0.060 A 
ATOM     11  C   UNL A   1      30.882  26.814  25.256  1.00  0.00     0.016 A 
ATOM     12  C   UNL A   1      33.194  26.530  25.878  1.00  0.00     0.016 A 
ATOM     13  C   UNL A   1      30.627  25.482  25.579  1.00  0.00     0.006 A 
ATOM     14  C   UNL A   1      32.950  25.183  26.152  1.00  0.00     0.006 A 
ATOM     15  C   UNL A   1      31.656  24.653  26.040  1.00  0.00    -0.028 A 
BRANCH  15  16
ATOM     16  C   UNL A   1      31.349  23.230  26.461  1.00  0.00     0.162 C 
BRANCH  16  17
ATOM     17  N   UNL A   1      32.156  22.287  25.685  1.00  0.00    -0.293 N 
ATOM     18  C   UNL A   1      31.764  21.994  24.391  1.00  0.00     0.238 C 
ATOM     19  C   UNL A   1      33.278  21.644  26.155  1.00  0.00     0.143 C 
ATOM     20  O   UNL A   1      30.853  22.546  23.783  1.00  0.00    -0.273 OA
ATOM     21  C   UNL A   1      32.569  20.879  23.786  1.00  0.00     0.177 C 
ATOM     22  S   UNL A   1      33.899  20.537  24.944  1.00  0.00    -0.086 SA
ATOM     23  S   UNL A   1      34.037  21.819  27.630  1.00  0.00    -0.052 S 
ENDBRANCH  16  17
ENDBRANCH  15  16
ENDBRANCH   8  10
ENDBRANCH   7   8
ENDBRANCH   6   7
ENDBRANCH   5   6
ENDBRANCH   4   5
ENDBRANCH   3   4
ENDBRANCH   2   3
ENDBRANCH   1   2
BRANCH   1  24
ATOM     24  C   UNL A   1      35.174  23.798  23.566  1.00  0.00     0.188 C 
BRANCH  24  25
ATOM     25  C   UNL A   1      36.466  22.956  23.519  1.00  0.00     0.188 C 
BRANCH  25  26
ATOM     26  O   UNL A   1      37.384  23.191  24.582  1.00  0.00    -0.376 OA
BRANCH  26  27
ATOM     27  C   UNL A   1      37.462  22.144  25.549  1.00  0.00     0.202 C 
BRANCH  27  28
ATOM     28  C   UNL A   1      38.870  21.554  25.712  1.00  0.00     0.261 C 
BRANCH  28  29
ATOM     29  O   UNL A   1      39.625  22.106  26.802  1.00  0.00    -0.460 OA
BRANCH  29  30
ATOM     30  C   UNL A   1      40.742  22.806  26.511  1.00  0.00     0.338 C 
ATOM     31  O   UNL A   1      41.614  22.508  25.715  1.00  0.00    -0.246 OA
BRANCH  30  32
ATOM     32  C   UNL A   1      40.604  24.134  27.153  1.00  0.00     0.060 A 
ATOM     33  C   UNL A   1      41.508  25.148  26.798  1.00  0.00     0.016 A 
ATOM     34  C   UNL A   1      39.528  24.416  28.001  1.00  0.00     0.016 A 
ATOM     35  C   UNL A   1      41.344  26.441  27.304  1.00  0.00     0.010 A 
ATOM     36  C   UNL A   1      39.377  25.701  28.526  1.00  0.00     0.010 A 
ATOM     37  C   UNL A   1      40.302  26.710  28.204  1.00  0.00    -0.014 A 
BRANCH  37  38
ATOM     38  C   UNL A   1      40.348  27.930  29.043  1.00  0.00     0.031 A 
ATOM     39  C   UNL A   1      41.468  28.024  30.042  1.00  0.00     0.074 A 
ATOM     40  C   UNL A   1      39.430  28.909  28.961  1.00  0.00     0.049 A 
ATOM     41  N   UNL A   1      41.708  28.941  30.943  1.00  0.00    -0.248 NA
ATOM     42  C   UNL A   1      42.448  26.924  30.022  1.00  0.00     0.031 C 
ATOM     43  C   UNL A   1      38.315  28.961  28.019  1.00  0.00     0.029 A 
ATOM     44  N   UNL A   1      39.295  30.054  29.707  1.00  0.00    -0.354 N 
ATOM     45  C   UNL A   1      42.859  28.523  31.597  1.00  0.00     0.074 A 
ATOM     46  C   UNL A   1      43.255  27.261  31.013  1.00  0.00     0.031 C 
ATOM     47  C   UNL A   1      37.601  30.078  28.253  1.00  0.00     0.029 A 
ATOM     48  C   UNL A   1      38.189  30.801  29.380  1.00  0.00     0.049 A 
ATOM     49  H   UNL A   1      39.931  30.316  30.412  1.00  0.00     0.167 HD
ATOM     50  C   UNL A   1      43.534  29.130  32.599  1.00  0.00     0.031 A 
ATOM     51  C   UNL A   1      37.702  31.925  29.944  1.00  0.00     0.031 A 
ATOM     52  C   UNL A   1      43.127  30.360  33.214  1.00  0.00     0.049 A 
ATOM     53  C   UNL A   1      38.423  32.542  31.118  1.00  0.00     0.074 A 
ATOM     54  C   UNL A   1      43.743  31.057  34.237  1.00  0.00     0.029 A 
ATOM     55  N   UNL A   1      41.988  31.068  32.869  1.00  0.00    -0.354 N 
ATOM     56  N   UNL A   1      39.531  32.159  31.705  1.00  0.00    -0.248 NA
ATOM     57  C   UNL A   1      37.824  33.752  31.703  1.00  0.00     0.031 C 
ATOM     58  C   UNL A   1      42.945  32.162  34.549  1.00  0.00     0.029 A 
ATOM     59  C   UNL A   1      41.867  32.184  33.677  1.00  0.00     0.049 A 
ATOM     60  H   UNL A   1      41.357  30.814  32.157  1.00  0.00     0.167 HD
ATOM     61  C   UNL A   1      39.778  33.095  32.704  1.00  0.00     0.074 A 
ATOM     62  C   UNL A   1      38.710  34.070  32.638  1.00  0.00     0.031 C 
ATOM     63  C   UNL A   1      40.802  33.148  33.592  1.00  0.00     0.031 A 
BRANCH  50  64
ATOM     64  C   UNL A   1      44.758  28.428  33.113  1.00  0.00    -0.014 A 
ATOM     65  C   UNL A   1      44.673  27.480  34.144  1.00  0.00     0.009 A 
ATOM     66  C   UNL A   1      46.013  28.736  32.569  1.00  0.00     0.009 A 
ATOM     67  C   UNL A   1      45.830  26.882  34.649  1.00  0.00     0.001 A 
ATOM     68  C   UNL A   1      47.165  28.114  33.055  1.00  0.00     0.001 A 
ATOM     69  C   UNL A   1      47.073  27.197  34.101  1.00  0.00     0.000 A 
ENDBRANCH  50  64
BRANCH  51  70
ATOM     70  C   UNL A   1      36.453  32.545  29.426  1.00  0.00    -0.014 A 
ATOM     71  C   UNL A   1      35.204  32.194  29.962  1.00  0.00     0.009 A 
ATOM     72  C   UNL A   1      36.500  33.465  28.366  1.00  0.00     0.009 A 
ATOM     73  C   UNL A   1      34.028  32.732  29.431  1.00  0.00     0.001 A 
ATOM     74  C   UNL A   1      35.324  34.020  27.855  1.00  0.00     0.001 A 
ATOM     75  C   UNL A   1      34.089  33.647  28.382  1.00  0.00     0.000 A 
ENDBRANCH  51  70
BRANCH  63  76
ATOM     76  C   UNL A   1      40.850  34.320  34.533  1.00  0.00    -0.014 A 
ATOM     77  C   UNL A   1      40.154  34.312  35.750  1.00  0.00     0.009 A 
ATOM     78  C   UNL A   1      41.668  35.418  34.223  1.00  0.00     0.009 A 
ATOM     79  C   UNL A   1      40.257  35.395  36.627  1.00  0.00     0.001 A 
ATOM     80  C   UNL A   1      41.790  36.486  35.113  1.00  0.00     0.001 A 
ATOM     81  C   UNL A   1      41.078  36.477  36.310  1.00  0.00     0.000 A 
ENDBRANCH  63  76
ENDBRANCH  37  38
ENDBRANCH  30  32
ENDBRANCH  29  30
ENDBRANCH  28  29
ENDBRANCH  27  28
ENDBRANCH  26  27
ENDBRANCH  25  26
ENDBRANCH  24  25
ENDBRANCH   1  24
TORSDOF 22
ENDMDL
MODEL 2
REMARK VINA RESULT:      -8.7      2.701      7.475
REMARK SMILES O=C(OCCOCCOCCOCCOC(=O)c1ccc(-c2c3nc(c(-c4ccccc4)c4ccc([nH]4)c(-c4ccccc4)c4nc(c(-c5ccccc5)c5ccc2[nH]5)C=C4)C=C3)cc1)c1ccc(CN2C(=O)CSC2=S)cc1
REMARK SMILES IDX 9 1 8 2 7 3 6 4 5 5 4 6 3 7 2 8 1 9 66 10 67 11 79 12 68 13
REMARK SMILES IDX 78 14 69 15 70 16 71 17 72 18 76 19 73 20 74 21 75 22 77 23
REMARK SMILES IDX 10 24 11 25 12 26 13 27 14 28 15 29 16 30 17 31 18 32 19 33
REMARK SMILES IDX 65 34 20 35 64 36 21 37 22 38 23 39 58 40 24 41 63 42 57 43
REMARK SMILES IDX 59 44 25 45 62 46 56 47 55 48 26 50 48 51 33 52 47 53 34 54
REMARK SMILES IDX 37 55 46 56 60 57 35 58 36 59 45 61 61 62 38 63 27 64 28 65
REMARK SMILES IDX 32 66 29 67 31 68 30 69 49 70 50 71 54 72 51 73 53 74 52 75
REMARK SMILES IDX 39 76 40 77 44 78 41 79 43 80 42 81
REMARK H PARENT 59 49 37 60
REMARK Flexibility Score: inf
ROOT
ATOM      1  O   UNL A   1      42.757  20.455  26.543  1.00  0.00    -0.377 OA
ENDROOT
BRANCH   1   2
ATOM      2  C   UNL A   1      41.607  21.158  26.063  1.00  0.00     0.188 C 
BRANCH   2   3
ATOM      3  C   UNL A   1      40.478  21.304  27.087  1.00  0.00     0.188 C 
BRANCH   3   4
ATOM      4  O   UNL A   1      39.275  20.804  26.504  1.00  0.00    -0.376 OA
BRANCH   4   5
ATOM      5  C   UNL A   1      38.540  21.672  25.661  1.00  0.00     0.202 C 
BRANCH   5   6
ATOM      6  C   UNL A   1      37.615  20.995  24.657  1.00  0.00     0.261 C 
BRANCH   6   7
ATOM      7  O   UNL A   1      36.438  20.396  25.226  1.00  0.00    -0.460 OA
BRANCH   7   8
ATOM      8  C   UNL A   1      35.153  20.764  25.013  1.00  0.00     0.338 C 
ATOM      9  O   UNL A   1      34.288  19.924  24.787  1.00  0.00    -0.246 OA
BRANCH   8  10
ATOM     10  C   UNL A   1      34.746  22.172  25.167  1.00  0.00     0.060 A 
ATOM     11  C   UNL A   1      34.879  22.859  26.374  1.00  0.00     0.016 A 
ATOM     12  C   UNL A   1      34.393  22.874  24.012  1.00  0.00     0.016 A 
ATOM     13  C   UNL A   1      34.532  24.208  26.458  1.00  0.00     0.006 A 
ATOM     14  C   UNL A   1      34.096  24.236  24.087  1.00  0.00     0.006 A 
ATOM     15  C   UNL A   1      34.127  24.909  25.317  1.00  0.00    -0.028 A 
BRANCH  15  16
ATOM     16  C   UNL A   1      33.679  26.352  25.436  1.00  0.00     0.162 C 
BRANCH  16  17
ATOM     17  N   UNL A   1      32.323  26.507  24.908  1.00  0.00    -0.293 N 
ATOM     18  C   UNL A   1      31.262  26.059  25.676  1.00  0.00     0.238 C 
ATOM     19  C   UNL A   1      32.017  27.051  23.682  1.00  0.00     0.143 C 
ATOM     20  O   UNL A   1      31.344  25.641  26.826  1.00  0.00    -0.273 OA
ATOM     21  C   UNL A   1      29.956  26.110  24.935  1.00  0.00     0.177 C 
ATOM     22  S   UNL A   1      30.287  26.975  23.396  1.00  0.00    -0.086 SA
ATOM     23  S   UNL A   1      33.046  27.729  22.558  1.00  0.00    -0.052 S 
ENDBRANCH  16  17
ENDBRANCH  15  16
ENDBRANCH   8  10
ENDBRANCH   7   8
ENDBRANCH   6   7
ENDBRANCH   5   6
ENDBRANCH   4   5
ENDBRANCH   3   4
ENDBRANCH   2   3
ENDBRANCH   1   2
BRANCH   1  24
ATOM     24  C   UNL A   1      43.338  19.518  25.644  1.00  0.00     0.188 C 
BRANCH  24  25
ATOM     25  C   UNL A   1      44.665  19.886  24.949  1.00  0.00     0.188 C 
BRANCH  25  26
ATOM     26  O   UNL A   1      44.548  20.788  23.854  1.00  0.00    -0.376 OA
BRANCH  26  27
ATOM     27  C   UNL A   1      44.983  22.120  24.124  1.00  0.00     0.202 C 
BRANCH  27  28
ATOM     28  C   UNL A   1      43.835  23.121  24.312  1.00  0.00     0.261 C 
BRANCH  28  29
ATOM     29  O   UNL A   1      44.250  24.441  24.698  1.00  0.00    -0.460 OA
BRANCH  29  30
ATOM     30  C   UNL A   1      45.060  24.563  25.771  1.00  0.00     0.338 C 
ATOM     31  O   UNL A   1      46.247  24.299  25.834  1.00  0.00    -0.246 OA
BRANCH  30  32
ATOM     32  C   UNL A   1      44.307  25.313  26.803  1.00  0.00     0.060 A 
ATOM     33  C   UNL A   1      44.460  26.707  26.867  1.00  0.00     0.016 A 
ATOM     34  C   UNL A   1      43.370  24.670  27.620  1.00  0.00     0.016 A 
ATOM     35  C   UNL A   1      43.687  27.456  27.758  1.00  0.00     0.010 A 
ATOM     36  C   UNL A   1      42.614  25.415  28.527  1.00  0.00     0.010 A 
ATOM     37  C   UNL A   1      42.792  26.807  28.621  1.00  0.00    -0.014 A 
BRANCH  37  38
ATOM     38  C   UNL A   1      42.275  27.513  29.817  1.00  0.00     0.031 A 
ATOM     39  C   UNL A   1      40.977  28.255  29.657  1.00  0.00     0.074 A 
ATOM     40  C   UNL A   1      42.926  27.532  30.994  1.00  0.00     0.049 A 
ATOM     41  N   UNL A   1      40.335  29.007  30.512  1.00  0.00    -0.248 NA
ATOM     42  C   UNL A   1      40.318  28.133  28.344  1.00  0.00     0.031 C 
ATOM     43  C   UNL A   1      44.172  26.832  31.294  1.00  0.00     0.029 A 
ATOM     44  N   UNL A   1      42.617  28.189  32.159  1.00  0.00    -0.354 N 
ATOM     45  C   UNL A   1      39.205  29.451  29.838  1.00  0.00     0.074 A 
ATOM     46  C   UNL A   1      39.260  28.909  28.499  1.00  0.00     0.031 C 
ATOM     47  C   UNL A   1      44.529  27.107  32.563  1.00  0.00     0.029 A 
ATOM     48  C   UNL A   1      43.554  28.027  33.150  1.00  0.00     0.049 A 
ATOM     49  H   UNL A   1      41.800  28.727  32.275  1.00  0.00     0.167 HD
ATOM     50  C   UNL A   1      38.204  30.241  30.287  1.00  0.00     0.031 A 
ATOM     51  C   UNL A   1      43.624  28.579  34.379  1.00  0.00     0.031 A 
ATOM     52  C   UNL A   1      38.161  30.817  31.600  1.00  0.00     0.049 A 
ATOM     53  C   UNL A   1      42.540  29.527  34.832  1.00  0.00     0.074 A 
ATOM     54  C   UNL A   1      37.190  31.632  32.152  1.00  0.00     0.029 A 
ATOM     55  N   UNL A   1      39.144  30.648  32.562  1.00  0.00    -0.354 N 
ATOM     56  N   UNL A   1      41.457  29.911  34.200  1.00  0.00    -0.248 NA
ATOM     57  C   UNL A   1      42.690  30.114  36.173  1.00  0.00     0.031 C 
ATOM     58  C   UNL A   1      37.612  32.002  33.433  1.00  0.00     0.029 A 
ATOM     59  C   UNL A   1      38.816  31.366  33.698  1.00  0.00     0.049 A 
ATOM     60  H   UNL A   1      39.955  30.101  32.453  1.00  0.00     0.167 HD
ATOM     61  C   UNL A   1      40.783  30.755  35.076  1.00  0.00     0.074 A 
ATOM     62  C   UNL A   1      41.574  30.822  36.287  1.00  0.00     0.031 C 
ATOM     63  C   UNL A   1      39.610  31.413  34.897  1.00  0.00     0.031 A 
BRANCH  50  64
ATOM     64  C   UNL A   1      37.104  30.557  29.316  1.00  0.00    -0.014 A 
ATOM     65  C   UNL A   1      36.966  31.842  28.767  1.00  0.00     0.009 A 
ATOM     66  C   UNL A   1      36.184  29.560  28.962  1.00  0.00     0.009 A 
ATOM     67  C   UNL A   1      35.901  32.132  27.912  1.00  0.00     0.001 A 
ATOM     68  C   UNL A   1      35.138  29.845  28.083  1.00  0.00     0.001 A 
ATOM     69  C   UNL A   1      34.991  31.133  27.568  1.00  0.00     0.000 A 
ENDBRANCH  50  64
BRANCH  51  70
ATOM     70  C   UNL A   1      44.769  28.271  35.278  1.00  0.00    -0.014 A 
ATOM     71  C   UNL A   1      44.610  27.398  36.365  1.00  0.00     0.009 A 
ATOM     72  C   UNL A   1      46.018  28.878  35.074  1.00  0.00     0.009 A 
ATOM     73  C   UNL A   1      45.671  27.160  37.244  1.00  0.00     0.001 A 
ATOM     74  C   UNL A   1      47.084  28.618  35.939  1.00  0.00     0.001 A 
ATOM     75  C   UNL A   1      46.907  27.766  37.028  1.00  0.00     0.000 A 
ENDBRANCH  51  70
BRANCH  63  76
ATOM     76  C   UNL A   1      39.079  32.221  36.049  1.00  0.00    -0.014 A 
ATOM     77  C   UNL A   1      39.440  33.564  36.230  1.00  0.00     0.009 A 
ATOM     78  C   UNL A   1      38.145  31.643  36.923  1.00  0.00     0.009 A 
ATOM     79  C   UNL A   1      38.894  34.304  37.282  1.00  0.00     0.001 A 
ATOM     80  C   UNL A   1      37.580  32.392  37.955  1.00  0.00     0.001 A 
ATOM     81  C   UNL A   1      37.961  33.720  38.139  1.00  0.00     0.000 A 
ENDBRANCH  63  76
ENDBRANCH  37  38
ENDBRANCH  30  32
ENDBRANCH  29  30
ENDBRANCH  28  29
ENDBRANCH  27  28
ENDBRANCH  26  27
ENDBRANCH  25  26
ENDBRANCH  24  25
ENDBRANCH   1  24
TORSDOF 22
ENDMDL
MODEL 3
REMARK VINA RESULT:      -8.6      2.813      8.085
REMARK SMILES O=C(OCCOCCOCCOCCOC(=O)c1ccc(-c2c3nc(c(-c4ccccc4)c4ccc([nH]4)c(-c4ccccc4)c4nc(c(-c5ccccc5)c5ccc2[nH]5)C=C4)C=C3)cc1)c1ccc(CN2C(=O)CSC2=S)cc1
REMARK SMILES IDX 9 1 8 2 7 3 6 4 5 5 4 6 3 7 2 8 1 9 66 10 67 11 79 12 68 13
REMARK SMILES IDX 78 14 69 15 70 16 71 17 72 18 76 19 73 20 74 21 75 22 77 23
REMARK SMILES IDX 10 24 11 25 12 26 13 27 14 28 15 29 16 30 17 31 18 32 19 33
REMARK SMILES IDX 65 34 20 35 64 36 21 37 22 38 23 39 58 40 24 41 63 42 57 43
REMARK SMILES IDX 59 44 25 45 62 46 56 47 55 48 26 50 48 51 33 52 47 53 34 54
REMARK SMILES IDX 37 55 46 56 60 57 35 58 36 59 45 61 61 62 38 63 27 64 28 65
REMARK SMILES IDX 32 66 29 67 31 68 30 69 49 70 50 71 54 72 51 73 53 74 52 75
REMARK SMILES IDX 39 76 40 77 44 78 41 79 43 80 42 81
REMARK H PARENT 59 49 37 60
REMARK Flexibility Score: inf
ROOT
ATOM      1  O   UNL A   1      34.392  32.184  27.143  1.00  0.00    -0.377 OA
ENDROOT
BRANCH   1   2
ATOM      2  C   UNL A   1      34.460  30.766  27.319  1.00  0.00     0.188 C 
BRANCH   2   3
ATOM      3  C   UNL A   1      33.103  30.058  27.304  1.00  0.00     0.188 C 
BRANCH   3   4
ATOM      4  O   UNL A   1      32.298  30.650  26.285  1.00  0.00    -0.376 OA
BRANCH   4   5
ATOM      5  C   UNL A   1      31.748  29.795  25.299  1.00  0.00     0.202 C 
BRANCH   5   6
ATOM      6  C   UNL A   1      32.755  29.070  24.414  1.00  0.00     0.261 C 
BRANCH   6   7
ATOM      7  O   UNL A   1      32.309  28.818  23.070  1.00  0.00    -0.460 OA
BRANCH   7   8
ATOM      8  C   UNL A   1      31.435  27.867  22.667  1.00  0.00     0.338 C 
ATOM      9  O   UNL A   1      30.399  28.171  22.085  1.00  0.00    -0.246 OA
BRANCH   8  10
ATOM     10  C   UNL A   1      31.769  26.439  22.814  1.00  0.00     0.060 A 
ATOM     11  C   UNL A   1      31.018  25.575  23.612  1.00  0.00     0.016 A 
ATOM     12  C   UNL A   1      32.755  25.916  21.975  1.00  0.00     0.016 A 
ATOM     13  C   UNL A   1      31.338  24.219  23.677  1.00  0.00     0.006 A 
ATOM     14  C   UNL A   1      33.040  24.549  22.001  1.00  0.00     0.006 A 
ATOM     15  C   UNL A   1      32.359  23.693  22.878  1.00  0.00    -0.028 A 
BRANCH  15  16
ATOM     16  C   UNL A   1      32.749  22.234  23.014  1.00  0.00     0.162 C 
BRANCH  16  17
ATOM     17  N   UNL A   1      33.415  22.004  24.296  1.00  0.00    -0.293 N 
ATOM     18  C   UNL A   1      32.676  21.469  25.336  1.00  0.00     0.238 C 
ATOM     19  C   UNL A   1      34.733  22.302  24.559  1.00  0.00     0.143 C 
ATOM     20  O   UNL A   1      31.524  21.056  25.250  1.00  0.00    -0.273 OA
ATOM     21  C   UNL A   1      33.432  21.464  26.634  1.00  0.00     0.177 C 
ATOM     22  S   UNL A   1      35.113  21.953  26.236  1.00  0.00    -0.086 SA
ATOM     23  S   UNL A   1      35.894  22.894  23.518  1.00  0.00    -0.052 S 
ENDBRANCH  16  17
ENDBRANCH  15  16
ENDBRANCH   8  10
ENDBRANCH   7   8
ENDBRANCH   6   7
ENDBRANCH   5   6
ENDBRANCH   4   5
ENDBRANCH   3   4
ENDBRANCH   2   3
ENDBRANCH   1   2
BRANCH   1  24
ATOM     24  C   UNL A   1      34.843  32.973  28.238  1.00  0.00     0.188 C 
BRANCH  24  25
ATOM     25  C   UNL A   1      33.808  33.464  29.271  1.00  0.00     0.188 C 
BRANCH  25  26
ATOM     26  O   UNL A   1      32.936  34.494  28.817  1.00  0.00    -0.376 OA
BRANCH  26  27
ATOM     27  C   UNL A   1      33.433  35.820  28.990  1.00  0.00     0.202 C 
BRANCH  27  28
ATOM     28  C   UNL A   1      32.790  36.576  30.161  1.00  0.00     0.261 C 
BRANCH  28  29
ATOM     29  O   UNL A   1      33.509  36.480  31.400  1.00  0.00    -0.460 OA
BRANCH  29  30
ATOM     30  C   UNL A   1      33.077  35.589  32.318  1.00  0.00     0.338 C 
ATOM     31  O   UNL A   1      31.924  35.344  32.623  1.00  0.00    -0.246 OA
BRANCH  30  32
ATOM     32  C   UNL A   1      34.248  34.776  32.722  1.00  0.00     0.060 A 
ATOM     33  C   UNL A   1      35.496  35.409  32.842  1.00  0.00     0.016 A 
ATOM     34  C   UNL A   1      34.100  33.436  33.095  1.00  0.00     0.016 A 
ATOM     35  C   UNL A   1      36.598  34.697  33.322  1.00  0.00     0.010 A 
ATOM     36  C   UNL A   1      35.207  32.717  33.551  1.00  0.00     0.010 A 
ATOM     37  C   UNL A   1      36.466  33.336  33.637  1.00  0.00    -0.014 A 
BRANCH  37  38
ATOM     38  C   UNL A   1      37.673  32.484  33.756  1.00  0.00     0.031 A 
ATOM     39  C   UNL A   1      38.543  32.707  34.962  1.00  0.00     0.074 A 
ATOM     40  C   UNL A   1      38.016  31.569  32.832  1.00  0.00     0.049 A 
ATOM     41  N   UNL A   1      39.684  32.154  35.281  1.00  0.00    -0.248 NA
ATOM     42  C   UNL A   1      38.057  33.697  35.938  1.00  0.00     0.031 C 
ATOM     43  C   UNL A   1      37.249  31.230  31.636  1.00  0.00     0.029 A 
ATOM     44  N   UNL A   1      39.124  30.761  32.763  1.00  0.00    -0.354 N 
ATOM     45  C   UNL A   1      40.051  32.734  36.487  1.00  0.00     0.074 A 
ATOM     46  C   UNL A   1      39.031  33.700  36.831  1.00  0.00     0.031 C 
ATOM     47  C   UNL A   1      37.918  30.290  30.944  1.00  0.00     0.029 A 
ATOM     48  C   UNL A   1      39.174  29.985  31.631  1.00  0.00     0.049 A 
ATOM     49  H   UNL A   1      39.820  30.740  33.460  1.00  0.00     0.167 HD
ATOM     50  C   UNL A   1      41.142  32.492  37.249  1.00  0.00     0.031 A 
ATOM     51  C   UNL A   1      40.134  29.145  31.195  1.00  0.00     0.031 A 
ATOM     52  C   UNL A   1      42.180  31.567  36.897  1.00  0.00     0.049 A 
ATOM     53  C   UNL A   1      41.384  28.952  32.018  1.00  0.00     0.074 A 
ATOM     54  C   UNL A   1      43.326  31.250  37.602  1.00  0.00     0.029 A 
ATOM     55  N   UNL A   1      42.202  30.823  35.729  1.00  0.00    -0.354 N 
ATOM     56  N   UNL A   1      41.705  29.478  33.175  1.00  0.00    -0.248 NA
ATOM     57  C   UNL A   1      42.404  28.042  31.471  1.00  0.00     0.031 C 
ATOM     58  C   UNL A   1      44.072  30.351  36.833  1.00  0.00     0.029 A 
ATOM     59  C   UNL A   1      43.357  30.063  35.680  1.00  0.00     0.049 A 
ATOM     60  H   UNL A   1      41.502  30.833  35.038  1.00  0.00     0.167 HD
ATOM     61  C   UNL A   1      42.943  28.940  33.510  1.00  0.00     0.074 A 
ATOM     62  C   UNL A   1      43.313  28.040  32.438  1.00  0.00     0.031 C 
ATOM     63  C   UNL A   1      43.705  29.166  34.609  1.00  0.00     0.031 A 
BRANCH  50  64
ATOM     64  C   UNL A   1      41.272  33.287  38.516  1.00  0.00    -0.014 A 
ATOM     65  C   UNL A   1      40.636  32.880  39.699  1.00  0.00     0.009 A 
ATOM     66  C   UNL A   1      42.028  34.468  38.518  1.00  0.00     0.009 A 
ATOM     67  C   UNL A   1      40.721  33.665  40.851  1.00  0.00     0.001 A 
ATOM     68  C   UNL A   1      42.137  35.235  39.680  1.00  0.00     0.001 A 
ATOM     69  C   UNL A   1      41.474  34.838  40.840  1.00  0.00     0.000 A 
ENDBRANCH  50  64
BRANCH  51  70
ATOM     70  C   UNL A   1      39.973  28.426  29.902  1.00  0.00    -0.014 A 
ATOM     71  C   UNL A   1      39.577  27.080  29.876  1.00  0.00     0.009 A 
ATOM     72  C   UNL A   1      40.252  29.072  28.687  1.00  0.00     0.009 A 
ATOM     73  C   UNL A   1      39.488  26.390  28.664  1.00  0.00     0.001 A 
ATOM     74  C   UNL A   1      40.136  28.387  27.475  1.00  0.00     0.001 A 
ATOM     75  C   UNL A   1      39.763  27.045  27.465  1.00  0.00     0.000 A 
ENDBRANCH  51  70
BRANCH  63  76
ATOM     76  C   UNL A   1      44.989  28.394  34.741  1.00  0.00    -0.014 A 
ATOM     77  C   UNL A   1      45.001  27.057  35.163  1.00  0.00     0.009 A 
ATOM     78  C   UNL A   1      46.198  29.002  34.366  1.00  0.00     0.009 A 
ATOM     79  C   UNL A   1      46.204  26.351  35.230  1.00  0.00     0.001 A 
ATOM     80  C   UNL A   1      47.394  28.286  34.407  1.00  0.00     0.001 A 
ATOM     81  C   UNL A   1      47.398  26.963  34.847  1.00  0.00     0.000 A 
ENDBRANCH  63  76
ENDBRANCH  37  38
ENDBRANCH  30  32
ENDBRANCH  29  30
ENDBRANCH  28  29
ENDBRANCH  27  28
ENDBRANCH  26  27
ENDBRANCH  25  26
ENDBRANCH  24  25
ENDBRANCH   1  24
TORSDOF 22
ENDMDL
