MODEL 1
REMARK VINA RESULT:      -8.4      0.000      0.000
REMARK SMILES C[C@@H](C(=O)OCCOCCOCCOCCOC(=O)c1ccc(-c2c3nc(c(-c4ccccc4)c4ccc([nH]4)c(-c4ccccc4)c4nc(c(-c5ccccc5)c5ccc2[nH]5)C=C4)C=C3)cc1)c1ccc(-c2cccc(OC(=O)NCCCc3ccccc3)c2)c(F)c1
REMARK SMILES IDX 8 1 7 2 6 3 5 4 3 5 4 6 2 7 1 8 68 9 69 10 93 11 70 12 91 13
REMARK SMILES IDX 71 14 92 15 72 16 73 17 90 18 74 19 76 20 75 21 77 22 78 23
REMARK SMILES IDX 79 24 80 25 81 27 82 28 83 29 84 30 85 31 89 32 86 33 88 34
REMARK SMILES IDX 87 35 9 36 10 37 11 38 12 39 13 40 14 41 15 42 16 43 17 44
REMARK SMILES IDX 18 45 19 46 20 47 21 48 67 49 22 50 66 51 23 52 24 53 25 54
REMARK SMILES IDX 60 55 26 56 65 57 59 58 61 59 27 60 64 61 58 62 57 63 28 65
REMARK SMILES IDX 50 66 35 67 49 68 36 69 39 70 48 71 62 72 37 73 38 74 47 76
REMARK SMILES IDX 63 77 40 78 29 79 30 80 34 81 31 82 33 83 32 84 51 85 52 86
REMARK SMILES IDX 56 87 53 88 55 89 54 90 41 91 42 92 46 93 43 94 45 95 44 96
REMARK H PARENT 80 26 61 64 39 75
REMARK Flexibility Score: inf
ROOT
ATOM      1  O   UNL A   1      37.179  33.384  34.500  1.00  0.00    -0.376 OA
ENDROOT
BRANCH   1   2
ATOM      2  C   UNL A   1      36.417  32.560  33.633  1.00  0.00     0.202 C 
BRANCH   2   3
ATOM      3  C   UNL A   1      36.764  32.245  32.161  1.00  0.00     0.261 C 
BRANCH   3   4
ATOM      4  O   UNL A   1      36.368  33.211  31.186  1.00  0.00    -0.463 OA
BRANCH   4   5
ATOM      5  C   UNL A   1      35.190  33.029  30.543  1.00  0.00     0.313 C 
ATOM      6  O   UNL A   1      34.117  32.851  31.108  1.00  0.00    -0.252 OA
BRANCH   5   7
ATOM      7  C   UNL A   1      35.325  33.183  29.021  1.00  0.00     0.126 C 
ATOM      8  C   UNL A   1      34.792  34.539  28.521  1.00  0.00     0.025 C 
BRANCH   7   9
ATOM      9  C   UNL A   1      34.863  31.949  28.233  1.00  0.00    -0.031 A 
ATOM     10  C   UNL A   1      33.594  31.914  27.625  1.00  0.00     0.005 A 
ATOM     11  C   UNL A   1      35.630  30.775  28.173  1.00  0.00     0.044 A 
ATOM     12  C   UNL A   1      33.102  30.760  27.003  1.00  0.00     0.012 A 
ATOM     13  C   UNL A   1      35.127  29.620  27.564  1.00  0.00     0.131 A 
ATOM     14  C   UNL A   1      33.843  29.575  27.003  1.00  0.00     0.018 A 
ATOM     15  F   UNL A   1      35.889  28.515  27.588  1.00  0.00    -0.206 F 
BRANCH  14  16
ATOM     16  C   UNL A   1      33.197  28.307  26.631  1.00  0.00    -0.012 A 
ATOM     17  C   UNL A   1      31.886  27.972  26.999  1.00  0.00     0.009 A 
ATOM     18  C   UNL A   1      33.976  27.334  25.981  1.00  0.00     0.056 A 
ATOM     19  C   UNL A   1      31.376  26.694  26.735  1.00  0.00     0.004 A 
ATOM     20  C   UNL A   1      33.481  26.058  25.747  1.00  0.00     0.133 A 
ATOM     21  C   UNL A   1      32.177  25.732  26.117  1.00  0.00     0.047 A 
BRANCH  20  22
ATOM     22  O   UNL A   1      34.229  25.029  25.132  1.00  0.00    -0.410 OA
BRANCH  22  23
ATOM     23  C   UNL A   1      34.406  23.745  25.643  1.00  0.00     0.412 C 
ATOM     24  O   UNL A   1      34.993  23.438  26.678  1.00  0.00    -0.224 OA
ATOM     25  N   UNL A   1      33.828  22.776  24.876  1.00  0.00    -0.321 N 
ATOM     26  H   UNL A   1      34.022  21.840  25.114  1.00  0.00     0.167 HD
BRANCH  25  27
ATOM     27  C   UNL A   1      32.958  23.005  23.749  1.00  0.00     0.120 C 
BRANCH  27  28
ATOM     28  C   UNL A   1      33.554  23.910  22.672  1.00  0.00     0.026 C 
BRANCH  28  29
ATOM     29  C   UNL A   1      32.619  24.874  21.928  1.00  0.00     0.037 C 
BRANCH  29  30
ATOM     30  C   UNL A   1      32.523  26.327  22.334  1.00  0.00    -0.048 A 
ATOM     31  C   UNL A   1      31.344  26.973  22.716  1.00  0.00     0.004 A 
ATOM     32  C   UNL A   1      33.697  27.099  22.255  1.00  0.00     0.004 A 
ATOM     33  C   UNL A   1      31.330  28.344  22.995  1.00  0.00     0.000 A 
ATOM     34  C   UNL A   1      33.687  28.465  22.545  1.00  0.00     0.000 A 
ATOM     35  C   UNL A   1      32.500  29.090  22.907  1.00  0.00     0.000 A 
ENDBRANCH  29  30
ENDBRANCH  28  29
ENDBRANCH  27  28
ENDBRANCH  25  27
ENDBRANCH  22  23
ENDBRANCH  20  22
ENDBRANCH  14  16
ENDBRANCH   7   9
ENDBRANCH   5   7
ENDBRANCH   4   5
ENDBRANCH   3   4
ENDBRANCH   2   3
ENDBRANCH   1   2
BRANCH   1  36
ATOM     36  C   UNL A   1      36.640  33.828  35.728  1.00  0.00     0.188 C 
BRANCH  36  37
ATOM     37  C   UNL A   1      37.434  33.401  36.973  1.00  0.00     0.188 C 
BRANCH  37  38
ATOM     38  O   UNL A   1      36.758  32.554  37.887  1.00  0.00    -0.377 OA
BRANCH  38  39
ATOM     39  C   UNL A   1      37.206  32.493  39.237  1.00  0.00     0.188 C 
BRANCH  39  40
ATOM     40  C   UNL A   1      38.500  33.193  39.711  1.00  0.00     0.188 C 
BRANCH  40  41
ATOM     41  O   UNL A   1      39.492  32.335  40.249  1.00  0.00    -0.376 OA
BRANCH  41  42
ATOM     42  C   UNL A   1      40.855  32.700  40.103  1.00  0.00     0.202 C 
BRANCH  42  43
ATOM     43  C   UNL A   1      41.772  32.518  41.322  1.00  0.00     0.261 C 
BRANCH  43  44
ATOM     44  O   UNL A   1      42.228  31.180  41.580  1.00  0.00    -0.460 OA
BRANCH  44  45
ATOM     45  C   UNL A   1      43.064  30.990  42.624  1.00  0.00     0.338 C 
ATOM     46  O   UNL A   1      42.939  31.410  43.757  1.00  0.00    -0.246 OA
BRANCH  45  47
ATOM     47  C   UNL A   1      44.084  30.005  42.205  1.00  0.00     0.060 A 
ATOM     48  C   UNL A   1      45.092  30.408  41.318  1.00  0.00     0.016 A 
ATOM     49  C   UNL A   1      44.046  28.695  42.686  1.00  0.00     0.016 A 
ATOM     50  C   UNL A   1      46.042  29.486  40.876  1.00  0.00     0.010 A 
ATOM     51  C   UNL A   1      44.984  27.768  42.225  1.00  0.00     0.010 A 
ATOM     52  C   UNL A   1      45.963  28.150  41.289  1.00  0.00    -0.014 A 
BRANCH  52  53
ATOM     53  C   UNL A   1      46.763  27.117  40.591  1.00  0.00     0.031 A 
ATOM     54  C   UNL A   1      48.114  26.761  41.151  1.00  0.00     0.074 A 
ATOM     55  C   UNL A   1      46.299  26.485  39.497  1.00  0.00     0.049 A 
ATOM     56  N   UNL A   1      49.014  25.932  40.690  1.00  0.00    -0.248 NA
ATOM     57  C   UNL A   1      48.500  27.435  42.402  1.00  0.00     0.031 C 
ATOM     58  C   UNL A   1      44.989  26.697  38.887  1.00  0.00     0.029 A 
ATOM     59  N   UNL A   1      46.893  25.536  38.703  1.00  0.00    -0.354 N 
ATOM     60  C   UNL A   1      50.074  25.992  41.586  1.00  0.00     0.074 A 
ATOM     61  C   UNL A   1      49.720  26.962  42.598  1.00  0.00     0.031 C 
ATOM     62  C   UNL A   1      44.882  25.906  37.804  1.00  0.00     0.029 A 
ATOM     63  C   UNL A   1      46.130  25.165  37.624  1.00  0.00     0.049 A 
ATOM     64  H   UNL A   1      47.783  25.156  38.890  1.00  0.00     0.167 HD
ATOM     65  C   UNL A   1      51.236  25.298  41.574  1.00  0.00     0.031 A 
ATOM     66  C   UNL A   1      46.417  24.344  36.594  1.00  0.00     0.031 A 
ATOM     67  C   UNL A   1      51.598  24.349  40.555  1.00  0.00     0.049 A 
ATOM     68  C   UNL A   1      47.758  23.656  36.550  1.00  0.00     0.074 A 
ATOM     69  C   UNL A   1      52.752  23.592  40.454  1.00  0.00     0.029 A 
ATOM     70  N   UNL A   1      50.814  24.035  39.456  1.00  0.00    -0.354 N 
ATOM     71  N   UNL A   1      48.745  23.704  37.412  1.00  0.00    -0.248 NA
ATOM     72  C   UNL A   1      48.019  22.790  35.390  1.00  0.00     0.031 C 
ATOM     73  C   UNL A   1      52.695  22.869  39.259  1.00  0.00     0.029 A 
ATOM     74  C   UNL A   1      51.473  23.117  38.655  1.00  0.00     0.049 A 
ATOM     75  H   UNL A   1      49.922  24.409  39.272  1.00  0.00     0.167 HD
ATOM     76  C   UNL A   1      49.727  22.854  36.917  1.00  0.00     0.074 A 
ATOM     77  C   UNL A   1      49.209  22.289  35.688  1.00  0.00     0.031 C 
ATOM     78  C   UNL A   1      50.946  22.562  37.435  1.00  0.00     0.031 A 
BRANCH  65  79
ATOM     79  C   UNL A   1      52.219  25.576  42.677  1.00  0.00    -0.014 A 
ATOM     80  C   UNL A   1      53.066  26.695  42.641  1.00  0.00     0.009 A 
ATOM     81  C   UNL A   1      52.278  24.718  43.787  1.00  0.00     0.009 A 
ATOM     82  C   UNL A   1      53.977  26.927  43.673  1.00  0.00     0.001 A 
ATOM     83  C   UNL A   1      53.166  24.971  44.834  1.00  0.00     0.001 A 
ATOM     84  C   UNL A   1      54.023  26.069  44.771  1.00  0.00     0.000 A 
ENDBRANCH  65  79
BRANCH  66  85
ATOM     85  C   UNL A   1      45.432  24.147  35.497  1.00  0.00    -0.014 A 
ATOM     86  C   UNL A   1      44.351  23.264  35.648  1.00  0.00     0.009 A 
ATOM     87  C   UNL A   1      45.587  24.820  34.274  1.00  0.00     0.009 A 
ATOM     88  C   UNL A   1      43.467  23.038  34.590  1.00  0.00     0.001 A 
ATOM     89  C   UNL A   1      44.682  24.619  33.230  1.00  0.00     0.001 A 
ATOM     90  C   UNL A   1      43.630  23.719  33.385  1.00  0.00     0.000 A 
ENDBRANCH  66  85
BRANCH  78  91
ATOM     91  C   UNL A   1      51.790  21.555  36.701  1.00  0.00    -0.014 A 
ATOM     92  C   UNL A   1      52.844  21.947  35.863  1.00  0.00     0.009 A 
ATOM     93  C   UNL A   1      51.550  20.184  36.892  1.00  0.00     0.009 A 
ATOM     94  C   UNL A   1      53.617  20.988  35.202  1.00  0.00     0.001 A 
ATOM     95  C   UNL A   1      52.346  19.227  36.259  1.00  0.00     0.001 A 
ATOM     96  C   UNL A   1      53.371  19.630  35.406  1.00  0.00     0.000 A 
ENDBRANCH  78  91
ENDBRANCH  52  53
ENDBRANCH  45  47
ENDBRANCH  44  45
ENDBRANCH  43  44
ENDBRANCH  42  43
ENDBRANCH  41  42
ENDBRANCH  40  41
ENDBRANCH  39  40
ENDBRANCH  38  39
ENDBRANCH  37  38
ENDBRANCH  36  37
ENDBRANCH   1  36
TORSDOF 28
ENDMDL
MODEL 2
REMARK VINA RESULT:      -7.8      6.835     14.836
REMARK SMILES C[C@@H](C(=O)OCCOCCOCCOCCOC(=O)c1ccc(-c2c3nc(c(-c4ccccc4)c4ccc([nH]4)c(-c4ccccc4)c4nc(c(-c5ccccc5)c5ccc2[nH]5)C=C4)C=C3)cc1)c1ccc(-c2cccc(OC(=O)NCCCc3ccccc3)c2)c(F)c1
REMARK SMILES IDX 8 1 7 2 6 3 5 4 3 5 4 6 2 7 1 8 68 9 69 10 93 11 70 12 91 13
REMARK SMILES IDX 71 14 92 15 72 16 73 17 90 18 74 19 76 20 75 21 77 22 78 23
REMARK SMILES IDX 79 24 80 25 81 27 82 28 83 29 84 30 85 31 89 32 86 33 88 34
REMARK SMILES IDX 87 35 9 36 10 37 11 38 12 39 13 40 14 41 15 42 16 43 17 44
REMARK SMILES IDX 18 45 19 46 20 47 21 48 67 49 22 50 66 51 23 52 24 53 25 54
REMARK SMILES IDX 60 55 26 56 65 57 59 58 61 59 27 60 64 61 58 62 57 63 28 65
REMARK SMILES IDX 50 66 35 67 49 68 36 69 39 70 48 71 62 72 37 73 38 74 47 76
REMARK SMILES IDX 63 77 40 78 29 79 30 80 34 81 31 82 33 83 32 84 51 85 52 86
REMARK SMILES IDX 56 87 53 88 55 89 54 90 41 91 42 92 46 93 43 94 45 95 44 96
REMARK H PARENT 80 26 61 64 39 75
REMARK Flexibility Score: inf
ROOT
ATOM      1  O   UNL A   1      46.178  21.058  34.440  1.00  0.00    -0.376 OA
ENDROOT
BRANCH   1   2
ATOM      2  C   UNL A   1      45.839  22.374  34.846  1.00  0.00     0.202 C 
BRANCH   2   3
ATOM      3  C   UNL A   1      46.269  23.672  34.129  1.00  0.00     0.261 C 
BRANCH   3   4
ATOM      4  O   UNL A   1      45.225  24.490  33.596  1.00  0.00    -0.463 OA
BRANCH   4   5
ATOM      5  C   UNL A   1      44.535  24.034  32.524  1.00  0.00     0.313 C 
ATOM      6  O   UNL A   1      43.942  22.960  32.491  1.00  0.00    -0.252 OA
BRANCH   5   7
ATOM      7  C   UNL A   1      44.480  25.061  31.384  1.00  0.00     0.126 C 
ATOM      8  C   UNL A   1      43.648  24.561  30.187  1.00  0.00     0.025 C 
BRANCH   7   9
ATOM      9  C   UNL A   1      45.844  25.677  31.043  1.00  0.00    -0.031 A 
ATOM     10  C   UNL A   1      46.406  26.680  31.856  1.00  0.00     0.005 A 
ATOM     11  C   UNL A   1      46.534  25.350  29.867  1.00  0.00     0.044 A 
ATOM     12  C   UNL A   1      47.589  27.341  31.504  1.00  0.00     0.012 A 
ATOM     13  C   UNL A   1      47.708  26.025  29.512  1.00  0.00     0.131 A 
ATOM     14  C   UNL A   1      48.237  27.057  30.298  1.00  0.00     0.018 A 
ATOM     15  F   UNL A   1      48.290  25.702  28.346  1.00  0.00    -0.206 F 
BRANCH  14  16
ATOM     16  C   UNL A   1      49.285  27.961  29.799  1.00  0.00    -0.012 A 
ATOM     17  C   UNL A   1      50.657  27.687  29.908  1.00  0.00     0.009 A 
ATOM     18  C   UNL A   1      48.894  29.216  29.302  1.00  0.00     0.056 A 
ATOM     19  C   UNL A   1      51.607  28.648  29.541  1.00  0.00     0.004 A 
ATOM     20  C   UNL A   1      49.836  30.180  28.968  1.00  0.00     0.133 A 
ATOM     21  C   UNL A   1      51.196  29.901  29.079  1.00  0.00     0.047 A 
BRANCH  20  22
ATOM     22  O   UNL A   1      49.502  31.471  28.499  1.00  0.00    -0.410 OA
BRANCH  22  23
ATOM     23  C   UNL A   1      49.291  31.813  27.165  1.00  0.00     0.412 C 
ATOM     24  O   UNL A   1      50.126  31.814  26.263  1.00  0.00    -0.224 OA
ATOM     25  N   UNL A   1      47.999  32.156  26.895  1.00  0.00    -0.321 N 
ATOM     26  H   UNL A   1      47.810  32.527  26.003  1.00  0.00     0.167 HD
BRANCH  25  27
ATOM     27  C   UNL A   1      46.887  32.020  27.803  1.00  0.00     0.120 C 
BRANCH  27  28
ATOM     28  C   UNL A   1      45.745  31.157  27.270  1.00  0.00     0.026 C 
BRANCH  28  29
ATOM     29  C   UNL A   1      46.057  30.131  26.171  1.00  0.00     0.037 C 
BRANCH  29  30
ATOM     30  C   UNL A   1      45.703  28.672  26.350  1.00  0.00    -0.048 A 
ATOM     31  C   UNL A   1      46.060  27.650  25.465  1.00  0.00     0.004 A 
ATOM     32  C   UNL A   1      44.900  28.333  27.454  1.00  0.00     0.004 A 
ATOM     33  C   UNL A   1      45.617  26.338  25.664  1.00  0.00     0.000 A 
ATOM     34  C   UNL A   1      44.468  27.021  27.661  1.00  0.00     0.000 A 
ATOM     35  C   UNL A   1      44.821  26.024  26.760  1.00  0.00     0.000 A 
ENDBRANCH  29  30
ENDBRANCH  28  29
ENDBRANCH  27  28
ENDBRANCH  25  27
ENDBRANCH  22  23
ENDBRANCH  20  22
ENDBRANCH  14  16
ENDBRANCH   7   9
ENDBRANCH   5   7
ENDBRANCH   4   5
ENDBRANCH   3   4
ENDBRANCH   2   3
ENDBRANCH   1   2
BRANCH   1  36
ATOM     36  C   UNL A   1      47.010  20.248  35.244  1.00  0.00     0.188 C 
BRANCH  36  37
ATOM     37  C   UNL A   1      48.512  20.362  34.939  1.00  0.00     0.188 C 
BRANCH  37  38
ATOM     38  O   UNL A   1      49.255  21.234  35.774  1.00  0.00    -0.377 OA
BRANCH  38  39
ATOM     39  C   UNL A   1      50.393  21.904  35.239  1.00  0.00     0.188 C 
BRANCH  39  40
ATOM     40  C   UNL A   1      50.350  23.387  34.807  1.00  0.00     0.188 C 
BRANCH  40  41
ATOM     41  O   UNL A   1      50.543  24.329  35.848  1.00  0.00    -0.376 OA
BRANCH  41  42
ATOM     42  C   UNL A   1      50.321  25.702  35.571  1.00  0.00     0.202 C 
BRANCH  42  43
ATOM     43  C   UNL A   1      49.111  26.061  34.694  1.00  0.00     0.261 C 
BRANCH  43  44
ATOM     44  O   UNL A   1      48.305  27.162  35.144  1.00  0.00    -0.460 OA
BRANCH  44  45
ATOM     45  C   UNL A   1      47.254  26.887  35.948  1.00  0.00     0.338 C 
ATOM     46  O   UNL A   1      47.257  26.224  36.965  1.00  0.00    -0.246 OA
BRANCH  45  47
ATOM     47  C   UNL A   1      46.111  27.699  35.481  1.00  0.00     0.060 A 
ATOM     48  C   UNL A   1      44.810  27.215  35.677  1.00  0.00     0.016 A 
ATOM     49  C   UNL A   1      46.322  28.930  34.857  1.00  0.00     0.016 A 
ATOM     50  C   UNL A   1      43.716  27.944  35.209  1.00  0.00     0.010 A 
ATOM     51  C   UNL A   1      45.227  29.647  34.369  1.00  0.00     0.010 A 
ATOM     52  C   UNL A   1      43.922  29.140  34.510  1.00  0.00    -0.014 A 
BRANCH  52  53
ATOM     53  C   UNL A   1      42.805  29.748  33.748  1.00  0.00     0.031 A 
ATOM     54  C   UNL A   1      42.034  30.870  34.389  1.00  0.00     0.074 A 
ATOM     55  C   UNL A   1      42.491  29.337  32.506  1.00  0.00     0.049 A 
ATOM     56  N   UNL A   1      40.989  31.520  33.946  1.00  0.00    -0.248 NA
ATOM     57  C   UNL A   1      42.505  31.315  35.710  1.00  0.00     0.031 C 
ATOM     58  C   UNL A   1      43.193  28.300  31.754  1.00  0.00     0.029 A 
ATOM     59  N   UNL A   1      41.488  29.747  31.664  1.00  0.00    -0.354 N 
ATOM     60  C   UNL A   1      40.674  32.443  34.937  1.00  0.00     0.074 A 
ATOM     61  C   UNL A   1      41.615  32.246  36.016  1.00  0.00     0.031 C 
ATOM     62  C   UNL A   1      42.589  28.147  30.561  1.00  0.00     0.029 A 
ATOM     63  C   UNL A   1      41.438  29.045  30.485  1.00  0.00     0.049 A 
ATOM     64  H   UNL A   1      40.863  30.476  31.884  1.00  0.00     0.167 HD
ATOM     65  C   UNL A   1      39.693  33.376  34.945  1.00  0.00     0.031 A 
ATOM     66  C   UNL A   1      40.548  29.103  29.474  1.00  0.00     0.031 A 
ATOM     67  C   UNL A   1      38.743  33.558  33.881  1.00  0.00     0.049 A 
ATOM     68  C   UNL A   1      39.406  30.084  29.550  1.00  0.00     0.074 A 
ATOM     69  C   UNL A   1      37.713  34.478  33.794  1.00  0.00     0.029 A 
ATOM     70  N   UNL A   1      38.701  32.798  32.724  1.00  0.00    -0.354 N 
ATOM     71  N   UNL A   1      39.129  30.965  30.481  1.00  0.00    -0.248 NA
ATOM     72  C   UNL A   1      38.458  30.083  28.426  1.00  0.00     0.031 C 
ATOM     73  C   UNL A   1      37.007  34.230  32.613  1.00  0.00     0.029 A 
ATOM     74  C   UNL A   1      37.644  33.207  31.929  1.00  0.00     0.049 A 
ATOM     75  H   UNL A   1      39.330  32.073  32.499  1.00  0.00     0.167 HD
ATOM     76  C   UNL A   1      37.997  31.642  30.041  1.00  0.00     0.074 A 
ATOM     77  C   UNL A   1      37.650  31.082  28.751  1.00  0.00     0.031 C 
ATOM     78  C   UNL A   1      37.309  32.642  30.647  1.00  0.00     0.031 A 
BRANCH  65  79
ATOM     79  C   UNL A   1      39.576  34.244  36.168  1.00  0.00    -0.014 A 
ATOM     80  C   UNL A   1      38.828  33.839  37.286  1.00  0.00     0.009 A 
ATOM     81  C   UNL A   1      40.250  35.475  36.214  1.00  0.00     0.009 A 
ATOM     82  C   UNL A   1      38.727  34.666  38.406  1.00  0.00     0.001 A 
ATOM     83  C   UNL A   1      40.174  36.284  37.348  1.00  0.00     0.001 A 
ATOM     84  C   UNL A   1      39.404  35.884  38.440  1.00  0.00     0.000 A 
ENDBRANCH  65  79
BRANCH  66  85
ATOM     85  C   UNL A   1      40.677  28.183  28.312  1.00  0.00    -0.014 A 
ATOM     86  C   UNL A   1      41.284  28.606  27.120  1.00  0.00     0.009 A 
ATOM     87  C   UNL A   1      40.158  26.879  28.379  1.00  0.00     0.009 A 
ATOM     88  C   UNL A   1      41.343  27.755  26.013  1.00  0.00     0.001 A 
ATOM     89  C   UNL A   1      40.249  26.019  27.283  1.00  0.00     0.001 A 
ATOM     90  C   UNL A   1      40.831  26.462  26.097  1.00  0.00     0.000 A 
ENDBRANCH  66  85
BRANCH  78  91
ATOM     91  C   UNL A   1      36.138  33.228  29.906  1.00  0.00    -0.014 A 
ATOM     92  C   UNL A   1      34.833  33.156  30.415  1.00  0.00     0.009 A 
ATOM     93  C   UNL A   1      36.357  33.907  28.695  1.00  0.00     0.009 A 
ATOM     94  C   UNL A   1      33.766  33.718  29.708  1.00  0.00     0.001 A 
ATOM     95  C   UNL A   1      35.295  34.499  28.009  1.00  0.00     0.001 A 
ATOM     96  C   UNL A   1      33.999  34.394  28.511  1.00  0.00     0.000 A 
ENDBRANCH  78  91
ENDBRANCH  52  53
ENDBRANCH  45  47
ENDBRANCH  44  45
ENDBRANCH  43  44
ENDBRANCH  42  43
ENDBRANCH  41  42
ENDBRANCH  40  41
ENDBRANCH  39  40
ENDBRANCH  38  39
ENDBRANCH  37  38
ENDBRANCH  36  37
ENDBRANCH   1  36
TORSDOF 28
ENDMDL
MODEL 3
REMARK VINA RESULT:      -7.7      1.506      5.456
REMARK SMILES C[C@@H](C(=O)OCCOCCOCCOCCOC(=O)c1ccc(-c2c3nc(c(-c4ccccc4)c4ccc([nH]4)c(-c4ccccc4)c4nc(c(-c5ccccc5)c5ccc2[nH]5)C=C4)C=C3)cc1)c1ccc(-c2cccc(OC(=O)NCCCc3ccccc3)c2)c(F)c1
REMARK SMILES IDX 8 1 7 2 6 3 5 4 3 5 4 6 2 7 1 8 68 9 69 10 93 11 70 12 91 13
REMARK SMILES IDX 71 14 92 15 72 16 73 17 90 18 74 19 76 20 75 21 77 22 78 23
REMARK SMILES IDX 79 24 80 25 81 27 82 28 83 29 84 30 85 31 89 32 86 33 88 34
REMARK SMILES IDX 87 35 9 36 10 37 11 38 12 39 13 40 14 41 15 42 16 43 17 44
REMARK SMILES IDX 18 45 19 46 20 47 21 48 67 49 22 50 66 51 23 52 24 53 25 54
REMARK SMILES IDX 60 55 26 56 65 57 59 58 61 59 27 60 64 61 58 62 57 63 28 65
REMARK SMILES IDX 50 66 35 67 49 68 36 69 39 70 48 71 62 72 37 73 38 74 47 76
REMARK SMILES IDX 63 77 40 78 29 79 30 80 34 81 31 82 33 83 32 84 51 85 52 86
REMARK SMILES IDX 56 87 53 88 55 89 54 90 41 91 42 92 46 93 43 94 45 95 44 96
REMARK H PARENT 80 26 61 64 39 75
REMARK Flexibility Score: inf
ROOT
ATOM      1  O   UNL A   1      37.512  33.176  34.404  1.00  0.00    -0.376 OA
ENDROOT
BRANCH   1   2
ATOM      2  C   UNL A   1      36.690  32.361  33.584  1.00  0.00     0.202 C 
BRANCH   2   3
ATOM      3  C   UNL A   1      36.934  32.058  32.090  1.00  0.00     0.261 C 
BRANCH   3   4
ATOM      4  O   UNL A   1      36.495  33.044  31.153  1.00  0.00    -0.463 OA
BRANCH   4   5
ATOM      5  C   UNL A   1      35.287  32.880  30.565  1.00  0.00     0.313 C 
ATOM      6  O   UNL A   1      34.246  32.665  31.178  1.00  0.00    -0.252 OA
BRANCH   5   7
ATOM      7  C   UNL A   1      35.340  33.103  29.047  1.00  0.00     0.126 C 
ATOM      8  C   UNL A   1      34.823  34.498  28.643  1.00  0.00     0.025 C 
BRANCH   7   9
ATOM      9  C   UNL A   1      34.795  31.923  28.231  1.00  0.00    -0.031 A 
ATOM     10  C   UNL A   1      33.456  31.904  27.796  1.00  0.00     0.005 A 
ATOM     11  C   UNL A   1      35.563  30.778  27.974  1.00  0.00     0.044 A 
ATOM     12  C   UNL A   1      32.902  30.789  27.154  1.00  0.00     0.012 A 
ATOM     13  C   UNL A   1      35.000  29.661  27.346  1.00  0.00     0.131 A 
ATOM     14  C   UNL A   1      33.654  29.627  26.959  1.00  0.00     0.018 A 
ATOM     15  F   UNL A   1      35.776  28.578  27.178  1.00  0.00    -0.206 F 
BRANCH  14  16
ATOM     16  C   UNL A   1      32.983  28.376  26.575  1.00  0.00    -0.012 A 
ATOM     17  C   UNL A   1      31.609  28.151  26.752  1.00  0.00     0.009 A 
ATOM     18  C   UNL A   1      33.779  27.310  26.122  1.00  0.00     0.056 A 
ATOM     19  C   UNL A   1      31.055  26.891  26.497  1.00  0.00     0.004 A 
ATOM     20  C   UNL A   1      33.235  26.052  25.899  1.00  0.00     0.133 A 
ATOM     21  C   UNL A   1      31.870  25.837  26.078  1.00  0.00     0.047 A 
BRANCH  20  22
ATOM     22  O   UNL A   1      33.992  24.936  25.480  1.00  0.00    -0.410 OA
BRANCH  22  23
ATOM     23  C   UNL A   1      33.875  23.645  25.991  1.00  0.00     0.412 C 
ATOM     24  O   UNL A   1      34.201  23.263  27.113  1.00  0.00    -0.224 OA
ATOM     25  N   UNL A   1      33.317  22.766  25.110  1.00  0.00    -0.321 N 
ATOM     26  H   UNL A   1      33.321  21.814  25.363  1.00  0.00     0.167 HD
BRANCH  25  27
ATOM     27  C   UNL A   1      32.722  23.111  23.842  1.00  0.00     0.120 C 
BRANCH  27  28
ATOM     28  C   UNL A   1      33.659  23.857  22.895  1.00  0.00     0.026 C 
BRANCH  28  29
ATOM     29  C   UNL A   1      33.048  24.844  21.890  1.00  0.00     0.037 C 
BRANCH  29  30
ATOM     30  C   UNL A   1      32.620  26.228  22.326  1.00  0.00    -0.048 A 
ATOM     31  C   UNL A   1      31.301  26.608  22.593  1.00  0.00     0.004 A 
ATOM     32  C   UNL A   1      33.616  27.218  22.401  1.00  0.00     0.004 A 
ATOM     33  C   UNL A   1      30.984  27.933  22.909  1.00  0.00     0.000 A 
ATOM     34  C   UNL A   1      33.302  28.539  22.729  1.00  0.00     0.000 A 
ATOM     35  C   UNL A   1      31.982  28.898  22.975  1.00  0.00     0.000 A 
ENDBRANCH  29  30
ENDBRANCH  28  29
ENDBRANCH  27  28
ENDBRANCH  25  27
ENDBRANCH  22  23
ENDBRANCH  20  22
ENDBRANCH  14  16
ENDBRANCH   7   9
ENDBRANCH   5   7
ENDBRANCH   4   5
ENDBRANCH   3   4
ENDBRANCH   2   3
ENDBRANCH   1   2
BRANCH   1  36
ATOM     36  C   UNL A   1      37.001  33.756  35.586  1.00  0.00     0.188 C 
BRANCH  36  37
ATOM     37  C   UNL A   1      37.802  33.440  36.858  1.00  0.00     0.188 C 
BRANCH  37  38
ATOM     38  O   UNL A   1      37.105  32.749  37.881  1.00  0.00    -0.377 OA
BRANCH  38  39
ATOM     39  C   UNL A   1      37.695  32.645  39.174  1.00  0.00     0.188 C 
BRANCH  39  40
ATOM     40  C   UNL A   1      39.084  33.240  39.498  1.00  0.00     0.188 C 
BRANCH  40  41
ATOM     41  O   UNL A   1      40.140  32.299  39.593  1.00  0.00    -0.376 OA
BRANCH  41  42
ATOM     42  C   UNL A   1      41.314  32.519  38.828  1.00  0.00     0.202 C 
BRANCH  42  43
ATOM     43  C   UNL A   1      42.627  32.749  39.595  1.00  0.00     0.261 C 
BRANCH  43  44
ATOM     44  O   UNL A   1      43.336  31.570  40.008  1.00  0.00    -0.460 OA
BRANCH  44  45
ATOM     45  C   UNL A   1      44.379  31.726  40.852  1.00  0.00     0.338 C 
ATOM     46  O   UNL A   1      44.427  32.421  41.847  1.00  0.00    -0.246 OA
BRANCH  45  47
ATOM     47  C   UNL A   1      45.415  30.743  40.467  1.00  0.00     0.060 A 
ATOM     48  C   UNL A   1      46.401  31.122  39.546  1.00  0.00     0.016 A 
ATOM     49  C   UNL A   1      45.412  29.458  41.014  1.00  0.00     0.016 A 
ATOM     50  C   UNL A   1      47.365  30.200  39.137  1.00  0.00     0.010 A 
ATOM     51  C   UNL A   1      46.364  28.530  40.585  1.00  0.00     0.010 A 
ATOM     52  C   UNL A   1      47.322  28.886  39.617  1.00  0.00    -0.014 A 
BRANCH  52  53
ATOM     53  C   UNL A   1      48.134  27.836  38.959  1.00  0.00     0.031 A 
ATOM     54  C   UNL A   1      47.455  26.921  37.976  1.00  0.00     0.074 A 
ATOM     55  C   UNL A   1      49.451  27.705  39.203  1.00  0.00     0.049 A 
ATOM     56  N   UNL A   1      47.940  25.900  37.317  1.00  0.00    -0.248 NA
ATOM     57  C   UNL A   1      46.036  27.196  37.701  1.00  0.00     0.031 C 
ATOM     58  C   UNL A   1      50.237  28.559  40.090  1.00  0.00     0.029 A 
ATOM     59  N   UNL A   1      50.355  26.790  38.724  1.00  0.00    -0.354 N 
ATOM     60  C   UNL A   1      46.885  25.407  36.559  1.00  0.00     0.074 A 
ATOM     61  C   UNL A   1      45.727  26.218  36.864  1.00  0.00     0.031 C 
ATOM     62  C   UNL A   1      51.509  28.119  40.100  1.00  0.00     0.029 A 
ATOM     63  C   UNL A   1      51.614  26.931  39.253  1.00  0.00     0.049 A 
ATOM     64  H   UNL A   1      50.122  26.097  38.063  1.00  0.00     0.167 HD
ATOM     65  C   UNL A   1      46.879  24.376  35.682  1.00  0.00     0.031 A 
ATOM     66  C   UNL A   1      52.716  26.172  39.093  1.00  0.00     0.031 A 
ATOM     67  C   UNL A   1      48.025  23.555  35.395  1.00  0.00     0.049 A 
ATOM     68  C   UNL A   1      52.660  24.969  38.186  1.00  0.00     0.074 A 
ATOM     69  C   UNL A   1      48.122  22.488  34.519  1.00  0.00     0.029 A 
ATOM     70  N   UNL A   1      49.270  23.706  35.984  1.00  0.00    -0.354 N 
ATOM     71  N   UNL A   1      51.663  24.523  37.459  1.00  0.00    -0.248 NA
ATOM     72  C   UNL A   1      53.889  24.169  38.071  1.00  0.00     0.031 C 
ATOM     73  C   UNL A   1      49.409  21.951  34.630  1.00  0.00     0.029 A 
ATOM     74  C   UNL A   1      50.134  22.731  35.515  1.00  0.00     0.049 A 
ATOM     75  H   UNL A   1      49.505  24.402  36.640  1.00  0.00     0.167 HD
ATOM     76  C   UNL A   1      52.153  23.414  36.779  1.00  0.00     0.074 A 
ATOM     77  C   UNL A   1      53.541  23.266  37.165  1.00  0.00     0.031 C 
ATOM     78  C   UNL A   1      51.514  22.595  35.908  1.00  0.00     0.031 A 
BRANCH  65  79
ATOM     79  C   UNL A   1      45.577  24.053  35.003  1.00  0.00    -0.014 A 
ATOM     80  C   UNL A   1      45.225  24.639  33.776  1.00  0.00     0.009 A 
ATOM     81  C   UNL A   1      44.700  23.126  35.588  1.00  0.00     0.009 A 
ATOM     82  C   UNL A   1      44.005  24.331  33.170  1.00  0.00     0.001 A 
ATOM     83  C   UNL A   1      43.497  22.795  34.962  1.00  0.00     0.001 A 
ATOM     84  C   UNL A   1      43.145  23.405  33.759  1.00  0.00     0.000 A 
ENDBRANCH  65  79
BRANCH  66  85
ATOM     85  C   UNL A   1      53.964  26.501  39.833  1.00  0.00    -0.014 A 
ATOM     86  C   UNL A   1      54.940  27.336  39.266  1.00  0.00     0.009 A 
ATOM     87  C   UNL A   1      54.203  25.951  41.103  1.00  0.00     0.009 A 
ATOM     88  C   UNL A   1      56.137  27.588  39.941  1.00  0.00     0.001 A 
ATOM     89  C   UNL A   1      55.384  26.233  41.791  1.00  0.00     0.001 A 
ATOM     90  C   UNL A   1      56.356  27.042  41.204  1.00  0.00     0.000 A 
ENDBRANCH  66  85
BRANCH  78  91
ATOM     91  C   UNL A   1      52.317  21.489  35.276  1.00  0.00    -0.014 A 
ATOM     92  C   UNL A   1      52.822  21.597  33.972  1.00  0.00     0.009 A 
ATOM     93  C   UNL A   1      52.612  20.337  36.024  1.00  0.00     0.009 A 
ATOM     94  C   UNL A   1      53.573  20.558  33.416  1.00  0.00     0.001 A 
ATOM     95  C   UNL A   1      53.392  19.316  35.479  1.00  0.00     0.001 A 
ATOM     96  C   UNL A   1      53.862  19.423  34.172  1.00  0.00     0.000 A 
ENDBRANCH  78  91
ENDBRANCH  52  53
ENDBRANCH  45  47
ENDBRANCH  44  45
ENDBRANCH  43  44
ENDBRANCH  42  43
ENDBRANCH  41  42
ENDBRANCH  40  41
ENDBRANCH  39  40
ENDBRANCH  38  39
ENDBRANCH  37  38
ENDBRANCH  36  37
ENDBRANCH   1  36
TORSDOF 28
ENDMDL
