MODEL 1
REMARK VINA RESULT:      -9.2      0.000      0.000
REMARK SMILES O=C(CNC(=O)c1ccco1)Nc1cccc(C(=O)OCCOCCOCCOCCOC(=O)c2ccc(-c3c4nc(c(-c5ccccc5)c5ccc([nH]5)c(-c5ccccc5)c5nc(c(-c6ccccc6)c6ccc3[nH]6)C=C5)C=C4)cc2)c1
REMARK SMILES IDX 25 1 24 2 23 3 22 4 21 5 20 6 18 7 19 8 17 9 13 10 14 11
REMARK SMILES IDX 83 12 15 13 16 14 12 15 1 16 2 17 3 19 4 20 5 21 6 23 7 24
REMARK SMILES IDX 8 25 11 26 9 27 10 28 26 29 27 30 28 31 29 32 30 33 31 34
REMARK SMILES IDX 32 35 33 36 34 37 35 38 36 39 82 40 37 41 81 42 38 43 39 44
REMARK SMILES IDX 40 45 75 46 41 47 80 48 74 49 76 50 42 51 79 52 73 53 72 54
REMARK SMILES IDX 43 56 65 57 50 58 64 59 51 60 54 61 63 62 77 63 52 64 53 65
REMARK SMILES IDX 62 67 78 68 55 69 44 70 45 71 49 72 46 73 48 74 47 75 66 76
REMARK SMILES IDX 67 77 71 78 68 79 70 80 69 81 56 82 57 83 61 84 58 85 60 86
REMARK SMILES IDX 59 87
REMARK H PARENT 12 18 4 22 76 55 54 66
REMARK Flexibility Score: inf
ROOT
ATOM      1  C   UNL A   1      34.494  23.379  26.457  1.00  0.00     0.188 C 
ENDROOT
BRANCH   1   2
ATOM      2  C   UNL A   1      35.892  23.044  25.885  1.00  0.00     0.188 C 
BRANCH   2   3
ATOM      3  O   UNL A   1      35.894  22.034  24.892  1.00  0.00    -0.376 OA
BRANCH   3   4
ATOM      4  C   UNL A   1      36.016  20.684  25.294  1.00  0.00     0.202 C 
BRANCH   4   5
ATOM      5  C   UNL A   1      34.892  19.729  24.877  1.00  0.00     0.261 C 
BRANCH   5   6
ATOM      6  O   UNL A   1      33.800  20.336  24.179  1.00  0.00    -0.460 OA
BRANCH   6   7
ATOM      7  C   UNL A   1      32.548  20.093  24.631  1.00  0.00     0.338 C 
ATOM      8  O   UNL A   1      32.109  19.034  25.040  1.00  0.00    -0.246 OA
BRANCH   7   9
ATOM      9  C   UNL A   1      31.869  21.405  24.748  1.00  0.00     0.062 A 
ATOM     10  C   UNL A   1      31.448  23.622  23.853  1.00  0.00     0.042 A 
ATOM     11  C   UNL A   1      30.819  23.967  25.056  1.00  0.00     0.026 A 
ATOM     12  C   UNL A   1      32.006  22.351  23.728  1.00  0.00     0.041 A 
ATOM     13  C   UNL A   1      30.681  23.023  26.083  1.00  0.00     0.003 A 
ATOM     14  C   UNL A   1      31.184  21.731  25.921  1.00  0.00     0.016 A 
BRANCH  10  15
ATOM     15  N   UNL A   1      31.497  24.578  22.816  1.00  0.00    -0.325 N 
ATOM     16  O   UNL A   1      33.636  24.179  21.967  1.00  0.00    -0.273 OA
ATOM     17  C   UNL A   1      32.572  24.792  21.965  1.00  0.00     0.243 C 
ATOM     18  H   UNL A   1      30.699  25.141  22.685  1.00  0.00     0.169 HD
BRANCH  17  19
ATOM     19  C   UNL A   1      32.415  26.017  21.072  1.00  0.00     0.216 C 
BRANCH  19  20
ATOM     20  N   UNL A   1      33.105  27.183  21.599  1.00  0.00    -0.340 N 
ATOM     21  C   UNL A   1      32.602  28.240  22.316  1.00  0.00     0.287 C 
ATOM     22  H   UNL A   1      34.072  27.220  21.414  1.00  0.00     0.164 HD
ATOM     23  O   UNL A   1      33.367  29.177  22.541  1.00  0.00    -0.266 OA
BRANCH  21  24
ATOM     24  C   UNL A   1      31.215  28.216  22.722  1.00  0.00     0.191 A 
ATOM     25  C   UNL A   1      30.540  27.609  23.769  1.00  0.00     0.056 A 
ATOM     26  O   UNL A   1      30.318  28.912  21.957  1.00  0.00    -0.459 OA
ATOM     27  C   UNL A   1      29.166  27.903  23.596  1.00  0.00     0.043 A 
ATOM     28  C   UNL A   1      29.086  28.708  22.485  1.00  0.00     0.196 A 
ENDBRANCH  21  24
ENDBRANCH  19  20
ENDBRANCH  17  19
ENDBRANCH  10  15
ENDBRANCH   7   9
ENDBRANCH   6   7
ENDBRANCH   5   6
ENDBRANCH   4   5
ENDBRANCH   3   4
ENDBRANCH   2   3
ENDBRANCH   1   2
BRANCH   1  29
ATOM     29  O   UNL A   1      33.947  24.689  26.345  1.00  0.00    -0.377 OA
BRANCH  29  30
ATOM     30  C   UNL A   1      34.275  25.505  25.227  1.00  0.00     0.188 C 
BRANCH  30  31
ATOM     31  C   UNL A   1      33.955  27.016  25.251  1.00  0.00     0.188 C 
BRANCH  31  32
ATOM     32  O   UNL A   1      33.339  27.457  26.450  1.00  0.00    -0.376 OA
BRANCH  32  33
ATOM     33  C   UNL A   1      32.652  28.693  26.422  1.00  0.00     0.202 C 
BRANCH  33  34
ATOM     34  C   UNL A   1      33.048  29.750  27.463  1.00  0.00     0.261 C 
BRANCH  34  35
ATOM     35  O   UNL A   1      34.247  30.492  27.198  1.00  0.00    -0.460 OA
BRANCH  35  36
ATOM     36  C   UNL A   1      34.853  31.105  28.236  1.00  0.00     0.338 C 
ATOM     37  O   UNL A   1      34.401  31.988  28.946  1.00  0.00    -0.246 OA
BRANCH  36  38
ATOM     38  C   UNL A   1      36.121  30.388  28.475  1.00  0.00     0.060 A 
ATOM     39  C   UNL A   1      36.320  29.706  29.685  1.00  0.00     0.016 A 
ATOM     40  C   UNL A   1      37.097  30.362  27.478  1.00  0.00     0.016 A 
ATOM     41  C   UNL A   1      37.509  29.006  29.904  1.00  0.00     0.010 A 
ATOM     42  C   UNL A   1      38.294  29.684  27.708  1.00  0.00     0.010 A 
ATOM     43  C   UNL A   1      38.516  29.025  28.931  1.00  0.00    -0.014 A 
BRANCH  43  44
ATOM     44  C   UNL A   1      39.878  28.533  29.241  1.00  0.00     0.031 A 
ATOM     45  C   UNL A   1      40.821  29.467  29.944  1.00  0.00     0.074 A 
ATOM     46  C   UNL A   1      40.284  27.304  28.879  1.00  0.00     0.049 A 
ATOM     47  N   UNL A   1      42.094  29.323  30.206  1.00  0.00    -0.248 NA
ATOM     48  C   UNL A   1      40.249  30.742  30.407  1.00  0.00     0.031 C 
ATOM     49  C   UNL A   1      39.451  26.287  28.242  1.00  0.00     0.029 A 
ATOM     50  N   UNL A   1      41.518  26.714  28.984  1.00  0.00    -0.354 N 
ATOM     51  C   UNL A   1      42.478  30.494  30.847  1.00  0.00     0.074 A 
ATOM     52  C   UNL A   1      41.313  31.348  30.911  1.00  0.00     0.031 C 
ATOM     53  C   UNL A   1      40.204  25.200  27.997  1.00  0.00     0.029 A 
ATOM     54  C   UNL A   1      41.580  25.464  28.417  1.00  0.00     0.049 A 
ATOM     55  H   UNL A   1      42.287  27.145  29.423  1.00  0.00     0.167 HD
ATOM     56  C   UNL A   1      43.694  30.829  31.338  1.00  0.00     0.031 A 
ATOM     57  C   UNL A   1      42.633  24.645  28.231  1.00  0.00     0.031 A 
ATOM     58  C   UNL A   1      44.857  29.987  31.251  1.00  0.00     0.049 A 
ATOM     59  C   UNL A   1      44.000  25.082  28.696  1.00  0.00     0.074 A 
ATOM     60  C   UNL A   1      46.134  30.230  31.725  1.00  0.00     0.029 A 
ATOM     61  N   UNL A   1      44.884  28.744  30.640  1.00  0.00    -0.354 N 
ATOM     62  N   UNL A   1      44.352  26.182  29.316  1.00  0.00    -0.248 NA
ATOM     63  C   UNL A   1      45.115  24.158  28.435  1.00  0.00     0.031 C 
ATOM     64  C   UNL A   1      46.949  29.162  31.342  1.00  0.00     0.029 A 
ATOM     65  C   UNL A   1      46.163  28.220  30.696  1.00  0.00     0.049 A 
ATOM     66  H   UNL A   1      44.108  28.298  30.228  1.00  0.00     0.167 HD
ATOM     67  C   UNL A   1      45.718  26.066  29.552  1.00  0.00     0.074 A 
ATOM     68  C   UNL A   1      46.128  24.785  29.016  1.00  0.00     0.031 C 
ATOM     69  C   UNL A   1      46.555  26.939  30.165  1.00  0.00     0.031 A 
BRANCH  56  70
ATOM     70  C   UNL A   1      43.834  32.185  31.971  1.00  0.00    -0.014 A 
ATOM     71  C   UNL A   1      43.661  32.371  33.351  1.00  0.00     0.009 A 
ATOM     72  C   UNL A   1      44.168  33.291  31.173  1.00  0.00     0.009 A 
ATOM     73  C   UNL A   1      43.781  33.644  33.913  1.00  0.00     0.001 A 
ATOM     74  C   UNL A   1      44.321  34.556  31.743  1.00  0.00     0.001 A 
ATOM     75  C   UNL A   1      44.117  34.734  33.109  1.00  0.00     0.000 A 
ENDBRANCH  56  70
BRANCH  57  76
ATOM     76  C   UNL A   1      42.454  23.336  27.546  1.00  0.00    -0.014 A 
ATOM     77  C   UNL A   1      42.564  23.238  26.150  1.00  0.00     0.009 A 
ATOM     78  C   UNL A   1      42.143  22.181  28.282  1.00  0.00     0.009 A 
ATOM     79  C   UNL A   1      42.339  22.019  25.505  1.00  0.00     0.001 A 
ATOM     80  C   UNL A   1      41.951  20.957  27.637  1.00  0.00     0.001 A 
ATOM     81  C   UNL A   1      42.038  20.880  26.249  1.00  0.00     0.000 A 
ENDBRANCH  57  76
BRANCH  69  82
ATOM     82  C   UNL A   1      47.990  26.524  30.342  1.00  0.00    -0.014 A 
ATOM     83  C   UNL A   1      48.949  26.743  29.340  1.00  0.00     0.009 A 
ATOM     84  C   UNL A   1      48.400  25.961  31.562  1.00  0.00     0.009 A 
ATOM     85  C   UNL A   1      50.282  26.383  29.548  1.00  0.00     0.001 A 
ATOM     86  C   UNL A   1      49.738  25.632  31.779  1.00  0.00     0.001 A 
ATOM     87  C   UNL A   1      50.677  25.834  30.769  1.00  0.00     0.000 A 
ENDBRANCH  69  82
ENDBRANCH  43  44
ENDBRANCH  36  38
ENDBRANCH  35  36
ENDBRANCH  34  35
ENDBRANCH  33  34
ENDBRANCH  32  33
ENDBRANCH  31  32
ENDBRANCH  30  31
ENDBRANCH  29  30
ENDBRANCH   1  29
TORSDOF 24
ENDMDL
MODEL 2
REMARK VINA RESULT:      -8.7      3.497      8.120
REMARK SMILES O=C(CNC(=O)c1ccco1)Nc1cccc(C(=O)OCCOCCOCCOCCOC(=O)c2ccc(-c3c4nc(c(-c5ccccc5)c5ccc([nH]5)c(-c5ccccc5)c5nc(c(-c6ccccc6)c6ccc3[nH]6)C=C5)C=C4)cc2)c1
REMARK SMILES IDX 25 1 24 2 23 3 22 4 21 5 20 6 18 7 19 8 17 9 13 10 14 11
REMARK SMILES IDX 83 12 15 13 16 14 12 15 1 16 2 17 3 19 4 20 5 21 6 23 7 24
REMARK SMILES IDX 8 25 11 26 9 27 10 28 26 29 27 30 28 31 29 32 30 33 31 34
REMARK SMILES IDX 32 35 33 36 34 37 35 38 36 39 82 40 37 41 81 42 38 43 39 44
REMARK SMILES IDX 40 45 75 46 41 47 80 48 74 49 76 50 42 51 79 52 73 53 72 54
REMARK SMILES IDX 43 56 65 57 50 58 64 59 51 60 54 61 63 62 77 63 52 64 53 65
REMARK SMILES IDX 62 67 78 68 55 69 44 70 45 71 49 72 46 73 48 74 47 75 66 76
REMARK SMILES IDX 67 77 71 78 68 79 70 80 69 81 56 82 57 83 61 84 58 85 60 86
REMARK SMILES IDX 59 87
REMARK H PARENT 12 18 4 22 76 55 54 66
REMARK Flexibility Score: inf
ROOT
ATOM      1  C   UNL A   1      37.315  22.341  25.563  1.00  0.00     0.188 C 
ENDROOT
BRANCH   1   2
ATOM      2  C   UNL A   1      36.684  21.006  25.100  1.00  0.00     0.188 C 
BRANCH   2   3
ATOM      3  O   UNL A   1      35.361  20.793  25.559  1.00  0.00    -0.376 OA
BRANCH   3   4
ATOM      4  C   UNL A   1      34.520  19.919  24.831  1.00  0.00     0.202 C 
BRANCH   4   5
ATOM      5  C   UNL A   1      33.245  20.520  24.231  1.00  0.00     0.261 C 
BRANCH   5   6
ATOM      6  O   UNL A   1      33.323  21.908  23.890  1.00  0.00    -0.460 OA
BRANCH   6   7
ATOM      7  C   UNL A   1      32.198  22.651  24.004  1.00  0.00     0.338 C 
ATOM      8  O   UNL A   1      31.331  22.542  24.853  1.00  0.00    -0.246 OA
BRANCH   7   9
ATOM      9  C   UNL A   1      32.318  23.768  23.039  1.00  0.00     0.062 A 
ATOM     10  C   UNL A   1      31.591  25.957  22.280  1.00  0.00     0.042 A 
ATOM     11  C   UNL A   1      32.333  25.774  21.106  1.00  0.00     0.026 A 
ATOM     12  C   UNL A   1      31.559  24.928  23.220  1.00  0.00     0.041 A 
ATOM     13  C   UNL A   1      33.095  24.613  20.919  1.00  0.00     0.003 A 
ATOM     14  C   UNL A   1      33.110  23.618  21.898  1.00  0.00     0.016 A 
BRANCH  10  15
ATOM     15  N   UNL A   1      30.901  27.174  22.464  1.00  0.00    -0.325 N 
ATOM     16  O   UNL A   1      32.624  28.525  23.278  1.00  0.00    -0.273 OA
ATOM     17  C   UNL A   1      31.453  28.350  22.950  1.00  0.00     0.243 C 
ATOM     18  H   UNL A   1      29.945  27.189  22.228  1.00  0.00     0.169 HD
BRANCH  17  19
ATOM     19  C   UNL A   1      30.428  29.444  23.225  1.00  0.00     0.216 C 
BRANCH  19  20
ATOM     20  N   UNL A   1      29.077  28.922  23.347  1.00  0.00    -0.340 N 
ATOM     21  C   UNL A   1      27.899  29.442  22.871  1.00  0.00     0.287 C 
ATOM     22  H   UNL A   1      28.994  28.075  23.843  1.00  0.00     0.164 HD
ATOM     23  O   UNL A   1      26.860  28.879  23.215  1.00  0.00    -0.266 OA
BRANCH  21  24
ATOM     24  C   UNL A   1      27.937  30.627  22.044  1.00  0.00     0.191 A 
ATOM     25  C   UNL A   1      27.959  31.983  22.325  1.00  0.00     0.056 A 
ATOM     26  O   UNL A   1      27.949  30.452  20.686  1.00  0.00    -0.459 OA
ATOM     27  C   UNL A   1      27.925  32.660  21.082  1.00  0.00     0.043 A 
ATOM     28  C   UNL A   1      27.930  31.682  20.117  1.00  0.00     0.196 A 
ENDBRANCH  21  24
ENDBRANCH  19  20
ENDBRANCH  17  19
ENDBRANCH  10  15
ENDBRANCH   7   9
ENDBRANCH   6   7
ENDBRANCH   5   6
ENDBRANCH   4   5
ENDBRANCH   3   4
ENDBRANCH   2   3
ENDBRANCH   1   2
BRANCH   1  29
ATOM     29  O   UNL A   1      38.666  22.402  26.006  1.00  0.00    -0.377 OA
BRANCH  29  30
ATOM     30  C   UNL A   1      39.467  21.226  26.013  1.00  0.00     0.188 C 
BRANCH  30  31
ATOM     31  C   UNL A   1      40.716  21.145  26.920  1.00  0.00     0.188 C 
BRANCH  31  32
ATOM     32  O   UNL A   1      41.774  22.002  26.524  1.00  0.00    -0.376 OA
BRANCH  32  33
ATOM     33  C   UNL A   1      42.923  21.410  25.950  1.00  0.00     0.202 C 
BRANCH  33  34
ATOM     34  C   UNL A   1      44.220  22.229  25.948  1.00  0.00     0.261 C 
BRANCH  34  35
ATOM     35  O   UNL A   1      44.193  23.475  26.659  1.00  0.00    -0.460 OA
BRANCH  35  36
ATOM     36  C   UNL A   1      43.741  24.566  26.006  1.00  0.00     0.338 C 
ATOM     37  O   UNL A   1      43.651  24.726  24.799  1.00  0.00    -0.246 OA
BRANCH  36  38
ATOM     38  C   UNL A   1      43.204  25.486  27.028  1.00  0.00     0.060 A 
ATOM     39  C   UNL A   1      43.894  26.668  27.334  1.00  0.00     0.016 A 
ATOM     40  C   UNL A   1      41.993  25.189  27.653  1.00  0.00     0.016 A 
ATOM     41  C   UNL A   1      43.376  27.552  28.283  1.00  0.00     0.010 A 
ATOM     42  C   UNL A   1      41.489  26.061  28.618  1.00  0.00     0.010 A 
ATOM     43  C   UNL A   1      42.190  27.232  28.956  1.00  0.00    -0.014 A 
BRANCH  43  44
ATOM     44  C   UNL A   1      41.766  28.002  30.149  1.00  0.00     0.031 A 
ATOM     45  C   UNL A   1      40.600  28.938  30.005  1.00  0.00     0.074 A 
ATOM     46  C   UNL A   1      42.417  27.903  31.320  1.00  0.00     0.049 A 
ATOM     47  N   UNL A   1      40.124  29.812  30.853  1.00  0.00    -0.248 NA
ATOM     48  C   UNL A   1      39.878  28.886  28.723  1.00  0.00     0.031 C 
ATOM     49  C   UNL A   1      43.526  26.995  31.603  1.00  0.00     0.029 A 
ATOM     50  N   UNL A   1      42.242  28.599  32.490  1.00  0.00    -0.354 N 
ATOM     51  C   UNL A   1      39.061  30.423  30.202  1.00  0.00     0.074 A 
ATOM     52  C   UNL A   1      38.977  29.842  28.881  1.00  0.00     0.031 C 
ATOM     53  C   UNL A   1      43.945  27.200  32.865  1.00  0.00     0.029 A 
ATOM     54  C   UNL A   1      43.165  28.286  33.459  1.00  0.00     0.049 A 
ATOM     55  H   UNL A   1      41.525  29.260  32.623  1.00  0.00     0.167 HD
ATOM     56  C   UNL A   1      38.229  31.385  30.664  1.00  0.00     0.031 A 
ATOM     57  C   UNL A   1      43.373  28.836  34.671  1.00  0.00     0.031 A 
ATOM     58  C   UNL A   1      38.329  31.978  31.970  1.00  0.00     0.049 A 
ATOM     59  C   UNL A   1      42.496  29.976  35.125  1.00  0.00     0.074 A 
ATOM     60  C   UNL A   1      37.529  32.954  32.537  1.00  0.00     0.029 A 
ATOM     61  N   UNL A   1      39.298  31.656  32.908  1.00  0.00    -0.354 N 
ATOM     62  N   UNL A   1      41.483  30.539  34.512  1.00  0.00    -0.248 NA
ATOM     63  C   UNL A   1      42.795  30.557  36.444  1.00  0.00     0.031 C 
ATOM     64  C   UNL A   1      38.054  33.270  33.794  1.00  0.00     0.029 A 
ATOM     65  C   UNL A   1      39.135  32.436  34.039  1.00  0.00     0.049 A 
ATOM     66  H   UNL A   1      39.996  30.972  32.788  1.00  0.00     0.167 HD
ATOM     67  C   UNL A   1      41.000  31.509  35.383  1.00  0.00     0.074 A 
ATOM     68  C   UNL A   1      41.827  31.454  36.570  1.00  0.00     0.031 C 
ATOM     69  C   UNL A   1      39.962  32.364  35.217  1.00  0.00     0.031 A 
BRANCH  56  70
ATOM     70  C   UNL A   1      37.165  31.887  29.727  1.00  0.00    -0.014 A 
ATOM     71  C   UNL A   1      35.925  31.240  29.612  1.00  0.00     0.009 A 
ATOM     72  C   UNL A   1      37.403  33.041  28.963  1.00  0.00     0.009 A 
ATOM     73  C   UNL A   1      34.959  31.717  28.724  1.00  0.00     0.001 A 
ATOM     74  C   UNL A   1      36.423  33.534  28.101  1.00  0.00     0.001 A 
ATOM     75  C   UNL A   1      35.207  32.866  27.973  1.00  0.00     0.000 A 
ENDBRANCH  56  70
BRANCH  57  76
ATOM     76  C   UNL A   1      44.477  28.343  35.539  1.00  0.00    -0.014 A 
ATOM     77  C   UNL A   1      44.358  27.125  36.225  1.00  0.00     0.009 A 
ATOM     78  C   UNL A   1      45.645  29.103  35.709  1.00  0.00     0.009 A 
ATOM     79  C   UNL A   1      45.372  26.693  37.084  1.00  0.00     0.001 A 
ATOM     80  C   UNL A   1      46.671  28.653  36.543  1.00  0.00     0.001 A 
ATOM     81  C   UNL A   1      46.529  27.454  37.238  1.00  0.00     0.000 A 
ENDBRANCH  57  76
BRANCH  69  82
ATOM     82  C   UNL A   1      39.618  33.277  36.363  1.00  0.00    -0.014 A 
ATOM     83  C   UNL A   1      38.770  32.865  37.403  1.00  0.00     0.009 A 
ATOM     84  C   UNL A   1      40.209  34.549  36.433  1.00  0.00     0.009 A 
ATOM     85  C   UNL A   1      38.501  33.719  38.474  1.00  0.00     0.001 A 
ATOM     86  C   UNL A   1      39.964  35.388  37.520  1.00  0.00     0.001 A 
ATOM     87  C   UNL A   1      39.103  34.977  38.536  1.00  0.00     0.000 A 
ENDBRANCH  69  82
ENDBRANCH  43  44
ENDBRANCH  36  38
ENDBRANCH  35  36
ENDBRANCH  34  35
ENDBRANCH  33  34
ENDBRANCH  32  33
ENDBRANCH  31  32
ENDBRANCH  30  31
ENDBRANCH  29  30
ENDBRANCH   1  29
TORSDOF 24
ENDMDL
MODEL 3
REMARK VINA RESULT:      -8.5      3.150      7.759
REMARK SMILES O=C(CNC(=O)c1ccco1)Nc1cccc(C(=O)OCCOCCOCCOCCOC(=O)c2ccc(-c3c4nc(c(-c5ccccc5)c5ccc([nH]5)c(-c5ccccc5)c5nc(c(-c6ccccc6)c6ccc3[nH]6)C=C5)C=C4)cc2)c1
REMARK SMILES IDX 25 1 24 2 23 3 22 4 21 5 20 6 18 7 19 8 17 9 13 10 14 11
REMARK SMILES IDX 83 12 15 13 16 14 12 15 1 16 2 17 3 19 4 20 5 21 6 23 7 24
REMARK SMILES IDX 8 25 11 26 9 27 10 28 26 29 27 30 28 31 29 32 30 33 31 34
REMARK SMILES IDX 32 35 33 36 34 37 35 38 36 39 82 40 37 41 81 42 38 43 39 44
REMARK SMILES IDX 40 45 75 46 41 47 80 48 74 49 76 50 42 51 79 52 73 53 72 54
REMARK SMILES IDX 43 56 65 57 50 58 64 59 51 60 54 61 63 62 77 63 52 64 53 65
REMARK SMILES IDX 62 67 78 68 55 69 44 70 45 71 49 72 46 73 48 74 47 75 66 76
REMARK SMILES IDX 67 77 71 78 68 79 70 80 69 81 56 82 57 83 61 84 58 85 60 86
REMARK SMILES IDX 59 87
REMARK H PARENT 12 18 4 22 76 55 54 66
REMARK Flexibility Score: inf
ROOT
ATOM      1  C   UNL A   1      37.202  21.949  25.622  1.00  0.00     0.188 C 
ENDROOT
BRANCH   1   2
ATOM      2  C   UNL A   1      36.483  20.717  25.021  1.00  0.00     0.188 C 
BRANCH   2   3
ATOM      3  O   UNL A   1      35.200  20.462  25.565  1.00  0.00    -0.376 OA
BRANCH   3   4
ATOM      4  C   UNL A   1      34.299  19.654  24.835  1.00  0.00     0.202 C 
BRANCH   4   5
ATOM      5  C   UNL A   1      33.087  20.353  24.209  1.00  0.00     0.261 C 
BRANCH   5   6
ATOM      6  O   UNL A   1      33.262  21.746  23.926  1.00  0.00    -0.460 OA
BRANCH   6   7
ATOM      7  C   UNL A   1      32.184  22.554  24.048  1.00  0.00     0.338 C 
ATOM      8  O   UNL A   1      31.337  22.519  24.922  1.00  0.00    -0.246 OA
BRANCH   7   9
ATOM      9  C   UNL A   1      32.339  23.635  23.047  1.00  0.00     0.062 A 
ATOM     10  C   UNL A   1      31.663  25.807  22.200  1.00  0.00     0.042 A 
ATOM     11  C   UNL A   1      32.421  25.571  21.046  1.00  0.00     0.026 A 
ATOM     12  C   UNL A   1      31.597  24.812  23.175  1.00  0.00     0.041 A 
ATOM     13  C   UNL A   1      33.166  24.392  20.913  1.00  0.00     0.003 A 
ATOM     14  C   UNL A   1      33.147  23.431  21.925  1.00  0.00     0.016 A 
BRANCH  10  15
ATOM     15  N   UNL A   1      30.991  27.041  22.329  1.00  0.00    -0.325 N 
ATOM     16  O   UNL A   1      32.456  28.181  23.747  1.00  0.00    -0.273 OA
ATOM     17  C   UNL A   1      31.422  28.120  23.088  1.00  0.00     0.243 C 
ATOM     18  H   UNL A   1      30.142  27.145  21.840  1.00  0.00     0.169 HD
BRANCH  17  19
ATOM     19  C   UNL A   1      30.398  29.244  23.197  1.00  0.00     0.216 C 
BRANCH  19  20
ATOM     20  N   UNL A   1      29.035  28.749  23.292  1.00  0.00    -0.340 N 
ATOM     21  C   UNL A   1      27.867  29.332  22.867  1.00  0.00     0.287 C 
ATOM     22  H   UNL A   1      28.935  27.869  23.724  1.00  0.00     0.164 HD
ATOM     23  O   UNL A   1      26.817  28.771  23.178  1.00  0.00    -0.266 OA
BRANCH  21  24
ATOM     24  C   UNL A   1      27.929  30.573  22.129  1.00  0.00     0.191 A 
ATOM     25  C   UNL A   1      27.974  31.905  22.509  1.00  0.00     0.056 A 
ATOM     26  O   UNL A   1      27.944  30.499  20.762  1.00  0.00    -0.459 OA
ATOM     27  C   UNL A   1      27.957  32.671  21.319  1.00  0.00     0.043 A 
ATOM     28  C   UNL A   1      27.949  31.767  20.285  1.00  0.00     0.196 A 
ENDBRANCH  21  24
ENDBRANCH  19  20
ENDBRANCH  17  19
ENDBRANCH  10  15
ENDBRANCH   7   9
ENDBRANCH   6   7
ENDBRANCH   5   6
ENDBRANCH   4   5
ENDBRANCH   3   4
ENDBRANCH   2   3
ENDBRANCH   1   2
BRANCH   1  29
ATOM     29  O   UNL A   1      38.579  21.896  25.979  1.00  0.00    -0.377 OA
BRANCH  29  30
ATOM     30  C   UNL A   1      39.388  20.813  25.537  1.00  0.00     0.188 C 
BRANCH  30  31
ATOM     31  C   UNL A   1      40.246  20.023  26.552  1.00  0.00     0.188 C 
BRANCH  31  32
ATOM     32  O   UNL A   1      41.580  20.488  26.665  1.00  0.00    -0.376 OA
BRANCH  32  33
ATOM     33  C   UNL A   1      42.561  19.884  25.844  1.00  0.00     0.202 C 
BRANCH  33  34
ATOM     34  C   UNL A   1      43.810  20.709  25.503  1.00  0.00     0.261 C 
BRANCH  34  35
ATOM     35  O   UNL A   1      43.940  21.977  26.160  1.00  0.00    -0.460 OA
BRANCH  35  36
ATOM     36  C   UNL A   1      43.424  23.063  25.546  1.00  0.00     0.338 C 
ATOM     37  O   UNL A   1      43.097  23.170  24.376  1.00  0.00    -0.246 OA
BRANCH  36  38
ATOM     38  C   UNL A   1      43.163  24.066  26.597  1.00  0.00     0.060 A 
ATOM     39  C   UNL A   1      42.441  23.703  27.744  1.00  0.00     0.016 A 
ATOM     40  C   UNL A   1      43.670  25.358  26.458  1.00  0.00     0.016 A 
ATOM     41  C   UNL A   1      42.213  24.643  28.751  1.00  0.00     0.010 A 
ATOM     42  C   UNL A   1      43.420  26.303  27.453  1.00  0.00     0.010 A 
ATOM     43  C   UNL A   1      42.670  25.958  28.591  1.00  0.00    -0.014 A 
BRANCH  43  44
ATOM     44  C   UNL A   1      42.211  27.034  29.499  1.00  0.00     0.031 A 
ATOM     45  C   UNL A   1      42.985  27.263  30.767  1.00  0.00     0.074 A 
ATOM     46  C   UNL A   1      41.118  27.767  29.229  1.00  0.00     0.049 A 
ATOM     47  N   UNL A   1      42.712  28.045  31.779  1.00  0.00    -0.248 NA
ATOM     48  C   UNL A   1      44.233  26.497  30.915  1.00  0.00     0.031 C 
ATOM     49  C   UNL A   1      40.314  27.679  28.012  1.00  0.00     0.029 A 
ATOM     50  N   UNL A   1      40.486  28.724  29.984  1.00  0.00    -0.354 N 
ATOM     51  C   UNL A   1      43.744  27.852  32.688  1.00  0.00     0.074 A 
ATOM     52  C   UNL A   1      44.632  26.861  32.123  1.00  0.00     0.031 C 
ATOM     53  C   UNL A   1      39.283  28.538  28.110  1.00  0.00     0.029 A 
ATOM     54  C   UNL A   1      39.330  29.198  29.414  1.00  0.00     0.049 A 
ATOM     55  H   UNL A   1      40.828  29.039  30.852  1.00  0.00     0.167 HD
ATOM     56  C   UNL A   1      43.933  28.446  33.889  1.00  0.00     0.031 A 
ATOM     57  C   UNL A   1      38.402  30.043  29.905  1.00  0.00     0.031 A 
ATOM     58  C   UNL A   1      43.035  29.414  34.459  1.00  0.00     0.049 A 
ATOM     59  C   UNL A   1      38.583  30.616  31.288  1.00  0.00     0.074 A 
ATOM     60  C   UNL A   1      43.141  30.082  35.666  1.00  0.00     0.029 A 
ATOM     61  N   UNL A   1      41.859  29.842  33.864  1.00  0.00    -0.354 N 
ATOM     62  N   UNL A   1      39.568  30.442  32.136  1.00  0.00    -0.248 NA
ATOM     63  C   UNL A   1      37.519  31.505  31.781  1.00  0.00     0.031 C 
ATOM     64  C   UNL A   1      41.996  30.865  35.832  1.00  0.00     0.029 A 
ATOM     65  C   UNL A   1      41.213  30.742  34.693  1.00  0.00     0.049 A 
ATOM     66  H   UNL A   1      41.532  29.550  32.982  1.00  0.00     0.167 HD
ATOM     67  C   UNL A   1      39.263  31.227  33.242  1.00  0.00     0.074 A 
ATOM     68  C   UNL A   1      38.005  31.885  32.955  1.00  0.00     0.031 C 
ATOM     69  C   UNL A   1      39.965  31.395  34.390  1.00  0.00     0.031 A 
BRANCH  56  70
ATOM     70  C   UNL A   1      45.138  28.027  34.685  1.00  0.00    -0.014 A 
ATOM     71  C   UNL A   1      46.369  28.689  34.555  1.00  0.00     0.009 A 
ATOM     72  C   UNL A   1      45.030  26.965  35.598  1.00  0.00     0.009 A 
ATOM     73  C   UNL A   1      47.477  28.271  35.294  1.00  0.00     0.001 A 
ATOM     74  C   UNL A   1      46.131  26.572  36.360  1.00  0.00     0.001 A 
ATOM     75  C   UNL A   1      47.356  27.217  36.200  1.00  0.00     0.000 A 
ENDBRANCH  56  70
BRANCH  57  76
ATOM     76  C   UNL A   1      37.196  30.382  29.101  1.00  0.00    -0.014 A 
ATOM     77  C   UNL A   1      36.283  29.384  28.725  1.00  0.00     0.009 A 
ATOM     78  C   UNL A   1      36.966  31.701  28.681  1.00  0.00     0.009 A 
ATOM     79  C   UNL A   1      35.183  29.696  27.923  1.00  0.00     0.001 A 
ATOM     80  C   UNL A   1      35.847  32.016  27.907  1.00  0.00     0.001 A 
ATOM     81  C   UNL A   1      34.963  31.011  27.518  1.00  0.00     0.000 A 
ENDBRANCH  57  76
BRANCH  69  82
ATOM     82  C   UNL A   1      39.425  32.366  35.404  1.00  0.00    -0.014 A 
ATOM     83  C   UNL A   1      38.080  32.339  35.805  1.00  0.00     0.009 A 
ATOM     84  C   UNL A   1      40.297  33.281  36.016  1.00  0.00     0.009 A 
ATOM     85  C   UNL A   1      37.616  33.227  36.778  1.00  0.00     0.001 A 
ATOM     86  C   UNL A   1      39.838  34.144  37.011  1.00  0.00     0.001 A 
ATOM     87  C   UNL A   1      38.496  34.123  37.385  1.00  0.00     0.000 A 
ENDBRANCH  69  82
ENDBRANCH  43  44
ENDBRANCH  36  38
ENDBRANCH  35  36
ENDBRANCH  34  35
ENDBRANCH  33  34
ENDBRANCH  32  33
ENDBRANCH  31  32
ENDBRANCH  30  31
ENDBRANCH  29  30
ENDBRANCH   1  29
TORSDOF 24
ENDMDL
