MODEL 1
REMARK VINA RESULT:      -9.9      0.000      0.000
REMARK SMILES Cc1ccc(C(=O)Nc2cccc(C(=O)OCCOCCOCCOCCOC(=O)c3ccc(-c4c5nc(c(-c6ccccc6)c6ccc([nH]6)c(-c6ccccc6)c6nc(c(-c7ccccc7)c7ccc4[nH]7)C=C6)C=C5)cc3)c2)cc1C
REMARK SMILES IDX 22 1 21 2 20 3 19 4 18 5 17 6 16 7 14 8 15 9 13 10 9 11
REMARK SMILES IDX 10 12 79 13 11 14 12 15 8 16 6 17 7 18 5 20 1 21 2 22 3 23
REMARK SMILES IDX 81 24 4 25 80 26 82 27 23 28 24 29 25 30 26 31 27 32 28 33
REMARK SMILES IDX 29 34 30 35 31 36 32 37 78 38 33 39 77 40 34 41 35 42 36 43
REMARK SMILES IDX 71 44 37 45 76 46 70 47 72 48 38 49 75 50 69 51 68 52 39 54
REMARK SMILES IDX 61 55 46 56 60 57 47 58 50 59 59 60 73 61 48 62 49 63 58 65
REMARK SMILES IDX 74 66 51 67 40 68 41 69 45 70 42 71 44 72 43 73 62 74 63 75
REMARK SMILES IDX 67 76 64 77 66 78 65 79 52 80 53 81 57 82 54 83 56 84 55 85
REMARK H PARENT 8 19 72 53 50 64
REMARK Flexibility Score: inf
ROOT
ATOM      1  O   UNL A   1      38.632  21.433  25.533  1.00  0.00    -0.377 OA
ENDROOT
BRANCH   1   2
ATOM      2  C   UNL A   1      37.451  21.839  24.858  1.00  0.00     0.188 C 
BRANCH   2   3
ATOM      3  C   UNL A   1      36.190  21.813  25.743  1.00  0.00     0.188 C 
BRANCH   3   4
ATOM      4  O   UNL A   1      35.327  22.912  25.499  1.00  0.00    -0.376 OA
BRANCH   4   5
ATOM      5  C   UNL A   1      34.216  23.163  26.340  1.00  0.00     0.202 C 
BRANCH   5   6
ATOM      6  C   UNL A   1      33.216  24.309  26.100  1.00  0.00     0.261 C 
BRANCH   6   7
ATOM      7  O   UNL A   1      33.657  25.629  26.403  1.00  0.00    -0.460 OA
BRANCH   7   8
ATOM      8  C   UNL A   1      33.881  26.473  25.381  1.00  0.00     0.338 C 
ATOM      9  O   UNL A   1      34.395  26.210  24.306  1.00  0.00    -0.246 OA
BRANCH   8  10
ATOM     10  C   UNL A   1      33.245  27.768  25.721  1.00  0.00     0.062 A 
ATOM     11  C   UNL A   1      31.811  29.598  25.090  1.00  0.00     0.042 A 
ATOM     12  C   UNL A   1      31.900  30.115  26.385  1.00  0.00     0.026 A 
ATOM     13  C   UNL A   1      32.618  28.525  24.728  1.00  0.00     0.041 A 
ATOM     14  C   UNL A   1      32.628  29.425  27.361  1.00  0.00     0.003 A 
ATOM     15  C   UNL A   1      33.247  28.216  27.045  1.00  0.00     0.016 A 
BRANCH  11  16
ATOM     16  N   UNL A   1      30.802  30.090  24.245  1.00  0.00    -0.322 N 
ATOM     17  C   UNL A   1      30.058  29.436  23.271  1.00  0.00     0.255 C 
ATOM     18  O   UNL A   1      29.307  30.102  22.555  1.00  0.00    -0.269 OA
ATOM     19  H   UNL A   1      30.590  31.045  24.361  1.00  0.00     0.170 HD
BRANCH  17  20
ATOM     20  C   UNL A   1      30.094  27.950  23.086  1.00  0.00     0.040 A 
ATOM     21  C   UNL A   1      30.802  23.705  23.307  1.00  0.00     0.044 C 
ATOM     22  C   UNL A   1      30.517  25.166  23.095  1.00  0.00    -0.048 A 
ATOM     23  C   UNL A   1      29.381  25.718  23.695  1.00  0.00     0.004 A 
ATOM     24  C   UNL A   1      31.327  25.994  22.298  1.00  0.00    -0.047 A 
ATOM     25  C   UNL A   1      29.129  27.090  23.614  1.00  0.00     0.014 A 
ATOM     26  C   UNL A   1      31.141  27.390  22.348  1.00  0.00     0.017 A 
ATOM     27  C   UNL A   1      32.334  25.450  21.323  1.00  0.00     0.044 C 
ENDBRANCH  17  20
ENDBRANCH  11  16
ENDBRANCH   8  10
ENDBRANCH   7   8
ENDBRANCH   6   7
ENDBRANCH   5   6
ENDBRANCH   4   5
ENDBRANCH   3   4
ENDBRANCH   2   3
ENDBRANCH   1   2
BRANCH   1  28
ATOM     28  C   UNL A   1      39.057  20.079  25.395  1.00  0.00     0.188 C 
BRANCH  28  29
ATOM     29  C   UNL A   1      40.298  19.517  26.133  1.00  0.00     0.188 C 
BRANCH  29  30
ATOM     30  O   UNL A   1      41.507  19.533  25.384  1.00  0.00    -0.376 OA
BRANCH  30  31
ATOM     31  C   UNL A   1      42.700  19.896  26.060  1.00  0.00     0.202 C 
BRANCH  31  32
ATOM     32  C   UNL A   1      43.345  21.211  25.602  1.00  0.00     0.261 C 
BRANCH  32  33
ATOM     33  O   UNL A   1      42.786  22.403  26.173  1.00  0.00    -0.460 OA
BRANCH  33  34
ATOM     34  C   UNL A   1      43.213  23.590  25.688  1.00  0.00     0.338 C 
ATOM     35  O   UNL A   1      43.750  23.804  24.618  1.00  0.00    -0.246 OA
BRANCH  34  36
ATOM     36  C   UNL A   1      42.736  24.638  26.611  1.00  0.00     0.060 A 
ATOM     37  C   UNL A   1      43.360  25.892  26.603  1.00  0.00     0.016 A 
ATOM     38  C   UNL A   1      41.653  24.388  27.457  1.00  0.00     0.016 A 
ATOM     39  C   UNL A   1      42.910  26.900  27.456  1.00  0.00     0.010 A 
ATOM     40  C   UNL A   1      41.220  25.390  28.327  1.00  0.00     0.010 A 
ATOM     41  C   UNL A   1      41.859  26.641  28.346  1.00  0.00    -0.014 A 
BRANCH  41  42
ATOM     42  C   UNL A   1      41.521  27.620  29.405  1.00  0.00     0.031 A 
ATOM     43  C   UNL A   1      42.278  27.564  30.702  1.00  0.00     0.074 A 
ATOM     44  C   UNL A   1      40.555  28.537  29.224  1.00  0.00     0.049 A 
ATOM     45  N   UNL A   1      42.112  28.269  31.791  1.00  0.00    -0.248 NA
ATOM     46  C   UNL A   1      43.369  26.578  30.780  1.00  0.00     0.031 C 
ATOM     47  C   UNL A   1      39.781  28.724  27.999  1.00  0.00     0.029 A 
ATOM     48  N   UNL A   1      40.056  29.480  30.087  1.00  0.00    -0.354 N 
ATOM     49  C   UNL A   1      43.069  27.809  32.685  1.00  0.00     0.074 A 
ATOM     50  C   UNL A   1      43.796  26.748  32.023  1.00  0.00     0.031 C 
ATOM     51  C   UNL A   1      38.892  29.713  28.195  1.00  0.00     0.029 A 
ATOM     52  C   UNL A   1      39.010  30.201  29.568  1.00  0.00     0.049 A 
ATOM     53  H   UNL A   1      40.413  29.625  30.994  1.00  0.00     0.167 HD
ATOM     54  C   UNL A   1      43.323  28.232  33.946  1.00  0.00     0.031 A 
ATOM     55  C   UNL A   1      38.220  31.129  30.145  1.00  0.00     0.031 A 
ATOM     56  C   UNL A   1      42.583  29.268  34.615  1.00  0.00     0.049 A 
ATOM     57  C   UNL A   1      38.457  31.510  31.583  1.00  0.00     0.074 A 
ATOM     58  C   UNL A   1      42.775  29.778  35.887  1.00  0.00     0.029 A 
ATOM     59  N   UNL A   1      41.501  29.941  34.071  1.00  0.00    -0.354 N 
ATOM     60  N   UNL A   1      39.387  31.094  32.409  1.00  0.00    -0.248 NA
ATOM     61  C   UNL A   1      37.532  32.493  32.168  1.00  0.00     0.031 C 
ATOM     62  C   UNL A   1      41.766  30.714  36.138  1.00  0.00     0.029 A 
ATOM     63  C   UNL A   1      40.990  30.836  34.996  1.00  0.00     0.049 A 
ATOM     64  H   UNL A   1      41.149  29.805  33.162  1.00  0.00     0.167 HD
ATOM     65  C   UNL A   1      39.174  31.780  33.599  1.00  0.00     0.074 A 
ATOM     66  C   UNL A   1      38.040  32.654  33.382  1.00  0.00     0.031 C 
ATOM     67  C   UNL A   1      39.856  31.695  34.768  1.00  0.00     0.031 A 
BRANCH  54  68
ATOM     68  C   UNL A   1      44.423  27.538  34.699  1.00  0.00    -0.014 A 
ATOM     69  C   UNL A   1      44.169  26.404  35.486  1.00  0.00     0.009 A 
ATOM     70  C   UNL A   1      45.740  28.011  34.595  1.00  0.00     0.009 A 
ATOM     71  C   UNL A   1      45.207  25.778  36.179  1.00  0.00     0.001 A 
ATOM     72  C   UNL A   1      46.780  27.367  35.266  1.00  0.00     0.001 A 
ATOM     73  C   UNL A   1      46.512  26.256  36.064  1.00  0.00     0.000 A 
ENDBRANCH  54  68
BRANCH  55  74
ATOM     74  C   UNL A   1      37.103  31.742  29.378  1.00  0.00    -0.014 A 
ATOM     75  C   UNL A   1      37.259  32.990  28.755  1.00  0.00     0.009 A 
ATOM     76  C   UNL A   1      35.860  31.094  29.290  1.00  0.00     0.009 A 
ATOM     77  C   UNL A   1      36.188  33.585  28.085  1.00  0.00     0.001 A 
ATOM     78  C   UNL A   1      34.801  31.677  28.592  1.00  0.00     0.001 A 
ATOM     79  C   UNL A   1      34.963  32.927  27.999  1.00  0.00     0.000 A 
ENDBRANCH  55  74
BRANCH  67  80
ATOM     80  C   UNL A   1      39.413  32.587  35.896  1.00  0.00    -0.014 A 
ATOM     81  C   UNL A   1      39.987  33.852  36.094  1.00  0.00     0.009 A 
ATOM     82  C   UNL A   1      38.372  32.174  36.742  1.00  0.00     0.009 A 
ATOM     83  C   UNL A   1      39.549  34.671  37.138  1.00  0.00     0.001 A 
ATOM     84  C   UNL A   1      37.914  33.007  37.764  1.00  0.00     0.001 A 
ATOM     85  C   UNL A   1      38.509  34.250  37.967  1.00  0.00     0.000 A 
ENDBRANCH  67  80
ENDBRANCH  41  42
ENDBRANCH  34  36
ENDBRANCH  33  34
ENDBRANCH  32  33
ENDBRANCH  31  32
ENDBRANCH  30  31
ENDBRANCH  29  30
ENDBRANCH  28  29
ENDBRANCH   1  28
TORSDOF 22
ENDMDL
MODEL 2
REMARK VINA RESULT:      -9.7      1.439      2.159
REMARK SMILES Cc1ccc(C(=O)Nc2cccc(C(=O)OCCOCCOCCOCCOC(=O)c3ccc(-c4c5nc(c(-c6ccccc6)c6ccc([nH]6)c(-c6ccccc6)c6nc(c(-c7ccccc7)c7ccc4[nH]7)C=C6)C=C5)cc3)c2)cc1C
REMARK SMILES IDX 22 1 21 2 20 3 19 4 18 5 17 6 16 7 14 8 15 9 13 10 9 11
REMARK SMILES IDX 10 12 79 13 11 14 12 15 8 16 6 17 7 18 5 20 1 21 2 22 3 23
REMARK SMILES IDX 81 24 4 25 80 26 82 27 23 28 24 29 25 30 26 31 27 32 28 33
REMARK SMILES IDX 29 34 30 35 31 36 32 37 78 38 33 39 77 40 34 41 35 42 36 43
REMARK SMILES IDX 71 44 37 45 76 46 70 47 72 48 38 49 75 50 69 51 68 52 39 54
REMARK SMILES IDX 61 55 46 56 60 57 47 58 50 59 59 60 73 61 48 62 49 63 58 65
REMARK SMILES IDX 74 66 51 67 40 68 41 69 45 70 42 71 44 72 43 73 62 74 63 75
REMARK SMILES IDX 67 76 64 77 66 78 65 79 52 80 53 81 57 82 54 83 56 84 55 85
REMARK H PARENT 8 19 72 53 50 64
REMARK Flexibility Score: inf
ROOT
ATOM      1  O   UNL A   1      39.458  22.474  26.613  1.00  0.00    -0.377 OA
ENDROOT
BRANCH   1   2
ATOM      2  C   UNL A   1      38.160  22.415  26.045  1.00  0.00     0.188 C 
BRANCH   2   3
ATOM      3  C   UNL A   1      37.404  23.757  26.083  1.00  0.00     0.188 C 
BRANCH   3   4
ATOM      4  O   UNL A   1      35.999  23.598  25.963  1.00  0.00    -0.376 OA
BRANCH   4   5
ATOM      5  C   UNL A   1      35.206  24.594  25.343  1.00  0.00     0.202 C 
BRANCH   5   6
ATOM      6  C   UNL A   1      34.461  25.691  26.125  1.00  0.00     0.261 C 
BRANCH   6   7
ATOM      7  O   UNL A   1      33.038  25.628  26.134  1.00  0.00    -0.460 OA
BRANCH   7   8
ATOM      8  C   UNL A   1      32.354  26.753  26.409  1.00  0.00     0.338 C 
ATOM      9  O   UNL A   1      32.009  27.154  27.508  1.00  0.00    -0.246 OA
BRANCH   8  10
ATOM     10  C   UNL A   1      32.225  27.519  25.147  1.00  0.00     0.062 A 
ATOM     11  C   UNL A   1      32.539  27.648  22.762  1.00  0.00     0.042 A 
ATOM     12  C   UNL A   1      31.847  28.861  22.735  1.00  0.00     0.026 A 
ATOM     13  C   UNL A   1      32.866  27.077  23.987  1.00  0.00     0.041 A 
ATOM     14  C   UNL A   1      31.302  29.377  23.917  1.00  0.00     0.003 A 
ATOM     15  C   UNL A   1      31.436  28.672  25.113  1.00  0.00     0.016 A 
BRANCH  11  16
ATOM     16  N   UNL A   1      32.752  26.976  21.547  1.00  0.00    -0.322 N 
ATOM     17  C   UNL A   1      32.717  25.617  21.261  1.00  0.00     0.255 C 
ATOM     18  O   UNL A   1      33.064  25.239  20.141  1.00  0.00    -0.269 OA
ATOM     19  H   UNL A   1      32.958  27.558  20.780  1.00  0.00     0.170 HD
BRANCH  17  20
ATOM     20  C   UNL A   1      32.228  24.596  22.243  1.00  0.00     0.040 A 
ATOM     21  C   UNL A   1      31.269  22.223  25.709  1.00  0.00     0.044 C 
ATOM     22  C   UNL A   1      31.583  22.934  24.423  1.00  0.00    -0.048 A 
ATOM     23  C   UNL A   1      30.653  23.852  23.923  1.00  0.00     0.004 A 
ATOM     24  C   UNL A   1      32.756  22.696  23.685  1.00  0.00    -0.047 A 
ATOM     25  C   UNL A   1      30.943  24.613  22.789  1.00  0.00     0.014 A 
ATOM     26  C   UNL A   1      33.095  23.570  22.633  1.00  0.00     0.017 A 
ATOM     27  C   UNL A   1      33.629  21.494  23.914  1.00  0.00     0.044 C 
ENDBRANCH  17  20
ENDBRANCH  11  16
ENDBRANCH   8  10
ENDBRANCH   7   8
ENDBRANCH   6   7
ENDBRANCH   5   6
ENDBRANCH   4   5
ENDBRANCH   3   4
ENDBRANCH   2   3
ENDBRANCH   1   2
BRANCH   1  28
ATOM     28  C   UNL A   1      40.133  21.246  26.885  1.00  0.00     0.188 C 
BRANCH  28  29
ATOM     29  C   UNL A   1      40.193  20.085  25.861  1.00  0.00     0.188 C 
BRANCH  29  30
ATOM     30  O   UNL A   1      41.502  19.702  25.459  1.00  0.00    -0.376 OA
BRANCH  30  31
ATOM     31  C   UNL A   1      42.601  20.261  26.160  1.00  0.00     0.202 C 
BRANCH  31  32
ATOM     32  C   UNL A   1      43.463  21.246  25.359  1.00  0.00     0.261 C 
BRANCH  32  33
ATOM     33  O   UNL A   1      42.896  22.552  25.175  1.00  0.00    -0.460 OA
BRANCH  33  34
ATOM     34  C   UNL A   1      43.744  23.603  25.127  1.00  0.00     0.338 C 
ATOM     35  O   UNL A   1      44.553  23.864  24.257  1.00  0.00    -0.246 OA
BRANCH  34  36
ATOM     36  C   UNL A   1      43.386  24.506  26.237  1.00  0.00     0.060 A 
ATOM     37  C   UNL A   1      42.534  24.042  27.248  1.00  0.00     0.016 A 
ATOM     38  C   UNL A   1      43.918  25.796  26.293  1.00  0.00     0.016 A 
ATOM     39  C   UNL A   1      42.199  24.877  28.314  1.00  0.00     0.010 A 
ATOM     40  C   UNL A   1      43.563  26.638  27.348  1.00  0.00     0.010 A 
ATOM     41  C   UNL A   1      42.686  26.190  28.351  1.00  0.00    -0.014 A 
BRANCH  41  42
ATOM     42  C   UNL A   1      42.164  27.152  29.349  1.00  0.00     0.031 A 
ATOM     43  C   UNL A   1      42.891  27.297  30.655  1.00  0.00     0.074 A 
ATOM     44  C   UNL A   1      41.060  27.879  29.103  1.00  0.00     0.049 A 
ATOM     45  N   UNL A   1      42.583  28.021  31.701  1.00  0.00    -0.248 NA
ATOM     46  C   UNL A   1      44.132  26.519  30.804  1.00  0.00     0.031 C 
ATOM     47  C   UNL A   1      40.292  27.864  27.861  1.00  0.00     0.029 A 
ATOM     48  N   UNL A   1      40.388  28.768  29.906  1.00  0.00    -0.354 N 
ATOM     49  C   UNL A   1      43.585  27.781  32.631  1.00  0.00     0.074 A 
ATOM     50  C   UNL A   1      44.496  26.826  32.039  1.00  0.00     0.031 C 
ATOM     51  C   UNL A   1      39.243  28.695  27.989  1.00  0.00     0.029 A 
ATOM     52  C   UNL A   1      39.246  29.270  29.333  1.00  0.00     0.049 A 
ATOM     53  H   UNL A   1      40.695  29.020  30.807  1.00  0.00     0.167 HD
ATOM     54  C   UNL A   1      43.735  28.308  33.869  1.00  0.00     0.031 A 
ATOM     55  C   UNL A   1      38.297  30.078  29.847  1.00  0.00     0.031 A 
ATOM     56  C   UNL A   1      42.815  29.238  34.469  1.00  0.00     0.049 A 
ATOM     57  C   UNL A   1      38.434  30.572  31.263  1.00  0.00     0.074 A 
ATOM     58  C   UNL A   1      42.890  29.841  35.712  1.00  0.00     0.029 A 
ATOM     59  N   UNL A   1      41.647  29.685  33.874  1.00  0.00    -0.354 N 
ATOM     60  N   UNL A   1      39.403  30.366  32.124  1.00  0.00    -0.248 NA
ATOM     61  C   UNL A   1      37.343  31.411  31.780  1.00  0.00     0.031 C 
ATOM     62  C   UNL A   1      41.730  30.602  35.896  1.00  0.00     0.029 A 
ATOM     63  C   UNL A   1      40.970  30.527  34.740  1.00  0.00     0.049 A 
ATOM     64  H   UNL A   1      41.343  29.441  32.970  1.00  0.00     0.167 HD
ATOM     65  C   UNL A   1      39.051  31.069  33.269  1.00  0.00     0.074 A 
ATOM     66  C   UNL A   1      37.789  31.722  32.990  1.00  0.00     0.031 C 
ATOM     67  C   UNL A   1      39.712  31.165  34.450  1.00  0.00     0.031 A 
BRANCH  54  68
ATOM     68  C   UNL A   1      44.921  27.856  34.673  1.00  0.00    -0.014 A 
ATOM     69  C   UNL A   1      46.076  28.647  34.782  1.00  0.00     0.009 A 
ATOM     70  C   UNL A   1      44.870  26.631  35.357  1.00  0.00     0.009 A 
ATOM     71  C   UNL A   1      47.167  28.204  35.533  1.00  0.00     0.001 A 
ATOM     72  C   UNL A   1      45.951  26.205  36.129  1.00  0.00     0.001 A 
ATOM     73  C   UNL A   1      47.101  26.986  36.210  1.00  0.00     0.000 A 
ENDBRANCH  54  68
BRANCH  55  74
ATOM     74  C   UNL A   1      37.109  30.448  29.033  1.00  0.00    -0.014 A 
ATOM     75  C   UNL A   1      36.923  31.767  28.592  1.00  0.00     0.009 A 
ATOM     76  C   UNL A   1      36.135  29.486  28.716  1.00  0.00     0.009 A 
ATOM     77  C   UNL A   1      35.777  32.120  27.876  1.00  0.00     0.001 A 
ATOM     78  C   UNL A   1      35.006  29.835  27.973  1.00  0.00     0.001 A 
ATOM     79  C   UNL A   1      34.822  31.153  27.563  1.00  0.00     0.000 A 
ENDBRANCH  55  74
BRANCH  67  80
ATOM     80  C   UNL A   1      39.099  32.028  35.519  1.00  0.00    -0.014 A 
ATOM     81  C   UNL A   1      39.316  33.414  35.553  1.00  0.00     0.009 A 
ATOM     82  C   UNL A   1      38.251  31.451  36.479  1.00  0.00     0.009 A 
ATOM     83  C   UNL A   1      38.723  34.198  36.546  1.00  0.00     0.001 A 
ATOM     84  C   UNL A   1      37.635  32.241  37.450  1.00  0.00     0.001 A 
ATOM     85  C   UNL A   1      37.879  33.612  37.489  1.00  0.00     0.000 A 
ENDBRANCH  67  80
ENDBRANCH  41  42
ENDBRANCH  34  36
ENDBRANCH  33  34
ENDBRANCH  32  33
ENDBRANCH  31  32
ENDBRANCH  30  31
ENDBRANCH  29  30
ENDBRANCH  28  29
ENDBRANCH   1  28
TORSDOF 22
ENDMDL
MODEL 3
REMARK VINA RESULT:      -9.3      2.997      8.350
REMARK SMILES Cc1ccc(C(=O)Nc2cccc(C(=O)OCCOCCOCCOCCOC(=O)c3ccc(-c4c5nc(c(-c6ccccc6)c6ccc([nH]6)c(-c6ccccc6)c6nc(c(-c7ccccc7)c7ccc4[nH]7)C=C6)C=C5)cc3)c2)cc1C
REMARK SMILES IDX 22 1 21 2 20 3 19 4 18 5 17 6 16 7 14 8 15 9 13 10 9 11
REMARK SMILES IDX 10 12 79 13 11 14 12 15 8 16 6 17 7 18 5 20 1 21 2 22 3 23
REMARK SMILES IDX 81 24 4 25 80 26 82 27 23 28 24 29 25 30 26 31 27 32 28 33
REMARK SMILES IDX 29 34 30 35 31 36 32 37 78 38 33 39 77 40 34 41 35 42 36 43
REMARK SMILES IDX 71 44 37 45 76 46 70 47 72 48 38 49 75 50 69 51 68 52 39 54
REMARK SMILES IDX 61 55 46 56 60 57 47 58 50 59 59 60 73 61 48 62 49 63 58 65
REMARK SMILES IDX 74 66 51 67 40 68 41 69 45 70 42 71 44 72 43 73 62 74 63 75
REMARK SMILES IDX 67 76 64 77 66 78 65 79 52 80 53 81 57 82 54 83 56 84 55 85
REMARK H PARENT 8 19 72 53 50 64
REMARK Flexibility Score: inf
ROOT
ATOM      1  O   UNL A   1      33.524  29.164  27.626  1.00  0.00    -0.377 OA
ENDROOT
BRANCH   1   2
ATOM      2  C   UNL A   1      34.286  28.288  26.811  1.00  0.00     0.188 C 
BRANCH   2   3
ATOM      3  C   UNL A   1      33.434  27.420  25.865  1.00  0.00     0.188 C 
BRANCH   3   4
ATOM      4  O   UNL A   1      34.056  27.206  24.608  1.00  0.00    -0.376 OA
BRANCH   4   5
ATOM      5  C   UNL A   1      34.020  28.203  23.602  1.00  0.00     0.202 C 
BRANCH   5   6
ATOM      6  C   UNL A   1      33.036  29.386  23.618  1.00  0.00     0.261 C 
BRANCH   6   7
ATOM      7  O   UNL A   1      31.904  29.299  22.758  1.00  0.00    -0.460 OA
BRANCH   7   8
ATOM      8  C   UNL A   1      30.712  29.002  23.306  1.00  0.00     0.338 C 
ATOM      9  O   UNL A   1      29.825  29.783  23.607  1.00  0.00    -0.246 OA
BRANCH   8  10
ATOM     10  C   UNL A   1      30.587  27.526  23.336  1.00  0.00     0.062 A 
ATOM     11  C   UNL A   1      31.201  25.378  22.433  1.00  0.00     0.042 A 
ATOM     12  C   UNL A   1      30.508  24.744  23.467  1.00  0.00     0.026 A 
ATOM     13  C   UNL A   1      31.091  26.756  22.284  1.00  0.00     0.041 A 
ATOM     14  C   UNL A   1      29.893  25.510  24.464  1.00  0.00     0.003 A 
ATOM     15  C   UNL A   1      29.988  26.901  24.433  1.00  0.00     0.016 A 
BRANCH  11  16
ATOM     16  N   UNL A   1      32.100  24.615  21.669  1.00  0.00    -0.322 N 
ATOM     17  C   UNL A   1      33.066  23.703  22.077  1.00  0.00     0.255 C 
ATOM     18  O   UNL A   1      33.836  23.241  21.234  1.00  0.00    -0.269 OA
ATOM     19  H   UNL A   1      32.035  24.746  20.696  1.00  0.00     0.170 HD
BRANCH  17  20
ATOM     20  C   UNL A   1      33.180  23.223  23.492  1.00  0.00     0.040 A 
ATOM     21  C   UNL A   1      34.374  21.537  27.273  1.00  0.00     0.044 C 
ATOM     22  C   UNL A   1      33.824  22.112  25.998  1.00  0.00    -0.048 A 
ATOM     23  C   UNL A   1      33.976  23.483  25.763  1.00  0.00     0.004 A 
ATOM     24  C   UNL A   1      33.137  21.339  25.046  1.00  0.00    -0.047 A 
ATOM     25  C   UNL A   1      33.575  24.045  24.549  1.00  0.00     0.014 A 
ATOM     26  C   UNL A   1      32.873  21.889  23.775  1.00  0.00     0.017 A 
ATOM     27  C   UNL A   1      32.594  19.970  25.349  1.00  0.00     0.044 C 
ENDBRANCH  17  20
ENDBRANCH  11  16
ENDBRANCH   8  10
ENDBRANCH   7   8
ENDBRANCH   6   7
ENDBRANCH   5   6
ENDBRANCH   4   5
ENDBRANCH   3   4
ENDBRANCH   2   3
ENDBRANCH   1   2
BRANCH   1  28
ATOM     28  C   UNL A   1      33.423  30.533  27.237  1.00  0.00     0.188 C 
BRANCH  28  29
ATOM     29  C   UNL A   1      34.480  31.592  27.636  1.00  0.00     0.188 C 
BRANCH  29  30
ATOM     30  O   UNL A   1      34.052  32.538  28.608  1.00  0.00    -0.376 OA
BRANCH  30  31
ATOM     31  C   UNL A   1      33.836  33.874  28.181  1.00  0.00     0.202 C 
BRANCH  31  32
ATOM     32  C   UNL A   1      33.075  34.768  29.169  1.00  0.00     0.261 C 
BRANCH  32  33
ATOM     33  O   UNL A   1      33.881  35.392  30.180  1.00  0.00    -0.460 OA
BRANCH  33  34
ATOM     34  C   UNL A   1      33.896  34.826  31.407  1.00  0.00     0.338 C 
ATOM     35  O   UNL A   1      33.045  34.907  32.273  1.00  0.00    -0.246 OA
BRANCH  34  36
ATOM     36  C   UNL A   1      35.055  33.915  31.454  1.00  0.00     0.060 A 
ATOM     37  C   UNL A   1      34.924  32.675  32.094  1.00  0.00     0.016 A 
ATOM     38  C   UNL A   1      36.256  34.273  30.838  1.00  0.00     0.016 A 
ATOM     39  C   UNL A   1      36.005  31.793  32.132  1.00  0.00     0.010 A 
ATOM     40  C   UNL A   1      37.343  33.400  30.898  1.00  0.00     0.010 A 
ATOM     41  C   UNL A   1      37.229  32.167  31.563  1.00  0.00    -0.014 A 
BRANCH  41  42
ATOM     42  C   UNL A   1      38.439  31.343  31.790  1.00  0.00     0.031 A 
ATOM     43  C   UNL A   1      39.342  31.696  32.938  1.00  0.00     0.074 A 
ATOM     44  C   UNL A   1      38.736  30.306  30.988  1.00  0.00     0.049 A 
ATOM     45  N   UNL A   1      40.485  31.164  33.289  1.00  0.00    -0.248 NA
ATOM     46  C   UNL A   1      38.896  32.797  33.807  1.00  0.00     0.031 C 
ATOM     47  C   UNL A   1      37.921  29.836  29.871  1.00  0.00     0.029 A 
ATOM     48  N   UNL A   1      39.823  29.467  30.991  1.00  0.00    -0.354 N 
ATOM     49  C   UNL A   1      40.897  31.869  34.412  1.00  0.00     0.074 A 
ATOM     50  C   UNL A   1      39.897  32.882  34.669  1.00  0.00     0.031 C 
ATOM     51  C   UNL A   1      38.544  28.798  29.286  1.00  0.00     0.029 A 
ATOM     52  C   UNL A   1      39.817  28.558  29.963  1.00  0.00     0.049 A 
ATOM     53  H   UNL A   1      40.539  29.514  31.665  1.00  0.00     0.167 HD
ATOM     54  C   UNL A   1      42.009  31.690  35.163  1.00  0.00     0.031 A 
ATOM     55  C   UNL A   1      40.748  27.654  29.595  1.00  0.00     0.031 A 
ATOM     56  C   UNL A   1      43.017  30.701  34.891  1.00  0.00     0.049 A 
ATOM     57  C   UNL A   1      42.024  27.543  30.387  1.00  0.00     0.074 A 
ATOM     58  C   UNL A   1      44.172  30.431  35.604  1.00  0.00     0.029 A 
ATOM     59  N   UNL A   1      42.997  29.830  33.813  1.00  0.00    -0.354 N 
ATOM     60  N   UNL A   1      42.390  28.190  31.467  1.00  0.00    -0.248 NA
ATOM     61  C   UNL A   1      43.019  26.571  29.906  1.00  0.00     0.031 C 
ATOM     62  C   UNL A   1      44.885  29.441  34.919  1.00  0.00     0.029 A 
ATOM     63  C   UNL A   1      44.139  29.047  33.819  1.00  0.00     0.049 A 
ATOM     64  H   UNL A   1      42.278  29.775  33.143  1.00  0.00     0.167 HD
ATOM     65  C   UNL A   1      43.640  27.689  31.808  1.00  0.00     0.074 A 
ATOM     66  C   UNL A   1      43.963  26.670  30.831  1.00  0.00     0.031 C 
ATOM     67  C   UNL A   1      44.450  28.041  32.837  1.00  0.00     0.031 A 
BRANCH  54  68
ATOM     68  C   UNL A   1      42.212  32.617  36.328  1.00  0.00    -0.014 A 
ATOM     69  C   UNL A   1      42.858  33.853  36.176  1.00  0.00     0.009 A 
ATOM     70  C   UNL A   1      41.722  32.258  37.594  1.00  0.00     0.009 A 
ATOM     71  C   UNL A   1      43.038  34.697  37.274  1.00  0.00     0.001 A 
ATOM     72  C   UNL A   1      41.878  33.115  38.684  1.00  0.00     0.001 A 
ATOM     73  C   UNL A   1      42.544  34.330  38.526  1.00  0.00     0.000 A 
ENDBRANCH  54  68
BRANCH  55  74
ATOM     74  C   UNL A   1      40.529  26.802  28.395  1.00  0.00    -0.014 A 
ATOM     75  C   UNL A   1      39.803  25.605  28.488  1.00  0.00     0.009 A 
ATOM     76  C   UNL A   1      41.074  27.168  27.153  1.00  0.00     0.009 A 
ATOM     77  C   UNL A   1      39.650  24.782  27.370  1.00  0.00     0.001 A 
ATOM     78  C   UNL A   1      40.892  26.358  26.030  1.00  0.00     0.001 A 
ATOM     79  C   UNL A   1      40.189  25.161  26.142  1.00  0.00     0.000 A 
ENDBRANCH  55  74
BRANCH  67  80
ATOM     80  C   UNL A   1      45.753  27.301  32.977  1.00  0.00    -0.014 A 
ATOM     81  C   UNL A   1      45.845  26.119  33.727  1.00  0.00     0.009 A 
ATOM     82  C   UNL A   1      46.895  27.770  32.308  1.00  0.00     0.009 A 
ATOM     83  C   UNL A   1      47.061  25.439  33.831  1.00  0.00     0.001 A 
ATOM     84  C   UNL A   1      48.102  27.072  32.386  1.00  0.00     0.001 A 
ATOM     85  C   UNL A   1      48.186  25.913  33.155  1.00  0.00     0.000 A 
ENDBRANCH  67  80
ENDBRANCH  41  42
ENDBRANCH  34  36
ENDBRANCH  33  34
ENDBRANCH  32  33
ENDBRANCH  31  32
ENDBRANCH  30  31
ENDBRANCH  29  30
ENDBRANCH  28  29
ENDBRANCH   1  28
TORSDOF 22
ENDMDL
