MODEL 1
REMARK VINA RESULT:     -11.0      0.000      0.000
REMARK SMILES Cc1ccccc1[C@H](C(=O)NC[C@H]1CC[C@@H](C(=O)OCCOCCOCCOCCOC(=O)c2ccc(-c3c4nc(c(-c5ccccc5)c5ccc([nH]5)c(-c5ccccc5)c5nc(c(-c6ccccc6)c6ccc3[nH]6)C=C5)C=C4)cc2)CC1)[NH+](C)C
REMARK SMILES IDX 24 1 23 2 22 3 21 4 20 5 19 6 17 7 18 8 16 9 13 10 14 11
REMARK SMILES IDX 83 12 15 13 82 14 12 15 11 16 9 17 10 18 8 20 7 21 1 22 2 23
REMARK SMILES IDX 3 24 4 25 6 26 5 27 84 28 85 29 86 30 25 32 26 33 27 34
REMARK SMILES IDX 28 35 29 36 30 37 31 38 32 39 33 40 34 41 35 42 81 43 36 44
REMARK SMILES IDX 80 45 37 46 38 47 39 48 74 49 40 50 79 51 73 52 75 53 41 54
REMARK SMILES IDX 78 55 72 56 71 57 42 59 64 60 49 61 63 62 50 63 53 64 62 65
REMARK SMILES IDX 76 66 51 67 52 68 61 70 77 71 54 72 43 73 44 74 48 75 45 76
REMARK SMILES IDX 47 77 46 78 65 79 66 80 70 81 67 82 69 83 68 84 55 85 56 86
REMARK SMILES IDX 60 87 57 88 59 89 58 90
REMARK H PARENT 11 19 84 31 75 58 53 69
REMARK Flexibility Score: inf
ROOT
ATOM      1  C   UNL A   1      32.803  32.621  27.292  1.00  0.00     0.188 C 
ENDROOT
BRANCH   1   2
ATOM      2  C   UNL A   1      34.125  32.096  27.858  1.00  0.00     0.188 C 
BRANCH   2   3
ATOM      3  O   UNL A   1      34.462  30.714  27.844  1.00  0.00    -0.376 OA
BRANCH   3   4
ATOM      4  C   UNL A   1      33.446  29.848  27.319  1.00  0.00     0.202 C 
BRANCH   4   5
ATOM      5  C   UNL A   1      33.609  29.143  25.923  1.00  0.00     0.261 C 
BRANCH   5   6
ATOM      6  O   UNL A   1      32.793  29.652  24.800  1.00  0.00    -0.463 OA
BRANCH   6   7
ATOM      7  C   UNL A   1      32.689  28.909  23.668  1.00  0.00     0.309 C 
ATOM      8  O   UNL A   1      33.413  29.110  22.696  1.00  0.00    -0.252 OA
BRANCH   7   9
ATOM      9  C   UNL A   1      31.688  27.683  23.721  1.00  0.00     0.099 C 
ATOM     10  C   UNL A   1      31.165  24.811  25.145  1.00  0.00     0.008 C 
ATOM     11  C   UNL A   1      30.246  26.095  25.261  1.00  0.00     0.006 C 
ATOM     12  C   UNL A   1      32.398  25.137  24.267  1.00  0.00     0.006 C 
ATOM     13  C   UNL A   1      30.749  27.535  24.915  1.00  0.00     0.015 C 
ATOM     14  C   UNL A   1      32.169  26.298  23.231  1.00  0.00     0.015 C 
BRANCH  10  15
ATOM     15  C   UNL A   1      31.114  23.915  26.551  1.00  0.00     0.119 C 
BRANCH  15  16
ATOM     16  N   UNL A   1      32.215  23.182  27.286  1.00  0.00    -0.350 N 
ATOM     17  C   UNL A   1      33.312  22.315  27.134  1.00  0.00     0.283 C 
ATOM     18  O   UNL A   1      34.103  22.507  28.096  1.00  0.00    -0.268 OA
ATOM     19  H   UNL A   1      32.130  23.395  28.244  1.00  0.00     0.163 HD
BRANCH  17  20
ATOM     20  C   UNL A   1      33.862  21.040  26.009  1.00  0.00     0.305 C 
BRANCH  20  21
ATOM     21  C   UNL A   1      32.724  20.181  25.071  1.00  0.00     0.022 A 
ATOM     22  C   UNL A   1      32.038  21.047  22.104  1.00  0.00     0.045 C 
ATOM     23  C   UNL A   1      32.275  20.097  23.246  1.00  0.00    -0.041 A 
ATOM     24  C   UNL A   1      32.373  18.449  22.409  1.00  0.00     0.004 A 
ATOM     25  C   UNL A   1      32.700  16.974  23.466  1.00  0.00     0.000 A 
ATOM     26  C   UNL A   1      33.073  18.667  25.938  1.00  0.00     0.011 A 
ATOM     27  C   UNL A   1      33.046  17.122  25.167  1.00  0.00     0.001 A 
ENDBRANCH  20  21
BRANCH  20  28
ATOM     28  N   UNL A   1      34.984  21.603  25.213  1.00  0.00    -0.326 N 
ATOM     29  C   UNL A   1      36.235  20.893  25.165  1.00  0.00     0.333 C 
ATOM     30  C   UNL A   1      34.741  22.584  24.181  1.00  0.00     0.333 C 
ATOM     31  H   UNL A   1      35.169  22.277  25.956  1.00  0.00     0.348 HD
ENDBRANCH  20  28
ENDBRANCH  17  20
ENDBRANCH  15  16
ENDBRANCH  10  15
ENDBRANCH   7   9
ENDBRANCH   6   7
ENDBRANCH   5   6
ENDBRANCH   4   5
ENDBRANCH   3   4
ENDBRANCH   2   3
ENDBRANCH   1   2
BRANCH   1  32
ATOM     32  O   UNL A   1      32.474  33.890  27.871  1.00  0.00    -0.377 OA
BRANCH  32  33
ATOM     33  C   UNL A   1      33.585  34.468  28.532  1.00  0.00     0.188 C 
BRANCH  33  34
ATOM     34  C   UNL A   1      33.390  35.954  28.719  1.00  0.00     0.188 C 
BRANCH  34  35
ATOM     35  O   UNL A   1      32.440  36.364  29.672  1.00  0.00    -0.376 OA
BRANCH  35  36
ATOM     36  C   UNL A   1      32.916  36.686  30.976  1.00  0.00     0.202 C 
BRANCH  36  37
ATOM     37  C   UNL A   1      33.017  35.602  32.084  1.00  0.00     0.261 C 
BRANCH  37  38
ATOM     38  O   UNL A   1      34.194  34.771  31.931  1.00  0.00    -0.460 OA
BRANCH  38  39
ATOM     39  C   UNL A   1      34.413  33.833  32.907  1.00  0.00     0.338 C 
ATOM     40  O   UNL A   1      33.573  33.048  33.322  1.00  0.00    -0.246 OA
BRANCH  39  41
ATOM     41  C   UNL A   1      35.688  34.154  33.659  1.00  0.00     0.060 A 
ATOM     42  C   UNL A   1      36.633  34.940  32.996  1.00  0.00     0.016 A 
ATOM     43  C   UNL A   1      36.140  33.290  34.652  1.00  0.00     0.016 A 
ATOM     44  C   UNL A   1      37.989  34.582  33.038  1.00  0.00     0.010 A 
ATOM     45  C   UNL A   1      37.468  32.854  34.572  1.00  0.00     0.010 A 
ATOM     46  C   UNL A   1      38.386  33.401  33.655  1.00  0.00    -0.014 A 
BRANCH  46  47
ATOM     47  C   UNL A   1      39.569  32.558  33.278  1.00  0.00     0.031 A 
ATOM     48  C   UNL A   1      39.364  31.313  32.450  1.00  0.00     0.074 A 
ATOM     49  C   UNL A   1      40.863  32.966  33.459  1.00  0.00     0.049 A 
ATOM     50  N   UNL A   1      40.261  30.408  32.208  1.00  0.00    -0.248 NA
ATOM     51  C   UNL A   1      38.086  30.973  31.831  1.00  0.00     0.031 C 
ATOM     52  C   UNL A   1      42.064  32.500  32.777  1.00  0.00     0.029 A 
ATOM     53  N   UNL A   1      41.444  33.798  34.411  1.00  0.00    -0.354 N 
ATOM     54  C   UNL A   1      39.768  29.542  31.247  1.00  0.00     0.074 A 
ATOM     55  C   UNL A   1      38.410  29.954  31.033  1.00  0.00     0.031 C 
ATOM     56  C   UNL A   1      43.190  32.954  33.342  1.00  0.00     0.029 A 
ATOM     57  C   UNL A   1      42.850  33.382  34.671  1.00  0.00     0.049 A 
ATOM     58  H   UNL A   1      40.990  34.554  34.850  1.00  0.00     0.167 HD
ATOM     59  C   UNL A   1      40.581  28.599  30.692  1.00  0.00     0.031 A 
ATOM     60  C   UNL A   1      43.224  32.786  35.944  1.00  0.00     0.031 A 
ATOM     61  C   UNL A   1      41.781  28.396  31.524  1.00  0.00     0.049 A 
ATOM     62  C   UNL A   1      43.368  30.745  36.658  1.00  0.00     0.074 A 
ATOM     63  C   UNL A   1      43.126  28.639  31.333  1.00  0.00     0.029 A 
ATOM     64  N   UNL A   1      41.637  28.056  32.886  1.00  0.00    -0.354 N 
ATOM     65  N   UNL A   1      42.588  29.596  36.262  1.00  0.00    -0.248 NA
ATOM     66  C   UNL A   1      44.352  29.771  37.579  1.00  0.00     0.031 C 
ATOM     67  C   UNL A   1      43.778  28.477  32.587  1.00  0.00     0.029 A 
ATOM     68  C   UNL A   1      42.845  28.147  33.573  1.00  0.00     0.049 A 
ATOM     69  H   UNL A   1      40.786  27.786  33.301  1.00  0.00     0.167 HD
ATOM     70  C   UNL A   1      43.304  28.469  36.020  1.00  0.00     0.074 A 
ATOM     71  C   UNL A   1      44.241  28.505  37.102  1.00  0.00     0.031 C 
ATOM     72  C   UNL A   1      43.046  27.627  34.959  1.00  0.00     0.031 A 
BRANCH  59  73
ATOM     73  C   UNL A   1      40.372  28.002  29.287  1.00  0.00    -0.014 A 
ATOM     74  C   UNL A   1      39.930  26.667  29.149  1.00  0.00     0.009 A 
ATOM     75  C   UNL A   1      40.671  28.638  28.063  1.00  0.00     0.009 A 
ATOM     76  C   UNL A   1      39.820  26.017  27.901  1.00  0.00     0.001 A 
ATOM     77  C   UNL A   1      40.558  28.000  26.808  1.00  0.00     0.001 A 
ATOM     78  C   UNL A   1      40.136  26.683  26.726  1.00  0.00     0.000 A 
ENDBRANCH  59  73
BRANCH  60  79
ATOM     79  C   UNL A   1      42.402  34.319  36.632  1.00  0.00    -0.014 A 
ATOM     80  C   UNL A   1      41.190  34.190  37.418  1.00  0.00     0.009 A 
ATOM     81  C   UNL A   1      42.826  35.689  36.681  1.00  0.00     0.009 A 
ATOM     82  C   UNL A   1      40.671  35.174  38.293  1.00  0.00     0.001 A 
ATOM     83  C   UNL A   1      42.350  36.673  37.579  1.00  0.00     0.001 A 
ATOM     84  C   UNL A   1      41.303  36.394  38.429  1.00  0.00     0.000 A 
ENDBRANCH  60  79
BRANCH  72  85
ATOM     85  C   UNL A   1      43.167  26.138  35.085  1.00  0.00    -0.014 A 
ATOM     86  C   UNL A   1      42.055  25.330  35.325  1.00  0.00     0.009 A 
ATOM     87  C   UNL A   1      44.381  25.493  34.757  1.00  0.00     0.009 A 
ATOM     88  C   UNL A   1      42.164  23.941  35.328  1.00  0.00     0.001 A 
ATOM     89  C   UNL A   1      44.481  24.106  34.703  1.00  0.00     0.001 A 
ATOM     90  C   UNL A   1      43.374  23.330  35.013  1.00  0.00     0.000 A 
ENDBRANCH  72  85
ENDBRANCH  46  47
ENDBRANCH  39  41
ENDBRANCH  38  39
ENDBRANCH  37  38
ENDBRANCH  36  37
ENDBRANCH  35  36
ENDBRANCH  34  35
ENDBRANCH  33  34
ENDBRANCH  32  33
ENDBRANCH   1  32
TORSDOF 25
ENDMDL
MODEL 2
REMARK VINA RESULT:     -10.6      4.609     11.728
REMARK SMILES Cc1ccccc1[C@H](C(=O)NC[C@H]1CC[C@@H](C(=O)OCCOCCOCCOCCOC(=O)c2ccc(-c3c4nc(c(-c5ccccc5)c5ccc([nH]5)c(-c5ccccc5)c5nc(c(-c6ccccc6)c6ccc3[nH]6)C=C5)C=C4)cc2)CC1)[NH+](C)C
REMARK SMILES IDX 24 1 23 2 22 3 21 4 20 5 19 6 17 7 18 8 16 9 13 10 14 11
REMARK SMILES IDX 83 12 15 13 82 14 12 15 11 16 9 17 10 18 8 20 7 21 1 22 2 23
REMARK SMILES IDX 3 24 4 25 6 26 5 27 84 28 85 29 86 30 25 32 26 33 27 34
REMARK SMILES IDX 28 35 29 36 30 37 31 38 32 39 33 40 34 41 35 42 81 43 36 44
REMARK SMILES IDX 80 45 37 46 38 47 39 48 74 49 40 50 79 51 73 52 75 53 41 54
REMARK SMILES IDX 78 55 72 56 71 57 42 59 64 60 49 61 63 62 50 63 53 64 62 65
REMARK SMILES IDX 76 66 51 67 52 68 61 70 77 71 54 72 43 73 44 74 48 75 45 76
REMARK SMILES IDX 47 77 46 78 65 79 66 80 70 81 67 82 69 83 68 84 55 85 56 86
REMARK SMILES IDX 60 87 57 88 59 89 58 90
REMARK H PARENT 11 19 84 31 75 58 53 69
REMARK Flexibility Score: inf
ROOT
ATOM      1  C   UNL A   1      38.910  21.875  26.158  1.00  0.00     0.188 C 
ENDROOT
BRANCH   1   2
ATOM      2  C   UNL A   1      37.882  21.767  25.029  1.00  0.00     0.188 C 
BRANCH   2   3
ATOM      3  O   UNL A   1      36.736  22.607  24.961  1.00  0.00    -0.376 OA
BRANCH   3   4
ATOM      4  C   UNL A   1      35.767  22.393  25.997  1.00  0.00     0.202 C 
BRANCH   4   5
ATOM      5  C   UNL A   1      34.387  23.148  25.999  1.00  0.00     0.261 C 
BRANCH   5   6
ATOM      6  O   UNL A   1      34.403  24.602  25.735  1.00  0.00    -0.463 OA
BRANCH   6   7
ATOM      7  C   UNL A   1      33.911  25.065  24.556  1.00  0.00     0.309 C 
ATOM      8  O   UNL A   1      34.200  24.537  23.485  1.00  0.00    -0.252 OA
BRANCH   7   9
ATOM      9  C   UNL A   1      32.836  26.224  24.649  1.00  0.00     0.099 C 
ATOM     10  C   UNL A   1      32.076  28.945  26.253  1.00  0.00     0.008 C 
ATOM     11  C   UNL A   1      32.424  28.832  24.712  1.00  0.00     0.006 C 
ATOM     12  C   UNL A   1      32.191  27.548  26.911  1.00  0.00     0.006 C 
ATOM     13  C   UNL A   1      33.177  27.606  24.098  1.00  0.00     0.015 C 
ATOM     14  C   UNL A   1      31.969  26.345  25.923  1.00  0.00     0.015 C 
BRANCH  10  15
ATOM     15  C   UNL A   1      32.575  30.413  26.868  1.00  0.00     0.119 C 
BRANCH  15  16
ATOM     16  N   UNL A   1      33.968  30.947  27.119  1.00  0.00    -0.350 N 
ATOM     17  C   UNL A   1      34.797  31.585  28.060  1.00  0.00     0.283 C 
ATOM     18  O   UNL A   1      35.992  31.277  27.806  1.00  0.00    -0.268 OA
ATOM     19  H   UNL A   1      34.503  30.785  26.309  1.00  0.00     0.163 HD
BRANCH  17  20
ATOM     20  C   UNL A   1      34.632  32.696  29.450  1.00  0.00     0.305 C 
BRANCH  20  21
ATOM     21  C   UNL A   1      35.819  32.709  30.677  1.00  0.00     0.022 A 
ATOM     22  C   UNL A   1      38.650  34.051  30.222  1.00  0.00     0.045 C 
ATOM     23  C   UNL A   1      37.421  33.645  30.988  1.00  0.00    -0.041 A 
ATOM     24  C   UNL A   1      37.555  34.627  32.552  1.00  0.00     0.004 A 
ATOM     25  C   UNL A   1      36.198  34.453  33.787  1.00  0.00     0.000 A 
ATOM     26  C   UNL A   1      34.577  32.687  31.952  1.00  0.00     0.011 A 
ATOM     27  C   UNL A   1      34.768  33.515  33.455  1.00  0.00     0.001 A 
ENDBRANCH  20  21
BRANCH  20  28
ATOM     28  N   UNL A   1      34.324  34.044  28.908  1.00  0.00    -0.326 N 
ATOM     29  C   UNL A   1      33.106  34.700  29.309  1.00  0.00     0.333 C 
ATOM     30  C   UNL A   1      35.364  34.873  28.344  1.00  0.00     0.333 C 
ATOM     31  H   UNL A   1      34.038  33.622  28.025  1.00  0.00     0.348 HD
ENDBRANCH  20  28
ENDBRANCH  17  20
ENDBRANCH  15  16
ENDBRANCH  10  15
ENDBRANCH   7   9
ENDBRANCH   6   7
ENDBRANCH   5   6
ENDBRANCH   4   5
ENDBRANCH   3   4
ENDBRANCH   2   3
ENDBRANCH   1   2
BRANCH   1  32
ATOM     32  O   UNL A   1      40.183  21.372  25.733  1.00  0.00    -0.377 OA
BRANCH  32  33
ATOM     33  C   UNL A   1      40.385  20.036  26.155  1.00  0.00     0.188 C 
BRANCH  33  34
ATOM     34  C   UNL A   1      41.536  19.945  27.129  1.00  0.00     0.188 C 
BRANCH  34  35
ATOM     35  O   UNL A   1      42.630  19.141  26.759  1.00  0.00    -0.376 OA
BRANCH  35  36
ATOM     36  C   UNL A   1      43.161  19.319  25.449  1.00  0.00     0.202 C 
BRANCH  36  37
ATOM     37  C   UNL A   1      44.216  20.420  25.153  1.00  0.00     0.261 C 
BRANCH  37  38
ATOM     38  O   UNL A   1      43.612  21.728  24.998  1.00  0.00    -0.460 OA
BRANCH  38  39
ATOM     39  C   UNL A   1      44.046  22.709  25.853  1.00  0.00     0.338 C 
ATOM     40  O   UNL A   1      45.072  22.655  26.513  1.00  0.00    -0.246 OA
BRANCH  39  41
ATOM     41  C   UNL A   1      42.914  23.667  26.160  1.00  0.00     0.060 A 
ATOM     42  C   UNL A   1      42.871  24.853  25.422  1.00  0.00     0.016 A 
ATOM     43  C   UNL A   1      42.329  23.664  27.423  1.00  0.00     0.016 A 
ATOM     44  C   UNL A   1      42.626  26.071  26.076  1.00  0.00     0.010 A 
ATOM     45  C   UNL A   1      42.231  24.891  28.091  1.00  0.00     0.010 A 
ATOM     46  C   UNL A   1      42.519  26.116  27.461  1.00  0.00    -0.014 A 
BRANCH  46  47
ATOM     47  C   UNL A   1      42.895  27.272  28.341  1.00  0.00     0.031 A 
ATOM     48  C   UNL A   1      41.812  28.122  28.959  1.00  0.00     0.074 A 
ATOM     49  C   UNL A   1      44.170  27.479  28.797  1.00  0.00     0.049 A 
ATOM     50  N   UNL A   1      41.993  29.244  29.585  1.00  0.00    -0.248 NA
ATOM     51  C   UNL A   1      40.396  27.771  28.899  1.00  0.00     0.031 C 
ATOM     52  C   UNL A   1      44.604  28.244  29.958  1.00  0.00     0.029 A 
ATOM     53  N   UNL A   1      45.409  27.176  28.241  1.00  0.00    -0.354 N 
ATOM     54  C   UNL A   1      40.804  29.611  30.188  1.00  0.00     0.074 A 
ATOM     55  C   UNL A   1      39.842  28.644  29.743  1.00  0.00     0.031 C 
ATOM     56  C   UNL A   1      45.931  28.420  29.997  1.00  0.00     0.029 A 
ATOM     57  C   UNL A   1      46.425  28.176  28.670  1.00  0.00     0.049 A 
ATOM     58  H   UNL A   1      45.588  26.409  27.650  1.00  0.00     0.167 HD
ATOM     59  C   UNL A   1      40.769  30.668  31.050  1.00  0.00     0.031 A 
ATOM     60  C   UNL A   1      46.983  29.122  27.716  1.00  0.00     0.031 A 
ATOM     61  C   UNL A   1      41.965  31.512  30.880  1.00  0.00     0.049 A 
ATOM     62  C   UNL A   1      46.459  31.142  27.130  1.00  0.00     0.074 A 
ATOM     63  C   UNL A   1      43.046  31.810  31.684  1.00  0.00     0.029 A 
ATOM     64  N   UNL A   1      42.274  32.038  29.606  1.00  0.00    -0.354 N 
ATOM     65  N   UNL A   1      45.155  31.760  27.097  1.00  0.00    -0.248 NA
ATOM     66  C   UNL A   1      47.170  32.602  26.769  1.00  0.00     0.031 C 
ATOM     67  C   UNL A   1      44.012  32.481  30.885  1.00  0.00     0.029 A 
ATOM     68  C   UNL A   1      43.550  32.595  29.571  1.00  0.00     0.049 A 
ATOM     69  H   UNL A   1      41.661  32.014  28.836  1.00  0.00     0.167 HD
ATOM     70  C   UNL A   1      45.092  33.005  27.633  1.00  0.00     0.074 A 
ATOM     71  C   UNL A   1      46.299  33.581  27.122  1.00  0.00     0.031 C 
ATOM     72  C   UNL A   1      44.054  33.427  28.437  1.00  0.00     0.031 A 
BRANCH  59  73
ATOM     73  C   UNL A   1      39.736  30.822  32.183  1.00  0.00    -0.014 A 
ATOM     74  C   UNL A   1      38.462  30.225  32.058  1.00  0.00     0.009 A 
ATOM     75  C   UNL A   1      39.895  31.603  33.349  1.00  0.00     0.009 A 
ATOM     76  C   UNL A   1      37.429  30.412  33.001  1.00  0.00     0.001 A 
ATOM     77  C   UNL A   1      38.870  31.790  34.302  1.00  0.00     0.001 A 
ATOM     78  C   UNL A   1      37.630  31.197  34.126  1.00  0.00     0.000 A 
ENDBRANCH  59  73
BRANCH  60  79
ATOM     79  C   UNL A   1      47.337  27.566  26.741  1.00  0.00    -0.014 A 
ATOM     80  C   UNL A   1      46.679  27.355  25.465  1.00  0.00     0.009 A 
ATOM     81  C   UNL A   1      48.308  26.525  26.924  1.00  0.00     0.009 A 
ATOM     82  C   UNL A   1      47.103  26.449  24.464  1.00  0.00     0.001 A 
ATOM     83  C   UNL A   1      48.775  25.641  25.924  1.00  0.00     0.001 A 
ATOM     84  C   UNL A   1      48.206  25.644  24.669  1.00  0.00     0.000 A 
ENDBRANCH  60  79
BRANCH  72  85
ATOM     85  C   UNL A   1      43.519  34.825  28.365  1.00  0.00    -0.014 A 
ATOM     86  C   UNL A   1      44.063  35.858  29.129  1.00  0.00     0.009 A 
ATOM     87  C   UNL A   1      42.584  35.178  27.365  1.00  0.00     0.009 A 
ATOM     88  C   UNL A   1      43.631  37.173  28.969  1.00  0.00     0.001 A 
ATOM     89  C   UNL A   1      42.192  36.498  27.163  1.00  0.00     0.001 A 
ATOM     90  C   UNL A   1      42.700  37.493  27.985  1.00  0.00     0.000 A 
ENDBRANCH  72  85
ENDBRANCH  46  47
ENDBRANCH  39  41
ENDBRANCH  38  39
ENDBRANCH  37  38
ENDBRANCH  36  37
ENDBRANCH  35  36
ENDBRANCH  34  35
ENDBRANCH  33  34
ENDBRANCH  32  33
ENDBRANCH   1  32
TORSDOF 25
ENDMDL
MODEL 3
REMARK VINA RESULT:      -9.7      3.371      7.250
REMARK SMILES Cc1ccccc1[C@H](C(=O)NC[C@H]1CC[C@@H](C(=O)OCCOCCOCCOCCOC(=O)c2ccc(-c3c4nc(c(-c5ccccc5)c5ccc([nH]5)c(-c5ccccc5)c5nc(c(-c6ccccc6)c6ccc3[nH]6)C=C5)C=C4)cc2)CC1)[NH+](C)C
REMARK SMILES IDX 24 1 23 2 22 3 21 4 20 5 19 6 17 7 18 8 16 9 13 10 14 11
REMARK SMILES IDX 83 12 15 13 82 14 12 15 11 16 9 17 10 18 8 20 7 21 1 22 2 23
REMARK SMILES IDX 3 24 4 25 6 26 5 27 84 28 85 29 86 30 25 32 26 33 27 34
REMARK SMILES IDX 28 35 29 36 30 37 31 38 32 39 33 40 34 41 35 42 81 43 36 44
REMARK SMILES IDX 80 45 37 46 38 47 39 48 74 49 40 50 79 51 73 52 75 53 41 54
REMARK SMILES IDX 78 55 72 56 71 57 42 59 64 60 49 61 63 62 50 63 53 64 62 65
REMARK SMILES IDX 76 66 51 67 52 68 61 70 77 71 54 72 43 73 44 74 48 75 45 76
REMARK SMILES IDX 47 77 46 78 65 79 66 80 70 81 67 82 69 83 68 84 55 85 56 86
REMARK SMILES IDX 60 87 57 88 59 89 58 90
REMARK H PARENT 11 19 84 31 75 58 53 69
REMARK Flexibility Score: inf
ROOT
ATOM      1  C   UNL A   1      32.842  32.510  27.195  1.00  0.00     0.188 C 
ENDROOT
BRANCH   1   2
ATOM      2  C   UNL A   1      34.098  31.964  27.877  1.00  0.00     0.188 C 
BRANCH   2   3
ATOM      3  O   UNL A   1      34.647  30.691  27.555  1.00  0.00    -0.376 OA
BRANCH   3   4
ATOM      4  C   UNL A   1      33.690  29.710  27.131  1.00  0.00     0.202 C 
BRANCH   4   5
ATOM      5  C   UNL A   1      33.830  28.968  25.751  1.00  0.00     0.261 C 
BRANCH   5   6
ATOM      6  O   UNL A   1      33.056  29.497  24.608  1.00  0.00    -0.463 OA
BRANCH   6   7
ATOM      7  C   UNL A   1      32.862  28.708  23.520  1.00  0.00     0.309 C 
ATOM      8  O   UNL A   1      33.651  28.703  22.578  1.00  0.00    -0.252 OA
BRANCH   7   9
ATOM      9  C   UNL A   1      31.647  27.695  23.594  1.00  0.00     0.099 C 
ATOM     10  C   UNL A   1      30.727  24.819  24.791  1.00  0.00     0.008 C 
ATOM     11  C   UNL A   1      30.106  26.229  25.159  1.00  0.00     0.006 C 
ATOM     12  C   UNL A   1      31.887  25.013  23.785  1.00  0.00     0.006 C 
ATOM     13  C   UNL A   1      30.846  27.580  24.887  1.00  0.00     0.015 C 
ATOM     14  C   UNL A   1      31.777  26.315  22.909  1.00  0.00     0.015 C 
BRANCH  10  15
ATOM     15  C   UNL A   1      30.662  23.784  26.097  1.00  0.00     0.119 C 
BRANCH  15  16
ATOM     16  N   UNL A   1      31.773  23.219  26.955  1.00  0.00    -0.350 N 
ATOM     17  C   UNL A   1      32.939  22.431  26.946  1.00  0.00     0.283 C 
ATOM     18  O   UNL A   1      33.660  22.782  27.917  1.00  0.00    -0.268 OA
ATOM     19  H   UNL A   1      31.621  23.520  27.880  1.00  0.00     0.163 HD
BRANCH  17  20
ATOM     20  C   UNL A   1      33.643  21.097  25.987  1.00  0.00     0.305 C 
BRANCH  20  21
ATOM     21  C   UNL A   1      32.632  20.103  25.037  1.00  0.00     0.022 A 
ATOM     22  C   UNL A   1      31.898  20.864  22.053  1.00  0.00     0.045 C 
ATOM     23  C   UNL A   1      32.226  19.955  23.207  1.00  0.00    -0.041 A 
ATOM     24  C   UNL A   1      32.534  18.326  22.384  1.00  0.00     0.004 A 
ATOM     25  C   UNL A   1      33.017  16.907  23.458  1.00  0.00     0.000 A 
ATOM     26  C   UNL A   1      33.144  18.646  25.922  1.00  0.00     0.011 A 
ATOM     27  C   UNL A   1      33.314  17.105  25.163  1.00  0.00     0.001 A 
ENDBRANCH  20  21
BRANCH  20  28
ATOM     28  N   UNL A   1      34.802  21.650  25.240  1.00  0.00    -0.326 N 
ATOM     29  C   UNL A   1      34.575  22.658  24.237  1.00  0.00     0.333 C 
ATOM     30  C   UNL A   1      36.145  21.527  25.758  1.00  0.00     0.333 C 
ATOM     31  H   UNL A   1      34.834  20.807  24.668  1.00  0.00     0.348 HD
ENDBRANCH  20  28
ENDBRANCH  17  20
ENDBRANCH  15  16
ENDBRANCH  10  15
ENDBRANCH   7   9
ENDBRANCH   6   7
ENDBRANCH   5   6
ENDBRANCH   4   5
ENDBRANCH   3   4
ENDBRANCH   2   3
ENDBRANCH   1   2
BRANCH   1  32
ATOM     32  O   UNL A   1      32.449  33.757  27.782  1.00  0.00    -0.377 OA
BRANCH  32  33
ATOM     33  C   UNL A   1      33.524  34.376  28.464  1.00  0.00     0.188 C 
BRANCH  33  34
ATOM     34  C   UNL A   1      33.245  35.842  28.695  1.00  0.00     0.188 C 
BRANCH  34  35
ATOM     35  O   UNL A   1      32.363  36.173  29.740  1.00  0.00    -0.376 OA
BRANCH  35  36
ATOM     36  C   UNL A   1      32.927  36.383  31.031  1.00  0.00     0.202 C 
BRANCH  36  37
ATOM     37  C   UNL A   1      32.944  35.250  32.093  1.00  0.00     0.261 C 
BRANCH  37  38
ATOM     38  O   UNL A   1      33.928  34.231  31.789  1.00  0.00    -0.460 OA
BRANCH  38  39
ATOM     39  C   UNL A   1      34.564  33.655  32.859  1.00  0.00     0.338 C 
ATOM     40  O   UNL A   1      34.108  33.589  33.990  1.00  0.00    -0.246 OA
BRANCH  39  41
ATOM     41  C   UNL A   1      36.035  33.467  32.548  1.00  0.00     0.060 A 
ATOM     42  C   UNL A   1      36.573  32.198  32.774  1.00  0.00     0.016 A 
ATOM     43  C   UNL A   1      36.896  34.560  32.600  1.00  0.00     0.016 A 
ATOM     44  C   UNL A   1      37.813  32.073  33.420  1.00  0.00     0.010 A 
ATOM     45  C   UNL A   1      38.057  34.429  33.372  1.00  0.00     0.010 A 
ATOM     46  C   UNL A   1      38.463  33.197  33.919  1.00  0.00    -0.014 A 
BRANCH  46  47
ATOM     47  C   UNL A   1      39.369  33.238  35.115  1.00  0.00     0.031 A 
ATOM     48  C   UNL A   1      38.774  33.328  36.498  1.00  0.00     0.074 A 
ATOM     49  C   UNL A   1      40.712  32.981  35.041  1.00  0.00     0.049 A 
ATOM     50  N   UNL A   1      39.433  33.550  37.593  1.00  0.00    -0.248 NA
ATOM     51  C   UNL A   1      37.343  33.193  36.758  1.00  0.00     0.031 C 
ATOM     52  C   UNL A   1      41.612  32.555  36.105  1.00  0.00     0.029 A 
ATOM     53  N   UNL A   1      41.636  33.184  34.021  1.00  0.00    -0.354 N 
ATOM     54  C   UNL A   1      38.586  33.349  38.668  1.00  0.00     0.074 A 
ATOM     55  C   UNL A   1      37.295  33.108  38.089  1.00  0.00     0.031 C 
ATOM     56  C   UNL A   1      42.901  32.600  35.742  1.00  0.00     0.029 A 
ATOM     57  C   UNL A   1      42.984  33.457  34.593  1.00  0.00     0.049 A 
ATOM     58  H   UNL A   1      41.429  33.151  33.059  1.00  0.00     0.167 HD
ATOM     59  C   UNL A   1      39.078  33.354  39.940  1.00  0.00     0.031 A 
ATOM     60  C   UNL A   1      43.582  34.779  34.482  1.00  0.00     0.031 A 
ATOM     61  C   UNL A   1      40.408  33.987  39.977  1.00  0.00     0.049 A 
ATOM     62  C   UNL A   1      43.601  36.526  35.763  1.00  0.00     0.074 A 
ATOM     63  C   UNL A   1      41.679  33.523  40.250  1.00  0.00     0.029 A 
ATOM     64  N   UNL A   1      40.574  35.296  39.475  1.00  0.00    -0.354 N 
ATOM     65  N   UNL A   1      42.584  36.980  36.683  1.00  0.00    -0.248 NA
ATOM     66  C   UNL A   1      44.634  37.710  36.309  1.00  0.00     0.031 C 
ATOM     67  C   UNL A   1      42.602  34.539  39.879  1.00  0.00     0.029 A 
ATOM     68  C   UNL A   1      41.918  35.640  39.357  1.00  0.00     0.049 A 
ATOM     69  H   UNL A   1      39.829  35.893  39.236  1.00  0.00     0.167 HD
ATOM     70  C   UNL A   1      43.037  37.355  37.905  1.00  0.00     0.074 A 
ATOM     71  C   UNL A   1      44.217  38.082  37.546  1.00  0.00     0.031 C 
ATOM     72  C   UNL A   1      42.391  37.030  39.079  1.00  0.00     0.031 A 
BRANCH  59  73
ATOM     73  C   UNL A   1      38.426  32.604  41.118  1.00  0.00    -0.014 A 
ATOM     74  C   UNL A   1      38.254  33.257  42.358  1.00  0.00     0.009 A 
ATOM     75  C   UNL A   1      38.045  31.244  41.125  1.00  0.00     0.009 A 
ATOM     76  C   UNL A   1      37.767  32.605  43.511  1.00  0.00     0.001 A 
ATOM     77  C   UNL A   1      37.550  30.584  42.271  1.00  0.00     0.001 A 
ATOM     78  C   UNL A   1      37.414  31.265  43.470  1.00  0.00     0.000 A 
ENDBRANCH  59  73
BRANCH  60  79
ATOM     79  C   UNL A   1      43.202  34.537  32.666  1.00  0.00    -0.014 A 
ATOM     80  C   UNL A   1      44.220  33.991  31.788  1.00  0.00     0.009 A 
ATOM     81  C   UNL A   1      41.978  34.642  31.925  1.00  0.00     0.009 A 
ATOM     82  C   UNL A   1      43.984  33.416  30.517  1.00  0.00     0.001 A 
ATOM     83  C   UNL A   1      41.711  34.036  30.675  1.00  0.00     0.001 A 
ATOM     84  C   UNL A   1      42.707  33.371  29.995  1.00  0.00     0.000 A 
ENDBRANCH  60  79
BRANCH  72  85
ATOM     85  C   UNL A   1      42.319  37.986  40.231  1.00  0.00    -0.014 A 
ATOM     86  C   UNL A   1      41.863  39.295  40.069  1.00  0.00     0.009 A 
ATOM     87  C   UNL A   1      42.512  37.524  41.553  1.00  0.00     0.009 A 
ATOM     88  C   UNL A   1      41.695  40.138  41.165  1.00  0.00     0.001 A 
ATOM     89  C   UNL A   1      42.291  38.345  42.655  1.00  0.00     0.001 A 
ATOM     90  C   UNL A   1      41.904  39.662  42.457  1.00  0.00     0.000 A 
ENDBRANCH  72  85
ENDBRANCH  46  47
ENDBRANCH  39  41
ENDBRANCH  38  39
ENDBRANCH  37  38
ENDBRANCH  36  37
ENDBRANCH  35  36
ENDBRANCH  34  35
ENDBRANCH  33  34
ENDBRANCH  32  33
ENDBRANCH   1  32
TORSDOF 25
ENDMDL
