MODEL 1
REMARK VINA RESULT:      -9.9      0.000      0.000
REMARK SMILES [NH3+]Cc1c(-c2ccccc2)c(C(=O)OCCOCCOCCOCCOC(=O)c2ccc(-c3c4nc(c(-c5ccccc5)c5ccc([nH]5)c(-c5ccccc5)c5nc(c(-c6ccccc6)c6ccc3[nH]6)C=C5)C=C4)cc2)c2ccccn12
REMARK SMILES IDX 20 1 19 2 18 3 17 4 16 5 15 6 14 7 12 8 13 9 11 10 3 11 4 12
REMARK SMILES IDX 82 13 77 14 81 15 78 16 80 17 79 18 2 19 1 20 5 24 6 25
REMARK SMILES IDX 10 26 7 27 9 28 8 29 21 30 22 31 23 32 24 33 25 34 26 35
REMARK SMILES IDX 27 36 28 37 29 38 30 39 76 40 31 41 75 42 32 43 33 44 34 45
REMARK SMILES IDX 69 46 35 47 74 48 68 49 70 50 36 51 73 52 67 53 66 54 37 56
REMARK SMILES IDX 59 57 44 58 58 59 45 60 48 61 57 62 71 63 46 64 47 65 56 67
REMARK SMILES IDX 72 68 49 69 38 70 39 71 43 72 40 73 42 74 41 75 60 76 61 77
REMARK SMILES IDX 65 78 62 79 64 80 63 81 50 82 51 83 55 84 52 85 54 86 53 87
REMARK H PARENT 1 21 1 22 1 23 70 55 48 66
REMARK Flexibility Score: inf
ROOT
ATOM      1  O   UNL A   1      35.620  30.695  28.116  1.00  0.00    -0.377 OA
ENDROOT
BRANCH   1   2
ATOM      2  C   UNL A   1      35.406  29.412  27.545  1.00  0.00     0.188 C 
BRANCH   2   3
ATOM      3  C   UNL A   1      34.067  29.070  26.870  1.00  0.00     0.188 C 
BRANCH   3   4
ATOM      4  O   UNL A   1      32.938  29.721  27.450  1.00  0.00    -0.376 OA
BRANCH   4   5
ATOM      5  C   UNL A   1      31.713  29.004  27.350  1.00  0.00     0.202 C 
BRANCH   5   6
ATOM      6  C   UNL A   1      31.950  27.535  26.998  1.00  0.00     0.261 C 
BRANCH   6   7
ATOM      7  O   UNL A   1      30.749  26.754  26.921  1.00  0.00    -0.460 OA
BRANCH   7   8
ATOM      8  C   UNL A   1      30.843  25.532  26.330  1.00  0.00     0.341 C 
ATOM      9  O   UNL A   1      30.205  24.548  26.689  1.00  0.00    -0.246 OA
BRANCH   8  10
ATOM     10  C   UNL A   1      31.740  25.536  25.181  1.00  0.00     0.093 A 
ATOM     11  C   UNL A   1      32.607  25.925  23.094  1.00  0.00     0.086 A 
ATOM     12  C   UNL A   1      31.576  26.269  23.962  1.00  0.00     0.024 A 
ATOM     13  N   UNL A   1      33.429  25.032  23.768  1.00  0.00    -0.314 N 
ATOM     14  C   UNL A   1      32.965  24.894  25.077  1.00  0.00     0.061 A 
ATOM     15  C   UNL A   1      34.569  24.358  23.311  1.00  0.00     0.092 A 
ATOM     16  C   UNL A   1      33.774  24.141  25.984  1.00  0.00     0.027 A 
ATOM     17  C   UNL A   1      35.301  23.620  24.160  1.00  0.00     0.018 A 
ATOM     18  C   UNL A   1      34.899  23.546  25.549  1.00  0.00     0.004 A 
BRANCH  11  19
ATOM     19  C   UNL A   1      32.841  26.361  21.683  1.00  0.00     0.315 C 
BRANCH  19  20
ATOM     20  N   UNL A   1      31.887  25.763  20.760  1.00  0.00    -0.353 N 
ATOM     21  H   UNL A   1      31.242  25.165  21.277  1.00  0.00     0.344 HD
ATOM     22  H   UNL A   1      32.388  25.205  20.068  1.00  0.00     0.344 HD
ATOM     23  H   UNL A   1      31.363  26.500  20.287  1.00  0.00     0.344 HD
ENDBRANCH  19  20
ENDBRANCH  11  19
BRANCH  12  24
ATOM     24  C   UNL A   1      30.593  27.296  23.665  1.00  0.00    -0.015 A 
ATOM     25  C   UNL A   1      29.241  26.941  23.545  1.00  0.00     0.009 A 
ATOM     26  C   UNL A   1      30.978  28.621  23.458  1.00  0.00     0.009 A 
ATOM     27  C   UNL A   1      28.287  27.899  23.199  1.00  0.00     0.001 A 
ATOM     28  C   UNL A   1      30.018  29.582  23.126  1.00  0.00     0.001 A 
ATOM     29  C   UNL A   1      28.677  29.219  22.990  1.00  0.00     0.000 A 
ENDBRANCH  12  24
ENDBRANCH   8  10
ENDBRANCH   7   8
ENDBRANCH   6   7
ENDBRANCH   5   6
ENDBRANCH   4   5
ENDBRANCH   3   4
ENDBRANCH   2   3
ENDBRANCH   1   2
BRANCH   1  30
ATOM     30  C   UNL A   1      34.741  31.758  27.794  1.00  0.00     0.188 C 
BRANCH  30  31
ATOM     31  C   UNL A   1      34.963  33.124  28.463  1.00  0.00     0.188 C 
BRANCH  31  32
ATOM     32  O   UNL A   1      33.846  34.005  28.381  1.00  0.00    -0.376 OA
BRANCH  32  33
ATOM     33  C   UNL A   1      34.093  35.354  28.757  1.00  0.00     0.202 C 
BRANCH  33  34
ATOM     34  C   UNL A   1      32.972  35.967  29.605  1.00  0.00     0.261 C 
BRANCH  34  35
ATOM     35  O   UNL A   1      32.548  35.153  30.710  1.00  0.00    -0.460 OA
BRANCH  35  36
ATOM     36  C   UNL A   1      32.796  35.623  31.951  1.00  0.00     0.338 C 
ATOM     37  O   UNL A   1      32.108  36.374  32.617  1.00  0.00    -0.246 OA
BRANCH  36  38
ATOM     38  C   UNL A   1      33.991  34.922  32.455  1.00  0.00     0.060 A 
ATOM     39  C   UNL A   1      35.234  35.559  32.361  1.00  0.00     0.016 A 
ATOM     40  C   UNL A   1      33.875  33.657  33.037  1.00  0.00     0.016 A 
ATOM     41  C   UNL A   1      36.377  34.911  32.825  1.00  0.00     0.010 A 
ATOM     42  C   UNL A   1      35.022  33.001  33.481  1.00  0.00     0.010 A 
ATOM     43  C   UNL A   1      36.278  33.615  33.349  1.00  0.00    -0.014 A 
BRANCH  43  44
ATOM     44  C   UNL A   1      37.505  32.816  33.567  1.00  0.00     0.031 A 
ATOM     45  C   UNL A   1      38.290  33.057  34.825  1.00  0.00     0.074 A 
ATOM     46  C   UNL A   1      37.914  31.904  32.671  1.00  0.00     0.049 A 
ATOM     47  N   UNL A   1      39.393  32.487  35.234  1.00  0.00    -0.248 NA
ATOM     48  C   UNL A   1      37.759  34.079  35.743  1.00  0.00     0.031 C 
ATOM     49  C   UNL A   1      37.228  31.566  31.426  1.00  0.00     0.029 A 
ATOM     50  N   UNL A   1      39.025  31.099  32.677  1.00  0.00    -0.354 N 
ATOM     51  C   UNL A   1      39.684  33.075  36.458  1.00  0.00     0.074 A 
ATOM     52  C   UNL A   1      38.660  34.065  36.711  1.00  0.00     0.031 C 
ATOM     53  C   UNL A   1      37.940  30.624  30.781  1.00  0.00     0.029 A 
ATOM     54  C   UNL A   1      39.138  30.312  31.558  1.00  0.00     0.049 A 
ATOM     55  H   UNL A   1      39.679  31.087  33.413  1.00  0.00     0.167 HD
ATOM     56  C   UNL A   1      40.709  32.813  37.301  1.00  0.00     0.031 A 
ATOM     57  C   UNL A   1      40.109  29.450  31.201  1.00  0.00     0.031 A 
ATOM     58  C   UNL A   1      41.747  31.857  37.038  1.00  0.00     0.049 A 
ATOM     59  C   UNL A   1      41.282  29.233  32.119  1.00  0.00     0.074 A 
ATOM     60  C   UNL A   1      42.823  31.511  37.835  1.00  0.00     0.029 A 
ATOM     61  N   UNL A   1      41.846  31.108  35.877  1.00  0.00    -0.354 N 
ATOM     62  N   UNL A   1      41.522  29.759  33.296  1.00  0.00    -0.248 NA
ATOM     63  C   UNL A   1      42.319  28.296  31.657  1.00  0.00     0.031 C 
ATOM     64  C   UNL A   1      43.602  30.584  37.134  1.00  0.00     0.029 A 
ATOM     65  C   UNL A   1      42.983  30.320  35.922  1.00  0.00     0.049 A 
ATOM     66  H   UNL A   1      41.204  31.132  35.132  1.00  0.00     0.167 HD
ATOM     67  C   UNL A   1      42.721  29.202  33.725  1.00  0.00     0.074 A 
ATOM     68  C   UNL A   1      43.153  28.289  32.687  1.00  0.00     0.031 C 
ATOM     69  C   UNL A   1      43.400  29.422  34.877  1.00  0.00     0.031 A 
BRANCH  56  70
ATOM     70  C   UNL A   1      40.761  33.606  38.574  1.00  0.00    -0.014 A 
ATOM     71  C   UNL A   1      40.122  33.148  39.738  1.00  0.00     0.009 A 
ATOM     72  C   UNL A   1      41.452  34.824  38.608  1.00  0.00     0.009 A 
ATOM     73  C   UNL A   1      40.150  33.914  40.904  1.00  0.00     0.001 A 
ATOM     74  C   UNL A   1      41.498  35.577  39.784  1.00  0.00     0.001 A 
ATOM     75  C   UNL A   1      40.839  35.125  40.926  1.00  0.00     0.000 A 
ENDBRANCH  56  70
BRANCH  57  76
ATOM     76  C   UNL A   1      40.024  28.728  29.906  1.00  0.00    -0.014 A 
ATOM     77  C   UNL A   1      40.400  29.357  28.711  1.00  0.00     0.009 A 
ATOM     78  C   UNL A   1      39.543  27.410  29.859  1.00  0.00     0.009 A 
ATOM     79  C   UNL A   1      40.276  28.689  27.490  1.00  0.00     0.001 A 
ATOM     80  C   UNL A   1      39.440  26.737  28.640  1.00  0.00     0.001 A 
ATOM     81  C   UNL A   1      39.800  27.380  27.457  1.00  0.00     0.000 A 
ENDBRANCH  57  76
BRANCH  69  82
ATOM     82  C   UNL A   1      44.669  28.648  35.086  1.00  0.00    -0.014 A 
ATOM     83  C   UNL A   1      45.912  29.174  34.708  1.00  0.00     0.009 A 
ATOM     84  C   UNL A   1      44.621  27.393  35.715  1.00  0.00     0.009 A 
ATOM     85  C   UNL A   1      47.084  28.447  34.931  1.00  0.00     0.001 A 
ATOM     86  C   UNL A   1      45.796  26.680  35.959  1.00  0.00     0.001 A 
ATOM     87  C   UNL A   1      47.025  27.204  35.560  1.00  0.00     0.000 A 
ENDBRANCH  69  82
ENDBRANCH  43  44
ENDBRANCH  36  38
ENDBRANCH  35  36
ENDBRANCH  34  35
ENDBRANCH  33  34
ENDBRANCH  32  33
ENDBRANCH  31  32
ENDBRANCH  30  31
ENDBRANCH   1  30
TORSDOF 23
ENDMDL
MODEL 2
REMARK VINA RESULT:      -9.9      1.393      3.142
REMARK SMILES [NH3+]Cc1c(-c2ccccc2)c(C(=O)OCCOCCOCCOCCOC(=O)c2ccc(-c3c4nc(c(-c5ccccc5)c5ccc([nH]5)c(-c5ccccc5)c5nc(c(-c6ccccc6)c6ccc3[nH]6)C=C5)C=C4)cc2)c2ccccn12
REMARK SMILES IDX 20 1 19 2 18 3 17 4 16 5 15 6 14 7 12 8 13 9 11 10 3 11 4 12
REMARK SMILES IDX 82 13 77 14 81 15 78 16 80 17 79 18 2 19 1 20 5 24 6 25
REMARK SMILES IDX 10 26 7 27 9 28 8 29 21 30 22 31 23 32 24 33 25 34 26 35
REMARK SMILES IDX 27 36 28 37 29 38 30 39 76 40 31 41 75 42 32 43 33 44 34 45
REMARK SMILES IDX 69 46 35 47 74 48 68 49 70 50 36 51 73 52 67 53 66 54 37 56
REMARK SMILES IDX 59 57 44 58 58 59 45 60 48 61 57 62 71 63 46 64 47 65 56 67
REMARK SMILES IDX 72 68 49 69 38 70 39 71 43 72 40 73 42 74 41 75 60 76 61 77
REMARK SMILES IDX 65 78 62 79 64 80 63 81 50 82 51 83 55 84 52 85 54 86 53 87
REMARK H PARENT 1 21 1 22 1 23 70 55 48 66
REMARK Flexibility Score: inf
ROOT
ATOM      1  O   UNL A   1      33.657  30.269  27.754  1.00  0.00    -0.377 OA
ENDROOT
BRANCH   1   2
ATOM      2  C   UNL A   1      33.057  29.166  27.091  1.00  0.00     0.188 C 
BRANCH   2   3
ATOM      3  C   UNL A   1      33.556  28.720  25.705  1.00  0.00     0.188 C 
BRANCH   3   4
ATOM      4  O   UNL A   1      32.889  29.350  24.614  1.00  0.00    -0.376 OA
BRANCH   4   5
ATOM      5  C   UNL A   1      33.544  29.229  23.357  1.00  0.00     0.202 C 
BRANCH   5   6
ATOM      6  C   UNL A   1      34.019  27.797  23.108  1.00  0.00     0.261 C 
BRANCH   6   7
ATOM      7  O   UNL A   1      33.868  27.361  21.749  1.00  0.00    -0.460 OA
BRANCH   7   8
ATOM      8  C   UNL A   1      33.122  26.243  21.539  1.00  0.00     0.341 C 
ATOM      9  O   UNL A   1      33.244  25.514  20.561  1.00  0.00    -0.246 OA
BRANCH   8  10
ATOM     10  C   UNL A   1      32.202  25.971  22.637  1.00  0.00     0.093 A 
ATOM     11  C   UNL A   1      31.239  25.021  24.488  1.00  0.00     0.086 A 
ATOM     12  C   UNL A   1      32.387  25.035  23.704  1.00  0.00     0.024 A 
ATOM     13  N   UNL A   1      30.368  25.962  23.956  1.00  0.00    -0.314 N 
ATOM     14  C   UNL A   1      31.008  26.622  22.906  1.00  0.00     0.061 A 
ATOM     15  C   UNL A   1      29.066  26.291  24.355  1.00  0.00     0.092 A 
ATOM     16  C   UNL A   1      30.336  27.746  22.330  1.00  0.00     0.027 A 
ATOM     17  C   UNL A   1      28.426  27.322  23.781  1.00  0.00     0.018 A 
ATOM     18  C   UNL A   1      29.109  28.089  22.760  1.00  0.00     0.004 A 
BRANCH  11  19
ATOM     19  C   UNL A   1      30.912  24.168  25.671  1.00  0.00     0.315 C 
BRANCH  19  20
ATOM     20  N   UNL A   1      31.288  24.802  26.926  1.00  0.00    -0.353 N 
ATOM     21  H   UNL A   1      30.842  25.718  26.992  1.00  0.00     0.344 HD
ATOM     22  H   UNL A   1      32.301  24.914  26.960  1.00  0.00     0.344 HD
ATOM     23  H   UNL A   1      30.983  24.220  27.707  1.00  0.00     0.344 HD
ENDBRANCH  19  20
ENDBRANCH  11  19
BRANCH  12  24
ATOM     24  C   UNL A   1      33.587  24.284  24.034  1.00  0.00    -0.015 A 
ATOM     25  C   UNL A   1      34.476  24.792  24.993  1.00  0.00     0.009 A 
ATOM     26  C   UNL A   1      33.887  23.087  23.383  1.00  0.00     0.009 A 
ATOM     27  C   UNL A   1      35.664  24.120  25.280  1.00  0.00     0.001 A 
ATOM     28  C   UNL A   1      35.071  22.407  23.684  1.00  0.00     0.001 A 
ATOM     29  C   UNL A   1      35.960  22.927  24.626  1.00  0.00     0.000 A 
ENDBRANCH  12  24
ENDBRANCH   8  10
ENDBRANCH   7   8
ENDBRANCH   6   7
ENDBRANCH   5   6
ENDBRANCH   4   5
ENDBRANCH   3   4
ENDBRANCH   2   3
ENDBRANCH   1   2
BRANCH   1  30
ATOM     30  C   UNL A   1      33.348  31.587  27.336  1.00  0.00     0.188 C 
BRANCH  30  31
ATOM     31  C   UNL A   1      34.028  32.764  28.055  1.00  0.00     0.188 C 
BRANCH  31  32
ATOM     32  O   UNL A   1      33.202  33.916  28.201  1.00  0.00    -0.376 OA
BRANCH  32  33
ATOM     33  C   UNL A   1      33.822  35.050  28.797  1.00  0.00     0.202 C 
BRANCH  33  34
ATOM     34  C   UNL A   1      32.893  35.833  29.730  1.00  0.00     0.261 C 
BRANCH  34  35
ATOM     35  O   UNL A   1      32.522  35.132  30.928  1.00  0.00    -0.460 OA
BRANCH  35  36
ATOM     36  C   UNL A   1      32.885  35.688  32.103  1.00  0.00     0.338 C 
ATOM     37  O   UNL A   1      32.295  36.542  32.739  1.00  0.00    -0.246 OA
BRANCH  36  38
ATOM     38  C   UNL A   1      34.061  34.950  32.595  1.00  0.00     0.060 A 
ATOM     39  C   UNL A   1      35.286  35.621  32.689  1.00  0.00     0.016 A 
ATOM     40  C   UNL A   1      33.944  33.612  32.980  1.00  0.00     0.016 A 
ATOM     41  C   UNL A   1      36.412  34.938  33.144  1.00  0.00     0.010 A 
ATOM     42  C   UNL A   1      35.076  32.924  33.415  1.00  0.00     0.010 A 
ATOM     43  C   UNL A   1      36.318  33.578  33.470  1.00  0.00    -0.014 A 
BRANCH  43  44
ATOM     44  C   UNL A   1      37.551  32.784  33.667  1.00  0.00     0.031 A 
ATOM     45  C   UNL A   1      38.348  33.016  34.919  1.00  0.00     0.074 A 
ATOM     46  C   UNL A   1      37.956  31.883  32.757  1.00  0.00     0.049 A 
ATOM     47  N   UNL A   1      39.458  32.448  35.311  1.00  0.00    -0.248 NA
ATOM     48  C   UNL A   1      37.821  34.026  35.853  1.00  0.00     0.031 C 
ATOM     49  C   UNL A   1      37.259  31.554  31.516  1.00  0.00     0.029 A 
ATOM     50  N   UNL A   1      39.071  31.084  32.744  1.00  0.00    -0.354 N 
ATOM     51  C   UNL A   1      39.758  33.025  36.538  1.00  0.00     0.074 A 
ATOM     52  C   UNL A   1      38.732  34.007  36.812  1.00  0.00     0.031 C 
ATOM     53  C   UNL A   1      37.969  30.623  30.854  1.00  0.00     0.029 A 
ATOM     54  C   UNL A   1      39.177  30.309  31.616  1.00  0.00     0.049 A 
ATOM     55  H   UNL A   1      39.732  31.068  33.474  1.00  0.00     0.167 HD
ATOM     56  C   UNL A   1      40.792  32.759  37.369  1.00  0.00     0.031 A 
ATOM     57  C   UNL A   1      40.149  29.456  31.240  1.00  0.00     0.031 A 
ATOM     58  C   UNL A   1      41.833  31.812  37.085  1.00  0.00     0.049 A 
ATOM     59  C   UNL A   1      41.333  29.236  32.144  1.00  0.00     0.074 A 
ATOM     60  C   UNL A   1      42.919  31.463  37.867  1.00  0.00     0.029 A 
ATOM     61  N   UNL A   1      41.924  31.076  35.915  1.00  0.00    -0.354 N 
ATOM     62  N   UNL A   1      41.581  29.751  33.324  1.00  0.00    -0.248 NA
ATOM     63  C   UNL A   1      42.369  28.310  31.662  1.00  0.00     0.031 C 
ATOM     64  C   UNL A   1      43.696  30.548  37.149  1.00  0.00     0.029 A 
ATOM     65  C   UNL A   1      43.066  30.293  35.941  1.00  0.00     0.049 A 
ATOM     66  H   UNL A   1      41.275  31.103  35.177  1.00  0.00     0.167 HD
ATOM     67  C   UNL A   1      42.787  29.196  33.736  1.00  0.00     0.074 A 
ATOM     68  C   UNL A   1      43.214  28.296  32.684  1.00  0.00     0.031 C 
ATOM     69  C   UNL A   1      43.476  29.408  34.883  1.00  0.00     0.031 A 
BRANCH  56  70
ATOM     70  C   UNL A   1      40.853  33.539  38.649  1.00  0.00    -0.014 A 
ATOM     71  C   UNL A   1      40.186  33.092  39.801  1.00  0.00     0.009 A 
ATOM     72  C   UNL A   1      41.582  34.735  38.703  1.00  0.00     0.009 A 
ATOM     73  C   UNL A   1      40.223  33.847  40.974  1.00  0.00     0.001 A 
ATOM     74  C   UNL A   1      41.636  35.476  39.885  1.00  0.00     0.001 A 
ATOM     75  C   UNL A   1      40.950  35.036  41.015  1.00  0.00     0.000 A 
ENDBRANCH  56  70
BRANCH  57  76
ATOM     76  C   UNL A   1      40.054  28.747  29.939  1.00  0.00    -0.014 A 
ATOM     77  C   UNL A   1      40.536  29.342  28.765  1.00  0.00     0.009 A 
ATOM     78  C   UNL A   1      39.460  27.477  29.864  1.00  0.00     0.009 A 
ATOM     79  C   UNL A   1      40.404  28.690  27.536  1.00  0.00     0.001 A 
ATOM     80  C   UNL A   1      39.349  26.818  28.638  1.00  0.00     0.001 A 
ATOM     81  C   UNL A   1      39.815  27.428  27.475  1.00  0.00     0.000 A 
ENDBRANCH  57  76
BRANCH  69  82
ATOM     82  C   UNL A   1      44.751  28.638  35.071  1.00  0.00    -0.014 A 
ATOM     83  C   UNL A   1      45.987  29.170  34.674  1.00  0.00     0.009 A 
ATOM     84  C   UNL A   1      44.719  27.383  35.698  1.00  0.00     0.009 A 
ATOM     85  C   UNL A   1      47.165  28.447  34.879  1.00  0.00     0.001 A 
ATOM     86  C   UNL A   1      45.900  26.674  35.923  1.00  0.00     0.001 A 
ATOM     87  C   UNL A   1      47.120  27.203  35.507  1.00  0.00     0.000 A 
ENDBRANCH  69  82
ENDBRANCH  43  44
ENDBRANCH  36  38
ENDBRANCH  35  36
ENDBRANCH  34  35
ENDBRANCH  33  34
ENDBRANCH  32  33
ENDBRANCH  31  32
ENDBRANCH  30  31
ENDBRANCH   1  30
TORSDOF 23
ENDMDL
MODEL 3
REMARK VINA RESULT:      -9.9      3.820      8.833
REMARK SMILES [NH3+]Cc1c(-c2ccccc2)c(C(=O)OCCOCCOCCOCCOC(=O)c2ccc(-c3c4nc(c(-c5ccccc5)c5ccc([nH]5)c(-c5ccccc5)c5nc(c(-c6ccccc6)c6ccc3[nH]6)C=C5)C=C4)cc2)c2ccccn12
REMARK SMILES IDX 20 1 19 2 18 3 17 4 16 5 15 6 14 7 12 8 13 9 11 10 3 11 4 12
REMARK SMILES IDX 82 13 77 14 81 15 78 16 80 17 79 18 2 19 1 20 5 24 6 25
REMARK SMILES IDX 10 26 7 27 9 28 8 29 21 30 22 31 23 32 24 33 25 34 26 35
REMARK SMILES IDX 27 36 28 37 29 38 30 39 76 40 31 41 75 42 32 43 33 44 34 45
REMARK SMILES IDX 69 46 35 47 74 48 68 49 70 50 36 51 73 52 67 53 66 54 37 56
REMARK SMILES IDX 59 57 44 58 58 59 45 60 48 61 57 62 71 63 46 64 47 65 56 67
REMARK SMILES IDX 72 68 49 69 38 70 39 71 43 72 40 73 42 74 41 75 60 76 61 77
REMARK SMILES IDX 65 78 62 79 64 80 63 81 50 82 51 83 55 84 52 85 54 86 53 87
REMARK H PARENT 1 21 1 22 1 23 70 55 48 66
REMARK Flexibility Score: inf
ROOT
ATOM      1  O   UNL A   1      39.198  21.844  25.805  1.00  0.00    -0.377 OA
ENDROOT
BRANCH   1   2
ATOM      2  C   UNL A   1      38.288  20.855  25.347  1.00  0.00     0.188 C 
BRANCH   2   3
ATOM      3  C   UNL A   1      36.810  21.205  25.100  1.00  0.00     0.188 C 
BRANCH   3   4
ATOM      4  O   UNL A   1      36.373  22.389  25.764  1.00  0.00    -0.376 OA
BRANCH   4   5
ATOM      5  C   UNL A   1      36.141  23.505  24.914  1.00  0.00     0.202 C 
BRANCH   5   6
ATOM      6  C   UNL A   1      35.688  23.065  23.521  1.00  0.00     0.261 C 
BRANCH   6   7
ATOM      7  O   UNL A   1      34.944  24.064  22.808  1.00  0.00    -0.460 OA
BRANCH   7   8
ATOM      8  C   UNL A   1      33.682  23.735  22.422  1.00  0.00     0.341 C 
ATOM      9  O   UNL A   1      33.393  23.340  21.297  1.00  0.00    -0.246 OA
BRANCH   8  10
ATOM     10  C   UNL A   1      32.719  23.840  23.511  1.00  0.00     0.093 A 
ATOM     11  C   UNL A   1      31.177  23.292  25.118  1.00  0.00     0.086 A 
ATOM     12  C   UNL A   1      32.093  22.762  24.215  1.00  0.00     0.024 A 
ATOM     13  N   UNL A   1      31.258  24.675  25.019  1.00  0.00    -0.314 N 
ATOM     14  C   UNL A   1      32.283  25.002  24.130  1.00  0.00     0.061 A 
ATOM     15  C   UNL A   1      30.510  25.656  25.681  1.00  0.00     0.092 A 
ATOM     16  C   UNL A   1      32.637  26.383  24.016  1.00  0.00     0.027 A 
ATOM     17  C   UNL A   1      30.822  26.953  25.537  1.00  0.00     0.018 A 
ATOM     18  C   UNL A   1      31.949  27.313  24.701  1.00  0.00     0.004 A 
BRANCH  11  19
ATOM     19  C   UNL A   1      30.229  22.583  26.030  1.00  0.00     0.315 C 
BRANCH  19  20
ATOM     20  N   UNL A   1      30.743  22.484  27.388  1.00  0.00    -0.353 N 
ATOM     21  H   UNL A   1      31.669  22.911  27.433  1.00  0.00     0.344 HD
ATOM     22  H   UNL A   1      30.809  21.502  27.656  1.00  0.00     0.344 HD
ATOM     23  H   UNL A   1      30.114  22.971  28.027  1.00  0.00     0.344 HD
ENDBRANCH  19  20
ENDBRANCH  11  19
BRANCH  12  24
ATOM     24  C   UNL A   1      32.400  21.344  24.131  1.00  0.00    -0.015 A 
ATOM     25  C   UNL A   1      33.145  20.739  25.154  1.00  0.00     0.009 A 
ATOM     26  C   UNL A   1      31.997  20.586  23.031  1.00  0.00     0.009 A 
ATOM     27  C   UNL A   1      33.506  19.394  25.064  1.00  0.00     0.001 A 
ATOM     28  C   UNL A   1      32.346  19.234  22.951  1.00  0.00     0.001 A 
ATOM     29  C   UNL A   1      33.105  18.643  23.962  1.00  0.00     0.000 A 
ENDBRANCH  12  24
ENDBRANCH   8  10
ENDBRANCH   7   8
ENDBRANCH   6   7
ENDBRANCH   5   6
ENDBRANCH   4   5
ENDBRANCH   3   4
ENDBRANCH   2   3
ENDBRANCH   1   2
BRANCH   1  30
ATOM     30  C   UNL A   1      40.117  21.525  26.835  1.00  0.00     0.188 C 
BRANCH  30  31
ATOM     31  C   UNL A   1      40.972  20.256  26.689  1.00  0.00     0.188 C 
BRANCH  31  32
ATOM     32  O   UNL A   1      42.366  20.461  26.901  1.00  0.00    -0.376 OA
BRANCH  32  33
ATOM     33  C   UNL A   1      43.146  20.669  25.729  1.00  0.00     0.202 C 
BRANCH  33  34
ATOM     34  C   UNL A   1      43.154  22.125  25.251  1.00  0.00     0.261 C 
BRANCH  34  35
ATOM     35  O   UNL A   1      43.719  23.056  26.188  1.00  0.00    -0.460 OA
BRANCH  35  36
ATOM     36  C   UNL A   1      43.973  24.303  25.739  1.00  0.00     0.338 C 
ATOM     37  O   UNL A   1      44.530  24.626  24.706  1.00  0.00    -0.246 OA
BRANCH  36  38
ATOM     38  C   UNL A   1      43.296  25.245  26.648  1.00  0.00     0.060 A 
ATOM     39  C   UNL A   1      43.623  26.604  26.574  1.00  0.00     0.016 A 
ATOM     40  C   UNL A   1      42.329  24.787  27.547  1.00  0.00     0.016 A 
ATOM     41  C   UNL A   1      43.000  27.510  27.430  1.00  0.00     0.010 A 
ATOM     42  C   UNL A   1      41.722  25.691  28.417  1.00  0.00     0.010 A 
ATOM     43  C   UNL A   1      42.077  27.050  28.380  1.00  0.00    -0.014 A 
BRANCH  43  44
ATOM     44  C   UNL A   1      41.639  27.947  29.471  1.00  0.00     0.031 A 
ATOM     45  C   UNL A   1      42.376  27.882  30.778  1.00  0.00     0.074 A 
ATOM     46  C   UNL A   1      40.610  28.794  29.310  1.00  0.00     0.049 A 
ATOM     47  N   UNL A   1      42.176  28.562  31.877  1.00  0.00    -0.248 NA
ATOM     48  C   UNL A   1      43.488  26.919  30.855  1.00  0.00     0.031 C 
ATOM     49  C   UNL A   1      39.831  28.964  28.086  1.00  0.00     0.029 A 
ATOM     50  N   UNL A   1      40.041  29.669  30.200  1.00  0.00    -0.354 N 
ATOM     51  C   UNL A   1      43.140  28.115  32.772  1.00  0.00     0.074 A 
ATOM     52  C   UNL A   1      43.904  27.087  32.100  1.00  0.00     0.031 C 
ATOM     53  C   UNL A   1      38.875  29.885  28.305  1.00  0.00     0.029 A 
ATOM     54  C   UNL A   1      38.966  30.351  29.687  1.00  0.00     0.049 A 
ATOM     55  H   UNL A   1      40.372  29.796  31.119  1.00  0.00     0.167 HD
ATOM     56  C   UNL A   1      43.374  28.526  34.039  1.00  0.00     0.031 A 
ATOM     57  C   UNL A   1      38.142  31.239  30.277  1.00  0.00     0.031 A 
ATOM     58  C   UNL A   1      42.596  29.520  34.723  1.00  0.00     0.049 A 
ATOM     59  C   UNL A   1      38.372  31.622  31.715  1.00  0.00     0.074 A 
ATOM     60  C   UNL A   1      42.760  30.014  36.004  1.00  0.00     0.029 A 
ATOM     61  N   UNL A   1      41.492  30.159  34.182  1.00  0.00    -0.354 N 
ATOM     62  N   UNL A   1      39.316  31.229  32.536  1.00  0.00    -0.248 NA
ATOM     63  C   UNL A   1      37.422  32.578  32.305  1.00  0.00     0.031 C 
ATOM     64  C   UNL A   1      41.724  30.920  36.257  1.00  0.00     0.029 A 
ATOM     65  C   UNL A   1      40.946  31.023  35.115  1.00  0.00     0.049 A 
ATOM     66  H   UNL A   1      41.148  30.020  33.270  1.00  0.00     0.167 HD
ATOM     67  C   UNL A   1      39.089  31.905  33.729  1.00  0.00     0.074 A 
ATOM     68  C   UNL A   1      37.924  32.741  33.521  1.00  0.00     0.031 C 
ATOM     69  C   UNL A   1      39.784  31.842  34.891  1.00  0.00     0.031 A 
BRANCH  56  70
ATOM     70  C   UNL A   1      44.505  27.864  34.769  1.00  0.00    -0.014 A 
ATOM     71  C   UNL A   1      44.286  26.730  35.568  1.00  0.00     0.009 A 
ATOM     72  C   UNL A   1      45.803  28.382  34.660  1.00  0.00     0.009 A 
ATOM     73  C   UNL A   1      45.342  26.148  36.269  1.00  0.00     0.001 A 
ATOM     74  C   UNL A   1      46.862  27.782  35.345  1.00  0.00     0.001 A 
ATOM     75  C   UNL A   1      46.629  26.672  36.155  1.00  0.00     0.000 A 
ENDBRANCH  56  70
BRANCH  57  76
ATOM     76  C   UNL A   1      37.011  31.826  29.515  1.00  0.00    -0.014 A 
ATOM     77  C   UNL A   1      35.760  31.194  29.494  1.00  0.00     0.009 A 
ATOM     78  C   UNL A   1      37.187  33.012  28.784  1.00  0.00     0.009 A 
ATOM     79  C   UNL A   1      34.711  31.726  28.738  1.00  0.00     0.001 A 
ATOM     80  C   UNL A   1      36.131  33.553  28.049  1.00  0.00     0.001 A 
ATOM     81  C   UNL A   1      34.897  32.906  28.020  1.00  0.00     0.000 A 
ENDBRANCH  57  76
BRANCH  69  82
ATOM     82  C   UNL A   1      39.318  32.718  36.018  1.00  0.00    -0.014 A 
ATOM     83  C   UNL A   1      38.398  32.251  36.968  1.00  0.00     0.009 A 
ATOM     84  C   UNL A   1      39.846  34.011  36.157  1.00  0.00     0.009 A 
ATOM     85  C   UNL A   1      37.995  33.074  38.023  1.00  0.00     0.001 A 
ATOM     86  C   UNL A   1      39.459  34.822  37.225  1.00  0.00     0.001 A 
ATOM     87  C   UNL A   1      38.529  34.356  38.152  1.00  0.00     0.000 A 
ENDBRANCH  69  82
ENDBRANCH  43  44
ENDBRANCH  36  38
ENDBRANCH  35  36
ENDBRANCH  34  35
ENDBRANCH  33  34
ENDBRANCH  32  33
ENDBRANCH  31  32
ENDBRANCH  30  31
ENDBRANCH   1  30
TORSDOF 23
ENDMDL
