MODEL 1
REMARK VINA RESULT:      -8.3      0.000      0.000
REMARK SMILES CC(C)C[C@H](NC(=O)[C@@H](NC(=O)[C@H](C)NC(=O)CNC(=O)OCc1ccccc1)C(C)C)C(=O)OCCOCCOCCOCCOC(=O)c1ccc(-c2c3nc(c(-c4ccccc4)c4ccc([nH]4)c(-c4ccccc4)c4nc(c(-c5ccccc5)c5ccc2[nH]5)C=C4)C=C3)cc1
REMARK SMILES IDX 37 1 36 2 35 3 33 4 34 5 5 6 4 7 2 8 1 9 3 10 6 11 7 12 8 14
REMARK SMILES IDX 9 15 10 16 11 17 12 19 13 20 14 21 15 22 16 23 17 25 18 26
REMARK SMILES IDX 19 27 20 28 21 30 22 31 23 32 24 33 25 34 29 35 26 36 28 37
REMARK SMILES IDX 27 38 30 39 31 40 32 41 38 42 39 43 40 44 41 45 42 46 43 47
REMARK SMILES IDX 44 48 45 49 46 50 47 51 48 52 49 53 50 54 51 55 97 56 52 57
REMARK SMILES IDX 96 58 53 59 54 60 55 61 90 62 56 63 95 64 89 65 91 66 57 67
REMARK SMILES IDX 94 68 88 69 87 70 58 72 80 73 65 74 79 75 66 76 69 77 78 78
REMARK SMILES IDX 92 79 67 80 68 81 77 83 93 84 70 85 59 86 60 87 64 88 61 89
REMARK SMILES IDX 63 90 62 91 81 92 82 93 86 94 83 95 85 96 84 97 71 98 72 99
REMARK SMILES IDX 76 100 73 101 75 102 74 103
REMARK H PARENT 6 13 10 18 15 24 19 29 91 71 69 82
REMARK Flexibility Score: inf
ROOT
ATOM      1  C   UNL A   1      41.450  18.808  25.729  1.00  0.00     0.202 C 
ENDROOT
BRANCH   1   2
ATOM      2  C   UNL A   1      39.910  19.457  26.005  1.00  0.00     0.261 C 
BRANCH   2   3
ATOM      3  O   UNL A   1      39.221  21.123  25.724  1.00  0.00    -0.462 OA
BRANCH   3   4
ATOM      4  C   UNL A   1      38.039  21.950  25.155  1.00  0.00     0.328 C 
ATOM      5  O   UNL A   1      37.424  21.528  24.161  1.00  0.00    -0.250 OA
BRANCH   4   6
ATOM      6  C   UNL A   1      37.097  23.057  25.813  1.00  0.00     0.192 C 
BRANCH   6   7
ATOM      7  C   UNL A   1      38.025  24.275  26.183  1.00  0.00     0.040 C 
BRANCH   7   8
ATOM      8  C   UNL A   1      39.107  24.021  27.255  1.00  0.00    -0.015 C 
ATOM      9  C   UNL A   1      40.529  23.980  26.735  1.00  0.00     0.007 C 
ATOM     10  C   UNL A   1      39.061  25.077  28.356  1.00  0.00     0.007 C 
ENDBRANCH   7   8
ENDBRANCH   6   7
BRANCH   6  11
ATOM     11  N   UNL A   1      36.105  22.926  26.842  1.00  0.00    -0.341 N 
ATOM     12  C   UNL A   1      34.875  23.477  26.740  1.00  0.00     0.243 C 
ATOM     13  H   UNL A   1      36.329  22.416  27.653  1.00  0.00     0.164 HD
ATOM     14  O   UNL A   1      34.072  23.389  27.661  1.00  0.00    -0.273 OA
BRANCH  12  15
ATOM     15  C   UNL A   1      34.534  23.911  25.334  1.00  0.00     0.174 C 
BRANCH  15  16
ATOM     16  N   UNL A   1      33.215  22.771  24.801  1.00  0.00    -0.342 N 
ATOM     17  C   UNL A   1      31.838  22.646  24.053  1.00  0.00     0.242 C 
ATOM     18  H   UNL A   1      33.465  21.869  25.105  1.00  0.00     0.164 HD
ATOM     19  O   UNL A   1      31.365  21.493  24.039  1.00  0.00    -0.273 OA
BRANCH  17  20
ATOM     20  C   UNL A   1      30.834  23.911  23.104  1.00  0.00     0.168 C 
ATOM     21  C   UNL A   1      31.443  24.829  22.004  1.00  0.00     0.041 C 
BRANCH  20  22
ATOM     22  N   UNL A   1      29.817  24.907  23.686  1.00  0.00    -0.343 N 
ATOM     23  C   UNL A   1      29.784  26.283  23.698  1.00  0.00     0.240 C 
ATOM     24  H   UNL A   1      29.049  24.482  24.133  1.00  0.00     0.164 HD
ATOM     25  O   UNL A   1      28.707  26.857  23.887  1.00  0.00    -0.273 OA
BRANCH  23  26
ATOM     26  C   UNL A   1      31.080  27.059  23.520  1.00  0.00     0.219 C 
BRANCH  26  27
ATOM     27  N   UNL A   1      30.580  28.322  23.031  1.00  0.00    -0.312 N 
ATOM     28  C   UNL A   1      30.569  29.405  23.832  1.00  0.00     0.407 C 
ATOM     29  H   UNL A   1      30.244  28.391  22.108  1.00  0.00     0.167 HD
ATOM     30  O   UNL A   1      29.608  30.192  23.830  1.00  0.00    -0.225 OA
BRANCH  28  31
ATOM     31  O   UNL A   1      31.692  29.523  24.572  1.00  0.00    -0.445 OA
BRANCH  31  32
ATOM     32  C   UNL A   1      31.518  29.670  25.987  1.00  0.00     0.270 C 
BRANCH  32  33
ATOM     33  C   UNL A   1      32.222  30.881  26.547  1.00  0.00    -0.011 A 
ATOM     34  C   UNL A   1      33.423  30.715  27.242  1.00  0.00     0.007 A 
ATOM     35  C   UNL A   1      31.649  32.161  26.490  1.00  0.00     0.007 A 
ATOM     36  C   UNL A   1      33.987  31.795  27.923  1.00  0.00     0.000 A 
ATOM     37  C   UNL A   1      32.175  33.218  27.216  1.00  0.00     0.000 A 
ATOM     38  C   UNL A   1      33.344  33.033  27.938  1.00  0.00     0.000 A 
ENDBRANCH  32  33
ENDBRANCH  31  32
ENDBRANCH  28  31
ENDBRANCH  26  27
ENDBRANCH  23  26
ENDBRANCH  20  22
ENDBRANCH  17  20
ENDBRANCH  15  16
BRANCH  15  39
ATOM     39  C   UNL A   1      34.542  25.676  25.378  1.00  0.00     0.015 C 
ATOM     40  C   UNL A   1      34.364  26.377  24.015  1.00  0.00     0.010 C 
ATOM     41  C   UNL A   1      33.576  26.502  26.291  1.00  0.00     0.010 C 
ENDBRANCH  15  39
ENDBRANCH  12  15
ENDBRANCH   6  11
ENDBRANCH   4   6
ENDBRANCH   3   4
ENDBRANCH   2   3
ENDBRANCH   1   2
BRANCH   1  42
ATOM     42  O   UNL A   1      42.582  19.402  26.386  1.00  0.00    -0.376 OA
BRANCH  42  43
ATOM     43  C   UNL A   1      43.907  19.323  25.833  1.00  0.00     0.188 C 
BRANCH  43  44
ATOM     44  C   UNL A   1      44.289  20.624  25.090  1.00  0.00     0.188 C 
BRANCH  44  45
ATOM     45  O   UNL A   1      43.544  21.758  25.514  1.00  0.00    -0.377 OA
BRANCH  45  46
ATOM     46  C   UNL A   1      43.610  22.911  24.662  1.00  0.00     0.188 C 
BRANCH  46  47
ATOM     47  C   UNL A   1      44.950  23.214  24.008  1.00  0.00     0.188 C 
BRANCH  47  48
ATOM     48  O   UNL A   1      45.557  24.457  24.335  1.00  0.00    -0.376 OA
BRANCH  48  49
ATOM     49  C   UNL A   1      46.666  24.443  25.229  1.00  0.00     0.202 C 
BRANCH  49  50
ATOM     50  C   UNL A   1      46.466  23.677  26.547  1.00  0.00     0.261 C 
BRANCH  50  51
ATOM     51  O   UNL A   1      46.177  24.486  27.705  1.00  0.00    -0.460 OA
BRANCH  51  52
ATOM     52  C   UNL A   1      45.332  23.948  28.614  1.00  0.00     0.338 C 
ATOM     53  O   UNL A   1      44.712  22.903  28.514  1.00  0.00    -0.246 OA
BRANCH  52  54
ATOM     54  C   UNL A   1      45.283  24.771  29.844  1.00  0.00     0.060 A 
ATOM     55  C   UNL A   1      44.577  24.289  30.956  1.00  0.00     0.016 A 
ATOM     56  C   UNL A   1      45.752  26.085  29.826  1.00  0.00     0.016 A 
ATOM     57  C   UNL A   1      44.239  25.154  32.001  1.00  0.00     0.010 A 
ATOM     58  C   UNL A   1      45.409  26.950  30.870  1.00  0.00     0.010 A 
ATOM     59  C   UNL A   1      44.590  26.508  31.925  1.00  0.00    -0.014 A 
BRANCH  59  60
ATOM     60  C   UNL A   1      43.929  27.514  32.801  1.00  0.00     0.031 A 
ATOM     61  C   UNL A   1      42.724  28.250  32.271  1.00  0.00     0.074 A 
ATOM     62  C   UNL A   1      44.387  27.788  34.034  1.00  0.00     0.049 A 
ATOM     63  N   UNL A   1      42.051  29.236  32.807  1.00  0.00    -0.248 NA
ATOM     64  C   UNL A   1      42.219  27.822  30.956  1.00  0.00     0.031 C 
ATOM     65  C   UNL A   1      45.509  27.120  34.683  1.00  0.00     0.029 A 
ATOM     66  N   UNL A   1      43.971  28.718  34.954  1.00  0.00    -0.354 N 
ATOM     67  C   UNL A   1      41.059  29.560  31.885  1.00  0.00     0.074 A 
ATOM     68  C   UNL A   1      41.236  28.684  30.748  1.00  0.00     0.031 C 
ATOM     69  C   UNL A   1      45.711  27.674  35.891  1.00  0.00     0.029 A 
ATOM     70  C   UNL A   1      44.753  28.762  36.082  1.00  0.00     0.049 A 
ATOM     71  H   UNL A   1      43.188  29.299  34.818  1.00  0.00     0.167 HD
ATOM     72  C   UNL A   1      40.089  30.500  31.979  1.00  0.00     0.031 A 
ATOM     73  C   UNL A   1      44.722  29.601  37.136  1.00  0.00     0.031 A 
ATOM     74  C   UNL A   1      39.921  31.379  33.105  1.00  0.00     0.049 A 
ATOM     75  C   UNL A   1      43.679  30.688  37.186  1.00  0.00     0.074 A 
ATOM     76  C   UNL A   1      38.952  32.349  33.304  1.00  0.00     0.029 A 
ATOM     77  N   UNL A   1      40.746  31.404  34.218  1.00  0.00    -0.354 N 
ATOM     78  N   UNL A   1      42.732  30.964  36.322  1.00  0.00    -0.248 NA
ATOM     79  C   UNL A   1      43.698  31.570  38.360  1.00  0.00     0.031 C 
ATOM     80  C   UNL A   1      39.233  33.005  34.506  1.00  0.00     0.029 A 
ATOM     81  C   UNL A   1      40.330  32.394  35.092  1.00  0.00     0.049 A 
ATOM     82  H   UNL A   1      41.515  30.807  34.365  1.00  0.00     0.167 HD
ATOM     83  C   UNL A   1      42.023  32.030  36.864  1.00  0.00     0.074 A 
ATOM     84  C   UNL A   1      42.640  32.338  38.138  1.00  0.00     0.031 C 
ATOM     85  C   UNL A   1      40.954  32.692  36.356  1.00  0.00     0.031 A 
BRANCH  72  86
ATOM     86  C   UNL A   1      39.156  30.657  30.808  1.00  0.00    -0.014 A 
ATOM     87  C   UNL A   1      38.447  29.565  30.282  1.00  0.00     0.009 A 
ATOM     88  C   UNL A   1      38.953  31.929  30.248  1.00  0.00     0.009 A 
ATOM     89  C   UNL A   1      37.581  29.739  29.198  1.00  0.00     0.001 A 
ATOM     90  C   UNL A   1      38.063  32.105  29.188  1.00  0.00     0.001 A 
ATOM     91  C   UNL A   1      37.385  31.010  28.657  1.00  0.00     0.000 A 
ENDBRANCH  72  86
BRANCH  73  92
ATOM     92  C   UNL A   1      45.725  29.466  38.227  1.00  0.00    -0.014 A 
ATOM     93  C   UNL A   1      45.535  28.541  39.266  1.00  0.00     0.009 A 
ATOM     94  C   UNL A   1      46.872  30.274  38.243  1.00  0.00     0.009 A 
ATOM     95  C   UNL A   1      46.459  28.448  40.309  1.00  0.00     0.001 A 
ATOM     96  C   UNL A   1      47.812  30.156  39.269  1.00  0.00     0.001 A 
ATOM     97  C   UNL A   1      47.599  29.251  40.307  1.00  0.00     0.000 A 
ENDBRANCH  73  92
BRANCH  85  98
ATOM     98  C   UNL A   1      40.352  33.786  37.196  1.00  0.00    -0.014 A 
ATOM     99  C   UNL A   1      40.731  35.128  37.039  1.00  0.00     0.009 A 
ATOM    100  C   UNL A   1      39.355  33.469  38.133  1.00  0.00     0.009 A 
ATOM    101  C   UNL A   1      40.152  36.124  37.831  1.00  0.00     0.001 A 
ATOM    102  C   UNL A   1      38.753  34.469  38.898  1.00  0.00     0.001 A 
ATOM    103  C   UNL A   1      39.160  35.794  38.754  1.00  0.00     0.000 A 
ENDBRANCH  85  98
ENDBRANCH  59  60
ENDBRANCH  52  54
ENDBRANCH  51  52
ENDBRANCH  50  51
ENDBRANCH  49  50
ENDBRANCH  48  49
ENDBRANCH  47  48
ENDBRANCH  46  47
ENDBRANCH  45  46
ENDBRANCH  44  45
ENDBRANCH  43  44
ENDBRANCH  42  43
ENDBRANCH   1  42
TORSDOF 33
ENDMDL
MODEL 2
REMARK VINA RESULT:      -8.3      6.161     11.278
REMARK SMILES CC(C)C[C@H](NC(=O)[C@@H](NC(=O)[C@H](C)NC(=O)CNC(=O)OCc1ccccc1)C(C)C)C(=O)OCCOCCOCCOCCOC(=O)c1ccc(-c2c3nc(c(-c4ccccc4)c4ccc([nH]4)c(-c4ccccc4)c4nc(c(-c5ccccc5)c5ccc2[nH]5)C=C4)C=C3)cc1
REMARK SMILES IDX 37 1 36 2 35 3 33 4 34 5 5 6 4 7 2 8 1 9 3 10 6 11 7 12 8 14
REMARK SMILES IDX 9 15 10 16 11 17 12 19 13 20 14 21 15 22 16 23 17 25 18 26
REMARK SMILES IDX 19 27 20 28 21 30 22 31 23 32 24 33 25 34 29 35 26 36 28 37
REMARK SMILES IDX 27 38 30 39 31 40 32 41 38 42 39 43 40 44 41 45 42 46 43 47
REMARK SMILES IDX 44 48 45 49 46 50 47 51 48 52 49 53 50 54 51 55 97 56 52 57
REMARK SMILES IDX 96 58 53 59 54 60 55 61 90 62 56 63 95 64 89 65 91 66 57 67
REMARK SMILES IDX 94 68 88 69 87 70 58 72 80 73 65 74 79 75 66 76 69 77 78 78
REMARK SMILES IDX 92 79 67 80 68 81 77 83 93 84 70 85 59 86 60 87 64 88 61 89
REMARK SMILES IDX 63 90 62 91 81 92 82 93 86 94 83 95 85 96 84 97 71 98 72 99
REMARK SMILES IDX 76 100 73 101 75 102 74 103
REMARK H PARENT 6 13 10 18 15 24 19 29 91 71 69 82
REMARK Flexibility Score: inf
ROOT
ATOM      1  C   UNL A   1      46.504  27.281  36.063  1.00  0.00     0.202 C 
ENDROOT
BRANCH   1   2
ATOM      2  C   UNL A   1      45.550  28.287  37.036  1.00  0.00     0.261 C 
BRANCH   2   3
ATOM      3  O   UNL A   1      43.755  28.616  37.058  1.00  0.00    -0.462 OA
BRANCH   3   4
ATOM      4  C   UNL A   1      42.621  29.605  36.680  1.00  0.00     0.328 C 
ATOM      5  O   UNL A   1      42.433  30.612  37.383  1.00  0.00    -0.250 OA
BRANCH   4   6
ATOM      6  C   UNL A   1      41.866  29.888  35.303  1.00  0.00     0.192 C 
BRANCH   6   7
ATOM      7  C   UNL A   1      42.792  29.322  34.160  1.00  0.00     0.040 C 
BRANCH   7   8
ATOM      8  C   UNL A   1      42.421  27.935  33.591  1.00  0.00    -0.015 C 
ATOM      9  C   UNL A   1      43.588  27.122  33.071  1.00  0.00     0.007 C 
ATOM     10  C   UNL A   1      41.704  27.079  34.631  1.00  0.00     0.007 C 
ENDBRANCH   7   8
ENDBRANCH   6   7
BRANCH   6  11
ATOM     11  N   UNL A   1      41.253  31.093  34.821  1.00  0.00    -0.341 N 
ATOM     12  C   UNL A   1      40.016  31.112  34.279  1.00  0.00     0.243 C 
ATOM     13  H   UNL A   1      41.754  31.938  34.888  1.00  0.00     0.164 HD
ATOM     14  O   UNL A   1      39.545  32.151  33.831  1.00  0.00    -0.273 OA
BRANCH  12  15
ATOM     15  C   UNL A   1      39.226  29.855  34.560  1.00  0.00     0.174 C 
BRANCH  15  16
ATOM     16  N   UNL A   1      38.293  30.219  36.083  1.00  0.00    -0.342 N 
ATOM     17  C   UNL A   1      37.995  31.292  37.192  1.00  0.00     0.242 C 
ATOM     18  H   UNL A   1      37.762  29.419  36.300  1.00  0.00     0.164 HD
ATOM     19  O   UNL A   1      37.215  30.905  38.083  1.00  0.00    -0.273 OA
BRANCH  17  20
ATOM     20  C   UNL A   1      38.537  33.078  37.353  1.00  0.00     0.168 C 
ATOM     21  C   UNL A   1      38.227  34.161  36.278  1.00  0.00     0.041 C 
BRANCH  20  22
ATOM     22  N   UNL A   1      39.922  33.586  37.787  1.00  0.00    -0.343 N 
ATOM     23  C   UNL A   1      40.700  33.303  38.887  1.00  0.00     0.240 C 
ATOM     24  H   UNL A   1      40.326  34.233  37.164  1.00  0.00     0.164 HD
ATOM     25  O   UNL A   1      41.912  33.534  38.841  1.00  0.00    -0.273 OA
BRANCH  23  26
ATOM     26  C   UNL A   1      40.041  32.751  40.142  1.00  0.00     0.219 C 
BRANCH  26  27
ATOM     27  N   UNL A   1      39.735  33.972  40.851  1.00  0.00    -0.312 N 
ATOM     28  C   UNL A   1      38.475  34.446  40.876  1.00  0.00     0.407 C 
ATOM     29  H   UNL A   1      40.453  34.459  41.317  1.00  0.00     0.167 HD
ATOM     30  O   UNL A   1      38.248  35.663  40.766  1.00  0.00    -0.225 OA
BRANCH  28  31
ATOM     31  O   UNL A   1      37.551  33.478  41.053  1.00  0.00    -0.445 OA
BRANCH  31  32
ATOM     32  C   UNL A   1      37.009  33.338  42.371  1.00  0.00     0.270 C 
BRANCH  32  33
ATOM     33  C   UNL A   1      37.449  32.070  43.061  1.00  0.00    -0.011 A 
ATOM     34  C   UNL A   1      37.702  30.927  42.297  1.00  0.00     0.007 A 
ATOM     35  C   UNL A   1      37.503  31.970  44.460  1.00  0.00     0.007 A 
ATOM     36  C   UNL A   1      37.926  29.704  42.931  1.00  0.00     0.000 A 
ATOM     37  C   UNL A   1      37.664  30.746  45.088  1.00  0.00     0.000 A 
ATOM     38  C   UNL A   1      37.872  29.609  44.321  1.00  0.00     0.000 A 
ENDBRANCH  32  33
ENDBRANCH  31  32
ENDBRANCH  28  31
ENDBRANCH  26  27
ENDBRANCH  23  26
ENDBRANCH  20  22
ENDBRANCH  17  20
ENDBRANCH  15  16
BRANCH  15  39
ATOM     39  C   UNL A   1      38.637  29.317  32.984  1.00  0.00     0.015 C 
ATOM     40  C   UNL A   1      38.631  27.790  32.762  1.00  0.00     0.010 C 
ATOM     41  C   UNL A   1      37.236  29.728  32.422  1.00  0.00     0.010 C 
ENDBRANCH  15  39
ENDBRANCH  12  15
ENDBRANCH   6  11
ENDBRANCH   4   6
ENDBRANCH   3   4
ENDBRANCH   2   3
ENDBRANCH   1   2
BRANCH   1  42
ATOM     42  O   UNL A   1      45.912  26.103  35.492  1.00  0.00    -0.376 OA
BRANCH  42  43
ATOM     43  C   UNL A   1      45.865  24.855  36.206  1.00  0.00     0.188 C 
BRANCH  43  44
ATOM     44  C   UNL A   1      47.280  24.268  36.414  1.00  0.00     0.188 C 
BRANCH  44  45
ATOM     45  O   UNL A   1      47.775  23.568  35.279  1.00  0.00    -0.377 OA
BRANCH  45  46
ATOM     46  C   UNL A   1      48.585  24.329  34.372  1.00  0.00     0.188 C 
BRANCH  46  47
ATOM     47  C   UNL A   1      49.964  23.776  34.043  1.00  0.00     0.188 C 
BRANCH  47  48
ATOM     48  O   UNL A   1      50.568  24.233  32.840  1.00  0.00    -0.376 OA
BRANCH  48  49
ATOM     49  C   UNL A   1      51.511  25.297  32.929  1.00  0.00     0.202 C 
BRANCH  49  50
ATOM     50  C   UNL A   1      52.214  25.692  31.621  1.00  0.00     0.261 C 
BRANCH  50  51
ATOM     51  O   UNL A   1      51.387  26.346  30.637  1.00  0.00    -0.460 OA
BRANCH  51  52
ATOM     52  C   UNL A   1      50.874  27.547  30.991  1.00  0.00     0.338 C 
ATOM     53  O   UNL A   1      51.482  28.505  31.435  1.00  0.00    -0.246 OA
BRANCH  52  54
ATOM     54  C   UNL A   1      49.422  27.607  30.706  1.00  0.00     0.060 A 
ATOM     55  C   UNL A   1      48.982  28.293  29.564  1.00  0.00     0.016 A 
ATOM     56  C   UNL A   1      48.502  27.170  31.660  1.00  0.00     0.016 A 
ATOM     57  C   UNL A   1      47.635  28.645  29.432  1.00  0.00     0.010 A 
ATOM     58  C   UNL A   1      47.156  27.528  31.530  1.00  0.00     0.010 A 
ATOM     59  C   UNL A   1      46.730  28.328  30.453  1.00  0.00    -0.014 A 
BRANCH  59  60
ATOM     60  C   UNL A   1      45.409  29.007  30.534  1.00  0.00     0.031 A 
ATOM     61  C   UNL A   1      44.212  28.333  29.913  1.00  0.00     0.074 A 
ATOM     62  C   UNL A   1      45.264  30.204  31.128  1.00  0.00     0.049 A 
ATOM     63  N   UNL A   1      42.989  28.778  29.767  1.00  0.00    -0.248 NA
ATOM     64  C   UNL A   1      44.427  26.980  29.373  1.00  0.00     0.031 C 
ATOM     65  C   UNL A   1      46.324  30.942  31.805  1.00  0.00     0.029 A 
ATOM     66  N   UNL A   1      44.164  31.019  31.239  1.00  0.00    -0.354 N 
ATOM     67  C   UNL A   1      42.298  27.770  29.102  1.00  0.00     0.074 A 
ATOM     68  C   UNL A   1      43.243  26.704  28.850  1.00  0.00     0.031 C 
ATOM     69  C   UNL A   1      45.833  32.112  32.246  1.00  0.00     0.029 A 
ATOM     70  C   UNL A   1      44.431  32.221  31.847  1.00  0.00     0.049 A 
ATOM     71  H   UNL A   1      43.270  30.765  30.914  1.00  0.00     0.167 HD
ATOM     72  C   UNL A   1      40.995  27.735  28.735  1.00  0.00     0.031 A 
ATOM     73  C   UNL A   1      43.644  33.299  32.035  1.00  0.00     0.031 A 
ATOM     74  C   UNL A   1      40.058  28.800  28.976  1.00  0.00     0.049 A 
ATOM     75  C   UNL A   1      42.217  33.266  31.554  1.00  0.00     0.074 A 
ATOM     76  C   UNL A   1      38.710  28.848  28.665  1.00  0.00     0.029 A 
ATOM     77  N   UNL A   1      40.373  30.008  29.577  1.00  0.00    -0.354 N 
ATOM     78  N   UNL A   1      41.569  32.297  30.953  1.00  0.00    -0.248 NA
ATOM     79  C   UNL A   1      41.411  34.473  31.788  1.00  0.00     0.031 C 
ATOM     80  C   UNL A   1      38.226  30.112  29.016  1.00  0.00     0.029 A 
ATOM     81  C   UNL A   1      39.254  30.822  29.616  1.00  0.00     0.049 A 
ATOM     82  H   UNL A   1      41.262  30.252  29.924  1.00  0.00     0.167 HD
ATOM     83  C   UNL A   1      40.273  32.765  30.765  1.00  0.00     0.074 A 
ATOM     84  C   UNL A   1      40.224  34.097  31.332  1.00  0.00     0.031 C 
ATOM     85  C   UNL A   1      39.218  32.147  30.181  1.00  0.00     0.031 A 
BRANCH  72  86
ATOM     86  C   UNL A   1      40.512  26.516  27.994  1.00  0.00    -0.014 A 
ATOM     87  C   UNL A   1      39.974  25.410  28.669  1.00  0.00     0.009 A 
ATOM     88  C   UNL A   1      40.561  26.495  26.590  1.00  0.00     0.009 A 
ATOM     89  C   UNL A   1      39.528  24.294  27.956  1.00  0.00     0.001 A 
ATOM     90  C   UNL A   1      40.084  25.393  25.879  1.00  0.00     0.001 A 
ATOM     91  C   UNL A   1      39.577  24.289  26.562  1.00  0.00     0.000 A 
ENDBRANCH  72  86
BRANCH  73  92
ATOM     92  C   UNL A   1      44.193  34.516  32.691  1.00  0.00    -0.014 A 
ATOM     93  C   UNL A   1      44.366  35.706  31.967  1.00  0.00     0.009 A 
ATOM     94  C   UNL A   1      44.564  34.490  34.045  1.00  0.00     0.009 A 
ATOM     95  C   UNL A   1      44.922  36.833  32.577  1.00  0.00     0.001 A 
ATOM     96  C   UNL A   1      45.087  35.627  34.662  1.00  0.00     0.001 A 
ATOM     97  C   UNL A   1      45.276  36.795  33.925  1.00  0.00     0.000 A 
ENDBRANCH  73  92
BRANCH  85  98
ATOM     98  C   UNL A   1      37.905  32.883  30.164  1.00  0.00    -0.014 A 
ATOM     99  C   UNL A   1      37.477  33.600  29.036  1.00  0.00     0.009 A 
ATOM    100  C   UNL A   1      37.063  32.819  31.286  1.00  0.00     0.009 A 
ATOM    101  C   UNL A   1      36.252  34.270  29.048  1.00  0.00     0.001 A 
ATOM    102  C   UNL A   1      35.823  33.461  31.283  1.00  0.00     0.001 A 
ATOM    103  C   UNL A   1      35.424  34.195  30.168  1.00  0.00     0.000 A 
ENDBRANCH  85  98
ENDBRANCH  59  60
ENDBRANCH  52  54
ENDBRANCH  51  52
ENDBRANCH  50  51
ENDBRANCH  49  50
ENDBRANCH  48  49
ENDBRANCH  47  48
ENDBRANCH  46  47
ENDBRANCH  45  46
ENDBRANCH  44  45
ENDBRANCH  43  44
ENDBRANCH  42  43
ENDBRANCH   1  42
TORSDOF 33
ENDMDL
MODEL 3
REMARK VINA RESULT:      -8.2      3.249     10.502
REMARK SMILES CC(C)C[C@H](NC(=O)[C@@H](NC(=O)[C@H](C)NC(=O)CNC(=O)OCc1ccccc1)C(C)C)C(=O)OCCOCCOCCOCCOC(=O)c1ccc(-c2c3nc(c(-c4ccccc4)c4ccc([nH]4)c(-c4ccccc4)c4nc(c(-c5ccccc5)c5ccc2[nH]5)C=C4)C=C3)cc1
REMARK SMILES IDX 37 1 36 2 35 3 33 4 34 5 5 6 4 7 2 8 1 9 3 10 6 11 7 12 8 14
REMARK SMILES IDX 9 15 10 16 11 17 12 19 13 20 14 21 15 22 16 23 17 25 18 26
REMARK SMILES IDX 19 27 20 28 21 30 22 31 23 32 24 33 25 34 29 35 26 36 28 37
REMARK SMILES IDX 27 38 30 39 31 40 32 41 38 42 39 43 40 44 41 45 42 46 43 47
REMARK SMILES IDX 44 48 45 49 46 50 47 51 48 52 49 53 50 54 51 55 97 56 52 57
REMARK SMILES IDX 96 58 53 59 54 60 55 61 90 62 56 63 95 64 89 65 91 66 57 67
REMARK SMILES IDX 94 68 88 69 87 70 58 72 80 73 65 74 79 75 66 76 69 77 78 78
REMARK SMILES IDX 92 79 67 80 68 81 77 83 93 84 70 85 59 86 60 87 64 88 61 89
REMARK SMILES IDX 63 90 62 91 81 92 82 93 86 94 83 95 85 96 84 97 71 98 72 99
REMARK SMILES IDX 76 100 73 101 75 102 74 103
REMARK H PARENT 6 13 10 18 15 24 19 29 91 71 69 82
REMARK Flexibility Score: inf
ROOT
ATOM      1  C   UNL A   1      36.351  29.955  27.663  1.00  0.00     0.202 C 
ENDROOT
BRANCH   1   2
ATOM      2  C   UNL A   1      34.814  29.250  27.560  1.00  0.00     0.261 C 
BRANCH   2   3
ATOM      3  O   UNL A   1      34.090  28.075  26.366  1.00  0.00    -0.462 OA
BRANCH   3   4
ATOM      4  C   UNL A   1      33.150  26.857  26.165  1.00  0.00     0.328 C 
ATOM      5  O   UNL A   1      31.936  27.048  25.980  1.00  0.00    -0.250 OA
BRANCH   4   6
ATOM      6  C   UNL A   1      33.431  25.360  25.691  1.00  0.00     0.192 C 
BRANCH   6   7
ATOM      7  C   UNL A   1      32.281  24.987  24.680  1.00  0.00     0.040 C 
BRANCH   7   8
ATOM      8  C   UNL A   1      32.567  25.233  23.183  1.00  0.00    -0.015 C 
ATOM      9  C   UNL A   1      31.371  25.678  22.367  1.00  0.00     0.007 C 
ATOM     10  C   UNL A   1      33.658  26.281  22.989  1.00  0.00     0.007 C 
ENDBRANCH   7   8
ENDBRANCH   6   7
BRANCH   6  11
ATOM     11  N   UNL A   1      33.737  24.192  26.466  1.00  0.00    -0.341 N 
ATOM     12  C   UNL A   1      34.778  23.380  26.178  1.00  0.00     0.243 C 
ATOM     13  H   UNL A   1      33.165  23.973  27.238  1.00  0.00     0.164 HD
ATOM     14  O   UNL A   1      34.978  22.363  26.831  1.00  0.00    -0.273 OA
BRANCH  12  15
ATOM     15  C   UNL A   1      35.769  24.004  25.223  1.00  0.00     0.174 C 
BRANCH  15  16
ATOM     16  N   UNL A   1      37.339  24.057  26.149  1.00  0.00    -0.342 N 
ATOM     17  C   UNL A   1      38.632  23.260  26.549  1.00  0.00     0.242 C 
ATOM     18  H   UNL A   1      37.402  24.945  26.569  1.00  0.00     0.164 HD
ATOM     19  O   UNL A   1      39.404  23.880  27.305  1.00  0.00    -0.273 OA
BRANCH  17  20
ATOM     20  C   UNL A   1      39.255  21.576  26.012  1.00  0.00     0.168 C 
ATOM     21  C   UNL A   1      38.374  20.550  25.241  1.00  0.00     0.041 C 
BRANCH  20  22
ATOM     22  N   UNL A   1      40.067  20.580  26.857  1.00  0.00    -0.343 N 
ATOM     23  C   UNL A   1      41.410  20.278  26.880  1.00  0.00     0.240 C 
ATOM     24  H   UNL A   1      39.527  20.064  27.498  1.00  0.00     0.164 HD
ATOM     25  O   UNL A   1      41.884  19.728  27.880  1.00  0.00    -0.273 OA
BRANCH  23  26
ATOM     26  C   UNL A   1      42.263  20.590  25.661  1.00  0.00     0.219 C 
BRANCH  26  27
ATOM     27  N   UNL A   1      43.458  21.105  26.287  1.00  0.00    -0.312 N 
ATOM     28  C   UNL A   1      44.346  21.821  25.571  1.00  0.00     0.407 C 
ATOM     29  H   UNL A   1      43.625  20.930  27.241  1.00  0.00     0.167 HD
ATOM     30  O   UNL A   1      45.568  21.663  25.725  1.00  0.00    -0.225 OA
BRANCH  28  31
ATOM     31  O   UNL A   1      43.758  22.701  24.732  1.00  0.00    -0.445 OA
BRANCH  31  32
ATOM     32  C   UNL A   1      43.073  23.805  25.334  1.00  0.00     0.270 C 
BRANCH  32  33
ATOM     33  C   UNL A   1      43.954  25.016  25.524  1.00  0.00    -0.011 A 
ATOM     34  C   UNL A   1      45.263  24.995  25.034  1.00  0.00     0.007 A 
ATOM     35  C   UNL A   1      43.536  26.122  26.280  1.00  0.00     0.007 A 
ATOM     36  C   UNL A   1      46.144  26.026  25.363  1.00  0.00     0.000 A 
ATOM     37  C   UNL A   1      44.427  27.114  26.658  1.00  0.00     0.000 A 
ATOM     38  C   UNL A   1      45.735  27.063  26.202  1.00  0.00     0.000 A 
ENDBRANCH  32  33
ENDBRANCH  31  32
ENDBRANCH  28  31
ENDBRANCH  26  27
ENDBRANCH  23  26
ENDBRANCH  20  22
ENDBRANCH  17  20
ENDBRANCH  15  16
BRANCH  15  39
ATOM     39  C   UNL A   1      35.417  23.279  23.652  1.00  0.00     0.015 C 
ATOM     40  C   UNL A   1      36.648  22.869  22.817  1.00  0.00     0.010 C 
ATOM     41  C   UNL A   1      34.488  22.031  23.487  1.00  0.00     0.010 C 
ENDBRANCH  15  39
ENDBRANCH  12  15
ENDBRANCH   6  11
ENDBRANCH   4   6
ENDBRANCH   3   4
ENDBRANCH   2   3
ENDBRANCH   1   2
BRANCH   1  42
ATOM     42  O   UNL A   1      36.981  30.063  28.949  1.00  0.00    -0.376 OA
BRANCH  42  43
ATOM     43  C   UNL A   1      36.562  31.039  29.919  1.00  0.00     0.188 C 
BRANCH  43  44
ATOM     44  C   UNL A   1      36.403  30.411  31.323  1.00  0.00     0.188 C 
BRANCH  44  45
ATOM     45  O   UNL A   1      35.343  30.979  32.081  1.00  0.00    -0.377 OA
BRANCH  45  46
ATOM     46  C   UNL A   1      35.069  32.367  31.841  1.00  0.00     0.188 C 
BRANCH  46  47
ATOM     47  C   UNL A   1      34.401  33.146  32.966  1.00  0.00     0.188 C 
BRANCH  47  48
ATOM     48  O   UNL A   1      35.205  34.095  33.654  1.00  0.00    -0.376 OA
BRANCH  48  49
ATOM     49  C   UNL A   1      35.944  35.032  32.877  1.00  0.00     0.202 C 
BRANCH  49  50
ATOM     50  C   UNL A   1      36.815  34.446  31.754  1.00  0.00     0.261 C 
BRANCH  50  51
ATOM     51  O   UNL A   1      38.235  34.666  31.883  1.00  0.00    -0.460 OA
BRANCH  51  52
ATOM     52  C   UNL A   1      38.966  34.527  30.753  1.00  0.00     0.338 C 
ATOM     53  O   UNL A   1      38.911  35.219  29.752  1.00  0.00    -0.246 OA
BRANCH  52  54
ATOM     54  C   UNL A   1      39.944  33.424  30.888  1.00  0.00     0.060 A 
ATOM     55  C   UNL A   1      39.480  32.100  30.898  1.00  0.00     0.016 A 
ATOM     56  C   UNL A   1      41.275  33.703  31.206  1.00  0.00     0.016 A 
ATOM     57  C   UNL A   1      40.312  31.067  31.339  1.00  0.00     0.010 A 
ATOM     58  C   UNL A   1      42.105  32.669  31.651  1.00  0.00     0.010 A 
ATOM     59  C   UNL A   1      41.606  31.361  31.788  1.00  0.00    -0.014 A 
BRANCH  59  60
ATOM     60  C   UNL A   1      42.364  30.378  32.610  1.00  0.00     0.031 A 
ATOM     61  C   UNL A   1      42.702  30.737  34.035  1.00  0.00     0.074 A 
ATOM     62  C   UNL A   1      42.764  29.196  32.108  1.00  0.00     0.049 A 
ATOM     63  N   UNL A   1      43.439  30.091  34.902  1.00  0.00    -0.248 NA
ATOM     64  C   UNL A   1      42.143  32.000  34.544  1.00  0.00     0.031 C 
ATOM     65  C   UNL A   1      42.466  28.707  30.768  1.00  0.00     0.029 A 
ATOM     66  N   UNL A   1      43.525  28.201  32.669  1.00  0.00    -0.354 N 
ATOM     67  C   UNL A   1      43.448  30.879  36.049  1.00  0.00     0.074 A 
ATOM     68  C   UNL A   1      42.667  32.060  35.758  1.00  0.00     0.031 C 
ATOM     69  C   UNL A   1      43.055  27.511  30.596  1.00  0.00     0.029 A 
ATOM     70  C   UNL A   1      43.803  27.170  31.805  1.00  0.00     0.049 A 
ATOM     71  H   UNL A   1      43.842  28.224  33.601  1.00  0.00     0.167 HD
ATOM     72  C   UNL A   1      44.052  30.639  37.238  1.00  0.00     0.031 A 
ATOM     73  C   UNL A   1      44.593  26.089  31.959  1.00  0.00     0.031 A 
ATOM     74  C   UNL A   1      44.838  29.469  37.524  1.00  0.00     0.049 A 
ATOM     75  C   UNL A   1      45.313  25.879  33.265  1.00  0.00     0.074 A 
ATOM     76  C   UNL A   1      45.469  29.123  38.707  1.00  0.00     0.029 A 
ATOM     77  N   UNL A   1      45.111  28.459  36.615  1.00  0.00    -0.354 N 
ATOM     78  N   UNL A   1      45.291  26.616  34.349  1.00  0.00    -0.248 NA
ATOM     79  C   UNL A   1      46.160  24.683  33.369  1.00  0.00     0.031 C 
ATOM     80  C   UNL A   1      46.180  27.939  38.492  1.00  0.00     0.029 A 
ATOM     81  C   UNL A   1      45.928  27.506  37.200  1.00  0.00     0.049 A 
ATOM     82  H   UNL A   1      44.774  28.424  35.691  1.00  0.00     0.167 HD
ATOM     83  C   UNL A   1      46.093  25.957  35.274  1.00  0.00     0.074 A 
ATOM     84  C   UNL A   1      46.572  24.753  34.628  1.00  0.00     0.031 C 
ATOM     85  C   UNL A   1      46.401  26.313  36.546  1.00  0.00     0.031 A 
BRANCH  72  86
ATOM     86  C   UNL A   1      43.919  31.688  38.311  1.00  0.00    -0.014 A 
ATOM     87  C   UNL A   1      42.742  31.825  39.063  1.00  0.00     0.009 A 
ATOM     88  C   UNL A   1      45.008  32.526  38.599  1.00  0.00     0.009 A 
ATOM     89  C   UNL A   1      42.647  32.802  40.057  1.00  0.00     0.001 A 
ATOM     90  C   UNL A   1      44.922  33.479  39.615  1.00  0.00     0.001 A 
ATOM     91  C   UNL A   1      43.740  33.624  40.336  1.00  0.00     0.000 A 
ENDBRANCH  72  86
BRANCH  73  92
ATOM     92  C   UNL A   1      44.767  25.128  30.837  1.00  0.00    -0.014 A 
ATOM     93  C   UNL A   1      45.710  25.367  29.825  1.00  0.00     0.009 A 
ATOM     94  C   UNL A   1      43.976  23.970  30.762  1.00  0.00     0.009 A 
ATOM     95  C   UNL A   1      45.838  24.483  28.752  1.00  0.00     0.001 A 
ATOM     96  C   UNL A   1      44.129  23.070  29.706  1.00  0.00     0.001 A 
ATOM     97  C   UNL A   1      45.053  23.332  28.696  1.00  0.00     0.000 A 
ENDBRANCH  73  92
BRANCH  85  98
ATOM     98  C   UNL A   1      47.262  25.369  37.341  1.00  0.00    -0.014 A 
ATOM     99  C   UNL A   1      48.662  25.397  37.253  1.00  0.00     0.009 A 
ATOM    100  C   UNL A   1      46.657  24.463  38.228  1.00  0.00     0.009 A 
ATOM    101  C   UNL A   1      49.436  24.511  38.007  1.00  0.00     0.001 A 
ATOM    102  C   UNL A   1      47.433  23.603  39.006  1.00  0.00     0.001 A 
ATOM    103  C   UNL A   1      48.821  23.620  38.886  1.00  0.00     0.000 A 
ENDBRANCH  85  98
ENDBRANCH  59  60
ENDBRANCH  52  54
ENDBRANCH  51  52
ENDBRANCH  50  51
ENDBRANCH  49  50
ENDBRANCH  48  49
ENDBRANCH  47  48
ENDBRANCH  46  47
ENDBRANCH  45  46
ENDBRANCH  44  45
ENDBRANCH  43  44
ENDBRANCH  42  43
ENDBRANCH   1  42
TORSDOF 33
ENDMDL
