MODEL 1
REMARK VINA RESULT:     -11.0      0.000      0.000
REMARK SMILES Cc1ccc(NC(=O)C[C@@H](C(=O)OCCOCCOCCOCCOC(=O)c2ccc(-c3c4nc(c(-c5ccccc5)c5ccc([nH]5)c(-c5ccccc5)c5nc(c(-c6ccccc6)c6ccc3[nH]6)C=C5)C=C4)cc2)[NH+]2CCOCC2)cc1
REMARK SMILES IDX 18 1 17 2 16 3 15 4 14 5 13 6 11 7 12 8 10 9 9 10 7 11 6 12
REMARK SMILES IDX 8 14 5 15 1 16 2 17 3 18 83 19 4 20 82 21 76 22 77 23 81 24
REMARK SMILES IDX 78 26 80 27 79 28 19 29 20 30 21 31 22 32 23 33 24 34 25 35
REMARK SMILES IDX 26 36 27 37 28 38 29 39 75 40 30 41 74 42 31 43 32 44 33 45
REMARK SMILES IDX 68 46 34 47 73 48 67 49 69 50 35 51 72 52 66 53 65 54 36 56
REMARK SMILES IDX 58 57 43 58 57 59 44 60 47 61 56 62 70 63 45 64 46 65 55 67
REMARK SMILES IDX 71 68 48 69 37 70 38 71 42 72 39 73 41 74 40 75 59 76 60 77
REMARK SMILES IDX 64 78 61 79 63 80 62 81 49 82 50 83 54 84 51 85 53 86 52 87
REMARK H PARENT 6 13 76 25 69 55 47 66
REMARK Flexibility Score: inf
ROOT
ATOM      1  C   UNL A   1      38.622  22.450  25.837  1.00  0.00     0.188 C 
ENDROOT
BRANCH   1   2
ATOM      2  C   UNL A   1      37.391  22.094  24.816  1.00  0.00     0.188 C 
BRANCH   2   3
ATOM      3  O   UNL A   1      36.831  23.233  23.433  1.00  0.00    -0.376 OA
BRANCH   3   4
ATOM      4  C   UNL A   1      34.935  23.467  22.732  1.00  0.00     0.202 C 
BRANCH   4   5
ATOM      5  C   UNL A   1      33.463  23.087  22.321  1.00  0.00     0.261 C 
BRANCH   5   6
ATOM      6  O   UNL A   1      32.891  21.872  22.673  1.00  0.00    -0.459 OA
BRANCH   6   7
ATOM      7  C   UNL A   1      31.988  22.143  23.599  1.00  0.00     0.365 C 
ATOM      8  O   UNL A   1      31.172  23.047  23.471  1.00  0.00    -0.245 OA
BRANCH   7   9
ATOM      9  C   UNL A   1      32.352  21.355  24.828  1.00  0.00     0.304 C 
BRANCH   9  10
ATOM     10  C   UNL A   1      33.089  22.123  25.980  1.00  0.00     0.177 C 
BRANCH  10  11
ATOM     11  C   UNL A   1      32.465  22.927  27.191  1.00  0.00     0.231 C 
ATOM     12  N   UNL A   1      31.864  24.161  27.230  1.00  0.00    -0.326 N 
ATOM     13  H   UNL A   1      31.604  24.426  28.142  1.00  0.00     0.169 HD
ATOM     14  O   UNL A   1      32.580  22.408  28.320  1.00  0.00    -0.274 OA
BRANCH  12  15
ATOM     15  C   UNL A   1      31.526  25.158  26.249  1.00  0.00     0.041 A 
ATOM     16  C   UNL A   1      30.675  28.547  22.485  1.00  0.00     0.044 C 
ATOM     17  C   UNL A   1      30.768  27.369  23.486  1.00  0.00    -0.051 A 
ATOM     18  C   UNL A   1      32.661  27.285  24.018  1.00  0.00     0.005 A 
ATOM     19  C   UNL A   1      29.093  26.502  24.144  1.00  0.00     0.005 A 
ATOM     20  C   UNL A   1      33.125  25.944  25.422  1.00  0.00     0.026 A 
ATOM     21  C   UNL A   1      29.613  25.460  25.834  1.00  0.00     0.026 A 
ENDBRANCH  12  15
ENDBRANCH  10  11
ENDBRANCH   9  10
BRANCH   9  22
ATOM     22  N   UNL A   1      33.008  20.164  24.207  1.00  0.00    -0.319 N 
ATOM     23  C   UNL A   1      33.999  19.547  25.185  1.00  0.00     0.291 C 
ATOM     24  C   UNL A   1      32.065  19.064  23.895  1.00  0.00     0.291 C 
ATOM     25  H   UNL A   1      33.435  20.518  23.352  1.00  0.00     0.348 HD
ATOM     26  C   UNL A   1      34.827  18.516  24.470  1.00  0.00     0.221 C 
ATOM     27  C   UNL A   1      32.880  17.965  23.206  1.00  0.00     0.221 C 
ATOM     28  O   UNL A   1      33.972  17.465  24.000  1.00  0.00    -0.370 OA
ENDBRANCH   9  22
ENDBRANCH   7   9
ENDBRANCH   6   7
ENDBRANCH   5   6
ENDBRANCH   4   5
ENDBRANCH   3   4
ENDBRANCH   2   3
ENDBRANCH   1   2
BRANCH   1  29
ATOM     29  O   UNL A   1      39.229  21.562  26.779  1.00  0.00    -0.377 OA
BRANCH  29  30
ATOM     30  C   UNL A   1      40.594  21.283  26.576  1.00  0.00     0.188 C 
BRANCH  30  31
ATOM     31  C   UNL A   1      40.784  19.853  26.241  1.00  0.00     0.188 C 
BRANCH  31  32
ATOM     32  O   UNL A   1      41.808  19.430  27.114  1.00  0.00    -0.376 OA
BRANCH  32  33
ATOM     33  C   UNL A   1      42.826  18.570  26.644  1.00  0.00     0.202 C 
BRANCH  33  34
ATOM     34  C   UNL A   1      43.287  19.150  25.335  1.00  0.00     0.261 C 
BRANCH  34  35
ATOM     35  O   UNL A   1      44.650  19.639  25.550  1.00  0.00    -0.460 OA
BRANCH  35  36
ATOM     36  C   UNL A   1      45.350  20.011  24.436  1.00  0.00     0.338 C 
ATOM     37  O   UNL A   1      46.089  19.253  23.818  1.00  0.00    -0.246 OA
BRANCH  36  38
ATOM     38  C   UNL A   1      45.341  21.507  24.185  1.00  0.00     0.060 A 
ATOM     39  C   UNL A   1      46.416  22.197  24.671  1.00  0.00     0.016 A 
ATOM     40  C   UNL A   1      44.181  22.255  23.952  1.00  0.00     0.016 A 
ATOM     41  C   UNL A   1      46.135  23.412  25.319  1.00  0.00     0.010 A 
ATOM     42  C   UNL A   1      43.917  23.540  24.598  1.00  0.00     0.010 A 
ATOM     43  C   UNL A   1      44.718  24.253  25.634  1.00  0.00    -0.014 A 
BRANCH  43  44
ATOM     44  C   UNL A   1      44.799  26.267  26.600  1.00  0.00     0.031 A 
ATOM     45  C   UNL A   1      43.676  27.714  26.117  1.00  0.00     0.074 A 
ATOM     46  C   UNL A   1      46.062  27.252  27.037  1.00  0.00     0.049 A 
ATOM     47  N   UNL A   1      43.449  28.734  26.909  1.00  0.00    -0.248 NA
ATOM     48  C   UNL A   1      42.533  27.776  25.135  1.00  0.00     0.031 C 
ATOM     49  C   UNL A   1      46.560  27.539  28.534  1.00  0.00     0.029 A 
ATOM     50  N   UNL A   1      47.446  27.217  26.601  1.00  0.00    -0.354 N 
ATOM     51  C   UNL A   1      42.046  28.958  27.015  1.00  0.00     0.074 A 
ATOM     52  C   UNL A   1      41.534  28.375  25.816  1.00  0.00     0.031 C 
ATOM     53  C   UNL A   1      47.861  27.729  28.770  1.00  0.00     0.029 A 
ATOM     54  C   UNL A   1      48.443  27.584  27.513  1.00  0.00     0.049 A 
ATOM     55  H   UNL A   1      47.679  26.942  25.684  1.00  0.00     0.167 HD
ATOM     56  C   UNL A   1      41.518  29.484  28.187  1.00  0.00     0.031 A 
ATOM     57  C   UNL A   1      49.550  28.207  27.114  1.00  0.00     0.031 A 
ATOM     58  C   UNL A   1      42.616  30.137  28.980  1.00  0.00     0.049 A 
ATOM     59  C   UNL A   1      48.734  29.628  27.081  1.00  0.00     0.074 A 
ATOM     60  C   UNL A   1      43.061  30.169  30.296  1.00  0.00     0.029 A 
ATOM     61  N   UNL A   1      43.677  30.694  28.254  1.00  0.00    -0.354 N 
ATOM     62  N   UNL A   1      47.423  29.831  27.323  1.00  0.00    -0.248 NA
ATOM     63  C   UNL A   1      49.448  30.885  27.266  1.00  0.00     0.031 C 
ATOM     64  C   UNL A   1      44.456  30.575  30.283  1.00  0.00     0.029 A 
ATOM     65  C   UNL A   1      44.853  30.844  28.971  1.00  0.00     0.049 A 
ATOM     66  H   UNL A   1      43.594  30.956  27.308  1.00  0.00     0.167 HD
ATOM     67  C   UNL A   1      47.149  31.090  27.814  1.00  0.00     0.074 A 
ATOM     68  C   UNL A   1      48.479  31.702  27.729  1.00  0.00     0.031 C 
ATOM     69  C   UNL A   1      45.958  31.608  28.332  1.00  0.00     0.031 A 
BRANCH  56  70
ATOM     70  C   UNL A   1      40.057  29.306  28.765  1.00  0.00    -0.014 A 
ATOM     71  C   UNL A   1      39.872  28.698  30.037  1.00  0.00     0.009 A 
ATOM     72  C   UNL A   1      38.834  29.637  28.136  1.00  0.00     0.009 A 
ATOM     73  C   UNL A   1      38.618  28.487  30.660  1.00  0.00     0.001 A 
ATOM     74  C   UNL A   1      37.562  29.452  28.766  1.00  0.00     0.001 A 
ATOM     75  C   UNL A   1      37.454  28.892  30.035  1.00  0.00     0.000 A 
ENDBRANCH  56  70
BRANCH  57  76
ATOM     76  C   UNL A   1      50.152  26.954  26.352  1.00  0.00    -0.014 A 
ATOM     77  C   UNL A   1      50.690  27.232  25.026  1.00  0.00     0.009 A 
ATOM     78  C   UNL A   1      50.715  25.803  26.944  1.00  0.00     0.009 A 
ATOM     79  C   UNL A   1      51.800  26.549  24.453  1.00  0.00     0.001 A 
ATOM     80  C   UNL A   1      51.838  25.124  26.364  1.00  0.00     0.001 A 
ATOM     81  C   UNL A   1      52.404  25.517  25.148  1.00  0.00     0.000 A 
ENDBRANCH  57  76
BRANCH  69  82
ATOM     82  C   UNL A   1      45.559  33.075  28.078  1.00  0.00    -0.014 A 
ATOM     83  C   UNL A   1      45.652  34.080  29.032  1.00  0.00     0.009 A 
ATOM     84  C   UNL A   1      45.252  33.522  26.758  1.00  0.00     0.009 A 
ATOM     85  C   UNL A   1      45.451  35.423  28.707  1.00  0.00     0.001 A 
ATOM     86  C   UNL A   1      45.151  34.865  26.406  1.00  0.00     0.001 A 
ATOM     87  C   UNL A   1      45.233  35.819  27.395  1.00  0.00     0.000 A 
ENDBRANCH  69  82
ENDBRANCH  43  44
ENDBRANCH  36  38
ENDBRANCH  35  36
ENDBRANCH  34  35
ENDBRANCH  33  34
ENDBRANCH  32  33
ENDBRANCH  31  32
ENDBRANCH  30  31
ENDBRANCH  29  30
ENDBRANCH   1  29
TORSDOF 24
ENDMDL
MODEL 2
REMARK VINA RESULT:     -10.7      5.254     10.283
REMARK SMILES Cc1ccc(NC(=O)C[C@@H](C(=O)OCCOCCOCCOCCOC(=O)c2ccc(-c3c4nc(c(-c5ccccc5)c5ccc([nH]5)c(-c5ccccc5)c5nc(c(-c6ccccc6)c6ccc3[nH]6)C=C5)C=C4)cc2)[NH+]2CCOCC2)cc1
REMARK SMILES IDX 18 1 17 2 16 3 15 4 14 5 13 6 11 7 12 8 10 9 9 10 7 11 6 12
REMARK SMILES IDX 8 14 5 15 1 16 2 17 3 18 83 19 4 20 82 21 76 22 77 23 81 24
REMARK SMILES IDX 78 26 80 27 79 28 19 29 20 30 21 31 22 32 23 33 24 34 25 35
REMARK SMILES IDX 26 36 27 37 28 38 29 39 75 40 30 41 74 42 31 43 32 44 33 45
REMARK SMILES IDX 68 46 34 47 73 48 67 49 69 50 35 51 72 52 66 53 65 54 36 56
REMARK SMILES IDX 58 57 43 58 57 59 44 60 47 61 56 62 70 63 45 64 46 65 55 67
REMARK SMILES IDX 71 68 48 69 37 70 38 71 42 72 39 73 41 74 40 75 59 76 60 77
REMARK SMILES IDX 64 78 61 79 63 80 62 81 49 82 50 83 54 84 51 85 53 86 52 87
REMARK H PARENT 6 13 76 25 69 55 47 66
REMARK Flexibility Score: inf
ROOT
ATOM      1  C   UNL A   1      37.402  23.512  25.234  1.00  0.00     0.188 C 
ENDROOT
BRANCH   1   2
ATOM      2  C   UNL A   1      36.057  23.417  26.164  1.00  0.00     0.188 C 
BRANCH   2   3
ATOM      3  O   UNL A   1      34.487  24.385  25.815  1.00  0.00    -0.376 OA
BRANCH   3   4
ATOM      4  C   UNL A   1      33.976  25.305  24.073  1.00  0.00     0.202 C 
BRANCH   4   5
ATOM      5  C   UNL A   1      33.891  26.433  22.977  1.00  0.00     0.261 C 
BRANCH   5   6
ATOM      6  O   UNL A   1      33.970  27.781  23.301  1.00  0.00    -0.459 OA
BRANCH   6   7
ATOM      7  C   UNL A   1      32.726  28.197  23.456  1.00  0.00     0.365 C 
ATOM      8  O   UNL A   1      32.158  28.886  22.618  1.00  0.00    -0.245 OA
BRANCH   7   9
ATOM      9  C   UNL A   1      32.324  27.899  24.876  1.00  0.00     0.304 C 
BRANCH   9  10
ATOM     10  C   UNL A   1      30.822  27.529  25.132  1.00  0.00     0.177 C 
BRANCH  10  11
ATOM     11  C   UNL A   1      29.838  26.690  24.221  1.00  0.00     0.231 C 
ATOM     12  N   UNL A   1      29.779  25.341  23.975  1.00  0.00    -0.326 N 
ATOM     13  H   UNL A   1      29.077  25.105  23.326  1.00  0.00     0.169 HD
ATOM     14  O   UNL A   1      29.007  27.341  23.554  1.00  0.00    -0.274 OA
BRANCH  12  15
ATOM     15  C   UNL A   1      30.505  24.190  24.444  1.00  0.00     0.041 A 
ATOM     16  C   UNL A   1      33.417  20.177  25.783  1.00  0.00     0.044 C 
ATOM     17  C   UNL A   1      32.686  21.523  25.551  1.00  0.00    -0.051 A 
ATOM     18  C   UNL A   1      32.360  21.610  23.612  1.00  0.00     0.005 A 
ATOM     19  C   UNL A   1      32.061  22.588  27.121  1.00  0.00     0.005 A 
ATOM     20  C   UNL A   1      31.302  23.175  22.964  1.00  0.00     0.026 A 
ATOM     21  C   UNL A   1      30.670  23.913  26.398  1.00  0.00     0.026 A 
ENDBRANCH  12  15
ENDBRANCH  10  11
ENDBRANCH   9  10
BRANCH   9  22
ATOM     22  N   UNL A   1      32.919  29.074  25.582  1.00  0.00    -0.319 N 
ATOM     23  C   UNL A   1      31.839  29.814  26.360  1.00  0.00     0.291 C 
ATOM     24  C   UNL A   1      33.923  28.703  26.606  1.00  0.00     0.291 C 
ATOM     25  H   UNL A   1      33.353  29.629  24.845  1.00  0.00     0.348 HD
ATOM     26  C   UNL A   1      32.391  31.122  26.856  1.00  0.00     0.221 C 
ATOM     27  C   UNL A   1      34.479  30.012  27.176  1.00  0.00     0.221 C 
ATOM     28  O   UNL A   1      33.477  30.867  27.758  1.00  0.00    -0.370 OA
ENDBRANCH   9  22
ENDBRANCH   7   9
ENDBRANCH   6   7
ENDBRANCH   5   6
ENDBRANCH   4   5
ENDBRANCH   3   4
ENDBRANCH   2   3
ENDBRANCH   1   2
BRANCH   1  29
ATOM     29  O   UNL A   1      38.353  22.469  25.005  1.00  0.00    -0.377 OA
BRANCH  29  30
ATOM     30  C   UNL A   1      38.588  21.598  26.086  1.00  0.00     0.188 C 
BRANCH  30  31
ATOM     31  C   UNL A   1      40.002  21.681  26.517  1.00  0.00     0.188 C 
BRANCH  31  32
ATOM     32  O   UNL A   1      40.351  23.030  26.295  1.00  0.00    -0.376 OA
BRANCH  32  33
ATOM     33  C   UNL A   1      40.757  23.841  27.377  1.00  0.00     0.202 C 
BRANCH  33  34
ATOM     34  C   UNL A   1      41.584  24.946  26.778  1.00  0.00     0.261 C 
BRANCH  34  35
ATOM     35  O   UNL A   1      40.704  26.109  26.656  1.00  0.00    -0.460 OA
BRANCH  35  36
ATOM     36  C   UNL A   1      41.210  27.193  25.992  1.00  0.00     0.338 C 
ATOM     37  O   UNL A   1      41.997  27.105  25.055  1.00  0.00    -0.246 OA
BRANCH  36  38
ATOM     38  C   UNL A   1      40.925  28.514  26.680  1.00  0.00     0.060 A 
ATOM     39  C   UNL A   1      41.917  28.987  27.492  1.00  0.00     0.016 A 
ATOM     40  C   UNL A   1      39.638  29.007  26.925  1.00  0.00     0.016 A 
ATOM     41  C   UNL A   1      41.511  29.508  28.733  1.00  0.00     0.010 A 
ATOM     42  C   UNL A   1      39.237  29.587  28.207  1.00  0.00     0.010 A 
ATOM     43  C   UNL A   1      40.018  29.701  29.472  1.00  0.00    -0.014 A 
BRANCH  43  44
ATOM     44  C   UNL A   1      39.869  30.737  31.448  1.00  0.00     0.031 A 
ATOM     45  C   UNL A   1      40.028  29.853  33.115  1.00  0.00     0.074 A 
ATOM     46  C   UNL A   1      38.829  31.890  32.034  1.00  0.00     0.049 A 
ATOM     47  N   UNL A   1      40.328  30.479  34.228  1.00  0.00    -0.248 NA
ATOM     48  C   UNL A   1      40.353  28.414  33.430  1.00  0.00     0.031 C 
ATOM     49  C   UNL A   1      39.182  33.431  32.298  1.00  0.00     0.029 A 
ATOM     50  N   UNL A   1      37.526  32.290  31.535  1.00  0.00    -0.354 N 
ATOM     51  C   UNL A   1      41.405  29.813  34.880  1.00  0.00     0.074 A 
ATOM     52  C   UNL A   1      41.318  28.482  34.370  1.00  0.00     0.031 C 
ATOM     53  C   UNL A   1      38.246  34.364  32.101  1.00  0.00     0.029 A 
ATOM     54  C   UNL A   1      37.145  33.631  31.664  1.00  0.00     0.049 A 
ATOM     55  H   UNL A   1      36.924  31.634  31.114  1.00  0.00     0.167 HD
ATOM     56  C   UNL A   1      42.299  30.542  35.653  1.00  0.00     0.031 A 
ATOM     57  C   UNL A   1      35.875  33.971  31.876  1.00  0.00     0.031 A 
ATOM     58  C   UNL A   1      41.685  31.867  36.011  1.00  0.00     0.049 A 
ATOM     59  C   UNL A   1      36.053  33.628  33.469  1.00  0.00     0.074 A 
ATOM     60  C   UNL A   1      42.058  33.206  36.032  1.00  0.00     0.029 A 
ATOM     61  N   UNL A   1      40.291  31.905  36.143  1.00  0.00    -0.354 N 
ATOM     62  N   UNL A   1      37.140  33.123  34.087  1.00  0.00    -0.248 NA
ATOM     63  C   UNL A   1      35.215  34.294  34.458  1.00  0.00     0.031 C 
ATOM     64  C   UNL A   1      40.845  34.005  35.987  1.00  0.00     0.029 A 
ATOM     65  C   UNL A   1      39.729  33.163  35.994  1.00  0.00     0.049 A 
ATOM     66  H   UNL A   1      39.753  31.101  36.325  1.00  0.00     0.167 HD
ATOM     67  C   UNL A   1      37.237  33.497  35.410  1.00  0.00     0.074 A 
ATOM     68  C   UNL A   1      35.971  34.220  35.573  1.00  0.00     0.031 C 
ATOM     69  C   UNL A   1      38.286  33.317  36.316  1.00  0.00     0.031 A 
BRANCH  56  70
ATOM     70  C   UNL A   1      43.805  30.196  35.989  1.00  0.00    -0.014 A 
ATOM     71  C   UNL A   1      44.759  30.112  34.938  1.00  0.00     0.009 A 
ATOM     72  C   UNL A   1      44.359  29.890  37.255  1.00  0.00     0.009 A 
ATOM     73  C   UNL A   1      46.133  29.814  35.113  1.00  0.00     0.001 A 
ATOM     74  C   UNL A   1      45.750  29.613  37.446  1.00  0.00     0.001 A 
ATOM     75  C   UNL A   1      46.641  29.591  36.378  1.00  0.00     0.000 A 
ENDBRANCH  56  70
BRANCH  57  76
ATOM     76  C   UNL A   1      35.374  33.554  30.431  1.00  0.00    -0.014 A 
ATOM     77  C   UNL A   1      34.034  34.012  30.082  1.00  0.00     0.009 A 
ATOM     78  C   UNL A   1      36.182  33.307  29.301  1.00  0.00     0.009 A 
ATOM     79  C   UNL A   1      33.627  34.367  28.764  1.00  0.00     0.001 A 
ATOM     80  C   UNL A   1      35.768  33.673  27.978  1.00  0.00     0.001 A 
ATOM     81  C   UNL A   1      34.517  34.236  27.713  1.00  0.00     0.000 A 
ENDBRANCH  57  76
BRANCH  69  82
ATOM     82  C   UNL A   1      38.004  33.026  37.803  1.00  0.00    -0.014 A 
ATOM     83  C   UNL A   1      37.329  31.901  38.259  1.00  0.00     0.009 A 
ATOM     84  C   UNL A   1      38.611  33.820  38.822  1.00  0.00     0.009 A 
ATOM     85  C   UNL A   1      37.253  31.589  39.618  1.00  0.00     0.001 A 
ATOM     86  C   UNL A   1      38.627  33.462  40.167  1.00  0.00     0.001 A 
ATOM     87  C   UNL A   1      37.926  32.347  40.567  1.00  0.00     0.000 A 
ENDBRANCH  69  82
ENDBRANCH  43  44
ENDBRANCH  36  38
ENDBRANCH  35  36
ENDBRANCH  34  35
ENDBRANCH  33  34
ENDBRANCH  32  33
ENDBRANCH  31  32
ENDBRANCH  30  31
ENDBRANCH  29  30
ENDBRANCH   1  29
TORSDOF 24
ENDMDL
MODEL 3
REMARK VINA RESULT:     -10.3      4.788      9.442
REMARK SMILES Cc1ccc(NC(=O)C[C@@H](C(=O)OCCOCCOCCOCCOC(=O)c2ccc(-c3c4nc(c(-c5ccccc5)c5ccc([nH]5)c(-c5ccccc5)c5nc(c(-c6ccccc6)c6ccc3[nH]6)C=C5)C=C4)cc2)[NH+]2CCOCC2)cc1
REMARK SMILES IDX 18 1 17 2 16 3 15 4 14 5 13 6 11 7 12 8 10 9 9 10 7 11 6 12
REMARK SMILES IDX 8 14 5 15 1 16 2 17 3 18 83 19 4 20 82 21 76 22 77 23 81 24
REMARK SMILES IDX 78 26 80 27 79 28 19 29 20 30 21 31 22 32 23 33 24 34 25 35
REMARK SMILES IDX 26 36 27 37 28 38 29 39 75 40 30 41 74 42 31 43 32 44 33 45
REMARK SMILES IDX 68 46 34 47 73 48 67 49 69 50 35 51 72 52 66 53 65 54 36 56
REMARK SMILES IDX 58 57 43 58 57 59 44 60 47 61 56 62 70 63 45 64 46 65 55 67
REMARK SMILES IDX 71 68 48 69 37 70 38 71 42 72 39 73 41 74 40 75 59 76 60 77
REMARK SMILES IDX 64 78 61 79 63 80 62 81 49 82 50 83 54 84 51 85 53 86 52 87
REMARK H PARENT 6 13 76 25 69 55 47 66
REMARK Flexibility Score: inf
ROOT
ATOM      1  C   UNL A   1      40.883  20.208  27.198  1.00  0.00     0.188 C 
ENDROOT
BRANCH   1   2
ATOM      2  C   UNL A   1      39.866  20.267  25.915  1.00  0.00     0.188 C 
BRANCH   2   3
ATOM      3  O   UNL A   1      38.830  21.772  25.484  1.00  0.00    -0.376 OA
BRANCH   3   4
ATOM      4  C   UNL A   1      36.838  21.810  25.067  1.00  0.00     0.202 C 
BRANCH   4   5
ATOM      5  C   UNL A   1      35.409  21.278  24.672  1.00  0.00     0.261 C 
BRANCH   5   6
ATOM      6  O   UNL A   1      34.566  21.989  23.829  1.00  0.00    -0.459 OA
BRANCH   6   7
ATOM      7  C   UNL A   1      33.574  22.427  24.583  1.00  0.00     0.365 C 
ATOM      8  O   UNL A   1      32.528  21.803  24.715  1.00  0.00    -0.245 OA
BRANCH   7   9
ATOM      9  C   UNL A   1      33.887  23.850  24.960  1.00  0.00     0.304 C 
BRANCH   9  10
ATOM     10  C   UNL A   1      33.142  24.441  26.206  1.00  0.00     0.177 C 
BRANCH  10  11
ATOM     11  C   UNL A   1      31.593  24.440  26.528  1.00  0.00     0.231 C 
ATOM     12  N   UNL A   1      30.611  25.343  26.200  1.00  0.00    -0.326 N 
ATOM     13  H   UNL A   1      29.733  25.097  26.572  1.00  0.00     0.169 HD
ATOM     14  O   UNL A   1      31.176  23.510  27.248  1.00  0.00    -0.274 OA
BRANCH  12  15
ATOM     15  C   UNL A   1      30.566  26.564  25.441  1.00  0.00     0.041 A 
ATOM     16  C   UNL A   1      29.932  30.877  22.726  1.00  0.00     0.044 C 
ATOM     17  C   UNL A   1      30.100  29.732  23.755  1.00  0.00    -0.051 A 
ATOM     18  C   UNL A   1      29.087  28.215  23.017  1.00  0.00     0.005 A 
ATOM     19  C   UNL A   1      31.390  29.947  25.265  1.00  0.00     0.005 A 
ATOM     20  C   UNL A   1      29.195  26.501  24.036  1.00  0.00     0.026 A 
ATOM     21  C   UNL A   1      31.741  28.060  25.992  1.00  0.00     0.026 A 
ENDBRANCH  12  15
ENDBRANCH  10  11
ENDBRANCH   9  10
BRANCH   9  22
ATOM     22  N   UNL A   1      33.743  24.524  23.634  1.00  0.00    -0.319 N 
ATOM     23  C   UNL A   1      32.345  24.283  23.079  1.00  0.00     0.291 C 
ATOM     24  C   UNL A   1      33.863  25.999  23.702  1.00  0.00     0.291 C 
ATOM     25  H   UNL A   1      34.490  24.133  23.060  1.00  0.00     0.348 HD
ATOM     26  C   UNL A   1      32.292  24.745  21.648  1.00  0.00     0.221 C 
ATOM     27  C   UNL A   1      33.764  26.519  22.265  1.00  0.00     0.221 C 
ATOM     28  O   UNL A   1      32.541  26.157  21.598  1.00  0.00    -0.370 OA
ENDBRANCH   9  22
ENDBRANCH   7   9
ENDBRANCH   6   7
ENDBRANCH   5   6
ENDBRANCH   4   5
ENDBRANCH   3   4
ENDBRANCH   2   3
ENDBRANCH   1   2
BRANCH   1  29
ATOM     29  O   UNL A   1      42.302  20.039  27.150  1.00  0.00    -0.377 OA
BRANCH  29  30
ATOM     30  C   UNL A   1      42.868  19.923  25.866  1.00  0.00     0.188 C 
BRANCH  30  31
ATOM     31  C   UNL A   1      43.732  21.090  25.576  1.00  0.00     0.188 C 
BRANCH  31  32
ATOM     32  O   UNL A   1      42.852  22.036  25.010  1.00  0.00    -0.376 OA
BRANCH  32  33
ATOM     33  C   UNL A   1      42.929  23.392  25.397  1.00  0.00     0.202 C 
BRANCH  33  34
ATOM     34  C   UNL A   1      41.733  23.641  26.274  1.00  0.00     0.261 C 
BRANCH  34  35
ATOM     35  O   UNL A   1      41.269  24.996  25.975  1.00  0.00    -0.460 OA
BRANCH  35  36
ATOM     36  C   UNL A   1      40.396  25.555  26.868  1.00  0.00     0.338 C 
ATOM     37  O   UNL A   1      39.258  25.138  27.053  1.00  0.00    -0.246 OA
BRANCH  36  38
ATOM     38  C   UNL A   1      40.860  26.892  27.415  1.00  0.00     0.060 A 
ATOM     39  C   UNL A   1      41.527  26.847  28.607  1.00  0.00     0.016 A 
ATOM     40  C   UNL A   1      40.277  28.120  27.079  1.00  0.00     0.016 A 
ATOM     41  C   UNL A   1      41.173  27.822  29.556  1.00  0.00     0.010 A 
ATOM     42  C   UNL A   1      39.953  29.146  28.069  1.00  0.00     0.010 A 
ATOM     43  C   UNL A   1      40.079  29.093  29.554  1.00  0.00    -0.014 A 
BRANCH  43  44
ATOM     44  C   UNL A   1      39.975  30.488  31.298  1.00  0.00     0.031 A 
ATOM     45  C   UNL A   1      40.462  30.005  33.063  1.00  0.00     0.074 A 
ATOM     46  C   UNL A   1      38.827  31.577  31.796  1.00  0.00     0.049 A 
ATOM     47  N   UNL A   1      40.772  30.887  33.983  1.00  0.00    -0.248 NA
ATOM     48  C   UNL A   1      41.057  28.726  33.597  1.00  0.00     0.031 C 
ATOM     49  C   UNL A   1      38.942  33.174  31.709  1.00  0.00     0.029 A 
ATOM     50  N   UNL A   1      37.428  31.674  31.418  1.00  0.00    -0.354 N 
ATOM     51  C   UNL A   1      42.011  30.534  34.591  1.00  0.00     0.074 A 
ATOM     52  C   UNL A   1      42.094  29.127  34.360  1.00  0.00     0.031 C 
ATOM     53  C   UNL A   1      37.846  33.901  31.473  1.00  0.00     0.029 A 
ATOM     54  C   UNL A   1      36.843  32.944  31.344  1.00  0.00     0.049 A 
ATOM     55  H   UNL A   1      36.903  30.865  31.220  1.00  0.00     0.167 HD
ATOM     56  C   UNL A   1      42.849  31.528  35.077  1.00  0.00     0.031 A 
ATOM     57  C   UNL A   1      35.565  33.136  31.664  1.00  0.00     0.031 A 
ATOM     58  C   UNL A   1      42.064  32.797  35.261  1.00  0.00     0.049 A 
ATOM     59  C   UNL A   1      35.972  33.163  33.252  1.00  0.00     0.074 A 
ATOM     60  C   UNL A   1      42.206  34.150  34.974  1.00  0.00     0.029 A 
ATOM     61  N   UNL A   1      40.706  32.663  35.578  1.00  0.00    -0.354 N 
ATOM     62  N   UNL A   1      37.189  32.960  33.794  1.00  0.00    -0.248 NA
ATOM     63  C   UNL A   1      35.147  33.896  34.204  1.00  0.00     0.031 C 
ATOM     64  C   UNL A   1      40.879  34.740  34.949  1.00  0.00     0.029 A 
ATOM     65  C   UNL A   1      39.928  33.768  35.274  1.00  0.00     0.049 A 
ATOM     66  H   UNL A   1      40.334  31.846  35.984  1.00  0.00     0.167 HD
ATOM     67  C   UNL A   1      37.366  33.613  34.995  1.00  0.00     0.074 A 
ATOM     68  C   UNL A   1      36.022  34.166  35.195  1.00  0.00     0.031 C 
ATOM     69  C   UNL A   1      38.523  33.778  35.761  1.00  0.00     0.031 A 
BRANCH  56  70
ATOM     70  C   UNL A   1      44.420  31.479  35.256  1.00  0.00    -0.014 A 
ATOM     71  C   UNL A   1      45.010  32.003  36.439  1.00  0.00     0.009 A 
ATOM     72  C   UNL A   1      45.380  31.008  34.329  1.00  0.00     0.009 A 
ATOM     73  C   UNL A   1      46.400  32.013  36.714  1.00  0.00     0.001 A 
ATOM     74  C   UNL A   1      46.784  30.990  34.608  1.00  0.00     0.001 A 
ATOM     75  C   UNL A   1      47.293  31.477  35.807  1.00  0.00     0.000 A 
ENDBRANCH  56  70
BRANCH  57  76
ATOM     76  C   UNL A   1      34.986  32.358  30.410  1.00  0.00    -0.014 A 
ATOM     77  C   UNL A   1      34.221  33.172  29.473  1.00  0.00     0.009 A 
ATOM     78  C   UNL A   1      35.531  31.200  29.815  1.00  0.00     0.009 A 
ATOM     79  C   UNL A   1      34.180  32.948  28.067  1.00  0.00     0.001 A 
ATOM     80  C   UNL A   1      35.491  30.985  28.398  1.00  0.00     0.001 A 
ATOM     81  C   UNL A   1      34.857  31.871  27.524  1.00  0.00     0.000 A 
ENDBRANCH  57  76
BRANCH  69  82
ATOM     82  C   UNL A   1      38.459  33.769  37.301  1.00  0.00    -0.014 A 
ATOM     83  C   UNL A   1      37.995  32.696  38.052  1.00  0.00     0.009 A 
ATOM     84  C   UNL A   1      39.073  34.813  38.057  1.00  0.00     0.009 A 
ATOM     85  C   UNL A   1      38.122  32.662  39.442  1.00  0.00     0.001 A 
ATOM     86  C   UNL A   1      39.295  34.740  39.428  1.00  0.00     0.001 A 
ATOM     87  C   UNL A   1      38.797  33.663  40.126  1.00  0.00     0.000 A 
ENDBRANCH  69  82
ENDBRANCH  43  44
ENDBRANCH  36  38
ENDBRANCH  35  36
ENDBRANCH  34  35
ENDBRANCH  33  34
ENDBRANCH  32  33
ENDBRANCH  31  32
ENDBRANCH  30  31
ENDBRANCH  29  30
ENDBRANCH   1  29
TORSDOF 24
ENDMDL
