MODEL 1
REMARK VINA RESULT:      -9.5      0.000      0.000
REMARK SMILES O=C(Cc1cccn1-c1ccc2c(c1)OCCO2)OCCOCCOCCOCCOC(=O)c1ccc(-c2c3nc(c(-c4ccccc4)c4ccc([nH]4)c(-c4ccccc4)c4nc(c(-c5ccccc5)c5ccc2[nH]5)C=C4)C=C3)cc1
REMARK SMILES IDX 25 1 24 2 23 3 22 4 21 5 20 6 19 7 2 8 1 9 3 10 4 11 5 12
REMARK SMILES IDX 8 13 6 14 7 15 9 16 10 17 14 18 11 19 13 20 12 21 15 22
REMARK SMILES IDX 18 23 16 24 17 25 26 26 27 27 28 28 29 29 30 30 31 31 32 32
REMARK SMILES IDX 33 33 34 34 35 35 81 36 36 37 80 38 37 39 38 40 39 41 74 42
REMARK SMILES IDX 40 43 79 44 73 45 75 46 41 47 78 48 72 49 71 50 42 52 64 53
REMARK SMILES IDX 49 54 63 55 50 56 53 57 62 58 76 59 51 60 52 61 61 63 77 64
REMARK SMILES IDX 54 65 43 66 44 67 48 68 45 69 47 70 46 71 65 72 66 73 70 74
REMARK SMILES IDX 67 75 69 76 68 77 55 78 56 79 60 80 57 81 59 82 58 83
REMARK H PARENT 75 51 53 62
REMARK Flexibility Score: inf
ROOT
ATOM      1  O   UNL A   1      41.384  19.771  27.449  1.00  0.00    -0.377 OA
ENDROOT
BRANCH   1   2
ATOM      2  C   UNL A   1      40.784  21.052  27.668  1.00  0.00     0.188 C 
BRANCH   2   3
ATOM      3  C   UNL A   1      40.026  21.575  26.447  1.00  0.00     0.188 C 
BRANCH   3   4
ATOM      4  O   UNL A   1      39.752  22.948  26.650  1.00  0.00    -0.376 OA
BRANCH   4   5
ATOM      5  C   UNL A   1      38.484  23.505  26.414  1.00  0.00     0.202 C 
BRANCH   5   6
ATOM      6  C   UNL A   1      37.382  22.569  25.939  1.00  0.00     0.261 C 
BRANCH   6   7
ATOM      7  O   UNL A   1      37.219  22.364  24.515  1.00  0.00    -0.463 OA
BRANCH   7   8
ATOM      8  C   UNL A   1      36.290  22.842  23.655  1.00  0.00     0.311 C 
ATOM      9  O   UNL A   1      36.559  22.881  22.454  1.00  0.00    -0.252 OA
BRANCH   8  10
ATOM     10  C   UNL A   1      34.986  23.421  24.167  1.00  0.00     0.177 C 
BRANCH  10  11
ATOM     11  C   UNL A   1      33.915  22.387  24.322  1.00  0.00     0.034 A 
ATOM     12  C   UNL A   1      34.104  21.013  24.387  1.00  0.00     0.024 A 
ATOM     13  N   UNL A   1      32.555  22.645  24.518  1.00  0.00    -0.320 N 
ATOM     14  C   UNL A   1      32.883  20.420  24.740  1.00  0.00     0.020 A 
ATOM     15  C   UNL A   1      31.962  21.433  24.838  1.00  0.00     0.091 A 
BRANCH  13  16
ATOM     16  C   UNL A   1      31.838  23.885  24.470  1.00  0.00     0.049 A 
ATOM     17  C   UNL A   1      31.024  24.248  25.558  1.00  0.00     0.031 A 
ATOM     18  C   UNL A   1      31.909  24.738  23.360  1.00  0.00     0.077 A 
ATOM     19  C   UNL A   1      30.275  25.427  25.531  1.00  0.00     0.052 A 
ATOM     20  C   UNL A   1      31.149  25.916  23.335  1.00  0.00     0.163 A 
ATOM     21  C   UNL A   1      30.313  26.242  24.408  1.00  0.00     0.161 A 
ATOM     22  O   UNL A   1      31.245  26.691  22.204  1.00  0.00    -0.486 OA
ATOM     23  O   UNL A   1      29.492  27.340  24.419  1.00  0.00    -0.486 OA
ATOM     24  C   UNL A   1      30.607  27.967  22.368  1.00  0.00     0.271 C 
ATOM     25  C   UNL A   1      29.278  27.827  23.091  1.00  0.00     0.271 C 
ENDBRANCH  13  16
ENDBRANCH  10  11
ENDBRANCH   8  10
ENDBRANCH   7   8
ENDBRANCH   6   7
ENDBRANCH   5   6
ENDBRANCH   4   5
ENDBRANCH   3   4
ENDBRANCH   2   3
ENDBRANCH   1   2
BRANCH   1  26
ATOM     26  C   UNL A   1      42.049  19.644  26.197  1.00  0.00     0.188 C 
BRANCH  26  27
ATOM     27  C   UNL A   1      42.898  18.366  25.958  1.00  0.00     0.188 C 
BRANCH  27  28
ATOM     28  O   UNL A   1      44.157  18.283  25.294  1.00  0.00    -0.376 OA
BRANCH  28  29
ATOM     29  C   UNL A   1      44.551  19.162  24.258  1.00  0.00     0.202 C 
BRANCH  29  30
ATOM     30  C   UNL A   1      45.441  20.351  24.609  1.00  0.00     0.261 C 
BRANCH  30  31
ATOM     31  O   UNL A   1      44.821  21.594  24.333  1.00  0.00    -0.460 OA
BRANCH  31  32
ATOM     32  C   UNL A   1      45.339  22.593  25.041  1.00  0.00     0.338 C 
ATOM     33  O   UNL A   1      46.518  22.719  25.431  1.00  0.00    -0.246 OA
BRANCH  32  34
ATOM     34  C   UNL A   1      44.312  23.545  25.420  1.00  0.00     0.060 A 
ATOM     35  C   UNL A   1      44.613  24.888  25.179  1.00  0.00     0.016 A 
ATOM     36  C   UNL A   1      43.348  23.138  26.351  1.00  0.00     0.016 A 
ATOM     37  C   UNL A   1      44.174  25.816  26.085  1.00  0.00     0.010 A 
ATOM     38  C   UNL A   1      42.940  24.060  27.283  1.00  0.00     0.010 A 
ATOM     39  C   UNL A   1      43.444  25.363  27.188  1.00  0.00    -0.014 A 
BRANCH  39  40
ATOM     40  C   UNL A   1      43.243  26.306  28.283  1.00  0.00     0.031 A 
ATOM     41  C   UNL A   1      44.223  26.078  29.402  1.00  0.00     0.074 A 
ATOM     42  C   UNL A   1      42.182  27.151  28.143  1.00  0.00     0.049 A 
ATOM     43  N   UNL A   1      44.104  26.367  30.656  1.00  0.00    -0.248 NA
ATOM     44  C   UNL A   1      45.490  25.357  29.107  1.00  0.00     0.031 C 
ATOM     45  C   UNL A   1      41.309  27.204  26.947  1.00  0.00     0.029 A 
ATOM     46  N   UNL A   1      41.607  28.107  28.950  1.00  0.00    -0.354 N 
ATOM     47  C   UNL A   1      45.321  26.029  31.262  1.00  0.00     0.074 A 
ATOM     48  C   UNL A   1      46.090  25.308  30.294  1.00  0.00     0.031 C 
ATOM     49  C   UNL A   1      40.302  28.079  27.130  1.00  0.00     0.029 A 
ATOM     50  C   UNL A   1      40.425  28.691  28.438  1.00  0.00     0.049 A 
ATOM     51  H   UNL A   1      41.989  28.365  29.818  1.00  0.00     0.167 HD
ATOM     52  C   UNL A   1      45.689  26.488  32.486  1.00  0.00     0.031 A 
ATOM     53  C   UNL A   1      39.577  29.579  29.034  1.00  0.00     0.031 A 
ATOM     54  C   UNL A   1      44.629  27.196  33.122  1.00  0.00     0.049 A 
ATOM     55  C   UNL A   1      40.176  29.939  30.332  1.00  0.00     0.074 A 
ATOM     56  C   UNL A   1      43.434  26.808  33.673  1.00  0.00     0.029 A 
ATOM     57  N   UNL A   1      44.597  28.558  32.937  1.00  0.00    -0.354 N 
ATOM     58  N   UNL A   1      41.229  30.682  30.486  1.00  0.00    -0.248 NA
ATOM     59  C   UNL A   1      39.612  29.372  31.563  1.00  0.00     0.031 C 
ATOM     60  C   UNL A   1      42.558  27.896  33.438  1.00  0.00     0.029 A 
ATOM     61  C   UNL A   1      43.274  28.922  32.816  1.00  0.00     0.049 A 
ATOM     62  H   UNL A   1      45.375  29.161  32.897  1.00  0.00     0.167 HD
ATOM     63  C   UNL A   1      41.659  30.345  31.748  1.00  0.00     0.074 A 
ATOM     64  C   UNL A   1      40.511  29.810  32.443  1.00  0.00     0.031 C 
ATOM     65  C   UNL A   1      42.967  30.046  31.958  1.00  0.00     0.031 A 
BRANCH  52  66
ATOM     66  C   UNL A   1      47.066  26.542  33.066  1.00  0.00    -0.014 A 
ATOM     67  C   UNL A   1      47.944  27.531  32.580  1.00  0.00     0.009 A 
ATOM     68  C   UNL A   1      47.614  25.517  33.851  1.00  0.00     0.009 A 
ATOM     69  C   UNL A   1      49.319  27.459  32.805  1.00  0.00     0.001 A 
ATOM     70  C   UNL A   1      48.988  25.465  34.111  1.00  0.00     0.001 A 
ATOM     71  C   UNL A   1      49.842  26.419  33.564  1.00  0.00     0.000 A 
ENDBRANCH  52  66
BRANCH  53  72
ATOM     72  C   UNL A   1      38.233  30.177  28.715  1.00  0.00    -0.014 A 
ATOM     73  C   UNL A   1      37.830  31.483  29.007  1.00  0.00     0.009 A 
ATOM     74  C   UNL A   1      37.281  29.386  28.018  1.00  0.00     0.009 A 
ATOM     75  C   UNL A   1      36.591  31.987  28.567  1.00  0.00     0.001 A 
ATOM     76  C   UNL A   1      36.062  29.888  27.552  1.00  0.00     0.001 A 
ATOM     77  C   UNL A   1      35.719  31.201  27.818  1.00  0.00     0.000 A 
ENDBRANCH  53  72
BRANCH  65  78
ATOM     78  C   UNL A   1      43.909  30.588  30.894  1.00  0.00    -0.014 A 
ATOM     79  C   UNL A   1      44.177  29.857  29.729  1.00  0.00     0.009 A 
ATOM     80  C   UNL A   1      44.642  31.771  31.093  1.00  0.00     0.009 A 
ATOM     81  C   UNL A   1      45.154  30.283  28.817  1.00  0.00     0.001 A 
ATOM     82  C   UNL A   1      45.615  32.204  30.185  1.00  0.00     0.001 A 
ATOM     83  C   UNL A   1      45.874  31.454  29.046  1.00  0.00     0.000 A 
ENDBRANCH  65  78
ENDBRANCH  39  40
ENDBRANCH  32  34
ENDBRANCH  31  32
ENDBRANCH  30  31
ENDBRANCH  29  30
ENDBRANCH  28  29
ENDBRANCH  27  28
ENDBRANCH  26  27
ENDBRANCH   1  26
TORSDOF 22
ENDMDL
MODEL 2
REMARK VINA RESULT:      -9.4      2.637      4.758
REMARK SMILES O=C(Cc1cccn1-c1ccc2c(c1)OCCO2)OCCOCCOCCOCCOC(=O)c1ccc(-c2c3nc(c(-c4ccccc4)c4ccc([nH]4)c(-c4ccccc4)c4nc(c(-c5ccccc5)c5ccc2[nH]5)C=C4)C=C3)cc1
REMARK SMILES IDX 25 1 24 2 23 3 22 4 21 5 20 6 19 7 2 8 1 9 3 10 4 11 5 12
REMARK SMILES IDX 8 13 6 14 7 15 9 16 10 17 14 18 11 19 13 20 12 21 15 22
REMARK SMILES IDX 18 23 16 24 17 25 26 26 27 27 28 28 29 29 30 30 31 31 32 32
REMARK SMILES IDX 33 33 34 34 35 35 81 36 36 37 80 38 37 39 38 40 39 41 74 42
REMARK SMILES IDX 40 43 79 44 73 45 75 46 41 47 78 48 72 49 71 50 42 52 64 53
REMARK SMILES IDX 49 54 63 55 50 56 53 57 62 58 76 59 51 60 52 61 61 63 77 64
REMARK SMILES IDX 54 65 43 66 44 67 48 68 45 69 47 70 46 71 65 72 66 73 70 74
REMARK SMILES IDX 67 75 69 76 68 77 55 78 56 79 60 80 57 81 59 82 58 83
REMARK H PARENT 75 51 53 62
REMARK Flexibility Score: inf
ROOT
ATOM      1  O   UNL A   1      36.488  21.087  25.840  1.00  0.00    -0.377 OA
ENDROOT
BRANCH   1   2
ATOM      2  C   UNL A   1      36.031  22.367  25.393  1.00  0.00     0.188 C 
BRANCH   2   3
ATOM      3  C   UNL A   1      34.632  22.715  25.904  1.00  0.00     0.188 C 
BRANCH   3   4
ATOM      4  O   UNL A   1      34.338  24.044  25.520  1.00  0.00    -0.376 OA
BRANCH   4   5
ATOM      5  C   UNL A   1      33.310  24.791  26.121  1.00  0.00     0.202 C 
BRANCH   5   6
ATOM      6  C   UNL A   1      33.430  26.308  26.084  1.00  0.00     0.261 C 
BRANCH   6   7
ATOM      7  O   UNL A   1      32.258  27.100  26.393  1.00  0.00    -0.463 OA
BRANCH   7   8
ATOM      8  C   UNL A   1      32.035  28.429  26.279  1.00  0.00     0.311 C 
ATOM      9  O   UNL A   1      31.599  29.043  27.253  1.00  0.00    -0.252 OA
BRANCH   8  10
ATOM     10  C   UNL A   1      32.215  29.133  24.948  1.00  0.00     0.177 C 
BRANCH  10  11
ATOM     11  C   UNL A   1      30.933  29.268  24.187  1.00  0.00     0.034 A 
ATOM     12  C   UNL A   1      30.175  30.423  24.054  1.00  0.00     0.024 A 
ATOM     13  N   UNL A   1      30.338  28.269  23.409  1.00  0.00    -0.320 N 
ATOM     14  C   UNL A   1      29.173  30.182  23.103  1.00  0.00     0.020 A 
ATOM     15  C   UNL A   1      29.307  28.874  22.707  1.00  0.00     0.091 A 
BRANCH  13  16
ATOM     16  C   UNL A   1      30.687  26.887  23.265  1.00  0.00     0.049 A 
ATOM     17  C   UNL A   1      29.951  25.919  23.973  1.00  0.00     0.031 A 
ATOM     18  C   UNL A   1      31.752  26.472  22.455  1.00  0.00     0.077 A 
ATOM     19  C   UNL A   1      30.286  24.565  23.894  1.00  0.00     0.052 A 
ATOM     20  C   UNL A   1      32.090  25.113  22.386  1.00  0.00     0.163 A 
ATOM     21  C   UNL A   1      31.374  24.168  23.128  1.00  0.00     0.161 A 
ATOM     22  O   UNL A   1      33.164  24.781  21.595  1.00  0.00    -0.486 OA
ATOM     23  O   UNL A   1      31.694  22.835  23.162  1.00  0.00    -0.486 OA
ATOM     24  C   UNL A   1      33.288  23.361  21.421  1.00  0.00     0.271 C 
ATOM     25  C   UNL A   1      33.041  22.625  22.728  1.00  0.00     0.271 C 
ENDBRANCH  13  16
ENDBRANCH  10  11
ENDBRANCH   8  10
ENDBRANCH   7   8
ENDBRANCH   6   7
ENDBRANCH   5   6
ENDBRANCH   4   5
ENDBRANCH   3   4
ENDBRANCH   2   3
ENDBRANCH   1   2
BRANCH   1  26
ATOM     26  C   UNL A   1      37.453  20.480  24.988  1.00  0.00     0.188 C 
BRANCH  26  27
ATOM     27  C   UNL A   1      38.951  20.643  25.364  1.00  0.00     0.188 C 
BRANCH  27  28
ATOM     28  O   UNL A   1      39.501  21.532  26.334  1.00  0.00    -0.376 OA
BRANCH  28  29
ATOM     29  C   UNL A   1      40.693  21.266  27.048  1.00  0.00     0.202 C 
BRANCH  29  30
ATOM     30  C   UNL A   1      41.966  22.005  26.642  1.00  0.00     0.261 C 
BRANCH  30  31
ATOM     31  O   UNL A   1      42.096  23.257  27.290  1.00  0.00    -0.460 OA
BRANCH  31  32
ATOM     32  C   UNL A   1      42.236  24.265  26.433  1.00  0.00     0.338 C 
ATOM     33  O   UNL A   1      43.113  24.403  25.556  1.00  0.00    -0.246 OA
BRANCH  32  34
ATOM     34  C   UNL A   1      41.257  25.304  26.693  1.00  0.00     0.060 A 
ATOM     35  C   UNL A   1      41.615  26.590  26.280  1.00  0.00     0.016 A 
ATOM     36  C   UNL A   1      40.286  25.063  27.672  1.00  0.00     0.016 A 
ATOM     37  C   UNL A   1      41.229  27.644  27.063  1.00  0.00     0.010 A 
ATOM     38  C   UNL A   1      39.930  26.114  28.481  1.00  0.00     0.010 A 
ATOM     39  C   UNL A   1      40.492  27.370  28.218  1.00  0.00    -0.014 A 
BRANCH  39  40
ATOM     40  C   UNL A   1      40.345  28.453  29.185  1.00  0.00     0.031 A 
ATOM     41  C   UNL A   1      41.257  28.272  30.368  1.00  0.00     0.074 A 
ATOM     42  C   UNL A   1      39.378  29.370  28.897  1.00  0.00     0.049 A 
ATOM     43  N   UNL A   1      41.122  28.720  31.573  1.00  0.00    -0.248 NA
ATOM     44  C   UNL A   1      42.456  27.405  30.220  1.00  0.00     0.031 C 
ATOM     45  C   UNL A   1      38.558  29.360  27.663  1.00  0.00     0.029 A 
ATOM     46  N   UNL A   1      38.871  30.466  29.558  1.00  0.00    -0.354 N 
ATOM     47  C   UNL A   1      42.277  28.345  32.271  1.00  0.00     0.074 A 
ATOM     48  C   UNL A   1      43.006  27.444  31.431  1.00  0.00     0.031 C 
ATOM     49  C   UNL A   1      37.636  30.341  27.695  1.00  0.00     0.029 A 
ATOM     50  C   UNL A   1      37.772  31.092  28.926  1.00  0.00     0.049 A 
ATOM     51  H   UNL A   1      39.246  30.790  30.408  1.00  0.00     0.167 HD
ATOM     52  C   UNL A   1      42.645  28.912  33.449  1.00  0.00     0.031 A 
ATOM     53  C   UNL A   1      36.994  32.121  29.374  1.00  0.00     0.031 A 
ATOM     54  C   UNL A   1      41.637  29.788  33.947  1.00  0.00     0.049 A 
ATOM     55  C   UNL A   1      37.579  32.577  30.648  1.00  0.00     0.074 A 
ATOM     56  C   UNL A   1      40.391  29.582  34.482  1.00  0.00     0.029 A 
ATOM     57  N   UNL A   1      41.746  31.114  33.602  1.00  0.00    -0.354 N 
ATOM     58  N   UNL A   1      38.694  33.231  30.764  1.00  0.00    -0.248 NA
ATOM     59  C   UNL A   1      36.918  32.219  31.909  1.00  0.00     0.031 C 
ATOM     60  C   UNL A   1      39.635  30.711  34.081  1.00  0.00     0.029 A 
ATOM     61  C   UNL A   1      40.471  31.583  33.378  1.00  0.00     0.049 A 
ATOM     62  H   UNL A   1      42.580  31.632  33.530  1.00  0.00     0.167 HD
ATOM     63  C   UNL A   1      39.043  33.011  32.076  1.00  0.00     0.074 A 
ATOM     64  C   UNL A   1      37.823  32.674  32.773  1.00  0.00     0.031 C 
ATOM     65  C   UNL A   1      40.307  32.618  32.380  1.00  0.00     0.031 A 
BRANCH  52  66
ATOM     66  C   UNL A   1      43.999  28.907  34.084  1.00  0.00    -0.014 A 
ATOM     67  C   UNL A   1      45.074  29.429  33.338  1.00  0.00     0.009 A 
ATOM     68  C   UNL A   1      44.306  28.178  35.242  1.00  0.00     0.009 A 
ATOM     69  C   UNL A   1      46.399  29.172  33.693  1.00  0.00     0.001 A 
ATOM     70  C   UNL A   1      45.633  27.954  35.621  1.00  0.00     0.001 A 
ATOM     71  C   UNL A   1      46.678  28.427  34.831  1.00  0.00     0.000 A 
ENDBRANCH  52  66
BRANCH  53  72
ATOM     72  C   UNL A   1      35.728  32.799  28.924  1.00  0.00    -0.014 A 
ATOM     73  C   UNL A   1      34.654  32.178  28.281  1.00  0.00     0.009 A 
ATOM     74  C   UNL A   1      35.557  34.182  29.199  1.00  0.00     0.009 A 
ATOM     75  C   UNL A   1      33.462  32.873  27.999  1.00  0.00     0.001 A 
ATOM     76  C   UNL A   1      34.367  34.872  28.950  1.00  0.00     0.001 A 
ATOM     77  C   UNL A   1      33.308  34.210  28.356  1.00  0.00     0.000 A 
ENDBRANCH  53  72
BRANCH  65  78
ATOM     78  C   UNL A   1      41.335  32.938  31.307  1.00  0.00    -0.014 A 
ATOM     79  C   UNL A   1      41.751  34.256  31.077  1.00  0.00     0.009 A 
ATOM     80  C   UNL A   1      41.808  31.951  30.423  1.00  0.00     0.009 A 
ATOM     81  C   UNL A   1      42.586  34.572  29.994  1.00  0.00     0.001 A 
ATOM     82  C   UNL A   1      42.644  32.259  29.344  1.00  0.00     0.001 A 
ATOM     83  C   UNL A   1      43.029  33.575  29.127  1.00  0.00     0.000 A 
ENDBRANCH  65  78
ENDBRANCH  39  40
ENDBRANCH  32  34
ENDBRANCH  31  32
ENDBRANCH  30  31
ENDBRANCH  29  30
ENDBRANCH  28  29
ENDBRANCH  27  28
ENDBRANCH  26  27
ENDBRANCH   1  26
TORSDOF 22
ENDMDL
MODEL 3
REMARK VINA RESULT:      -9.3      2.023      3.591
REMARK SMILES O=C(Cc1cccn1-c1ccc2c(c1)OCCO2)OCCOCCOCCOCCOC(=O)c1ccc(-c2c3nc(c(-c4ccccc4)c4ccc([nH]4)c(-c4ccccc4)c4nc(c(-c5ccccc5)c5ccc2[nH]5)C=C4)C=C3)cc1
REMARK SMILES IDX 25 1 24 2 23 3 22 4 21 5 20 6 19 7 2 8 1 9 3 10 4 11 5 12
REMARK SMILES IDX 8 13 6 14 7 15 9 16 10 17 14 18 11 19 13 20 12 21 15 22
REMARK SMILES IDX 18 23 16 24 17 25 26 26 27 27 28 28 29 29 30 30 31 31 32 32
REMARK SMILES IDX 33 33 34 34 35 35 81 36 36 37 80 38 37 39 38 40 39 41 74 42
REMARK SMILES IDX 40 43 79 44 73 45 75 46 41 47 78 48 72 49 71 50 42 52 64 53
REMARK SMILES IDX 49 54 63 55 50 56 53 57 62 58 76 59 51 60 52 61 61 63 77 64
REMARK SMILES IDX 54 65 43 66 44 67 48 68 45 69 47 70 46 71 65 72 66 73 70 74
REMARK SMILES IDX 67 75 69 76 68 77 55 78 56 79 60 80 57 81 59 82 58 83
REMARK H PARENT 75 51 53 62
REMARK Flexibility Score: inf
ROOT
ATOM      1  O   UNL A   1      39.817  22.446  27.042  1.00  0.00    -0.377 OA
ENDROOT
BRANCH   1   2
ATOM      2  C   UNL A   1      38.691  23.178  26.548  1.00  0.00     0.188 C 
BRANCH   2   3
ATOM      3  C   UNL A   1      37.893  22.410  25.493  1.00  0.00     0.188 C 
BRANCH   3   4
ATOM      4  O   UNL A   1      36.795  23.209  25.099  1.00  0.00    -0.376 OA
BRANCH   4   5
ATOM      5  C   UNL A   1      35.608  23.279  25.848  1.00  0.00     0.202 C 
BRANCH   5   6
ATOM      6  C   UNL A   1      34.479  24.138  25.297  1.00  0.00     0.261 C 
BRANCH   6   7
ATOM      7  O   UNL A   1      34.573  25.576  25.444  1.00  0.00    -0.463 OA
BRANCH   7   8
ATOM      8  C   UNL A   1      33.622  26.534  25.373  1.00  0.00     0.311 C 
ATOM      9  O   UNL A   1      33.120  26.948  26.418  1.00  0.00    -0.252 OA
BRANCH   8  10
ATOM     10  C   UNL A   1      33.104  27.015  24.032  1.00  0.00     0.177 C 
BRANCH  10  11
ATOM     11  C   UNL A   1      31.612  27.136  23.998  1.00  0.00     0.034 A 
ATOM     12  C   UNL A   1      30.887  28.303  23.798  1.00  0.00     0.024 A 
ATOM     13  N   UNL A   1      30.706  26.074  24.072  1.00  0.00    -0.320 N 
ATOM     14  C   UNL A   1      29.539  27.958  23.631  1.00  0.00     0.020 A 
ATOM     15  C   UNL A   1      29.456  26.595  23.776  1.00  0.00     0.091 A 
BRANCH  13  16
ATOM     16  C   UNL A   1      30.938  24.685  24.341  1.00  0.00     0.049 A 
ATOM     17  C   UNL A   1      30.702  24.192  25.638  1.00  0.00     0.031 A 
ATOM     18  C   UNL A   1      31.413  23.808  23.357  1.00  0.00     0.077 A 
ATOM     19  C   UNL A   1      30.958  22.855  25.953  1.00  0.00     0.052 A 
ATOM     20  C   UNL A   1      31.675  22.470  23.680  1.00  0.00     0.163 A 
ATOM     21  C   UNL A   1      31.474  22.005  24.984  1.00  0.00     0.161 A 
ATOM     22  O   UNL A   1      32.166  21.674  22.673  1.00  0.00    -0.486 OA
ATOM     23  O   UNL A   1      31.776  20.729  25.386  1.00  0.00    -0.486 OA
ATOM     24  C   UNL A   1      32.192  20.287  23.046  1.00  0.00     0.271 C 
ATOM     25  C   UNL A   1      32.687  20.111  24.472  1.00  0.00     0.271 C 
ENDBRANCH  13  16
ENDBRANCH  10  11
ENDBRANCH   8  10
ENDBRANCH   7   8
ENDBRANCH   6   7
ENDBRANCH   5   6
ENDBRANCH   4   5
ENDBRANCH   3   4
ENDBRANCH   2   3
ENDBRANCH   1   2
BRANCH   1  26
ATOM     26  C   UNL A   1      40.145  21.292  26.276  1.00  0.00     0.188 C 
BRANCH  26  27
ATOM     27  C   UNL A   1      41.648  20.928  26.127  1.00  0.00     0.188 C 
BRANCH  27  28
ATOM     28  O   UNL A   1      42.765  21.704  26.556  1.00  0.00    -0.376 OA
BRANCH  28  29
ATOM     29  C   UNL A   1      44.063  21.568  26.011  1.00  0.00     0.202 C 
BRANCH  29  30
ATOM     30  C   UNL A   1      44.432  22.408  24.790  1.00  0.00     0.261 C 
BRANCH  30  31
ATOM     31  O   UNL A   1      43.535  23.482  24.578  1.00  0.00    -0.460 OA
BRANCH  31  32
ATOM     32  C   UNL A   1      44.020  24.646  25.005  1.00  0.00     0.338 C 
ATOM     33  O   UNL A   1      45.215  24.949  25.192  1.00  0.00    -0.246 OA
BRANCH  32  34
ATOM     34  C   UNL A   1      42.945  25.561  25.340  1.00  0.00     0.060 A 
ATOM     35  C   UNL A   1      43.276  26.919  25.310  1.00  0.00     0.016 A 
ATOM     36  C   UNL A   1      41.854  25.060  26.061  1.00  0.00     0.016 A 
ATOM     37  C   UNL A   1      42.705  27.737  26.247  1.00  0.00     0.010 A 
ATOM     38  C   UNL A   1      41.310  25.870  27.027  1.00  0.00     0.010 A 
ATOM     39  C   UNL A   1      41.820  27.167  27.167  1.00  0.00    -0.014 A 
BRANCH  39  40
ATOM     40  C   UNL A   1      41.456  27.975  28.327  1.00  0.00     0.031 A 
ATOM     41  C   UNL A   1      42.344  27.688  29.506  1.00  0.00     0.074 A 
ATOM     42  C   UNL A   1      40.355  28.764  28.169  1.00  0.00     0.049 A 
ATOM     43  N   UNL A   1      42.093  27.834  30.766  1.00  0.00    -0.248 NA
ATOM     44  C   UNL A   1      43.679  27.079  29.265  1.00  0.00     0.031 C 
ATOM     45  C   UNL A   1      39.592  28.892  26.906  1.00  0.00     0.029 A 
ATOM     46  N   UNL A   1      39.645  29.593  29.008  1.00  0.00    -0.354 N 
ATOM     47  C   UNL A   1      43.270  27.507  31.450  1.00  0.00     0.074 A 
ATOM     48  C   UNL A   1      44.171  26.940  30.493  1.00  0.00     0.031 C 
ATOM     49  C   UNL A   1      38.514  29.681  27.078  1.00  0.00     0.029 A 
ATOM     50  C   UNL A   1      38.476  30.157  28.446  1.00  0.00     0.049 A 
ATOM     51  H   UNL A   1      39.928  29.779  29.932  1.00  0.00     0.167 HD
ATOM     52  C   UNL A   1      43.494  27.854  32.744  1.00  0.00     0.031 A 
ATOM     53  C   UNL A   1      37.518  30.924  29.043  1.00  0.00     0.031 A 
ATOM     54  C   UNL A   1      42.334  28.426  33.341  1.00  0.00     0.049 A 
ATOM     55  C   UNL A   1      37.971  31.179  30.422  1.00  0.00     0.074 A 
ATOM     56  C   UNL A   1      41.124  27.910  33.732  1.00  0.00     0.029 A 
ATOM     57  N   UNL A   1      42.224  29.795  33.291  1.00  0.00    -0.354 N 
ATOM     58  N   UNL A   1      38.952  31.962  30.752  1.00  0.00    -0.248 NA
ATOM     59  C   UNL A   1      37.339  30.452  31.530  1.00  0.00     0.031 C 
ATOM     60  C   UNL A   1      40.200  28.963  33.524  1.00  0.00     0.029 A 
ATOM     61  C   UNL A   1      40.896  30.090  33.080  1.00  0.00     0.049 A 
ATOM     62  H   UNL A   1      42.959  30.444  33.389  1.00  0.00     0.167 HD
ATOM     63  C   UNL A   1      39.289  31.520  32.009  1.00  0.00     0.074 A 
ATOM     64  C   UNL A   1      38.122  30.847  32.533  1.00  0.00     0.031 C 
ATOM     65  C   UNL A   1      40.591  31.279  32.313  1.00  0.00     0.031 A 
BRANCH  52  66
ATOM     66  C   UNL A   1      44.806  27.928  33.457  1.00  0.00    -0.014 A 
ATOM     67  C   UNL A   1      45.248  26.775  34.138  1.00  0.00     0.009 A 
ATOM     68  C   UNL A   1      45.477  29.132  33.716  1.00  0.00     0.009 A 
ATOM     69  C   UNL A   1      46.267  26.837  35.088  1.00  0.00     0.001 A 
ATOM     70  C   UNL A   1      46.526  29.186  34.641  1.00  0.00     0.001 A 
ATOM     71  C   UNL A   1      46.900  28.046  35.346  1.00  0.00     0.000 A 
ENDBRANCH  52  66
BRANCH  53  72
ATOM     72  C   UNL A   1      36.170  31.471  28.656  1.00  0.00    -0.014 A 
ATOM     73  C   UNL A   1      35.791  32.815  28.704  1.00  0.00     0.009 A 
ATOM     74  C   UNL A   1      35.187  30.577  28.155  1.00  0.00     0.009 A 
ATOM     75  C   UNL A   1      34.542  33.246  28.213  1.00  0.00     0.001 A 
ATOM     76  C   UNL A   1      33.958  31.000  27.639  1.00  0.00     0.001 A 
ATOM     77  C   UNL A   1      33.638  32.345  27.658  1.00  0.00     0.000 A 
ENDBRANCH  53  72
BRANCH  65  78
ATOM     78  C   UNL A   1      41.584  31.986  31.406  1.00  0.00    -0.014 A 
ATOM     79  C   UNL A   1      42.159  31.324  30.313  1.00  0.00     0.009 A 
ATOM     80  C   UNL A   1      42.061  33.276  31.699  1.00  0.00     0.009 A 
ATOM     81  C   UNL A   1      43.182  31.922  29.562  1.00  0.00     0.001 A 
ATOM     82  C   UNL A   1      43.078  33.880  30.952  1.00  0.00     0.001 A 
ATOM     83  C   UNL A   1      43.643  33.197  29.883  1.00  0.00     0.000 A 
ENDBRANCH  65  78
ENDBRANCH  39  40
ENDBRANCH  32  34
ENDBRANCH  31  32
ENDBRANCH  30  31
ENDBRANCH  29  30
ENDBRANCH  28  29
ENDBRANCH  27  28
ENDBRANCH  26  27
ENDBRANCH   1  26
TORSDOF 22
ENDMDL
