MODEL 1
REMARK VINA RESULT:      -9.5      0.000      0.000
REMARK SMILES Cc1c(Cl)cccc1NC(=O)C[C@](C)(C(=O)OCCOCCOCCOCCOC(=O)c1ccc(-c2c3nc(c(-c4ccccc4)c4ccc([nH]4)c(-c4ccccc4)c4nc(c(-c5ccccc5)c5ccc2[nH]5)C=C4)C=C3)cc1)c1ccccc1
REMARK SMILES IDX 22 1 21 2 20 3 19 4 18 5 17 6 15 7 16 8 13 9 14 10 12 11
REMARK SMILES IDX 10 12 9 13 11 15 8 16 1 17 2 18 3 19 4 20 5 21 7 22 6 23
REMARK SMILES IDX 80 24 81 25 85 26 82 27 84 28 83 29 23 30 24 31 25 32 26 33
REMARK SMILES IDX 27 34 28 35 29 36 30 37 31 38 32 39 33 40 79 41 34 42 78 43
REMARK SMILES IDX 35 44 36 45 37 46 72 47 38 48 77 49 71 50 73 51 39 52 76 53
REMARK SMILES IDX 70 54 69 55 40 57 62 58 47 59 61 60 48 61 51 62 60 63 74 64
REMARK SMILES IDX 49 65 50 66 59 68 75 69 52 70 41 71 42 72 46 73 43 74 45 75
REMARK SMILES IDX 44 76 63 77 64 78 68 79 65 80 67 81 66 82 53 83 54 84 58 85
REMARK SMILES IDX 55 86 57 87 56 88
REMARK H PARENT 9 14 73 56 51 67
REMARK Flexibility Score: inf
ROOT
ATOM      1  C   UNL A   1      34.489  31.193  27.647  1.00  0.00     0.188 C 
ENDROOT
BRANCH   1   2
ATOM      2  C   UNL A   1      34.456  29.675  27.431  1.00  0.00     0.188 C 
BRANCH   2   3
ATOM      3  O   UNL A   1      33.147  29.148  27.355  1.00  0.00    -0.376 OA
BRANCH   3   4
ATOM      4  C   UNL A   1      32.121  29.954  26.806  1.00  0.00     0.202 C 
BRANCH   4   5
ATOM      5  C   UNL A   1      31.510  29.678  25.424  1.00  0.00     0.261 C 
BRANCH   5   6
ATOM      6  O   UNL A   1      31.421  28.312  25.001  1.00  0.00    -0.463 OA
BRANCH   6   7
ATOM      7  C   UNL A   1      32.443  27.800  24.286  1.00  0.00     0.316 C 
ATOM      8  O   UNL A   1      33.462  28.437  24.034  1.00  0.00    -0.251 OA
BRANCH   7   9
ATOM      9  C   UNL A   1      32.201  26.337  23.810  1.00  0.00     0.099 C 
ATOM     10  C   UNL A   1      30.908  26.096  22.969  1.00  0.00     0.029 C 
BRANCH   9  11
ATOM     11  C   UNL A   1      33.408  25.973  22.881  1.00  0.00     0.123 C 
BRANCH  11  12
ATOM     12  C   UNL A   1      33.198  24.973  21.741  1.00  0.00     0.225 C 
ATOM     13  N   UNL A   1      33.036  23.625  21.872  1.00  0.00    -0.326 N 
ATOM     14  H   UNL A   1      32.764  23.202  21.026  1.00  0.00     0.169 HD
ATOM     15  O   UNL A   1      33.145  25.406  20.582  1.00  0.00    -0.275 OA
BRANCH  13  16
ATOM     16  C   UNL A   1      33.160  22.684  22.915  1.00  0.00     0.045 A 
ATOM     17  C   UNL A   1      35.679  23.207  23.124  1.00  0.00     0.048 C 
ATOM     18  C   UNL A   1      34.430  22.445  23.505  1.00  0.00    -0.009 A 
ATOM     19  C   UNL A   1      34.549  21.413  24.469  1.00  0.00     0.046 A 
ATOM     20  Cl  UNL A   1      36.077  20.988  25.166  1.00  0.00    -0.084 Cl
ATOM     21  C   UNL A   1      33.445  20.662  24.865  1.00  0.00     0.021 A 
ATOM     22  C   UNL A   1      32.053  21.986  23.400  1.00  0.00     0.026 A 
ATOM     23  C   UNL A   1      32.194  20.967  24.350  1.00  0.00     0.004 A 
ENDBRANCH  13  16
ENDBRANCH  11  12
ENDBRANCH   9  11
BRANCH   9  24
ATOM     24  C   UNL A   1      32.039  25.384  25.047  1.00  0.00    -0.030 A 
ATOM     25  C   UNL A   1      33.167  24.918  25.756  1.00  0.00     0.005 A 
ATOM     26  C   UNL A   1      30.795  24.821  25.403  1.00  0.00     0.005 A 
ATOM     27  C   UNL A   1      33.055  23.901  26.717  1.00  0.00     0.000 A 
ATOM     28  C   UNL A   1      30.684  23.812  26.365  1.00  0.00     0.000 A 
ATOM     29  C   UNL A   1      31.816  23.341  27.012  1.00  0.00     0.000 A 
ENDBRANCH   9  24
ENDBRANCH   7   9
ENDBRANCH   6   7
ENDBRANCH   5   6
ENDBRANCH   4   5
ENDBRANCH   3   4
ENDBRANCH   2   3
ENDBRANCH   1   2
BRANCH   1  30
ATOM     30  O   UNL A   1      35.011  31.675  28.874  1.00  0.00    -0.377 OA
BRANCH  30  31
ATOM     31  C   UNL A   1      34.626  32.963  29.345  1.00  0.00     0.188 C 
BRANCH  31  32
ATOM     32  C   UNL A   1      33.693  33.890  28.533  1.00  0.00     0.188 C 
BRANCH  32  33
ATOM     33  O   UNL A   1      32.686  34.554  29.277  1.00  0.00    -0.376 OA
BRANCH  33  34
ATOM     34  C   UNL A   1      33.038  35.712  30.016  1.00  0.00     0.202 C 
BRANCH  34  35
ATOM     35  C   UNL A   1      33.239  35.561  31.533  1.00  0.00     0.261 C 
BRANCH  35  36
ATOM     36  O   UNL A   1      34.550  35.873  32.029  1.00  0.00    -0.460 OA
BRANCH  36  37
ATOM     37  C   UNL A   1      34.951  35.219  33.133  1.00  0.00     0.338 C 
ATOM     38  O   UNL A   1      34.509  35.339  34.270  1.00  0.00    -0.246 OA
BRANCH  37  39
ATOM     39  C   UNL A   1      35.926  34.191  32.741  1.00  0.00     0.060 A 
ATOM     40  C   UNL A   1      35.863  32.932  33.350  1.00  0.00     0.016 A 
ATOM     41  C   UNL A   1      36.933  34.489  31.820  1.00  0.00     0.016 A 
ATOM     42  C   UNL A   1      36.854  31.990  33.099  1.00  0.00     0.010 A 
ATOM     43  C   UNL A   1      37.940  33.550  31.584  1.00  0.00     0.010 A 
ATOM     44  C   UNL A   1      37.932  32.321  32.268  1.00  0.00    -0.014 A 
BRANCH  44  45
ATOM     45  C   UNL A   1      39.152  31.481  32.316  1.00  0.00     0.031 A 
ATOM     46  C   UNL A   1      40.120  31.693  33.447  1.00  0.00     0.074 A 
ATOM     47  C   UNL A   1      39.362  30.503  31.419  1.00  0.00     0.049 A 
ATOM     48  N   UNL A   1      41.237  31.066  33.713  1.00  0.00    -0.248 NA
ATOM     49  C   UNL A   1      39.781  32.755  34.410  1.00  0.00     0.031 C 
ATOM     50  C   UNL A   1      38.468  30.163  30.317  1.00  0.00     0.029 A 
ATOM     51  N   UNL A   1      40.396  29.608  31.306  1.00  0.00    -0.354 N 
ATOM     52  C   UNL A   1      41.734  31.660  34.866  1.00  0.00     0.074 A 
ATOM     53  C   UNL A   1      40.821  32.721  35.228  1.00  0.00     0.031 C 
ATOM     54  C   UNL A   1      38.985  29.122  29.642  1.00  0.00     0.029 A 
ATOM     55  C   UNL A   1      40.264  28.750  30.243  1.00  0.00     0.049 A 
ATOM     56  H   UNL A   1      41.158  29.583  31.928  1.00  0.00     0.167 HD
ATOM     57  C   UNL A   1      42.848  31.346  35.568  1.00  0.00     0.031 A 
ATOM     58  C   UNL A   1      41.091  27.782  29.801  1.00  0.00     0.031 A 
ATOM     59  C   UNL A   1      43.765  30.302  35.198  1.00  0.00     0.049 A 
ATOM     60  C   UNL A   1      42.371  27.512  30.548  1.00  0.00     0.074 A 
ATOM     61  C   UNL A   1      44.923  29.903  35.842  1.00  0.00     0.029 A 
ATOM     62  N   UNL A   1      43.631  29.497  34.077  1.00  0.00    -0.354 N 
ATOM     63  N   UNL A   1      42.826  28.070  31.645  1.00  0.00    -0.248 NA
ATOM     64  C   UNL A   1      43.248  26.468  29.997  1.00  0.00     0.031 C 
ATOM     65  C   UNL A   1      45.523  28.900  35.075  1.00  0.00     0.029 A 
ATOM     66  C   UNL A   1      44.700  28.620  33.995  1.00  0.00     0.049 A 
ATOM     67  H   UNL A   1      42.885  29.540  33.436  1.00  0.00     0.167 HD
ATOM     68  C   UNL A   1      44.020  27.420  31.935  1.00  0.00     0.074 A 
ATOM     69  C   UNL A   1      44.211  26.420  30.906  1.00  0.00     0.031 C 
ATOM     70  C   UNL A   1      44.876  27.629  32.966  1.00  0.00     0.031 A 
BRANCH  57  71
ATOM     71  C   UNL A   1      43.154  32.177  36.784  1.00  0.00    -0.014 A 
ATOM     72  C   UNL A   1      43.978  33.312  36.710  1.00  0.00     0.009 A 
ATOM     73  C   UNL A   1      42.596  31.825  38.023  1.00  0.00     0.009 A 
ATOM     74  C   UNL A   1      44.268  34.052  37.860  1.00  0.00     0.001 A 
ATOM     75  C   UNL A   1      42.860  32.585  39.162  1.00  0.00     0.001 A 
ATOM     76  C   UNL A   1      43.704  33.691  39.083  1.00  0.00     0.000 A 
ENDBRANCH  57  71
BRANCH  58  77
ATOM     77  C   UNL A   1      40.742  27.000  28.585  1.00  0.00    -0.014 A 
ATOM     78  C   UNL A   1      39.873  25.901  28.662  1.00  0.00     0.009 A 
ATOM     79  C   UNL A   1      41.298  27.338  27.340  1.00  0.00     0.009 A 
ATOM     80  C   UNL A   1      39.591  25.141  27.524  1.00  0.00     0.001 A 
ATOM     81  C   UNL A   1      40.989  26.596  26.200  1.00  0.00     0.001 A 
ATOM     82  C   UNL A   1      40.144  25.492  26.294  1.00  0.00     0.000 A 
ENDBRANCH  58  77
BRANCH  70  83
ATOM     83  C   UNL A   1      46.074  26.722  33.064  1.00  0.00    -0.014 A 
ATOM     84  C   UNL A   1      47.317  27.081  32.519  1.00  0.00     0.009 A 
ATOM     85  C   UNL A   1      45.961  25.504  33.752  1.00  0.00     0.009 A 
ATOM     86  C   UNL A   1      48.411  26.219  32.629  1.00  0.00     0.001 A 
ATOM     87  C   UNL A   1      47.065  24.660  33.891  1.00  0.00     0.001 A 
ATOM     88  C   UNL A   1      48.284  25.013  33.318  1.00  0.00     0.000 A 
ENDBRANCH  70  83
ENDBRANCH  44  45
ENDBRANCH  37  39
ENDBRANCH  36  37
ENDBRANCH  35  36
ENDBRANCH  34  35
ENDBRANCH  33  34
ENDBRANCH  32  33
ENDBRANCH  31  32
ENDBRANCH  30  31
ENDBRANCH   1  30
TORSDOF 24
ENDMDL
MODEL 2
REMARK VINA RESULT:      -9.4      1.992      6.519
REMARK SMILES Cc1c(Cl)cccc1NC(=O)C[C@](C)(C(=O)OCCOCCOCCOCCOC(=O)c1ccc(-c2c3nc(c(-c4ccccc4)c4ccc([nH]4)c(-c4ccccc4)c4nc(c(-c5ccccc5)c5ccc2[nH]5)C=C4)C=C3)cc1)c1ccccc1
REMARK SMILES IDX 22 1 21 2 20 3 19 4 18 5 17 6 15 7 16 8 13 9 14 10 12 11
REMARK SMILES IDX 10 12 9 13 11 15 8 16 1 17 2 18 3 19 4 20 5 21 7 22 6 23
REMARK SMILES IDX 80 24 81 25 85 26 82 27 84 28 83 29 23 30 24 31 25 32 26 33
REMARK SMILES IDX 27 34 28 35 29 36 30 37 31 38 32 39 33 40 79 41 34 42 78 43
REMARK SMILES IDX 35 44 36 45 37 46 72 47 38 48 77 49 71 50 73 51 39 52 76 53
REMARK SMILES IDX 70 54 69 55 40 57 62 58 47 59 61 60 48 61 51 62 60 63 74 64
REMARK SMILES IDX 49 65 50 66 59 68 75 69 52 70 41 71 42 72 46 73 43 74 45 75
REMARK SMILES IDX 44 76 63 77 64 78 68 79 65 80 67 81 66 82 53 83 54 84 58 85
REMARK SMILES IDX 55 86 57 87 56 88
REMARK H PARENT 9 14 73 56 51 67
REMARK Flexibility Score: inf
ROOT
ATOM      1  C   UNL A   1      28.475  29.730  22.786  1.00  0.00     0.188 C 
ENDROOT
BRANCH   1   2
ATOM      2  C   UNL A   1      29.641  29.781  21.791  1.00  0.00     0.188 C 
BRANCH   2   3
ATOM      3  O   UNL A   1      30.526  28.687  21.908  1.00  0.00    -0.376 OA
BRANCH   3   4
ATOM      4  C   UNL A   1      31.497  28.706  22.938  1.00  0.00     0.202 C 
BRANCH   4   5
ATOM      5  C   UNL A   1      32.998  28.858  22.650  1.00  0.00     0.261 C 
BRANCH   5   6
ATOM      6  O   UNL A   1      33.856  27.771  23.019  1.00  0.00    -0.463 OA
BRANCH   6   7
ATOM      7  C   UNL A   1      33.610  26.557  22.487  1.00  0.00     0.316 C 
ATOM      8  O   UNL A   1      33.678  26.334  21.282  1.00  0.00    -0.251 OA
BRANCH   7   9
ATOM      9  C   UNL A   1      33.227  25.478  23.544  1.00  0.00     0.099 C 
ATOM     10  C   UNL A   1      32.623  26.013  24.880  1.00  0.00     0.029 C 
BRANCH   9  11
ATOM     11  C   UNL A   1      32.122  24.590  22.881  1.00  0.00     0.123 C 
BRANCH  11  12
ATOM     12  C   UNL A   1      30.945  24.104  23.732  1.00  0.00     0.225 C 
ATOM     13  N   UNL A   1      31.025  23.310  24.839  1.00  0.00    -0.326 N 
ATOM     14  H   UNL A   1      30.165  23.250  25.313  1.00  0.00     0.169 HD
ATOM     15  O   UNL A   1      29.804  24.470  23.420  1.00  0.00    -0.275 OA
BRANCH  13  16
ATOM     16  C   UNL A   1      32.031  22.553  25.474  1.00  0.00     0.045 A 
ATOM     17  C   UNL A   1      32.350  21.134  23.342  1.00  0.00     0.048 C 
ATOM     18  C   UNL A   1      32.654  21.481  24.781  1.00  0.00    -0.009 A 
ATOM     19  C   UNL A   1      33.576  20.663  25.481  1.00  0.00     0.046 A 
ATOM     20  Cl  UNL A   1      34.308  19.276  24.744  1.00  0.00    -0.084 Cl
ATOM     21  C   UNL A   1      33.901  20.914  26.812  1.00  0.00     0.021 A 
ATOM     22  C   UNL A   1      32.447  22.843  26.775  1.00  0.00     0.026 A 
ATOM     23  C   UNL A   1      33.356  22.020  27.449  1.00  0.00     0.004 A 
ENDBRANCH  13  16
ENDBRANCH  11  12
ENDBRANCH   9  11
BRANCH   9  24
ATOM     24  C   UNL A   1      34.503  24.680  23.990  1.00  0.00    -0.030 A 
ATOM     25  C   UNL A   1      35.061  23.682  23.163  1.00  0.00     0.005 A 
ATOM     26  C   UNL A   1      35.048  24.799  25.287  1.00  0.00     0.005 A 
ATOM     27  C   UNL A   1      36.058  22.816  23.636  1.00  0.00     0.000 A 
ATOM     28  C   UNL A   1      36.046  23.938  25.756  1.00  0.00     0.000 A 
ATOM     29  C   UNL A   1      36.542  22.937  24.936  1.00  0.00     0.000 A 
ENDBRANCH   9  24
ENDBRANCH   7   9
ENDBRANCH   6   7
ENDBRANCH   5   6
ENDBRANCH   4   5
ENDBRANCH   3   4
ENDBRANCH   2   3
ENDBRANCH   1   2
BRANCH   1  30
ATOM     30  O   UNL A   1      28.179  30.907  23.519  1.00  0.00    -0.377 OA
BRANCH  30  31
ATOM     31  C   UNL A   1      29.234  31.632  24.142  1.00  0.00     0.188 C 
BRANCH  31  32
ATOM     32  C   UNL A   1      30.380  30.925  24.901  1.00  0.00     0.188 C 
BRANCH  32  33
ATOM     33  O   UNL A   1      31.029  31.700  25.895  1.00  0.00    -0.376 OA
BRANCH  33  34
ATOM     34  C   UNL A   1      31.631  31.034  26.993  1.00  0.00     0.202 C 
BRANCH  34  35
ATOM     35  C   UNL A   1      33.120  31.302  27.266  1.00  0.00     0.261 C 
BRANCH  35  36
ATOM     36  O   UNL A   1      33.575  32.640  27.015  1.00  0.00    -0.460 OA
BRANCH  36  37
ATOM     37  C   UNL A   1      33.531  33.499  28.049  1.00  0.00     0.338 C 
ATOM     38  O   UNL A   1      32.590  34.208  28.388  1.00  0.00    -0.246 OA
BRANCH  37  39
ATOM     39  C   UNL A   1      34.762  33.345  28.838  1.00  0.00     0.060 A 
ATOM     40  C   UNL A   1      35.986  33.696  28.256  1.00  0.00     0.016 A 
ATOM     41  C   UNL A   1      34.713  32.800  30.123  1.00  0.00     0.016 A 
ATOM     42  C   UNL A   1      37.174  33.431  28.928  1.00  0.00     0.010 A 
ATOM     43  C   UNL A   1      35.907  32.516  30.789  1.00  0.00     0.010 A 
ATOM     44  C   UNL A   1      37.141  32.779  30.167  1.00  0.00    -0.014 A 
BRANCH  44  45
ATOM     45  C   UNL A   1      38.387  32.163  30.681  1.00  0.00     0.031 A 
ATOM     46  C   UNL A   1      38.844  30.865  30.073  1.00  0.00     0.074 A 
ATOM     47  C   UNL A   1      39.136  32.774  31.613  1.00  0.00     0.049 A 
ATOM     48  N   UNL A   1      39.909  30.154  30.338  1.00  0.00    -0.248 NA
ATOM     49  C   UNL A   1      37.984  30.294  29.022  1.00  0.00     0.031 C 
ATOM     50  C   UNL A   1      38.828  34.060  32.231  1.00  0.00     0.029 A 
ATOM     51  N   UNL A   1      40.319  32.393  32.193  1.00  0.00    -0.354 N 
ATOM     52  C   UNL A   1      39.844  29.053  29.494  1.00  0.00     0.074 A 
ATOM     53  C   UNL A   1      38.618  29.168  28.736  1.00  0.00     0.031 C 
ATOM     54  C   UNL A   1      39.806  34.371  33.100  1.00  0.00     0.029 A 
ATOM     55  C   UNL A   1      40.786  33.288  33.124  1.00  0.00     0.049 A 
ATOM     56  H   UNL A   1      40.788  31.559  31.964  1.00  0.00     0.167 HD
ATOM     57  C   UNL A   1      40.729  28.038  29.354  1.00  0.00     0.031 A 
ATOM     58  C   UNL A   1      41.877  33.229  33.913  1.00  0.00     0.031 A 
ATOM     59  C   UNL A   1      41.940  27.915  30.121  1.00  0.00     0.049 A 
ATOM     60  C   UNL A   1      42.800  32.043  33.804  1.00  0.00     0.074 A 
ATOM     61  C   UNL A   1      42.904  26.925  30.056  1.00  0.00     0.029 A 
ATOM     62  N   UNL A   1      42.346  28.808  31.100  1.00  0.00    -0.354 N 
ATOM     63  N   UNL A   1      42.736  31.014  32.993  1.00  0.00    -0.248 NA
ATOM     64  C   UNL A   1      43.953  32.019  34.716  1.00  0.00     0.031 C 
ATOM     65  C   UNL A   1      43.861  27.186  31.041  1.00  0.00     0.029 A 
ATOM     66  C   UNL A   1      43.534  28.379  31.667  1.00  0.00     0.049 A 
ATOM     67  H   UNL A   1      41.862  29.628  31.353  1.00  0.00     0.167 HD
ATOM     68  C   UNL A   1      43.858  30.241  33.271  1.00  0.00     0.074 A 
ATOM     69  C   UNL A   1      44.589  30.928  34.315  1.00  0.00     0.031 C 
ATOM     70  C   UNL A   1      44.251  29.073  32.705  1.00  0.00     0.031 A 
BRANCH  57  71
ATOM     71  C   UNL A   1      40.391  26.959  28.362  1.00  0.00    -0.014 A 
ATOM     72  C   UNL A   1      40.869  27.000  27.041  1.00  0.00     0.009 A 
ATOM     73  C   UNL A   1      39.591  25.877  28.759  1.00  0.00     0.009 A 
ATOM     74  C   UNL A   1      40.518  25.999  26.131  1.00  0.00     0.001 A 
ATOM     75  C   UNL A   1      39.270  24.862  27.858  1.00  0.00     0.001 A 
ATOM     76  C   UNL A   1      39.725  24.929  26.542  1.00  0.00     0.000 A 
ENDBRANCH  57  71
BRANCH  58  77
ATOM     77  C   UNL A   1      42.154  34.320  34.886  1.00  0.00    -0.014 A 
ATOM     78  C   UNL A   1      42.832  35.481  34.488  1.00  0.00     0.009 A 
ATOM     79  C   UNL A   1      41.760  34.192  36.228  1.00  0.00     0.009 A 
ATOM     80  C   UNL A   1      43.134  36.479  35.418  1.00  0.00     0.001 A 
ATOM     81  C   UNL A   1      42.035  35.204  37.148  1.00  0.00     0.001 A 
ATOM     82  C   UNL A   1      42.731  36.342  36.745  1.00  0.00     0.000 A 
ENDBRANCH  58  77
BRANCH  70  83
ATOM     83  C   UNL A   1      45.558  28.486  33.167  1.00  0.00    -0.014 A 
ATOM     84  C   UNL A   1      45.621  27.560  34.220  1.00  0.00     0.009 A 
ATOM     85  C   UNL A   1      46.744  28.840  32.503  1.00  0.00     0.009 A 
ATOM     86  C   UNL A   1      46.849  27.032  34.623  1.00  0.00     0.001 A 
ATOM     87  C   UNL A   1      47.966  28.284  32.885  1.00  0.00     0.001 A 
ATOM     88  C   UNL A   1      48.018  27.390  33.952  1.00  0.00     0.000 A 
ENDBRANCH  70  83
ENDBRANCH  44  45
ENDBRANCH  37  39
ENDBRANCH  36  37
ENDBRANCH  35  36
ENDBRANCH  34  35
ENDBRANCH  33  34
ENDBRANCH  32  33
ENDBRANCH  31  32
ENDBRANCH  30  31
ENDBRANCH   1  30
TORSDOF 24
ENDMDL
MODEL 3
REMARK VINA RESULT:      -9.4      3.531      4.743
REMARK SMILES Cc1c(Cl)cccc1NC(=O)C[C@](C)(C(=O)OCCOCCOCCOCCOC(=O)c1ccc(-c2c3nc(c(-c4ccccc4)c4ccc([nH]4)c(-c4ccccc4)c4nc(c(-c5ccccc5)c5ccc2[nH]5)C=C4)C=C3)cc1)c1ccccc1
REMARK SMILES IDX 22 1 21 2 20 3 19 4 18 5 17 6 15 7 16 8 13 9 14 10 12 11
REMARK SMILES IDX 10 12 9 13 11 15 8 16 1 17 2 18 3 19 4 20 5 21 7 22 6 23
REMARK SMILES IDX 80 24 81 25 85 26 82 27 84 28 83 29 23 30 24 31 25 32 26 33
REMARK SMILES IDX 27 34 28 35 29 36 30 37 31 38 32 39 33 40 79 41 34 42 78 43
REMARK SMILES IDX 35 44 36 45 37 46 72 47 38 48 77 49 71 50 73 51 39 52 76 53
REMARK SMILES IDX 70 54 69 55 40 57 62 58 47 59 61 60 48 61 51 62 60 63 74 64
REMARK SMILES IDX 49 65 50 66 59 68 75 69 52 70 41 71 42 72 46 73 43 74 45 75
REMARK SMILES IDX 44 76 63 77 64 78 68 79 65 80 67 81 66 82 53 83 54 84 58 85
REMARK SMILES IDX 55 86 57 87 56 88
REMARK H PARENT 9 14 73 56 51 67
REMARK Flexibility Score: inf
ROOT
ATOM      1  C   UNL A   1      33.579  32.961  27.759  1.00  0.00     0.188 C 
ENDROOT
BRANCH   1   2
ATOM      2  C   UNL A   1      33.579  31.434  27.620  1.00  0.00     0.188 C 
BRANCH   2   3
ATOM      3  O   UNL A   1      32.340  30.910  27.190  1.00  0.00    -0.376 OA
BRANCH   3   4
ATOM      4  C   UNL A   1      32.338  29.755  26.372  1.00  0.00     0.202 C 
BRANCH   4   5
ATOM      5  C   UNL A   1      33.635  29.096  25.878  1.00  0.00     0.261 C 
BRANCH   5   6
ATOM      6  O   UNL A   1      33.524  27.829  25.218  1.00  0.00    -0.463 OA
BRANCH   6   7
ATOM      7  C   UNL A   1      32.866  27.780  24.042  1.00  0.00     0.316 C 
ATOM      8  O   UNL A   1      32.629  28.781  23.372  1.00  0.00    -0.251 OA
BRANCH   7   9
ATOM      9  C   UNL A   1      32.434  26.342  23.627  1.00  0.00     0.099 C 
ATOM     10  C   UNL A   1      31.114  26.236  22.800  1.00  0.00     0.029 C 
BRANCH   9  11
ATOM     11  C   UNL A   1      33.577  25.788  22.713  1.00  0.00     0.123 C 
BRANCH  11  12
ATOM     12  C   UNL A   1      33.245  24.718  21.669  1.00  0.00     0.225 C 
ATOM     13  N   UNL A   1      33.027  23.393  21.914  1.00  0.00    -0.326 N 
ATOM     14  H   UNL A   1      32.681  22.924  21.122  1.00  0.00     0.169 HD
ATOM     15  O   UNL A   1      33.138  25.066  20.485  1.00  0.00    -0.275 OA
BRANCH  13  16
ATOM     16  C   UNL A   1      33.173  22.528  23.018  1.00  0.00     0.045 A 
ATOM     17  C   UNL A   1      35.703  23.029  23.112  1.00  0.00     0.048 C 
ATOM     18  C   UNL A   1      34.458  22.314  23.584  1.00  0.00    -0.009 A 
ATOM     19  C   UNL A   1      34.595  21.352  24.615  1.00  0.00     0.046 A 
ATOM     20  Cl  UNL A   1      36.139  20.956  25.294  1.00  0.00    -0.084 Cl
ATOM     21  C   UNL A   1      33.495  20.646  25.098  1.00  0.00     0.021 A 
ATOM     22  C   UNL A   1      32.074  21.882  23.586  1.00  0.00     0.026 A 
ATOM     23  C   UNL A   1      32.232  20.931  24.601  1.00  0.00     0.004 A 
ENDBRANCH  13  16
ENDBRANCH  11  12
ENDBRANCH   9  11
BRANCH   9  24
ATOM     24  C   UNL A   1      32.159  25.469  24.904  1.00  0.00    -0.030 A 
ATOM     25  C   UNL A   1      33.223  24.929  25.655  1.00  0.00     0.005 A 
ATOM     26  C   UNL A   1      30.859  25.050  25.261  1.00  0.00     0.005 A 
ATOM     27  C   UNL A   1      32.997  23.976  26.660  1.00  0.00     0.000 A 
ATOM     28  C   UNL A   1      30.634  24.103  26.265  1.00  0.00     0.000 A 
ATOM     29  C   UNL A   1      31.704  23.555  26.956  1.00  0.00     0.000 A 
ENDBRANCH   9  24
ENDBRANCH   7   9
ENDBRANCH   6   7
ENDBRANCH   5   6
ENDBRANCH   4   5
ENDBRANCH   3   4
ENDBRANCH   2   3
ENDBRANCH   1   2
BRANCH   1  30
ATOM     30  O   UNL A   1      33.930  33.510  29.018  1.00  0.00    -0.377 OA
BRANCH  30  31
ATOM     31  C   UNL A   1      34.791  32.782  29.889  1.00  0.00     0.188 C 
BRANCH  31  32
ATOM     32  C   UNL A   1      34.497  32.632  31.399  1.00  0.00     0.188 C 
BRANCH  32  33
ATOM     33  O   UNL A   1      34.060  33.807  32.059  1.00  0.00    -0.376 OA
BRANCH  33  34
ATOM     34  C   UNL A   1      34.078  33.838  33.477  1.00  0.00     0.202 C 
BRANCH  34  35
ATOM     35  C   UNL A   1      35.410  34.171  34.170  1.00  0.00     0.261 C 
BRANCH  35  36
ATOM     36  O   UNL A   1      36.594  33.667  33.535  1.00  0.00    -0.460 OA
BRANCH  36  37
ATOM     37  C   UNL A   1      37.191  32.612  34.116  1.00  0.00     0.338 C 
ATOM     38  O   UNL A   1      37.116  32.268  35.290  1.00  0.00    -0.246 OA
BRANCH  37  39
ATOM     39  C   UNL A   1      37.847  31.811  33.071  1.00  0.00     0.060 A 
ATOM     40  C   UNL A   1      38.648  30.728  33.452  1.00  0.00     0.016 A 
ATOM     41  C   UNL A   1      37.719  32.166  31.726  1.00  0.00     0.016 A 
ATOM     42  C   UNL A   1      39.386  30.042  32.495  1.00  0.00     0.010 A 
ATOM     43  C   UNL A   1      38.477  31.490  30.768  1.00  0.00     0.010 A 
ATOM     44  C   UNL A   1      39.356  30.464  31.160  1.00  0.00    -0.014 A 
BRANCH  44  45
ATOM     45  C   UNL A   1      40.418  29.993  30.240  1.00  0.00     0.031 A 
ATOM     46  C   UNL A   1      41.606  30.886  30.005  1.00  0.00     0.074 A 
ATOM     47  C   UNL A   1      40.368  28.772  29.682  1.00  0.00     0.049 A 
ATOM     48  N   UNL A   1      42.666  30.680  29.268  1.00  0.00    -0.248 NA
ATOM     49  C   UNL A   1      41.597  32.185  30.699  1.00  0.00     0.031 C 
ATOM     50  C   UNL A   1      39.301  27.797  29.883  1.00  0.00     0.029 A 
ATOM     51  N   UNL A   1      41.249  28.143  28.839  1.00  0.00    -0.354 N 
ATOM     52  C   UNL A   1      43.444  31.823  29.403  1.00  0.00     0.074 A 
ATOM     53  C   UNL A   1      42.719  32.734  30.261  1.00  0.00     0.031 C 
ATOM     54  C   UNL A   1      39.594  26.683  29.190  1.00  0.00     0.029 A 
ATOM     55  C   UNL A   1      40.849  26.884  28.469  1.00  0.00     0.049 A 
ATOM     56  H   UNL A   1      42.087  28.556  28.529  1.00  0.00     0.167 HD
ATOM     57  C   UNL A   1      44.658  32.090  28.869  1.00  0.00     0.031 A 
ATOM     58  C   UNL A   1      41.428  26.000  27.632  1.00  0.00     0.031 A 
ATOM     59  C   UNL A   1      45.371  31.190  28.001  1.00  0.00     0.049 A 
ATOM     60  C   UNL A   1      42.736  26.357  26.976  1.00  0.00     0.074 A 
ATOM     61  C   UNL A   1      46.608  31.366  27.407  1.00  0.00     0.029 A 
ATOM     62  N   UNL A   1      44.903  29.949  27.598  1.00  0.00    -0.354 N 
ATOM     63  N   UNL A   1      43.470  27.435  27.122  1.00  0.00    -0.248 NA
ATOM     64  C   UNL A   1      43.300  25.368  26.047  1.00  0.00     0.031 C 
ATOM     65  C   UNL A   1      46.859  30.258  26.592  1.00  0.00     0.029 A 
ATOM     66  C   UNL A   1      45.814  29.358  26.739  1.00  0.00     0.049 A 
ATOM     67  H   UNL A   1      44.050  29.548  27.881  1.00  0.00     0.167 HD
ATOM     68  C   UNL A   1      44.598  27.236  26.334  1.00  0.00     0.074 A 
ATOM     69  C   UNL A   1      44.456  25.931  25.724  1.00  0.00     0.031 C 
ATOM     70  C   UNL A   1      45.660  28.058  26.140  1.00  0.00     0.031 A 
BRANCH  57  71
ATOM     71  C   UNL A   1      45.268  33.430  29.177  1.00  0.00    -0.014 A 
ATOM     72  C   UNL A   1      45.890  33.688  30.410  1.00  0.00     0.009 A 
ATOM     73  C   UNL A   1      45.232  34.447  28.210  1.00  0.00     0.009 A 
ATOM     74  C   UNL A   1      46.425  34.950  30.682  1.00  0.00     0.001 A 
ATOM     75  C   UNL A   1      45.797  35.695  28.472  1.00  0.00     0.001 A 
ATOM     76  C   UNL A   1      46.384  35.950  29.710  1.00  0.00     0.000 A 
ENDBRANCH  57  71
BRANCH  58  77
ATOM     77  C   UNL A   1      40.772  24.694  27.355  1.00  0.00    -0.014 A 
ATOM     78  C   UNL A   1      41.275  23.507  27.906  1.00  0.00     0.009 A 
ATOM     79  C   UNL A   1      39.648  24.628  26.515  1.00  0.00     0.009 A 
ATOM     80  C   UNL A   1      40.685  22.278  27.601  1.00  0.00     0.001 A 
ATOM     81  C   UNL A   1      39.040  23.402  26.238  1.00  0.00     0.001 A 
ATOM     82  C   UNL A   1      39.565  22.227  26.772  1.00  0.00     0.000 A 
ENDBRANCH  58  77
BRANCH  70  83
ATOM     83  C   UNL A   1      46.779  27.548  25.271  1.00  0.00    -0.014 A 
ATOM     84  C   UNL A   1      47.749  26.661  25.763  1.00  0.00     0.009 A 
ATOM     85  C   UNL A   1      46.834  27.935  23.922  1.00  0.00     0.009 A 
ATOM     86  C   UNL A   1      48.773  26.204  24.931  1.00  0.00     0.001 A 
ATOM     87  C   UNL A   1      47.838  27.449  23.084  1.00  0.00     0.001 A 
ATOM     88  C   UNL A   1      48.814  26.594  23.592  1.00  0.00     0.000 A 
ENDBRANCH  70  83
ENDBRANCH  44  45
ENDBRANCH  37  39
ENDBRANCH  36  37
ENDBRANCH  35  36
ENDBRANCH  34  35
ENDBRANCH  33  34
ENDBRANCH  32  33
ENDBRANCH  31  32
ENDBRANCH  30  31
ENDBRANCH   1  30
TORSDOF 24
ENDMDL
