MODEL 1
REMARK VINA RESULT:      -7.9      0.000      0.000
REMARK SMILES COc1ccc(-c2ncn(CC(=O)OCCOCCOCCOCCOC(=O)c3ccc(-c4c5nc(c(-c6ccccc6)c6ccc([nH]6)c(-c6ccccc6)c6nc(c(-c7ccccc7)c7ccc4[nH]7)C=C6)C=C5)cc3)c2-c2ccc(OC)cc2)cc1
REMARK SMILES IDX 19 1 18 2 17 3 16 4 15 5 14 6 12 7 13 8 11 9 10 10 7 11 8 12
REMARK SMILES IDX 77 13 9 14 6 15 3 16 4 17 87 18 5 19 86 20 2 21 1 22 78 23
REMARK SMILES IDX 79 24 85 25 80 26 84 27 81 28 82 29 83 30 20 31 21 32 22 33
REMARK SMILES IDX 23 34 24 35 25 36 26 37 27 38 28 39 29 40 30 41 76 42 31 43
REMARK SMILES IDX 75 44 32 45 33 46 34 47 69 48 35 49 74 50 68 51 70 52 36 53
REMARK SMILES IDX 73 54 67 55 66 56 37 58 59 59 44 60 58 61 45 62 48 63 57 64
REMARK SMILES IDX 71 65 46 66 47 67 56 69 72 70 49 71 38 72 39 73 43 74 40 75
REMARK SMILES IDX 42 76 41 77 60 78 61 79 65 80 62 81 64 82 63 83 50 84 51 85
REMARK SMILES IDX 55 86 52 87 54 88 53 89
REMARK H PARENT 70 57 48 68
REMARK Flexibility Score: inf
ROOT
ATOM      1  C   UNL A   1      40.164  33.248  31.304  1.00  0.00     0.188 C 
ENDROOT
BRANCH   1   2
ATOM      2  C   UNL A   1      39.277  34.274  32.029  1.00  0.00     0.188 C 
BRANCH   2   3
ATOM      3  O   UNL A   1      38.047  33.823  32.576  1.00  0.00    -0.376 OA
BRANCH   3   4
ATOM      4  C   UNL A   1      36.912  34.644  32.354  1.00  0.00     0.202 C 
BRANCH   4   5
ATOM      5  C   UNL A   1      35.704  34.001  31.642  1.00  0.00     0.261 C 
BRANCH   5   6
ATOM      6  O   UNL A   1      36.013  32.958  30.666  1.00  0.00    -0.462 OA
BRANCH   6   7
ATOM      7  C   UNL A   1      36.292  33.344  29.395  1.00  0.00     0.326 C 
ATOM      8  O   UNL A   1      37.433  33.609  29.021  1.00  0.00    -0.250 OA
BRANCH   7   9
ATOM      9  C   UNL A   1      35.130  33.474  28.414  1.00  0.00     0.246 C 
BRANCH   9  10
ATOM     10  N   UNL A   1      34.273  32.335  28.062  1.00  0.00    -0.319 N 
ATOM     11  C   UNL A   1      33.426  30.488  27.221  1.00  0.00     0.096 A 
ATOM     12  N   UNL A   1      32.489  31.471  27.040  1.00  0.00    -0.236 NA
ATOM     13  C   UNL A   1      34.597  30.979  27.832  1.00  0.00     0.076 A 
ATOM     14  C   UNL A   1      33.018  32.554  27.543  1.00  0.00     0.201 A 
BRANCH  11  15
ATOM     15  C   UNL A   1      33.076  29.102  26.938  1.00  0.00     0.003 A 
ATOM     16  C   UNL A   1      32.277  26.458  26.381  1.00  0.00     0.118 A 
ATOM     17  C   UNL A   1      31.412  27.337  27.024  1.00  0.00     0.047 A 
ATOM     18  C   UNL A   1      33.540  26.900  25.991  1.00  0.00     0.047 A 
ATOM     19  C   UNL A   1      31.808  28.647  27.304  1.00  0.00     0.014 A 
ATOM     20  C   UNL A   1      33.935  28.225  26.260  1.00  0.00     0.014 A 
BRANCH  16  21
ATOM     21  O   UNL A   1      31.758  25.223  26.107  1.00  0.00    -0.497 OA
ATOM     22  C   UNL A   1      30.376  25.229  25.765  1.00  0.00     0.278 C 
ENDBRANCH  16  21
ENDBRANCH  11  15
BRANCH  13  23
ATOM     23  C   UNL A   1      35.811  30.228  28.273  1.00  0.00     0.001 A 
ATOM     24  C   UNL A   1      36.943  30.106  27.470  1.00  0.00     0.014 A 
ATOM     25  C   UNL A   1      35.936  29.710  29.575  1.00  0.00     0.014 A 
ATOM     26  C   UNL A   1      38.172  29.659  27.973  1.00  0.00     0.047 A 
ATOM     27  C   UNL A   1      37.161  29.235  30.088  1.00  0.00     0.047 A 
ATOM     28  C   UNL A   1      38.299  29.257  29.296  1.00  0.00     0.118 A 
BRANCH  28  29
ATOM     29  O   UNL A   1      39.570  28.935  29.668  1.00  0.00    -0.497 OA
ATOM     30  C   UNL A   1      40.632  29.743  29.176  1.00  0.00     0.278 C 
ENDBRANCH  28  29
ENDBRANCH  13  23
ENDBRANCH   9  10
ENDBRANCH   7   9
ENDBRANCH   6   7
ENDBRANCH   5   6
ENDBRANCH   4   5
ENDBRANCH   3   4
ENDBRANCH   2   3
ENDBRANCH   1   2
BRANCH   1  31
ATOM     31  O   UNL A   1      40.934  33.821  30.269  1.00  0.00    -0.377 OA
BRANCH  31  32
ATOM     32  C   UNL A   1      40.358  34.982  29.705  1.00  0.00     0.188 C 
BRANCH  32  33
ATOM     33  C   UNL A   1      41.060  35.487  28.439  1.00  0.00     0.188 C 
BRANCH  33  34
ATOM     34  O   UNL A   1      42.077  36.483  28.541  1.00  0.00    -0.376 OA
BRANCH  34  35
ATOM     35  C   UNL A   1      42.698  37.112  27.428  1.00  0.00     0.202 C 
BRANCH  35  36
ATOM     36  C   UNL A   1      44.200  37.277  27.419  1.00  0.00     0.261 C 
BRANCH  36  37
ATOM     37  O   UNL A   1      44.784  36.039  27.796  1.00  0.00    -0.460 OA
BRANCH  37  38
ATOM     38  C   UNL A   1      44.807  35.085  26.858  1.00  0.00     0.338 C 
ATOM     39  O   UNL A   1      45.084  35.216  25.661  1.00  0.00    -0.246 OA
BRANCH  38  40
ATOM     40  C   UNL A   1      44.264  33.864  27.446  1.00  0.00     0.060 A 
ATOM     41  C   UNL A   1      44.486  33.750  28.809  1.00  0.00     0.016 A 
ATOM     42  C   UNL A   1      44.002  32.749  26.632  1.00  0.00     0.016 A 
ATOM     43  C   UNL A   1      44.813  32.507  29.274  1.00  0.00     0.010 A 
ATOM     44  C   UNL A   1      44.359  31.505  27.087  1.00  0.00     0.010 A 
ATOM     45  C   UNL A   1      44.857  31.427  28.376  1.00  0.00    -0.014 A 
BRANCH  45  46
ATOM     46  C   UNL A   1      45.279  30.173  28.931  1.00  0.00     0.031 A 
ATOM     47  C   UNL A   1      46.431  29.627  28.205  1.00  0.00     0.074 A 
ATOM     48  C   UNL A   1      44.653  29.510  29.911  1.00  0.00     0.049 A 
ATOM     49  N   UNL A   1      46.385  28.759  27.255  1.00  0.00    -0.248 NA
ATOM     50  C   UNL A   1      47.730  30.277  28.401  1.00  0.00     0.031 C 
ATOM     51  C   UNL A   1      43.695  29.980  30.907  1.00  0.00     0.029 A 
ATOM     52  N   UNL A   1      44.837  28.205  30.230  1.00  0.00    -0.354 N 
ATOM     53  C   UNL A   1      47.690  28.621  26.823  1.00  0.00     0.074 A 
ATOM     54  C   UNL A   1      48.440  29.691  27.438  1.00  0.00     0.031 C 
ATOM     55  C   UNL A   1      43.548  29.018  31.852  1.00  0.00     0.029 A 
ATOM     56  C   UNL A   1      44.281  27.829  31.434  1.00  0.00     0.049 A 
ATOM     57  H   UNL A   1      45.327  27.579  29.650  1.00  0.00     0.167 HD
ATOM     58  C   UNL A   1      48.096  27.497  26.182  1.00  0.00     0.031 A 
ATOM     59  C   UNL A   1      44.494  26.642  32.047  1.00  0.00     0.031 A 
ATOM     60  C   UNL A   1      46.982  26.718  25.699  1.00  0.00     0.049 A 
ATOM     61  C   UNL A   1      44.952  25.672  31.019  1.00  0.00     0.074 A 
ATOM     62  C   UNL A   1      45.957  26.940  24.799  1.00  0.00     0.029 A 
ATOM     63  N   UNL A   1      46.593  25.642  26.461  1.00  0.00    -0.354 N 
ATOM     64  N   UNL A   1      44.181  25.198  30.083  1.00  0.00    -0.248 NA
ATOM     65  C   UNL A   1      46.380  25.538  30.766  1.00  0.00     0.031 C 
ATOM     66  C   UNL A   1      44.823  26.276  25.354  1.00  0.00     0.029 A 
ATOM     67  C   UNL A   1      45.224  25.657  26.540  1.00  0.00     0.049 A 
ATOM     68  H   UNL A   1      47.190  24.979  26.877  1.00  0.00     0.167 HD
ATOM     69  C   UNL A   1      44.991  25.108  28.959  1.00  0.00     0.074 A 
ATOM     70  C   UNL A   1      46.355  25.219  29.469  1.00  0.00     0.031 C 
ATOM     71  C   UNL A   1      44.472  25.230  27.701  1.00  0.00     0.031 A 
BRANCH  58  72
ATOM     72  C   UNL A   1      49.465  26.913  26.385  1.00  0.00    -0.014 A 
ATOM     73  C   UNL A   1      50.247  26.632  25.255  1.00  0.00     0.009 A 
ATOM     74  C   UNL A   1      49.896  26.371  27.611  1.00  0.00     0.009 A 
ATOM     75  C   UNL A   1      51.360  25.790  25.339  1.00  0.00     0.001 A 
ATOM     76  C   UNL A   1      51.031  25.566  27.708  1.00  0.00     0.001 A 
ATOM     77  C   UNL A   1      51.745  25.252  26.565  1.00  0.00     0.000 A 
ENDBRANCH  58  72
BRANCH  59  78
ATOM     78  C   UNL A   1      44.601  26.370  33.493  1.00  0.00    -0.014 A 
ATOM     79  C   UNL A   1      45.686  26.862  34.231  1.00  0.00     0.009 A 
ATOM     80  C   UNL A   1      43.496  25.864  34.200  1.00  0.00     0.009 A 
ATOM     81  C   UNL A   1      45.648  26.887  35.631  1.00  0.00     0.001 A 
ATOM     82  C   UNL A   1      43.460  25.884  35.597  1.00  0.00     0.001 A 
ATOM     83  C   UNL A   1      44.529  26.411  36.312  1.00  0.00     0.000 A 
ENDBRANCH  59  78
BRANCH  71  84
ATOM     84  C   UNL A   1      42.970  25.187  27.552  1.00  0.00    -0.014 A 
ATOM     85  C   UNL A   1      42.269  24.024  27.186  1.00  0.00     0.009 A 
ATOM     86  C   UNL A   1      42.230  26.319  27.925  1.00  0.00     0.009 A 
ATOM     87  C   UNL A   1      40.870  24.009  27.158  1.00  0.00     0.001 A 
ATOM     88  C   UNL A   1      40.833  26.297  27.919  1.00  0.00     0.001 A 
ATOM     89  C   UNL A   1      40.155  25.144  27.529  1.00  0.00     0.000 A 
ENDBRANCH  71  84
ENDBRANCH  45  46
ENDBRANCH  38  40
ENDBRANCH  37  38
ENDBRANCH  36  37
ENDBRANCH  35  36
ENDBRANCH  34  35
ENDBRANCH  33  34
ENDBRANCH  32  33
ENDBRANCH  31  32
ENDBRANCH   1  31
TORSDOF 25
ENDMDL
MODEL 2
REMARK VINA RESULT:      -7.7      4.041     10.907
REMARK SMILES COc1ccc(-c2ncn(CC(=O)OCCOCCOCCOCCOC(=O)c3ccc(-c4c5nc(c(-c6ccccc6)c6ccc([nH]6)c(-c6ccccc6)c6nc(c(-c7ccccc7)c7ccc4[nH]7)C=C6)C=C5)cc3)c2-c2ccc(OC)cc2)cc1
REMARK SMILES IDX 19 1 18 2 17 3 16 4 15 5 14 6 12 7 13 8 11 9 10 10 7 11 8 12
REMARK SMILES IDX 77 13 9 14 6 15 3 16 4 17 87 18 5 19 86 20 2 21 1 22 78 23
REMARK SMILES IDX 79 24 85 25 80 26 84 27 81 28 82 29 83 30 20 31 21 32 22 33
REMARK SMILES IDX 23 34 24 35 25 36 26 37 27 38 28 39 29 40 30 41 76 42 31 43
REMARK SMILES IDX 75 44 32 45 33 46 34 47 69 48 35 49 74 50 68 51 70 52 36 53
REMARK SMILES IDX 73 54 67 55 66 56 37 58 59 59 44 60 58 61 45 62 48 63 57 64
REMARK SMILES IDX 71 65 46 66 47 67 56 69 72 70 49 71 38 72 39 73 43 74 40 75
REMARK SMILES IDX 42 76 41 77 60 78 61 79 65 80 62 81 64 82 63 83 50 84 51 85
REMARK SMILES IDX 55 86 52 87 54 88 53 89
REMARK H PARENT 70 57 48 68
REMARK Flexibility Score: inf
ROOT
ATOM      1  C   UNL A   1      41.067  32.699  35.772  1.00  0.00     0.188 C 
ENDROOT
BRANCH   1   2
ATOM      2  C   UNL A   1      40.927  32.034  37.150  1.00  0.00     0.188 C 
BRANCH   2   3
ATOM      3  O   UNL A   1      41.873  31.038  37.509  1.00  0.00    -0.376 OA
BRANCH   3   4
ATOM      4  C   UNL A   1      43.005  30.903  36.666  1.00  0.00     0.202 C 
BRANCH   4   5
ATOM      5  C   UNL A   1      44.014  29.787  37.013  1.00  0.00     0.261 C 
BRANCH   5   6
ATOM      6  O   UNL A   1      44.686  29.154  35.881  1.00  0.00    -0.462 OA
BRANCH   6   7
ATOM      7  C   UNL A   1      45.933  29.586  35.562  1.00  0.00     0.326 C 
ATOM      8  O   UNL A   1      46.145  30.707  35.102  1.00  0.00    -0.250 OA
BRANCH   7   9
ATOM      9  C   UNL A   1      47.099  28.623  35.763  1.00  0.00     0.246 C 
BRANCH   9  10
ATOM     10  N   UNL A   1      47.021  27.210  35.371  1.00  0.00    -0.319 N 
ATOM     11  C   UNL A   1      47.150  25.017  35.278  1.00  0.00     0.096 A 
ATOM     12  N   UNL A   1      47.666  25.493  34.102  1.00  0.00    -0.236 NA
ATOM     13  C   UNL A   1      46.756  26.057  36.143  1.00  0.00     0.076 A 
ATOM     14  C   UNL A   1      47.581  26.794  34.185  1.00  0.00     0.201 A 
BRANCH  11  15
ATOM     15  C   UNL A   1      46.921  23.586  35.434  1.00  0.00     0.003 A 
ATOM     16  C   UNL A   1      46.603  20.805  35.758  1.00  0.00     0.118 A 
ATOM     17  C   UNL A   1      47.804  21.330  35.292  1.00  0.00     0.047 A 
ATOM     18  C   UNL A   1      45.559  21.668  36.087  1.00  0.00     0.047 A 
ATOM     19  C   UNL A   1      47.961  22.707  35.127  1.00  0.00     0.014 A 
ATOM     20  C   UNL A   1      45.722  23.059  35.935  1.00  0.00     0.014 A 
BRANCH  16  21
ATOM     21  O   UNL A   1      46.586  19.450  35.936  1.00  0.00    -0.497 OA
ATOM     22  C   UNL A   1      45.431  18.803  35.410  1.00  0.00     0.278 C 
ENDBRANCH  16  21
ENDBRANCH  11  15
BRANCH  13  23
ATOM     23  C   UNL A   1      46.081  25.967  37.473  1.00  0.00     0.001 A 
ATOM     24  C   UNL A   1      46.794  25.836  38.663  1.00  0.00     0.014 A 
ATOM     25  C   UNL A   1      44.691  26.139  37.617  1.00  0.00     0.014 A 
ATOM     26  C   UNL A   1      46.200  26.036  39.916  1.00  0.00     0.047 A 
ATOM     27  C   UNL A   1      44.077  26.318  38.874  1.00  0.00     0.047 A 
ATOM     28  C   UNL A   1      44.845  26.316  40.029  1.00  0.00     0.118 A 
BRANCH  28  29
ATOM     29  O   UNL A   1      44.425  26.577  41.299  1.00  0.00    -0.497 OA
ATOM     30  C   UNL A   1      45.007  27.682  41.977  1.00  0.00     0.278 C 
ENDBRANCH  28  29
ENDBRANCH  13  23
ENDBRANCH   9  10
ENDBRANCH   7   9
ENDBRANCH   6   7
ENDBRANCH   5   6
ENDBRANCH   4   5
ENDBRANCH   3   4
ENDBRANCH   2   3
ENDBRANCH   1   2
BRANCH   1  31
ATOM     31  O   UNL A   1      39.837  33.171  35.260  1.00  0.00    -0.377 OA
BRANCH  31  32
ATOM     32  C   UNL A   1      38.724  32.389  35.642  1.00  0.00     0.188 C 
BRANCH  32  33
ATOM     33  C   UNL A   1      37.368  32.976  35.235  1.00  0.00     0.188 C 
BRANCH  33  34
ATOM     34  O   UNL A   1      37.268  33.783  34.061  1.00  0.00    -0.376 OA
BRANCH  34  35
ATOM     35  C   UNL A   1      36.797  33.317  32.804  1.00  0.00     0.202 C 
BRANCH  35  36
ATOM     36  C   UNL A   1      35.520  32.510  32.749  1.00  0.00     0.261 C 
BRANCH  36  37
ATOM     37  O   UNL A   1      35.616  31.603  31.661  1.00  0.00    -0.460 OA
BRANCH  37  38
ATOM     38  C   UNL A   1      35.463  32.126  30.439  1.00  0.00     0.338 C 
ATOM     39  O   UNL A   1      34.544  32.849  30.042  1.00  0.00    -0.246 OA
BRANCH  38  40
ATOM     40  C   UNL A   1      36.486  31.548  29.573  1.00  0.00     0.060 A 
ATOM     41  C   UNL A   1      36.245  30.231  29.220  1.00  0.00     0.016 A 
ATOM     42  C   UNL A   1      37.773  32.112  29.533  1.00  0.00     0.016 A 
ATOM     43  C   UNL A   1      37.327  29.396  29.193  1.00  0.00     0.010 A 
ATOM     44  C   UNL A   1      38.859  31.274  29.538  1.00  0.00     0.010 A 
ATOM     45  C   UNL A   1      38.603  29.916  29.469  1.00  0.00    -0.014 A 
BRANCH  45  46
ATOM     46  C   UNL A   1      39.673  28.959  29.491  1.00  0.00     0.031 A 
ATOM     47  C   UNL A   1      40.012  28.567  30.864  1.00  0.00     0.074 A 
ATOM     48  C   UNL A   1      40.365  28.547  28.423  1.00  0.00     0.049 A 
ATOM     49  N   UNL A   1      40.953  29.071  31.584  1.00  0.00    -0.248 NA
ATOM     50  C   UNL A   1      39.071  27.697  31.576  1.00  0.00     0.031 C 
ATOM     51  C   UNL A   1      40.031  28.601  27.003  1.00  0.00     0.029 A 
ATOM     52  N   UNL A   1      41.559  27.905  28.449  1.00  0.00    -0.354 N 
ATOM     53  C   UNL A   1      40.833  28.460  32.818  1.00  0.00     0.074 A 
ATOM     54  C   UNL A   1      39.570  27.762  32.810  1.00  0.00     0.031 C 
ATOM     55  C   UNL A   1      40.909  27.821  26.324  1.00  0.00     0.029 A 
ATOM     56  C   UNL A   1      41.937  27.352  27.244  1.00  0.00     0.049 A 
ATOM     57  H   UNL A   1      42.111  27.841  29.262  1.00  0.00     0.167 HD
ATOM     58  C   UNL A   1      41.893  28.385  33.662  1.00  0.00     0.031 A 
ATOM     59  C   UNL A   1      42.983  26.512  27.073  1.00  0.00     0.031 A 
ATOM     60  C   UNL A   1      42.944  29.302  33.295  1.00  0.00     0.049 A 
ATOM     61  C   UNL A   1      43.917  26.706  28.212  1.00  0.00     0.074 A 
ATOM     62  C   UNL A   1      43.043  30.676  33.190  1.00  0.00     0.029 A 
ATOM     63  N   UNL A   1      44.003  28.789  32.585  1.00  0.00    -0.354 N 
ATOM     64  N   UNL A   1      44.638  27.779  28.376  1.00  0.00    -0.248 NA
ATOM     65  C   UNL A   1      43.750  25.888  29.405  1.00  0.00     0.031 C 
ATOM     66  C   UNL A   1      43.890  30.905  32.066  1.00  0.00     0.029 A 
ATOM     67  C   UNL A   1      44.289  29.663  31.568  1.00  0.00     0.049 A 
ATOM     68  H   UNL A   1      44.474  27.944  32.773  1.00  0.00     0.167 HD
ATOM     69  C   UNL A   1      44.648  27.999  29.748  1.00  0.00     0.074 A 
ATOM     70  C   UNL A   1      44.187  26.744  30.334  1.00  0.00     0.031 C 
ATOM     71  C   UNL A   1      44.763  29.261  30.260  1.00  0.00     0.031 A 
BRANCH  58  72
ATOM     72  C   UNL A   1      42.133  27.185  34.534  1.00  0.00    -0.014 A 
ATOM     73  C   UNL A   1      42.916  26.137  34.029  1.00  0.00     0.009 A 
ATOM     74  C   UNL A   1      41.395  26.924  35.704  1.00  0.00     0.009 A 
ATOM     75  C   UNL A   1      42.899  24.872  34.625  1.00  0.00     0.001 A 
ATOM     76  C   UNL A   1      41.409  25.677  36.328  1.00  0.00     0.001 A 
ATOM     77  C   UNL A   1      42.139  24.642  35.769  1.00  0.00     0.000 A 
ENDBRANCH  58  72
BRANCH  59  78
ATOM     78  C   UNL A   1      43.087  25.364  26.153  1.00  0.00    -0.014 A 
ATOM     79  C   UNL A   1      44.177  25.250  25.278  1.00  0.00     0.009 A 
ATOM     80  C   UNL A   1      42.261  24.240  26.330  1.00  0.00     0.009 A 
ATOM     81  C   UNL A   1      44.455  24.037  24.635  1.00  0.00     0.001 A 
ATOM     82  C   UNL A   1      42.536  23.031  25.684  1.00  0.00     0.001 A 
ATOM     83  C   UNL A   1      43.643  22.926  24.850  1.00  0.00     0.000 A 
ENDBRANCH  59  78
BRANCH  71  84
ATOM     84  C   UNL A   1      45.156  30.372  29.315  1.00  0.00    -0.014 A 
ATOM     85  C   UNL A   1      46.481  30.822  29.171  1.00  0.00     0.009 A 
ATOM     86  C   UNL A   1      44.181  30.884  28.447  1.00  0.00     0.009 A 
ATOM     87  C   UNL A   1      46.809  31.785  28.211  1.00  0.00     0.001 A 
ATOM     88  C   UNL A   1      44.514  31.829  27.473  1.00  0.00     0.001 A 
ATOM     89  C   UNL A   1      45.826  32.284  27.360  1.00  0.00     0.000 A 
ENDBRANCH  71  84
ENDBRANCH  45  46
ENDBRANCH  38  40
ENDBRANCH  37  38
ENDBRANCH  36  37
ENDBRANCH  35  36
ENDBRANCH  34  35
ENDBRANCH  33  34
ENDBRANCH  32  33
ENDBRANCH  31  32
ENDBRANCH   1  31
TORSDOF 25
ENDMDL
MODEL 3
REMARK VINA RESULT:      -7.3      7.257     13.939
REMARK SMILES COc1ccc(-c2ncn(CC(=O)OCCOCCOCCOCCOC(=O)c3ccc(-c4c5nc(c(-c6ccccc6)c6ccc([nH]6)c(-c6ccccc6)c6nc(c(-c7ccccc7)c7ccc4[nH]7)C=C6)C=C5)cc3)c2-c2ccc(OC)cc2)cc1
REMARK SMILES IDX 19 1 18 2 17 3 16 4 15 5 14 6 12 7 13 8 11 9 10 10 7 11 8 12
REMARK SMILES IDX 77 13 9 14 6 15 3 16 4 17 87 18 5 19 86 20 2 21 1 22 78 23
REMARK SMILES IDX 79 24 85 25 80 26 84 27 81 28 82 29 83 30 20 31 21 32 22 33
REMARK SMILES IDX 23 34 24 35 25 36 26 37 27 38 28 39 29 40 30 41 76 42 31 43
REMARK SMILES IDX 75 44 32 45 33 46 34 47 69 48 35 49 74 50 68 51 70 52 36 53
REMARK SMILES IDX 73 54 67 55 66 56 37 58 59 59 44 60 58 61 45 62 48 63 57 64
REMARK SMILES IDX 71 65 46 66 47 67 56 69 72 70 49 71 38 72 39 73 43 74 40 75
REMARK SMILES IDX 42 76 41 77 60 78 61 79 65 80 62 81 64 82 63 83 50 84 51 85
REMARK SMILES IDX 55 86 52 87 54 88 53 89
REMARK H PARENT 70 57 48 68
REMARK Flexibility Score: inf
ROOT
ATOM      1  C   UNL A   1      45.999  43.364  26.780  1.00  0.00     0.188 C 
ENDROOT
BRANCH   1   2
ATOM      2  C   UNL A   1      47.320  43.901  27.357  1.00  0.00     0.188 C 
BRANCH   2   3
ATOM      3  O   UNL A   1      48.408  44.090  26.465  1.00  0.00    -0.376 OA
BRANCH   3   4
ATOM      4  C   UNL A   1      48.109  44.687  25.213  1.00  0.00     0.202 C 
BRANCH   4   5
ATOM      5  C   UNL A   1      49.301  45.095  24.323  1.00  0.00     0.261 C 
BRANCH   5   6
ATOM      6  O   UNL A   1      49.000  45.332  22.913  1.00  0.00    -0.462 OA
BRANCH   6   7
ATOM      7  C   UNL A   1      49.718  44.646  21.988  1.00  0.00     0.326 C 
ATOM      8  O   UNL A   1      50.947  44.651  21.971  1.00  0.00    -0.250 OA
BRANCH   7   9
ATOM      9  C   UNL A   1      48.954  43.867  20.921  1.00  0.00     0.246 C 
BRANCH   9  10
ATOM     10  N   UNL A   1      48.049  44.526  19.971  1.00  0.00    -0.319 N 
ATOM     11  C   UNL A   1      46.421  45.030  18.581  1.00  0.00     0.096 A 
ATOM     12  N   UNL A   1      47.594  45.338  17.943  1.00  0.00    -0.236 NA
ATOM     13  C   UNL A   1      46.642  44.477  19.858  1.00  0.00     0.076 A 
ATOM     14  C   UNL A   1      48.541  45.026  18.787  1.00  0.00     0.201 A 
BRANCH  11  15
ATOM     15  C   UNL A   1      45.154  45.434  17.985  1.00  0.00     0.003 A 
ATOM     16  C   UNL A   1      42.764  46.312  16.779  1.00  0.00     0.118 A 
ATOM     17  C   UNL A   1      43.764  47.220  17.108  1.00  0.00     0.047 A 
ATOM     18  C   UNL A   1      42.959  44.955  17.030  1.00  0.00     0.047 A 
ATOM     19  C   UNL A   1      44.948  46.786  17.710  1.00  0.00     0.014 A 
ATOM     20  C   UNL A   1      44.158  44.515  17.624  1.00  0.00     0.014 A 
BRANCH  16  21
ATOM     21  O   UNL A   1      41.678  46.843  16.140  1.00  0.00    -0.497 OA
ATOM     22  C   UNL A   1      41.678  48.266  16.067  1.00  0.00     0.278 C 
ENDBRANCH  16  21
ENDBRANCH  11  15
BRANCH  13  23
ATOM     23  C   UNL A   1      45.642  44.086  20.897  1.00  0.00     0.001 A 
ATOM     24  C   UNL A   1      45.269  44.942  21.931  1.00  0.00     0.014 A 
ATOM     25  C   UNL A   1      44.920  42.880  20.822  1.00  0.00     0.014 A 
ATOM     26  C   UNL A   1      44.143  44.704  22.731  1.00  0.00     0.047 A 
ATOM     27  C   UNL A   1      43.799  42.617  21.636  1.00  0.00     0.047 A 
ATOM     28  C   UNL A   1      43.378  43.558  22.563  1.00  0.00     0.118 A 
BRANCH  28  29
ATOM     29  O   UNL A   1      42.263  43.504  23.346  1.00  0.00    -0.497 OA
ATOM     30  C   UNL A   1      41.813  42.226  23.775  1.00  0.00     0.278 C 
ENDBRANCH  28  29
ENDBRANCH  13  23
ENDBRANCH   9  10
ENDBRANCH   7   9
ENDBRANCH   6   7
ENDBRANCH   5   6
ENDBRANCH   4   5
ENDBRANCH   3   4
ENDBRANCH   2   3
ENDBRANCH   1   2
BRANCH   1  31
ATOM     31  O   UNL A   1      46.087  42.016  26.366  1.00  0.00    -0.377 OA
BRANCH  31  32
ATOM     32  C   UNL A   1      46.252  41.103  27.432  1.00  0.00     0.188 C 
BRANCH  32  33
ATOM     33  C   UNL A   1      45.125  40.072  27.563  1.00  0.00     0.188 C 
BRANCH  33  34
ATOM     34  O   UNL A   1      44.113  40.249  28.555  1.00  0.00    -0.376 OA
BRANCH  34  35
ATOM     35  C   UNL A   1      44.211  41.153  29.647  1.00  0.00     0.202 C 
BRANCH  35  36
ATOM     36  C   UNL A   1      43.940  40.648  31.046  1.00  0.00     0.261 C 
BRANCH  36  37
ATOM     37  O   UNL A   1      44.285  39.272  31.095  1.00  0.00    -0.460 OA
BRANCH  37  38
ATOM     38  C   UNL A   1      43.676  38.542  32.038  1.00  0.00     0.338 C 
ATOM     39  O   UNL A   1      43.143  38.951  33.074  1.00  0.00    -0.246 OA
BRANCH  38  40
ATOM     40  C   UNL A   1      43.905  37.134  31.731  1.00  0.00     0.060 A 
ATOM     41  C   UNL A   1      44.011  36.863  30.377  1.00  0.00     0.016 A 
ATOM     42  C   UNL A   1      43.558  36.145  32.669  1.00  0.00     0.016 A 
ATOM     43  C   UNL A   1      43.412  35.718  29.932  1.00  0.00     0.010 A 
ATOM     44  C   UNL A   1      42.929  35.011  32.225  1.00  0.00     0.010 A 
ATOM     45  C   UNL A   1      42.779  34.870  30.857  1.00  0.00    -0.014 A 
BRANCH  45  46
ATOM     46  C   UNL A   1      42.113  33.728  30.299  1.00  0.00     0.031 A 
ATOM     47  C   UNL A   1      40.658  33.912  30.281  1.00  0.00     0.074 A 
ATOM     48  C   UNL A   1      42.708  32.584  29.939  1.00  0.00     0.049 A 
ATOM     49  N   UNL A   1      39.830  33.487  31.171  1.00  0.00    -0.248 NA
ATOM     50  C   UNL A   1      40.102  34.852  29.303  1.00  0.00     0.031 C 
ATOM     51  C   UNL A   1      44.108  32.303  29.634  1.00  0.00     0.029 A 
ATOM     52  N   UNL A   1      42.085  31.401  29.715  1.00  0.00    -0.354 N 
ATOM     53  C   UNL A   1      38.596  33.973  30.782  1.00  0.00     0.074 A 
ATOM     54  C   UNL A   1      38.845  34.936  29.736  1.00  0.00     0.031 C 
ATOM     55  C   UNL A   1      44.185  31.077  29.058  1.00  0.00     0.029 A 
ATOM     56  C   UNL A   1      42.871  30.449  29.102  1.00  0.00     0.049 A 
ATOM     57  H   UNL A   1      41.148  31.236  29.969  1.00  0.00     0.167 HD
ATOM     58  C   UNL A   1      37.451  33.369  31.189  1.00  0.00     0.031 A 
ATOM     59  C   UNL A   1      42.419  29.272  28.611  1.00  0.00     0.031 A 
ATOM     60  C   UNL A   1      37.673  32.485  32.306  1.00  0.00     0.049 A 
ATOM     61  C   UNL A   1      41.131  28.960  29.283  1.00  0.00     0.074 A 
ATOM     62  C   UNL A   1      38.124  32.649  33.602  1.00  0.00     0.029 A 
ATOM     63  N   UNL A   1      37.791  31.143  32.030  1.00  0.00    -0.354 N 
ATOM     64  N   UNL A   1      41.039  28.621  30.537  1.00  0.00    -0.248 NA
ATOM     65  C   UNL A   1      39.892  29.427  28.679  1.00  0.00     0.031 C 
ATOM     66  C   UNL A   1      38.898  31.483  33.879  1.00  0.00     0.029 A 
ATOM     67  C   UNL A   1      38.849  30.657  32.755  1.00  0.00     0.049 A 
ATOM     68  H   UNL A   1      37.219  30.623  31.420  1.00  0.00     0.167 HD
ATOM     69  C   UNL A   1      39.874  29.228  30.990  1.00  0.00     0.074 A 
ATOM     70  C   UNL A   1      39.154  29.609  29.778  1.00  0.00     0.031 C 
ATOM     71  C   UNL A   1      39.736  29.609  32.294  1.00  0.00     0.031 A 
BRANCH  58  72
ATOM     72  C   UNL A   1      36.247  33.260  30.297  1.00  0.00    -0.014 A 
ATOM     73  C   UNL A   1      36.400  32.666  29.036  1.00  0.00     0.009 A 
ATOM     74  C   UNL A   1      35.051  33.966  30.530  1.00  0.00     0.009 A 
ATOM     75  C   UNL A   1      35.435  32.835  28.037  1.00  0.00     0.001 A 
ATOM     76  C   UNL A   1      34.067  34.100  29.551  1.00  0.00     0.001 A 
ATOM     77  C   UNL A   1      34.274  33.559  28.294  1.00  0.00     0.000 A 
ENDBRANCH  58  72
BRANCH  59  78
ATOM     78  C   UNL A   1      42.877  28.552  27.408  1.00  0.00    -0.014 A 
ATOM     79  C   UNL A   1      43.730  27.446  27.522  1.00  0.00     0.009 A 
ATOM     80  C   UNL A   1      42.253  28.780  26.168  1.00  0.00     0.009 A 
ATOM     81  C   UNL A   1      43.919  26.572  26.444  1.00  0.00     0.001 A 
ATOM     82  C   UNL A   1      42.446  27.911  25.091  1.00  0.00     0.001 A 
ATOM     83  C   UNL A   1      43.266  26.798  25.234  1.00  0.00     0.000 A 
ENDBRANCH  59  78
BRANCH  71  84
ATOM     84  C   UNL A   1      40.759  29.108  33.287  1.00  0.00    -0.014 A 
ATOM     85  C   UNL A   1      40.784  27.784  33.758  1.00  0.00     0.009 A 
ATOM     86  C   UNL A   1      41.809  29.965  33.650  1.00  0.00     0.009 A 
ATOM     87  C   UNL A   1      41.812  27.344  34.600  1.00  0.00     0.001 A 
ATOM     88  C   UNL A   1      42.846  29.517  34.472  1.00  0.00     0.001 A 
ATOM     89  C   UNL A   1      42.844  28.210  34.952  1.00  0.00     0.000 A 
ENDBRANCH  71  84
ENDBRANCH  45  46
ENDBRANCH  38  40
ENDBRANCH  37  38
ENDBRANCH  36  37
ENDBRANCH  35  36
ENDBRANCH  34  35
ENDBRANCH  33  34
ENDBRANCH  32  33
ENDBRANCH  31  32
ENDBRANCH   1  31
TORSDOF 25
ENDMDL
