MODEL 1
REMARK VINA RESULT:     -10.5      0.000      0.000
REMARK SMILES Cc1cc(C(=O)N2[C@@H](C(=O)OCCOCCOCCOCCOC(=O)c3ccc(-c4c5nc(c(-c6ccccc6)c6ccc([nH]6)c(-c6ccccc6)c6nc(c(-c7ccccc7)c7ccc4[nH]7)C=C6)C=C5)cc3)C[C@H]3CCCC[C@H]32)c(C)s1
REMARK SMILES IDX 17 1 16 2 15 3 14 4 13 5 12 6 11 7 9 8 10 9 8 10 7 11 80 12
REMARK SMILES IDX 74 13 75 14 79 15 76 16 78 17 77 18 5 19 6 20 4 21 1 22 2 23
REMARK SMILES IDX 3 24 83 25 81 26 82 27 18 28 19 29 20 30 21 31 22 32 23 33
REMARK SMILES IDX 24 34 25 35 26 36 27 37 73 38 28 39 72 40 29 41 30 42 31 43
REMARK SMILES IDX 66 44 32 45 71 46 65 47 67 48 33 49 70 50 64 51 63 52 34 54
REMARK SMILES IDX 56 55 41 56 55 57 42 58 45 59 54 60 68 61 43 62 44 63 53 65
REMARK SMILES IDX 69 66 46 67 35 68 36 69 40 70 37 71 39 72 38 73 57 74 58 75
REMARK SMILES IDX 62 76 59 77 61 78 60 79 47 80 48 81 52 82 49 83 51 84 50 85
REMARK H PARENT 67 53 45 64
REMARK Flexibility Score: inf
ROOT
ATOM      1  O   UNL A   1      41.961  20.161  26.248  1.00  0.00    -0.377 OA
ENDROOT
BRANCH   1   2
ATOM      2  C   UNL A   1      40.548  20.264  26.149  1.00  0.00     0.188 C 
BRANCH   2   3
ATOM      3  C   UNL A   1      39.736  21.535  26.457  1.00  0.00     0.188 C 
BRANCH   3   4
ATOM      4  O   UNL A   1      38.585  21.677  25.655  1.00  0.00    -0.376 OA
BRANCH   4   5
ATOM      5  C   UNL A   1      38.011  22.963  25.546  1.00  0.00     0.202 C 
BRANCH   5   6
ATOM      6  C   UNL A   1      36.483  23.100  25.416  1.00  0.00     0.261 C 
BRANCH   6   7
ATOM      7  O   UNL A   1      35.847  24.348  25.754  1.00  0.00    -0.462 OA
BRANCH   7   8
ATOM      8  C   UNL A   1      34.677  24.684  25.153  1.00  0.00     0.328 C 
ATOM      9  O   UNL A   1      34.383  24.365  24.007  1.00  0.00    -0.250 OA
BRANCH   8  10
ATOM     10  C   UNL A   1      33.702  25.420  26.108  1.00  0.00     0.196 C 
ATOM     11  N   UNL A   1      32.272  25.046  25.994  1.00  0.00    -0.322 N 
ATOM     12  C   UNL A   1      31.400  26.203  25.815  1.00  0.00     0.089 C 
ATOM     13  C   UNL A   1      33.706  26.955  25.986  1.00  0.00     0.043 C 
ATOM     14  C   UNL A   1      32.262  27.361  26.326  1.00  0.00     0.014 C 
ATOM     15  C   UNL A   1      30.829  26.330  24.399  1.00  0.00     0.025 C 
ATOM     16  C   UNL A   1      31.818  28.742  25.866  1.00  0.00     0.006 C 
ATOM     17  C   UNL A   1      30.408  27.746  24.015  1.00  0.00     0.002 C 
ATOM     18  C   UNL A   1      31.416  28.818  24.402  1.00  0.00     0.000 C 
BRANCH  11  19
ATOM     19  C   UNL A   1      31.706  23.824  26.347  1.00  0.00     0.255 C 
ATOM     20  O   UNL A   1      30.892  23.725  27.262  1.00  0.00    -0.269 OA
BRANCH  19  21
ATOM     21  C   UNL A   1      32.209  22.643  25.639  1.00  0.00     0.053 A 
ATOM     22  C   UNL A   1      32.148  20.445  22.558  1.00  0.00     0.056 C 
ATOM     23  C   UNL A   1      32.406  21.124  23.856  1.00  0.00     0.003 A 
ATOM     24  C   UNL A   1      31.965  22.362  24.250  1.00  0.00     0.029 A 
ATOM     25  S   UNL A   1      33.371  20.412  25.064  1.00  0.00    -0.145 S 
ATOM     26  C   UNL A   1      33.105  21.718  26.154  1.00  0.00     0.014 A 
ATOM     27  C   UNL A   1      33.830  21.718  27.460  1.00  0.00     0.057 C 
ENDBRANCH  19  21
ENDBRANCH  11  19
ENDBRANCH   8  10
ENDBRANCH   7   8
ENDBRANCH   6   7
ENDBRANCH   5   6
ENDBRANCH   4   5
ENDBRANCH   3   4
ENDBRANCH   2   3
ENDBRANCH   1   2
BRANCH   1  28
ATOM     28  C   UNL A   1      42.562  18.895  26.072  1.00  0.00     0.188 C 
BRANCH  28  29
ATOM     29  C   UNL A   1      43.881  18.897  25.282  1.00  0.00     0.188 C 
BRANCH  29  30
ATOM     30  O   UNL A   1      44.267  20.190  24.841  1.00  0.00    -0.376 OA
BRANCH  30  31
ATOM     31  C   UNL A   1      45.385  20.820  25.439  1.00  0.00     0.202 C 
BRANCH  31  32
ATOM     32  C   UNL A   1      45.700  22.303  25.166  1.00  0.00     0.261 C 
BRANCH  32  33
ATOM     33  O   UNL A   1      44.892  23.282  25.824  1.00  0.00    -0.460 OA
BRANCH  33  34
ATOM     34  C   UNL A   1      43.722  23.610  25.236  1.00  0.00     0.338 C 
ATOM     35  O   UNL A   1      43.214  23.098  24.264  1.00  0.00    -0.246 OA
BRANCH  34  36
ATOM     36  C   UNL A   1      43.063  24.604  26.112  1.00  0.00     0.060 A 
ATOM     37  C   UNL A   1      43.651  25.867  26.260  1.00  0.00     0.016 A 
ATOM     38  C   UNL A   1      41.868  24.293  26.765  1.00  0.00     0.016 A 
ATOM     39  C   UNL A   1      43.050  26.823  27.073  1.00  0.00     0.010 A 
ATOM     40  C   UNL A   1      41.290  25.238  27.615  1.00  0.00     0.010 A 
ATOM     41  C   UNL A   1      41.895  26.495  27.792  1.00  0.00    -0.014 A 
BRANCH  41  42
ATOM     42  C   UNL A   1      41.460  27.381  28.895  1.00  0.00     0.031 A 
ATOM     43  C   UNL A   1      42.242  27.341  30.178  1.00  0.00     0.074 A 
ATOM     44  C   UNL A   1      40.425  28.225  28.752  1.00  0.00     0.049 A 
ATOM     45  N   UNL A   1      42.048  28.000  31.291  1.00  0.00    -0.248 NA
ATOM     46  C   UNL A   1      43.400  26.430  30.209  1.00  0.00     0.031 C 
ATOM     47  C   UNL A   1      39.627  28.393  27.539  1.00  0.00     0.029 A 
ATOM     48  N   UNL A   1      39.868  29.101  29.649  1.00  0.00    -0.354 N 
ATOM     49  C   UNL A   1      43.050  27.578  32.154  1.00  0.00     0.074 A 
ATOM     50  C   UNL A   1      43.834  26.587  31.449  1.00  0.00     0.031 C 
ATOM     51  C   UNL A   1      38.672  29.309  27.773  1.00  0.00     0.029 A 
ATOM     52  C   UNL A   1      38.771  29.764  29.160  1.00  0.00     0.049 A 
ATOM     53  H   UNL A   1      40.221  29.240  30.558  1.00  0.00     0.167 HD
ATOM     54  C   UNL A   1      43.298  27.980  33.422  1.00  0.00     0.031 A 
ATOM     55  C   UNL A   1      37.928  30.618  29.773  1.00  0.00     0.031 A 
ATOM     56  C   UNL A   1      42.502  28.946  34.127  1.00  0.00     0.049 A 
ATOM     57  C   UNL A   1      38.172  30.982  31.215  1.00  0.00     0.074 A 
ATOM     58  C   UNL A   1      42.674  29.432  35.411  1.00  0.00     0.029 A 
ATOM     59  N   UNL A   1      41.372  29.562  33.612  1.00  0.00    -0.354 N 
ATOM     60  N   UNL A   1      39.140  30.603  32.014  1.00  0.00    -0.248 NA
ATOM     61  C   UNL A   1      37.207  31.903  31.836  1.00  0.00     0.031 C 
ATOM     62  C   UNL A   1      41.608  30.288  35.698  1.00  0.00     0.029 A 
ATOM     63  C   UNL A   1      40.815  30.398  34.566  1.00  0.00     0.049 A 
ATOM     64  H   UNL A   1      41.018  29.426  32.704  1.00  0.00     0.167 HD
ATOM     65  C   UNL A   1      38.920  31.261  33.219  1.00  0.00     0.074 A 
ATOM     66  C   UNL A   1      37.736  32.074  33.040  1.00  0.00     0.031 C 
ATOM     67  C   UNL A   1      39.635  31.200  34.370  1.00  0.00     0.031 A 
BRANCH  54  68
ATOM     68  C   UNL A   1      44.448  27.329  34.139  1.00  0.00    -0.014 A 
ATOM     69  C   UNL A   1      45.573  28.064  34.547  1.00  0.00     0.009 A 
ATOM     70  C   UNL A   1      44.394  25.956  34.427  1.00  0.00     0.009 A 
ATOM     71  C   UNL A   1      46.636  27.429  35.193  1.00  0.00     0.001 A 
ATOM     72  C   UNL A   1      45.443  25.331  35.102  1.00  0.00     0.001 A 
ATOM     73  C   UNL A   1      46.567  26.065  35.476  1.00  0.00     0.000 A 
ENDBRANCH  54  68
BRANCH  55  74
ATOM     74  C   UNL A   1      36.755  31.166  29.039  1.00  0.00    -0.014 A 
ATOM     75  C   UNL A   1      36.714  32.515  28.652  1.00  0.00     0.009 A 
ATOM     76  C   UNL A   1      35.656  30.344  28.744  1.00  0.00     0.009 A 
ATOM     77  C   UNL A   1      35.585  33.033  28.010  1.00  0.00     0.001 A 
ATOM     78  C   UNL A   1      34.544  30.856  28.073  1.00  0.00     0.001 A 
ATOM     79  C   UNL A   1      34.505  32.203  27.716  1.00  0.00     0.000 A 
ENDBRANCH  55  74
BRANCH  67  80
ATOM     80  C   UNL A   1      39.184  32.068  35.514  1.00  0.00    -0.014 A 
ATOM     81  C   UNL A   1      38.170  31.659  36.395  1.00  0.00     0.009 A 
ATOM     82  C   UNL A   1      39.822  33.299  35.739  1.00  0.00     0.009 A 
ATOM     83  C   UNL A   1      37.781  32.482  37.454  1.00  0.00     0.001 A 
ATOM     84  C   UNL A   1      39.456  34.102  36.820  1.00  0.00     0.001 A 
ATOM     85  C   UNL A   1      38.428  33.699  37.669  1.00  0.00     0.000 A 
ENDBRANCH  67  80
ENDBRANCH  41  42
ENDBRANCH  34  36
ENDBRANCH  33  34
ENDBRANCH  32  33
ENDBRANCH  31  32
ENDBRANCH  30  31
ENDBRANCH  29  30
ENDBRANCH  28  29
ENDBRANCH   1  28
TORSDOF 22
ENDMDL
MODEL 2
REMARK VINA RESULT:      -9.8      5.890     12.638
REMARK SMILES Cc1cc(C(=O)N2[C@@H](C(=O)OCCOCCOCCOCCOC(=O)c3ccc(-c4c5nc(c(-c6ccccc6)c6ccc([nH]6)c(-c6ccccc6)c6nc(c(-c7ccccc7)c7ccc4[nH]7)C=C6)C=C5)cc3)C[C@H]3CCCC[C@H]32)c(C)s1
REMARK SMILES IDX 17 1 16 2 15 3 14 4 13 5 12 6 11 7 9 8 10 9 8 10 7 11 80 12
REMARK SMILES IDX 74 13 75 14 79 15 76 16 78 17 77 18 5 19 6 20 4 21 1 22 2 23
REMARK SMILES IDX 3 24 83 25 81 26 82 27 18 28 19 29 20 30 21 31 22 32 23 33
REMARK SMILES IDX 24 34 25 35 26 36 27 37 73 38 28 39 72 40 29 41 30 42 31 43
REMARK SMILES IDX 66 44 32 45 71 46 65 47 67 48 33 49 70 50 64 51 63 52 34 54
REMARK SMILES IDX 56 55 41 56 55 57 42 58 45 59 54 60 68 61 43 62 44 63 53 65
REMARK SMILES IDX 69 66 46 67 35 68 36 69 40 70 37 71 39 72 38 73 57 74 58 75
REMARK SMILES IDX 62 76 59 77 61 78 60 79 47 80 48 81 52 82 49 83 51 84 50 85
REMARK H PARENT 67 53 45 64
REMARK Flexibility Score: inf
ROOT
ATOM      1  O   UNL A   1      34.105  35.680  29.212  1.00  0.00    -0.377 OA
ENDROOT
BRANCH   1   2
ATOM      2  C   UNL A   1      32.798  35.634  29.766  1.00  0.00     0.188 C 
BRANCH   2   3
ATOM      3  C   UNL A   1      32.414  36.169  31.157  1.00  0.00     0.188 C 
BRANCH   3   4
ATOM      4  O   UNL A   1      32.852  37.488  31.395  1.00  0.00    -0.376 OA
BRANCH   4   5
ATOM      5  C   UNL A   1      33.892  37.681  32.329  1.00  0.00     0.202 C 
BRANCH   5   6
ATOM      6  C   UNL A   1      34.248  36.548  33.308  1.00  0.00     0.261 C 
BRANCH   6   7
ATOM      7  O   UNL A   1      35.454  35.784  33.109  1.00  0.00    -0.462 OA
BRANCH   7   8
ATOM      8  C   UNL A   1      35.665  34.666  33.848  1.00  0.00     0.328 C 
ATOM      9  O   UNL A   1      35.329  34.551  35.021  1.00  0.00    -0.250 OA
BRANCH   8  10
ATOM     10  C   UNL A   1      36.277  33.506  33.021  1.00  0.00     0.196 C 
ATOM     11  N   UNL A   1      37.653  33.098  33.388  1.00  0.00    -0.322 N 
ATOM     12  C   UNL A   1      38.558  33.072  32.242  1.00  0.00     0.089 C 
ATOM     13  C   UNL A   1      36.345  33.754  31.503  1.00  0.00     0.043 C 
ATOM     14  C   UNL A   1      37.597  32.984  31.053  1.00  0.00     0.014 C 
ATOM     15  C   UNL A   1      39.575  34.218  32.235  1.00  0.00     0.025 C 
ATOM     16  C   UNL A   1      38.198  33.385  29.714  1.00  0.00     0.006 C 
ATOM     17  C   UNL A   1      40.129  34.558  30.854  1.00  0.00     0.002 C 
ATOM     18  C   UNL A   1      39.071  34.629  29.763  1.00  0.00     0.000 C 
BRANCH  11  19
ATOM     19  C   UNL A   1      38.043  32.470  34.568  1.00  0.00     0.255 C 
ATOM     20  O   UNL A   1      37.522  31.426  34.952  1.00  0.00    -0.269 OA
BRANCH  19  21
ATOM     21  C   UNL A   1      39.036  33.175  35.385  1.00  0.00     0.053 A 
ATOM     22  C   UNL A   1      39.907  36.123  37.594  1.00  0.00     0.056 C 
ATOM     23  C   UNL A   1      39.847  34.863  36.805  1.00  0.00     0.003 A 
ATOM     24  C   UNL A   1      38.733  34.269  36.268  1.00  0.00     0.029 A 
ATOM     25  S   UNL A   1      41.240  33.937  36.489  1.00  0.00    -0.145 S 
ATOM     26  C   UNL A   1      40.362  32.799  35.542  1.00  0.00     0.014 A 
ATOM     27  C   UNL A   1      41.078  31.596  35.023  1.00  0.00     0.057 C 
ENDBRANCH  19  21
ENDBRANCH  11  19
ENDBRANCH   8  10
ENDBRANCH   7   8
ENDBRANCH   6   7
ENDBRANCH   5   6
ENDBRANCH   4   5
ENDBRANCH   3   4
ENDBRANCH   2   3
ENDBRANCH   1   2
BRANCH   1  28
ATOM     28  C   UNL A   1      34.547  34.594  28.425  1.00  0.00     0.188 C 
BRANCH  28  29
ATOM     29  C   UNL A   1      33.460  33.909  27.580  1.00  0.00     0.188 C 
BRANCH  29  30
ATOM     30  O   UNL A   1      33.291  32.535  27.892  1.00  0.00    -0.376 OA
BRANCH  30  31
ATOM     31  C   UNL A   1      34.407  31.667  27.823  1.00  0.00     0.202 C 
BRANCH  31  32
ATOM     32  C   UNL A   1      35.192  31.281  29.091  1.00  0.00     0.261 C 
BRANCH  32  33
ATOM     33  O   UNL A   1      35.846  30.010  29.101  1.00  0.00    -0.460 OA
BRANCH  33  34
ATOM     34  C   UNL A   1      36.549  29.688  30.208  1.00  0.00     0.338 C 
ATOM     35  O   UNL A   1      36.115  29.353  31.287  1.00  0.00    -0.246 OA
BRANCH  34  36
ATOM     36  C   UNL A   1      37.974  29.635  29.814  1.00  0.00     0.060 A 
ATOM     37  C   UNL A   1      38.297  29.631  28.451  1.00  0.00     0.016 A 
ATOM     38  C   UNL A   1      38.979  29.607  30.784  1.00  0.00     0.016 A 
ATOM     39  C   UNL A   1      39.630  29.588  28.051  1.00  0.00     0.010 A 
ATOM     40  C   UNL A   1      40.314  29.519  30.382  1.00  0.00     0.010 A 
ATOM     41  C   UNL A   1      40.640  29.482  29.015  1.00  0.00    -0.014 A 
BRANCH  41  42
ATOM     42  C   UNL A   1      42.003  29.100  28.586  1.00  0.00     0.031 A 
ATOM     43  C   UNL A   1      42.241  27.669  28.193  1.00  0.00     0.074 A 
ATOM     44  C   UNL A   1      42.995  30.003  28.511  1.00  0.00     0.049 A 
ATOM     45  N   UNL A   1      43.346  27.086  27.804  1.00  0.00    -0.248 NA
ATOM     46  C   UNL A   1      41.072  26.774  28.246  1.00  0.00     0.031 C 
ATOM     47  C   UNL A   1      42.871  31.428  28.814  1.00  0.00     0.029 A 
ATOM     48  N   UNL A   1      44.312  29.844  28.157  1.00  0.00    -0.354 N 
ATOM     49  C   UNL A   1      43.007  25.759  27.578  1.00  0.00     0.074 A 
ATOM     50  C   UNL A   1      41.604  25.614  27.897  1.00  0.00     0.031 C 
ATOM     51  C   UNL A   1      44.070  32.012  28.644  1.00  0.00     0.029 A 
ATOM     52  C   UNL A   1      45.049  30.996  28.256  1.00  0.00     0.049 A 
ATOM     53  H   UNL A   1      44.690  28.984  27.861  1.00  0.00     0.167 HD
ATOM     54  C   UNL A   1      43.795  24.749  27.142  1.00  0.00     0.031 A 
ATOM     55  C   UNL A   1      46.369  31.199  28.080  1.00  0.00     0.031 A 
ATOM     56  C   UNL A   1      45.194  24.891  26.850  1.00  0.00     0.049 A 
ATOM     57  C   UNL A   1      47.245  30.038  27.681  1.00  0.00     0.074 A 
ATOM     58  C   UNL A   1      46.081  23.933  26.391  1.00  0.00     0.029 A 
ATOM     59  N   UNL A   1      45.916  26.065  27.006  1.00  0.00    -0.354 N 
ATOM     60  N   UNL A   1      46.911  28.793  27.438  1.00  0.00    -0.248 NA
ATOM     61  C   UNL A   1      48.681  30.315  27.524  1.00  0.00     0.031 C 
ATOM     62  C   UNL A   1      47.353  24.509  26.337  1.00  0.00     0.029 A 
ATOM     63  C   UNL A   1      47.245  25.847  26.686  1.00  0.00     0.049 A 
ATOM     64  H   UNL A   1      45.539  26.925  27.300  1.00  0.00     0.167 HD
ATOM     65  C   UNL A   1      48.086  28.148  27.070  1.00  0.00     0.074 A 
ATOM     66  C   UNL A   1      49.137  29.143  27.107  1.00  0.00     0.031 C 
ATOM     67  C   UNL A   1      48.279  26.849  26.729  1.00  0.00     0.031 A 
BRANCH  54  68
ATOM     68  C   UNL A   1      43.164  23.390  27.008  1.00  0.00    -0.014 A 
ATOM     69  C   UNL A   1      43.034  22.527  28.108  1.00  0.00     0.009 A 
ATOM     70  C   UNL A   1      42.675  22.976  25.759  1.00  0.00     0.009 A 
ATOM     71  C   UNL A   1      42.462  21.263  27.950  1.00  0.00     0.001 A 
ATOM     72  C   UNL A   1      42.074  21.725  25.612  1.00  0.00     0.001 A 
ATOM     73  C   UNL A   1      41.977  20.866  26.704  1.00  0.00     0.000 A 
ENDBRANCH  54  68
BRANCH  55  74
ATOM     74  C   UNL A   1      46.956  32.547  28.309  1.00  0.00    -0.014 A 
ATOM     75  C   UNL A   1      47.342  32.957  29.595  1.00  0.00     0.009 A 
ATOM     76  C   UNL A   1      47.110  33.444  27.239  1.00  0.00     0.009 A 
ATOM     77  C   UNL A   1      47.842  34.244  29.808  1.00  0.00     0.001 A 
ATOM     78  C   UNL A   1      47.642  34.718  27.450  1.00  0.00     0.001 A 
ATOM     79  C   UNL A   1      47.997  35.121  28.735  1.00  0.00     0.000 A 
ENDBRANCH  55  74
BRANCH  67  80
ATOM     80  C   UNL A   1      49.669  26.437  26.325  1.00  0.00    -0.014 A 
ATOM     81  C   UNL A   1      50.523  25.759  27.209  1.00  0.00     0.009 A 
ATOM     82  C   UNL A   1      50.111  26.691  25.016  1.00  0.00     0.009 A 
ATOM     83  C   UNL A   1      51.803  25.379  26.802  1.00  0.00     0.001 A 
ATOM     84  C   UNL A   1      51.377  26.277  24.601  1.00  0.00     0.001 A 
ATOM     85  C   UNL A   1      52.227  25.632  25.497  1.00  0.00     0.000 A 
ENDBRANCH  67  80
ENDBRANCH  41  42
ENDBRANCH  34  36
ENDBRANCH  33  34
ENDBRANCH  32  33
ENDBRANCH  31  32
ENDBRANCH  30  31
ENDBRANCH  29  30
ENDBRANCH  28  29
ENDBRANCH   1  28
TORSDOF 22
ENDMDL
MODEL 3
REMARK VINA RESULT:      -9.5      4.249      9.775
REMARK SMILES Cc1cc(C(=O)N2[C@@H](C(=O)OCCOCCOCCOCCOC(=O)c3ccc(-c4c5nc(c(-c6ccccc6)c6ccc([nH]6)c(-c6ccccc6)c6nc(c(-c7ccccc7)c7ccc4[nH]7)C=C6)C=C5)cc3)C[C@H]3CCCC[C@H]32)c(C)s1
REMARK SMILES IDX 17 1 16 2 15 3 14 4 13 5 12 6 11 7 9 8 10 9 8 10 7 11 80 12
REMARK SMILES IDX 74 13 75 14 79 15 76 16 78 17 77 18 5 19 6 20 4 21 1 22 2 23
REMARK SMILES IDX 3 24 83 25 81 26 82 27 18 28 19 29 20 30 21 31 22 32 23 33
REMARK SMILES IDX 24 34 25 35 26 36 27 37 73 38 28 39 72 40 29 41 30 42 31 43
REMARK SMILES IDX 66 44 32 45 71 46 65 47 67 48 33 49 70 50 64 51 63 52 34 54
REMARK SMILES IDX 56 55 41 56 55 57 42 58 45 59 54 60 68 61 43 62 44 63 53 65
REMARK SMILES IDX 69 66 46 67 35 68 36 69 40 70 37 71 39 72 38 73 57 74 58 75
REMARK SMILES IDX 62 76 59 77 61 78 60 79 47 80 48 81 52 82 49 83 51 84 50 85
REMARK H PARENT 67 53 45 64
REMARK Flexibility Score: inf
ROOT
ATOM      1  O   UNL A   1      33.617  31.627  27.374  1.00  0.00    -0.377 OA
ENDROOT
BRANCH   1   2
ATOM      2  C   UNL A   1      33.337  30.241  27.248  1.00  0.00     0.188 C 
BRANCH   2   3
ATOM      3  C   UNL A   1      31.928  29.640  27.093  1.00  0.00     0.188 C 
BRANCH   3   4
ATOM      4  O   UNL A   1      31.881  28.529  26.226  1.00  0.00    -0.376 OA
BRANCH   4   5
ATOM      5  C   UNL A   1      31.346  27.322  26.728  1.00  0.00     0.202 C 
BRANCH   5   6
ATOM      6  C   UNL A   1      30.753  26.294  25.748  1.00  0.00     0.261 C 
BRANCH   6   7
ATOM      7  O   UNL A   1      29.846  25.285  26.235  1.00  0.00    -0.462 OA
BRANCH   7   8
ATOM      8  C   UNL A   1      30.315  24.039  26.501  1.00  0.00     0.328 C 
ATOM      9  O   UNL A   1      30.081  23.430  27.538  1.00  0.00    -0.250 OA
BRANCH   8  10
ATOM     10  C   UNL A   1      31.085  23.420  25.306  1.00  0.00     0.196 C 
ATOM     11  N   UNL A   1      32.564  23.449  25.398  1.00  0.00    -0.322 N 
ATOM     12  C   UNL A   1      33.190  24.035  24.217  1.00  0.00     0.089 C 
ATOM     13  C   UNL A   1      30.776  24.049  23.936  1.00  0.00     0.043 C 
ATOM     14  C   UNL A   1      32.093  23.914  23.155  1.00  0.00     0.014 C 
ATOM     15  C   UNL A   1      33.776  25.430  24.459  1.00  0.00     0.025 C 
ATOM     16  C   UNL A   1      32.266  24.825  21.948  1.00  0.00     0.006 C 
ATOM     17  C   UNL A   1      33.917  26.281  23.199  1.00  0.00     0.002 C 
ATOM     18  C   UNL A   1      32.698  26.243  22.288  1.00  0.00     0.000 C 
BRANCH  11  19
ATOM     19  C   UNL A   1      33.352  22.726  26.289  1.00  0.00     0.255 C 
ATOM     20  O   UNL A   1      33.440  23.034  27.475  1.00  0.00    -0.269 OA
BRANCH  19  21
ATOM     21  C   UNL A   1      34.154  21.639  25.719  1.00  0.00     0.053 A 
ATOM     22  C   UNL A   1      34.321  18.122  24.330  1.00  0.00     0.056 C 
ATOM     23  C   UNL A   1      34.553  19.518  24.790  1.00  0.00     0.003 A 
ATOM     24  C   UNL A   1      33.606  20.458  25.109  1.00  0.00     0.029 A 
ATOM     25  S   UNL A   1      36.122  20.159  24.949  1.00  0.00    -0.145 S 
ATOM     26  C   UNL A   1      35.530  21.660  25.548  1.00  0.00     0.014 A 
ATOM     27  C   UNL A   1      36.505  22.763  25.801  1.00  0.00     0.057 C 
ENDBRANCH  19  21
ENDBRANCH  11  19
ENDBRANCH   8  10
ENDBRANCH   7   8
ENDBRANCH   6   7
ENDBRANCH   5   6
ENDBRANCH   4   5
ENDBRANCH   3   4
ENDBRANCH   2   3
ENDBRANCH   1   2
BRANCH   1  28
ATOM     28  C   UNL A   1      34.422  32.061  28.450  1.00  0.00     0.188 C 
BRANCH  28  29
ATOM     29  C   UNL A   1      34.201  33.517  28.892  1.00  0.00     0.188 C 
BRANCH  29  30
ATOM     30  O   UNL A   1      35.384  34.299  28.860  1.00  0.00    -0.376 OA
BRANCH  30  31
ATOM     31  C   UNL A   1      36.530  33.852  29.562  1.00  0.00     0.202 C 
BRANCH  31  32
ATOM     32  C   UNL A   1      36.496  33.648  31.088  1.00  0.00     0.261 C 
BRANCH  32  33
ATOM     33  O   UNL A   1      37.323  32.618  31.635  1.00  0.00    -0.460 OA
BRANCH  33  34
ATOM     34  C   UNL A   1      36.968  31.341  31.378  1.00  0.00     0.338 C 
ATOM     35  O   UNL A   1      35.863  30.853  31.454  1.00  0.00    -0.246 OA
BRANCH  34  36
ATOM     36  C   UNL A   1      38.153  30.671  30.799  1.00  0.00     0.060 A 
ATOM     37  C   UNL A   1      39.073  30.063  31.663  1.00  0.00     0.016 A 
ATOM     38  C   UNL A   1      38.341  30.632  29.415  1.00  0.00     0.016 A 
ATOM     39  C   UNL A   1      40.194  29.421  31.145  1.00  0.00     0.010 A 
ATOM     40  C   UNL A   1      39.488  30.025  28.900  1.00  0.00     0.010 A 
ATOM     41  C   UNL A   1      40.431  29.443  29.766  1.00  0.00    -0.014 A 
BRANCH  41  42
ATOM     42  C   UNL A   1      41.769  29.063  29.262  1.00  0.00     0.031 A 
ATOM     43  C   UNL A   1      41.962  27.654  28.775  1.00  0.00     0.074 A 
ATOM     44  C   UNL A   1      42.777  29.950  29.203  1.00  0.00     0.049 A 
ATOM     45  N   UNL A   1      43.039  27.075  28.310  1.00  0.00    -0.248 NA
ATOM     46  C   UNL A   1      40.777  26.780  28.819  1.00  0.00     0.031 C 
ATOM     47  C   UNL A   1      42.693  31.356  29.595  1.00  0.00     0.029 A 
ATOM     48  N   UNL A   1      44.075  29.788  28.790  1.00  0.00    -0.354 N 
ATOM     49  C   UNL A   1      42.664  25.771  28.018  1.00  0.00     0.074 A 
ATOM     50  C   UNL A   1      41.271  25.633  28.382  1.00  0.00     0.031 C 
ATOM     51  C   UNL A   1      43.898  31.926  29.414  1.00  0.00     0.029 A 
ATOM     52  C   UNL A   1      44.840  30.918  28.929  1.00  0.00     0.049 A 
ATOM     53  H   UNL A   1      44.424  28.941  28.429  1.00  0.00     0.167 HD
ATOM     54  C   UNL A   1      43.414  24.774  27.492  1.00  0.00     0.031 A 
ATOM     55  C   UNL A   1      46.156  31.106  28.715  1.00  0.00     0.031 A 
ATOM     56  C   UNL A   1      44.804  24.908  27.156  1.00  0.00     0.049 A 
ATOM     57  C   UNL A   1      46.991  29.956  28.214  1.00  0.00     0.074 A 
ATOM     58  C   UNL A   1      45.653  23.963  26.607  1.00  0.00     0.029 A 
ATOM     59  N   UNL A   1      45.555  26.057  27.354  1.00  0.00    -0.354 N 
ATOM     60  N   UNL A   1      46.623  28.734  27.910  1.00  0.00    -0.248 NA
ATOM     61  C   UNL A   1      48.426  30.215  28.019  1.00  0.00     0.031 C 
ATOM     62  C   UNL A   1      46.934  24.518  26.539  1.00  0.00     0.029 A 
ATOM     63  C   UNL A   1      46.867  25.833  26.970  1.00  0.00     0.049 A 
ATOM     64  H   UNL A   1      45.208  26.904  27.713  1.00  0.00     0.167 HD
ATOM     65  C   UNL A   1      47.770  28.091  27.458  1.00  0.00     0.074 A 
ATOM     66  C   UNL A   1      48.842  29.062  27.514  1.00  0.00     0.031 C 
ATOM     67  C   UNL A   1      47.922  26.812  27.034  1.00  0.00     0.031 A 
BRANCH  54  68
ATOM     68  C   UNL A   1      42.750  23.439  27.303  1.00  0.00    -0.014 A 
ATOM     69  C   UNL A   1      42.754  22.464  28.313  1.00  0.00     0.009 A 
ATOM     70  C   UNL A   1      42.093  23.160  26.093  1.00  0.00     0.009 A 
ATOM     71  C   UNL A   1      42.147  21.223  28.101  1.00  0.00     0.001 A 
ATOM     72  C   UNL A   1      41.459  21.933  25.897  1.00  0.00     0.001 A 
ATOM     73  C   UNL A   1      41.495  20.962  26.896  1.00  0.00     0.000 A 
ENDBRANCH  54  68
BRANCH  55  74
ATOM     74  C   UNL A   1      46.779  32.427  29.001  1.00  0.00    -0.014 A 
ATOM     75  C   UNL A   1      47.503  32.642  30.184  1.00  0.00     0.009 A 
ATOM     76  C   UNL A   1      46.629  33.492  28.098  1.00  0.00     0.009 A 
ATOM     77  C   UNL A   1      48.040  33.901  30.469  1.00  0.00     0.001 A 
ATOM     78  C   UNL A   1      47.195  34.740  28.369  1.00  0.00     0.001 A 
ATOM     79  C   UNL A   1      47.890  34.946  29.558  1.00  0.00     0.000 A 
ENDBRANCH  55  74
BRANCH  67  80
ATOM     80  C   UNL A   1      49.287  26.399  26.552  1.00  0.00    -0.014 A 
ATOM     81  C   UNL A   1      50.165  25.666  27.367  1.00  0.00     0.009 A 
ATOM     82  C   UNL A   1      49.680  26.710  25.240  1.00  0.00     0.009 A 
ATOM     83  C   UNL A   1      51.421  25.286  26.888  1.00  0.00     0.001 A 
ATOM     84  C   UNL A   1      50.921  26.298  24.752  1.00  0.00     0.001 A 
ATOM     85  C   UNL A   1      51.795  25.597  25.580  1.00  0.00     0.000 A 
ENDBRANCH  67  80
ENDBRANCH  41  42
ENDBRANCH  34  36
ENDBRANCH  33  34
ENDBRANCH  32  33
ENDBRANCH  31  32
ENDBRANCH  30  31
ENDBRANCH  29  30
ENDBRANCH  28  29
ENDBRANCH   1  28
TORSDOF 22
ENDMDL
