MODEL 1
REMARK VINA RESULT:      -9.5      0.000      0.000
REMARK SMILES CC1(C(=O)N2CC[C@H](C(=O)OCCOCCOCCOCCOC(=O)c3ccc(-c4c5nc(c(-c6ccccc6)c6ccc([nH]6)c(-c6ccccc6)c6nc(c(-c7ccccc7)c7ccc4[nH]7)C=C6)C=C5)cc3)C2)CCCC1
REMARK SMILES IDX 17 1 16 2 15 3 14 4 13 5 12 6 11 7 9 8 10 9 8 10 5 11 6 12
REMARK SMILES IDX 74 13 7 14 3 15 4 16 2 17 1 18 75 19 78 20 76 21 77 22 18 23
REMARK SMILES IDX 19 24 20 25 21 26 22 27 23 28 24 29 25 30 26 31 27 32 73 33
REMARK SMILES IDX 28 34 72 35 29 36 30 37 31 38 66 39 32 40 71 41 65 42 67 43
REMARK SMILES IDX 33 44 70 45 64 46 63 47 34 49 56 50 41 51 55 52 42 53 45 54
REMARK SMILES IDX 54 55 68 56 43 57 44 58 53 60 69 61 46 62 35 63 36 64 40 65
REMARK SMILES IDX 37 66 39 67 38 68 57 69 58 70 62 71 59 72 61 73 60 74 47 75
REMARK SMILES IDX 48 76 52 77 49 78 51 79 50 80
REMARK H PARENT 67 48 45 59
REMARK Flexibility Score: inf
ROOT
ATOM      1  O   UNL A   1      35.645  24.035  25.269  1.00  0.00    -0.377 OA
ENDROOT
BRANCH   1   2
ATOM      2  C   UNL A   1      34.830  24.445  24.192  1.00  0.00     0.188 C 
BRANCH   2   3
ATOM      3  C   UNL A   1      34.060  25.755  24.409  1.00  0.00     0.188 C 
BRANCH   3   4
ATOM      4  O   UNL A   1      32.662  25.824  24.172  1.00  0.00    -0.376 OA
BRANCH   4   5
ATOM      5  C   UNL A   1      31.809  26.554  25.040  1.00  0.00     0.202 C 
BRANCH   5   6
ATOM      6  C   UNL A   1      30.868  25.859  26.044  1.00  0.00     0.261 C 
BRANCH   6   7
ATOM      7  O   UNL A   1      30.487  24.506  25.743  1.00  0.00    -0.463 OA
BRANCH   7   8
ATOM      8  C   UNL A   1      30.929  23.556  26.600  1.00  0.00     0.310 C 
ATOM      9  O   UNL A   1      30.290  23.140  27.561  1.00  0.00    -0.252 OA
BRANCH   8  10
ATOM     10  C   UNL A   1      32.311  23.024  26.285  1.00  0.00     0.120 C 
ATOM     11  N   UNL A   1      32.964  21.114  25.047  1.00  0.00    -0.341 N 
ATOM     12  C   UNL A   1      33.790  21.143  26.220  1.00  0.00     0.120 C 
ATOM     13  C   UNL A   1      32.274  22.386  24.897  1.00  0.00     0.134 C 
ATOM     14  C   UNL A   1      32.949  21.949  27.175  1.00  0.00     0.038 C 
BRANCH  11  15
ATOM     15  C   UNL A   1      32.803  20.131  24.106  1.00  0.00     0.228 C 
ATOM     16  O   UNL A   1      32.166  20.385  23.079  1.00  0.00    -0.274 OA
BRANCH  15  17
ATOM     17  C   UNL A   1      33.182  18.676  24.472  1.00  0.00     0.047 C 
ATOM     18  C   UNL A   1      32.522  18.087  25.724  1.00  0.00     0.022 C 
ATOM     19  C   UNL A   1      34.715  18.555  24.604  1.00  0.00     0.016 C 
ATOM     20  C   UNL A   1      32.924  17.789  23.236  1.00  0.00     0.016 C 
ATOM     21  C   UNL A   1      35.043  17.111  24.242  1.00  0.00     0.001 C 
ATOM     22  C   UNL A   1      33.912  16.632  23.337  1.00  0.00     0.001 C 
ENDBRANCH  15  17
ENDBRANCH  11  15
ENDBRANCH   8  10
ENDBRANCH   7   8
ENDBRANCH   6   7
ENDBRANCH   5   6
ENDBRANCH   4   5
ENDBRANCH   3   4
ENDBRANCH   2   3
ENDBRANCH   1   2
BRANCH   1  23
ATOM     23  C   UNL A   1      36.918  23.505  24.929  1.00  0.00     0.188 C 
BRANCH  23  24
ATOM     24  C   UNL A   1      36.978  22.054  24.407  1.00  0.00     0.188 C 
BRANCH  24  25
ATOM     25  O   UNL A   1      37.412  21.102  25.367  1.00  0.00    -0.376 OA
BRANCH  25  26
ATOM     26  C   UNL A   1      38.291  20.060  24.965  1.00  0.00     0.202 C 
BRANCH  26  27
ATOM     27  C   UNL A   1      39.298  19.515  25.994  1.00  0.00     0.261 C 
BRANCH  27  28
ATOM     28  O   UNL A   1      40.647  19.324  25.539  1.00  0.00    -0.460 OA
BRANCH  28  29
ATOM     29  C   UNL A   1      41.648  19.533  26.418  1.00  0.00     0.338 C 
ATOM     30  O   UNL A   1      42.522  18.744  26.740  1.00  0.00    -0.246 OA
BRANCH  29  31
ATOM     31  C   UNL A   1      41.636  20.965  26.786  1.00  0.00     0.060 A 
ATOM     32  C   UNL A   1      41.348  21.914  25.797  1.00  0.00     0.016 A 
ATOM     33  C   UNL A   1      41.907  21.369  28.095  1.00  0.00     0.016 A 
ATOM     34  C   UNL A   1      41.368  23.275  26.105  1.00  0.00     0.010 A 
ATOM     35  C   UNL A   1      41.953  22.734  28.396  1.00  0.00     0.010 A 
ATOM     36  C   UNL A   1      41.721  23.693  27.394  1.00  0.00    -0.014 A 
BRANCH  36  37
ATOM     37  C   UNL A   1      42.057  25.118  27.637  1.00  0.00     0.031 A 
ATOM     38  C   UNL A   1      43.402  25.617  27.178  1.00  0.00     0.074 A 
ATOM     39  C   UNL A   1      41.185  25.963  28.216  1.00  0.00     0.049 A 
ATOM     40  N   UNL A   1      43.948  26.795  27.332  1.00  0.00    -0.248 NA
ATOM     41  C   UNL A   1      44.243  24.655  26.443  1.00  0.00     0.031 C 
ATOM     42  C   UNL A   1      39.829  25.625  28.646  1.00  0.00     0.029 A 
ATOM     43  N   UNL A   1      41.322  27.290  28.546  1.00  0.00    -0.354 N 
ATOM     44  C   UNL A   1      45.192  26.715  26.715  1.00  0.00     0.074 A 
ATOM     45  C   UNL A   1      45.336  25.366  26.217  1.00  0.00     0.031 C 
ATOM     46  C   UNL A   1      39.262  26.716  29.195  1.00  0.00     0.029 A 
ATOM     47  C   UNL A   1      40.227  27.814  29.191  1.00  0.00     0.049 A 
ATOM     48  H   UNL A   1      42.129  27.814  28.340  1.00  0.00     0.167 HD
ATOM     49  C   UNL A   1      46.126  27.683  26.564  1.00  0.00     0.031 A 
ATOM     50  C   UNL A   1      40.043  29.031  29.738  1.00  0.00     0.031 A 
ATOM     51  C   UNL A   1      45.995  29.020  27.073  1.00  0.00     0.049 A 
ATOM     52  C   UNL A   1      41.151  30.053  29.659  1.00  0.00     0.074 A 
ATOM     53  C   UNL A   1      46.896  30.067  26.987  1.00  0.00     0.029 A 
ATOM     54  N   UNL A   1      44.891  29.495  27.762  1.00  0.00    -0.354 N 
ATOM     55  N   UNL A   1      42.319  29.968  29.068  1.00  0.00    -0.248 NA
ATOM     56  C   UNL A   1      40.910  31.345  30.321  1.00  0.00     0.031 C 
ATOM     57  C   UNL A   1      46.361  31.160  27.674  1.00  0.00     0.029 A 
ATOM     58  C   UNL A   1      45.097  30.815  28.125  1.00  0.00     0.049 A 
ATOM     59  H   UNL A   1      44.082  28.973  27.964  1.00  0.00     0.167 HD
ATOM     60  C   UNL A   1      42.927  31.206  29.249  1.00  0.00     0.074 A 
ATOM     61  C   UNL A   1      41.995  32.028  29.990  1.00  0.00     0.031 C 
ATOM     62  C   UNL A   1      44.150  31.626  28.843  1.00  0.00     0.031 A 
BRANCH  49  63
ATOM     63  C   UNL A   1      47.388  27.324  25.831  1.00  0.00    -0.014 A 
ATOM     64  C   UNL A   1      48.469  26.728  26.500  1.00  0.00     0.009 A 
ATOM     65  C   UNL A   1      47.474  27.526  24.445  1.00  0.00     0.009 A 
ATOM     66  C   UNL A   1      49.618  26.361  25.796  1.00  0.00     0.001 A 
ATOM     67  C   UNL A   1      48.612  27.132  23.740  1.00  0.00     0.001 A 
ATOM     68  C   UNL A   1      49.685  26.554  24.417  1.00  0.00     0.000 A 
ENDBRANCH  49  63
BRANCH  50  69
ATOM     69  C   UNL A   1      38.780  29.361  30.456  1.00  0.00    -0.014 A 
ATOM     70  C   UNL A   1      37.654  29.826  29.757  1.00  0.00     0.009 A 
ATOM     71  C   UNL A   1      38.721  29.294  31.858  1.00  0.00     0.009 A 
ATOM     72  C   UNL A   1      36.520  30.265  30.447  1.00  0.00     0.001 A 
ATOM     73  C   UNL A   1      37.572  29.697  32.543  1.00  0.00     0.001 A 
ATOM     74  C   UNL A   1      36.480  30.199  31.837  1.00  0.00     0.000 A 
ENDBRANCH  50  69
BRANCH  62  75
ATOM     75  C   UNL A   1      44.525  33.055  29.127  1.00  0.00    -0.014 A 
ATOM     76  C   UNL A   1      45.231  33.415  30.286  1.00  0.00     0.009 A 
ATOM     77  C   UNL A   1      44.203  34.053  28.192  1.00  0.00     0.009 A 
ATOM     78  C   UNL A   1      45.570  34.749  30.519  1.00  0.00     0.001 A 
ATOM     79  C   UNL A   1      44.575  35.379  28.411  1.00  0.00     0.001 A 
ATOM     80  C   UNL A   1      45.247  35.728  29.579  1.00  0.00     0.000 A 
ENDBRANCH  62  75
ENDBRANCH  36  37
ENDBRANCH  29  31
ENDBRANCH  28  29
ENDBRANCH  27  28
ENDBRANCH  26  27
ENDBRANCH  25  26
ENDBRANCH  24  25
ENDBRANCH  23  24
ENDBRANCH   1  23
TORSDOF 22
ENDMDL
MODEL 2
REMARK VINA RESULT:      -9.5      5.371     10.471
REMARK SMILES CC1(C(=O)N2CC[C@H](C(=O)OCCOCCOCCOCCOC(=O)c3ccc(-c4c5nc(c(-c6ccccc6)c6ccc([nH]6)c(-c6ccccc6)c6nc(c(-c7ccccc7)c7ccc4[nH]7)C=C6)C=C5)cc3)C2)CCCC1
REMARK SMILES IDX 17 1 16 2 15 3 14 4 13 5 12 6 11 7 9 8 10 9 8 10 5 11 6 12
REMARK SMILES IDX 74 13 7 14 3 15 4 16 2 17 1 18 75 19 78 20 76 21 77 22 18 23
REMARK SMILES IDX 19 24 20 25 21 26 22 27 23 28 24 29 25 30 26 31 27 32 73 33
REMARK SMILES IDX 28 34 72 35 29 36 30 37 31 38 66 39 32 40 71 41 65 42 67 43
REMARK SMILES IDX 33 44 70 45 64 46 63 47 34 49 56 50 41 51 55 52 42 53 45 54
REMARK SMILES IDX 54 55 68 56 43 57 44 58 53 60 69 61 46 62 35 63 36 64 40 65
REMARK SMILES IDX 37 66 39 67 38 68 57 69 58 70 62 71 59 72 61 73 60 74 47 75
REMARK SMILES IDX 48 76 52 77 49 78 51 79 50 80
REMARK H PARENT 67 48 45 59
REMARK Flexibility Score: inf
ROOT
ATOM      1  O   UNL A   1      33.710  31.238  27.794  1.00  0.00    -0.377 OA
ENDROOT
BRANCH   1   2
ATOM      2  C   UNL A   1      33.488  29.949  27.266  1.00  0.00     0.188 C 
BRANCH   2   3
ATOM      3  C   UNL A   1      32.866  29.909  25.863  1.00  0.00     0.188 C 
BRANCH   3   4
ATOM      4  O   UNL A   1      31.701  29.139  25.607  1.00  0.00    -0.376 OA
BRANCH   4   5
ATOM      5  C   UNL A   1      31.776  27.728  25.465  1.00  0.00     0.202 C 
BRANCH   5   6
ATOM      6  C   UNL A   1      32.259  26.812  26.607  1.00  0.00     0.261 C 
BRANCH   6   7
ATOM      7  O   UNL A   1      32.216  25.395  26.362  1.00  0.00    -0.463 OA
BRANCH   7   8
ATOM      8  C   UNL A   1      31.014  24.887  26.005  1.00  0.00     0.310 C 
ATOM      9  O   UNL A   1      29.946  25.216  26.510  1.00  0.00    -0.252 OA
BRANCH   8  10
ATOM     10  C   UNL A   1      31.077  23.848  24.904  1.00  0.00     0.120 C 
ATOM     11  N   UNL A   1      32.855  22.430  24.246  1.00  0.00    -0.341 N 
ATOM     12  C   UNL A   1      32.275  22.947  23.039  1.00  0.00     0.120 C 
ATOM     13  C   UNL A   1      31.978  22.706  25.372  1.00  0.00     0.134 C 
ATOM     14  C   UNL A   1      31.630  24.219  23.521  1.00  0.00     0.038 C 
BRANCH  11  15
ATOM     15  C   UNL A   1      34.014  21.723  24.435  1.00  0.00     0.228 C 
ATOM     16  O   UNL A   1      33.945  20.565  24.858  1.00  0.00    -0.274 OA
BRANCH  15  17
ATOM     17  C   UNL A   1      35.366  22.473  24.375  1.00  0.00     0.047 C 
ATOM     18  C   UNL A   1      35.737  23.117  23.034  1.00  0.00     0.022 C 
ATOM     19  C   UNL A   1      36.505  21.529  24.815  1.00  0.00     0.016 C 
ATOM     20  C   UNL A   1      35.388  23.511  25.517  1.00  0.00     0.016 C 
ATOM     21  C   UNL A   1      37.578  22.434  25.411  1.00  0.00     0.001 C 
ATOM     22  C   UNL A   1      36.855  23.688  25.892  1.00  0.00     0.001 C 
ENDBRANCH  15  17
ENDBRANCH  11  15
ENDBRANCH   8  10
ENDBRANCH   7   8
ENDBRANCH   6   7
ENDBRANCH   5   6
ENDBRANCH   4   5
ENDBRANCH   3   4
ENDBRANCH   2   3
ENDBRANCH   1   2
BRANCH   1  23
ATOM     23  C   UNL A   1      35.055  31.695  27.795  1.00  0.00     0.188 C 
BRANCH  23  24
ATOM     24  C   UNL A   1      35.343  33.085  28.401  1.00  0.00     0.188 C 
BRANCH  24  25
ATOM     25  O   UNL A   1      34.208  33.724  28.968  1.00  0.00    -0.376 OA
BRANCH  25  26
ATOM     26  C   UNL A   1      33.935  35.079  28.637  1.00  0.00     0.202 C 
BRANCH  26  27
ATOM     27  C   UNL A   1      32.954  35.866  29.525  1.00  0.00     0.261 C 
BRANCH  27  28
ATOM     28  O   UNL A   1      32.437  35.184  30.679  1.00  0.00    -0.460 OA
BRANCH  28  29
ATOM     29  C   UNL A   1      32.697  35.709  31.893  1.00  0.00     0.338 C 
ATOM     30  O   UNL A   1      32.009  36.503  32.515  1.00  0.00    -0.246 OA
BRANCH  29  31
ATOM     31  C   UNL A   1      33.868  35.001  32.452  1.00  0.00     0.060 A 
ATOM     32  C   UNL A   1      35.128  35.609  32.370  1.00  0.00     0.016 A 
ATOM     33  C   UNL A   1      33.727  33.747  33.051  1.00  0.00     0.016 A 
ATOM     34  C   UNL A   1      36.258  34.947  32.854  1.00  0.00     0.010 A 
ATOM     35  C   UNL A   1      34.864  33.074  33.511  1.00  0.00     0.010 A 
ATOM     36  C   UNL A   1      36.137  33.655  33.380  1.00  0.00    -0.014 A 
BRANCH  36  37
ATOM     37  C   UNL A   1      37.354  32.832  33.590  1.00  0.00     0.031 A 
ATOM     38  C   UNL A   1      38.147  33.048  34.852  1.00  0.00     0.074 A 
ATOM     39  C   UNL A   1      37.733  31.891  32.707  1.00  0.00     0.049 A 
ATOM     40  N   UNL A   1      39.274  32.501  35.229  1.00  0.00    -0.248 NA
ATOM     41  C   UNL A   1      37.591  34.011  35.819  1.00  0.00     0.031 C 
ATOM     42  C   UNL A   1      37.019  31.535  31.482  1.00  0.00     0.029 A 
ATOM     43  N   UNL A   1      38.827  31.060  32.712  1.00  0.00    -0.354 N 
ATOM     44  C   UNL A   1      39.559  33.052  36.473  1.00  0.00     0.074 A 
ATOM     45  C   UNL A   1      38.511  34.001  36.771  1.00  0.00     0.031 C 
ATOM     46  C   UNL A   1      37.702  30.565  30.846  1.00  0.00     0.029 A 
ATOM     47  C   UNL A   1      38.918  30.260  31.597  1.00  0.00     0.049 A 
ATOM     48  H   UNL A   1      39.484  31.039  33.445  1.00  0.00     0.167 HD
ATOM     49  C   UNL A   1      40.595  32.782  37.302  1.00  0.00     0.031 A 
ATOM     50  C   UNL A   1      39.889  29.406  31.219  1.00  0.00     0.031 A 
ATOM     51  C   UNL A   1      41.649  31.852  37.002  1.00  0.00     0.049 A 
ATOM     52  C   UNL A   1      41.094  29.214  32.108  1.00  0.00     0.074 A 
ATOM     53  C   UNL A   1      42.753  31.525  37.769  1.00  0.00     0.029 A 
ATOM     54  N   UNL A   1      41.729  31.101  35.841  1.00  0.00    -0.354 N 
ATOM     55  N   UNL A   1      41.349  29.735  33.285  1.00  0.00    -0.248 NA
ATOM     56  C   UNL A   1      42.144  28.309  31.616  1.00  0.00     0.031 C 
ATOM     57  C   UNL A   1      43.531  30.615  37.048  1.00  0.00     0.029 A 
ATOM     58  C   UNL A   1      42.875  30.325  35.863  1.00  0.00     0.049 A 
ATOM     59  H   UNL A   1      41.070  31.116  35.110  1.00  0.00     0.167 HD
ATOM     60  C   UNL A   1      42.562  29.186  33.688  1.00  0.00     0.074 A 
ATOM     61  C   UNL A   1      42.983  28.281  32.640  1.00  0.00     0.031 C 
ATOM     62  C   UNL A   1      43.268  29.412  34.822  1.00  0.00     0.031 A 
BRANCH  49  63
ATOM     63  C   UNL A   1      40.651  33.519  38.611  1.00  0.00    -0.014 A 
ATOM     64  C   UNL A   1      40.009  33.015  39.753  1.00  0.00     0.009 A 
ATOM     65  C   UNL A   1      41.406  34.696  38.718  1.00  0.00     0.009 A 
ATOM     66  C   UNL A   1      40.107  33.689  40.972  1.00  0.00     0.001 A 
ATOM     67  C   UNL A   1      41.526  35.352  39.945  1.00  0.00     0.001 A 
ATOM     68  C   UNL A   1      40.873  34.850  41.069  1.00  0.00     0.000 A 
ENDBRANCH  49  63
BRANCH  50  69
ATOM     69  C   UNL A   1      39.807  28.686  29.917  1.00  0.00    -0.014 A 
ATOM     70  C   UNL A   1      39.358  27.356  29.857  1.00  0.00     0.009 A 
ATOM     71  C   UNL A   1      40.258  29.297  28.737  1.00  0.00     0.009 A 
ATOM     72  C   UNL A   1      39.413  26.641  28.656  1.00  0.00     0.001 A 
ATOM     73  C   UNL A   1      40.276  28.593  27.531  1.00  0.00     0.001 A 
ATOM     74  C   UNL A   1      39.871  27.260  27.495  1.00  0.00     0.000 A 
ENDBRANCH  50  69
BRANCH  62  75
ATOM     75  C   UNL A   1      44.531  28.620  35.025  1.00  0.00    -0.014 A 
ATOM     76  C   UNL A   1      45.780  29.107  34.610  1.00  0.00     0.009 A 
ATOM     77  C   UNL A   1      44.472  27.382  35.686  1.00  0.00     0.009 A 
ATOM     78  C   UNL A   1      46.937  28.352  34.817  1.00  0.00     0.001 A 
ATOM     79  C   UNL A   1      45.633  26.646  35.923  1.00  0.00     0.001 A 
ATOM     80  C   UNL A   1      46.862  27.126  35.479  1.00  0.00     0.000 A 
ENDBRANCH  62  75
ENDBRANCH  36  37
ENDBRANCH  29  31
ENDBRANCH  28  29
ENDBRANCH  27  28
ENDBRANCH  26  27
ENDBRANCH  25  26
ENDBRANCH  24  25
ENDBRANCH  23  24
ENDBRANCH   1  23
TORSDOF 22
ENDMDL
MODEL 3
REMARK VINA RESULT:      -9.2      4.186      9.058
REMARK SMILES CC1(C(=O)N2CC[C@H](C(=O)OCCOCCOCCOCCOC(=O)c3ccc(-c4c5nc(c(-c6ccccc6)c6ccc([nH]6)c(-c6ccccc6)c6nc(c(-c7ccccc7)c7ccc4[nH]7)C=C6)C=C5)cc3)C2)CCCC1
REMARK SMILES IDX 17 1 16 2 15 3 14 4 13 5 12 6 11 7 9 8 10 9 8 10 5 11 6 12
REMARK SMILES IDX 74 13 7 14 3 15 4 16 2 17 1 18 75 19 78 20 76 21 77 22 18 23
REMARK SMILES IDX 19 24 20 25 21 26 22 27 23 28 24 29 25 30 26 31 27 32 73 33
REMARK SMILES IDX 28 34 72 35 29 36 30 37 31 38 66 39 32 40 71 41 65 42 67 43
REMARK SMILES IDX 33 44 70 45 64 46 63 47 34 49 56 50 41 51 55 52 42 53 45 54
REMARK SMILES IDX 54 55 68 56 43 57 44 58 53 60 69 61 46 62 35 63 36 64 40 65
REMARK SMILES IDX 37 66 39 67 38 68 57 69 58 70 62 71 59 72 61 73 60 74 47 75
REMARK SMILES IDX 48 76 52 77 49 78 51 79 50 80
REMARK H PARENT 67 48 45 59
REMARK Flexibility Score: inf
ROOT
ATOM      1  O   UNL A   1      31.464  27.612  25.221  1.00  0.00    -0.377 OA
ENDROOT
BRANCH   1   2
ATOM      2  C   UNL A   1      30.704  28.439  24.366  1.00  0.00     0.188 C 
BRANCH   2   3
ATOM      3  C   UNL A   1      31.130  28.430  22.891  1.00  0.00     0.188 C 
BRANCH   3   4
ATOM      4  O   UNL A   1      31.024  27.248  22.112  1.00  0.00    -0.376 OA
BRANCH   4   5
ATOM      5  C   UNL A   1      32.108  26.336  22.018  1.00  0.00     0.202 C 
BRANCH   5   6
ATOM      6  C   UNL A   1      32.230  25.106  22.938  1.00  0.00     0.261 C 
BRANCH   6   7
ATOM      7  O   UNL A   1      33.393  25.041  23.782  1.00  0.00    -0.463 OA
BRANCH   7   8
ATOM      8  C   UNL A   1      34.198  23.968  23.608  1.00  0.00     0.310 C 
ATOM      9  O   UNL A   1      34.647  23.608  22.525  1.00  0.00    -0.252 OA
BRANCH   8  10
ATOM     10  C   UNL A   1      34.517  23.214  24.883  1.00  0.00     0.120 C 
ATOM     11  N   UNL A   1      34.701  20.886  25.272  1.00  0.00    -0.341 N 
ATOM     12  C   UNL A   1      33.955  21.428  26.373  1.00  0.00     0.120 C 
ATOM     13  C   UNL A   1      35.315  21.965  24.514  1.00  0.00     0.134 C 
ATOM     14  C   UNL A   1      33.386  22.687  25.775  1.00  0.00     0.038 C 
BRANCH  11  15
ATOM     15  C   UNL A   1      34.924  19.582  24.915  1.00  0.00     0.228 C 
ATOM     16  O   UNL A   1      36.084  19.207  24.715  1.00  0.00    -0.274 OA
BRANCH  15  17
ATOM     17  C   UNL A   1      33.718  18.700  24.512  1.00  0.00     0.047 C 
ATOM     18  C   UNL A   1      32.621  19.374  23.680  1.00  0.00     0.022 C 
ATOM     19  C   UNL A   1      33.085  18.077  25.775  1.00  0.00     0.016 C 
ATOM     20  C   UNL A   1      34.262  17.441  23.804  1.00  0.00     0.016 C 
ATOM     21  C   UNL A   1      32.464  16.763  25.313  1.00  0.00     0.001 C 
ATOM     22  C   UNL A   1      33.242  16.339  24.070  1.00  0.00     0.001 C 
ENDBRANCH  15  17
ENDBRANCH  11  15
ENDBRANCH   8  10
ENDBRANCH   7   8
ENDBRANCH   6   7
ENDBRANCH   5   6
ENDBRANCH   4   5
ENDBRANCH   3   4
ENDBRANCH   2   3
ENDBRANCH   1   2
BRANCH   1  23
ATOM     23  C   UNL A   1      31.994  28.229  26.386  1.00  0.00     0.188 C 
BRANCH  23  24
ATOM     24  C   UNL A   1      31.832  29.757  26.528  1.00  0.00     0.188 C 
BRANCH  24  25
ATOM     25  O   UNL A   1      33.056  30.478  26.552  1.00  0.00    -0.376 OA
BRANCH  25  26
ATOM     26  C   UNL A   1      33.303  31.393  27.611  1.00  0.00     0.202 C 
BRANCH  26  27
ATOM     27  C   UNL A   1      33.215  32.901  27.309  1.00  0.00     0.261 C 
BRANCH  27  28
ATOM     28  O   UNL A   1      32.488  33.707  28.250  1.00  0.00    -0.460 OA
BRANCH  28  29
ATOM     29  C   UNL A   1      33.115  34.771  28.790  1.00  0.00     0.338 C 
ATOM     30  O   UNL A   1      32.676  35.904  28.907  1.00  0.00    -0.246 OA
BRANCH  29  31
ATOM     31  C   UNL A   1      34.366  34.290  29.415  1.00  0.00     0.060 A 
ATOM     32  C   UNL A   1      35.578  34.483  28.738  1.00  0.00     0.016 A 
ATOM     33  C   UNL A   1      34.345  33.654  30.659  1.00  0.00     0.016 A 
ATOM     34  C   UNL A   1      36.769  34.005  29.285  1.00  0.00     0.010 A 
ATOM     35  C   UNL A   1      35.537  33.153  31.193  1.00  0.00     0.010 A 
ATOM     36  C   UNL A   1      36.747  33.294  30.491  1.00  0.00    -0.014 A 
BRANCH  36  37
ATOM     37  C   UNL A   1      37.940  32.515  30.905  1.00  0.00     0.031 A 
ATOM     38  C   UNL A   1      38.784  33.054  32.030  1.00  0.00     0.074 A 
ATOM     39  C   UNL A   1      38.254  31.341  30.329  1.00  0.00     0.049 A 
ATOM     40  N   UNL A   1      39.903  32.592  32.526  1.00  0.00    -0.248 NA
ATOM     41  C   UNL A   1      38.297  34.282  32.685  1.00  0.00     0.031 C 
ATOM     42  C   UNL A   1      37.486  30.675  29.279  1.00  0.00     0.029 A 
ATOM     43  N   UNL A   1      39.318  30.500  30.553  1.00  0.00    -0.354 N 
ATOM     44  C   UNL A   1      40.251  33.469  33.547  1.00  0.00     0.074 A 
ATOM     45  C   UNL A   1      39.248  34.509  33.577  1.00  0.00     0.031 C 
ATOM     46  C   UNL A   1      38.112  29.532  28.939  1.00  0.00     0.029 A 
ATOM     47  C   UNL A   1      39.342  29.406  29.720  1.00  0.00     0.049 A 
ATOM     48  H   UNL A   1      39.998  30.665  31.244  1.00  0.00     0.167 HD
ATOM     49  C   UNL A   1      41.304  33.407  34.394  1.00  0.00     0.031 A 
ATOM     50  C   UNL A   1      40.267  28.436  29.587  1.00  0.00     0.031 A 
ATOM     51  C   UNL A   1      42.314  32.385  34.356  1.00  0.00     0.049 A 
ATOM     52  C   UNL A   1      41.495  28.460  30.465  1.00  0.00     0.074 A 
ATOM     53  C   UNL A   1      43.431  32.247  35.161  1.00  0.00     0.029 A 
ATOM     54  N   UNL A   1      42.326  31.324  33.465  1.00  0.00    -0.354 N 
ATOM     55  N   UNL A   1      41.809  29.290  31.431  1.00  0.00    -0.248 NA
ATOM     56  C   UNL A   1      42.494  27.404  30.236  1.00  0.00     0.031 C 
ATOM     57  C   UNL A   1      44.151  31.133  34.720  1.00  0.00     0.029 A 
ATOM     58  C   UNL A   1      43.443  30.539  33.688  1.00  0.00     0.049 A 
ATOM     59  H   UNL A   1      41.643  31.155  32.777  1.00  0.00     0.167 HD
ATOM     60  C   UNL A   1      43.015  28.829  31.950  1.00  0.00     0.074 A 
ATOM     61  C   UNL A   1      43.366  27.640  31.204  1.00  0.00     0.031 C 
ATOM     62  C   UNL A   1      43.768  29.345  32.952  1.00  0.00     0.031 A 
BRANCH  49  63
ATOM     63  C   UNL A   1      41.432  34.491  35.428  1.00  0.00    -0.014 A 
ATOM     64  C   UNL A   1      40.887  34.334  36.712  1.00  0.00     0.009 A 
ATOM     65  C   UNL A   1      42.158  35.655  35.135  1.00  0.00     0.009 A 
ATOM     66  C   UNL A   1      41.053  35.332  37.675  1.00  0.00     0.001 A 
ATOM     67  C   UNL A   1      42.346  36.637  36.108  1.00  0.00     0.001 A 
ATOM     68  C   UNL A   1      41.789  36.477  37.376  1.00  0.00     0.000 A 
ENDBRANCH  49  63
BRANCH  50  69
ATOM     69  C   UNL A   1      40.114  27.372  28.555  1.00  0.00    -0.014 A 
ATOM     70  C   UNL A   1      39.509  26.144  28.872  1.00  0.00     0.009 A 
ATOM     71  C   UNL A   1      40.650  27.546  27.269  1.00  0.00     0.009 A 
ATOM     72  C   UNL A   1      39.492  25.100  27.942  1.00  0.00     0.001 A 
ATOM     73  C   UNL A   1      40.598  26.514  26.330  1.00  0.00     0.001 A 
ATOM     74  C   UNL A   1      40.035  25.286  26.673  1.00  0.00     0.000 A 
ENDBRANCH  50  69
BRANCH  62  75
ATOM     75  C   UNL A   1      45.008  28.592  33.349  1.00  0.00    -0.014 A 
ATOM     76  C   UNL A   1      44.957  27.503  34.234  1.00  0.00     0.009 A 
ATOM     77  C   UNL A   1      46.244  28.954  32.789  1.00  0.00     0.009 A 
ATOM     78  C   UNL A   1      46.125  26.819  34.579  1.00  0.00     0.001 A 
ATOM     79  C   UNL A   1      47.404  28.246  33.109  1.00  0.00     0.001 A 
ATOM     80  C   UNL A   1      47.345  27.188  34.012  1.00  0.00     0.000 A 
ENDBRANCH  62  75
ENDBRANCH  36  37
ENDBRANCH  29  31
ENDBRANCH  28  29
ENDBRANCH  27  28
ENDBRANCH  26  27
ENDBRANCH  25  26
ENDBRANCH  24  25
ENDBRANCH  23  24
ENDBRANCH   1  23
TORSDOF 22
ENDMDL
