MODEL 1
REMARK VINA RESULT:      -8.9      0.000      0.000
REMARK SMILES C[C@@H](c1cccc([N+](=O)[O-])c1)[N@H+](CC(=O)OCCOCCOCCOCCOC(=O)c1ccc(-c2c3nc(c(-c4ccccc4)c4ccc([nH]4)c(-c4ccccc4)c4nc(c(-c5ccccc5)c5ccc2[nH]5)C=C4)C=C3)cc1)CC(F)(F)F
REMARK SMILES IDX 21 1 20 2 19 3 18 4 17 5 16 6 14 7 15 8 13 9 12 10 2 12 1 13
REMARK SMILES IDX 3 14 4 15 11 16 5 17 7 18 6 19 8 20 9 21 10 22 79 23 80 24
REMARK SMILES IDX 81 25 82 26 83 27 22 28 23 29 24 30 25 31 26 32 27 33 28 34
REMARK SMILES IDX 29 35 30 36 31 37 32 38 78 39 33 40 77 41 34 42 35 43 36 44
REMARK SMILES IDX 71 45 37 46 76 47 70 48 72 49 38 50 75 51 69 52 68 53 39 55
REMARK SMILES IDX 61 56 46 57 60 58 47 59 50 60 59 61 73 62 48 63 49 64 58 66
REMARK SMILES IDX 74 67 51 68 40 69 41 70 45 71 42 72 44 73 43 74 62 75 63 76
REMARK SMILES IDX 67 77 64 78 66 79 65 80 52 81 53 82 57 83 54 84 56 85 55 86
REMARK H PARENT 12 11 72 54 50 65
REMARK Flexibility Score: inf
ROOT
ATOM      1  C   UNL A   1      35.793  23.716  24.563  1.00  0.00     0.188 C 
ENDROOT
BRANCH   1   2
ATOM      2  C   UNL A   1      34.401  24.187  24.153  1.00  0.00     0.188 C 
BRANCH   2   3
ATOM      3  O   UNL A   1      34.290  24.451  22.753  1.00  0.00    -0.376 OA
BRANCH   3   4
ATOM      4  C   UNL A   1      32.957  24.420  22.225  1.00  0.00     0.202 C 
BRANCH   4   5
ATOM      5  C   UNL A   1      31.953  23.700  23.128  1.00  0.00     0.261 C 
BRANCH   5   6
ATOM      6  O   UNL A   1      30.797  24.528  23.400  1.00  0.00    -0.459 OA
BRANCH   6   7
ATOM      7  C   UNL A   1      30.757  25.173  24.593  1.00  0.00     0.361 C 
ATOM      8  O   UNL A   1      31.215  24.715  25.637  1.00  0.00    -0.245 OA
BRANCH   7   9
ATOM      9  C   UNL A   1      29.960  26.478  24.576  1.00  0.00     0.387 C 
BRANCH   9  10
ATOM     10  N   UNL A   1      30.541  27.591  23.798  1.00  0.00    -0.312 N 
ATOM     11  H   UNL A   1      30.332  28.429  24.339  1.00  0.00     0.349 HD
BRANCH  10  12
ATOM     12  C   UNL A   1      32.007  27.731  23.851  1.00  0.00     0.213 C 
ATOM     13  C   UNL A   1      32.695  28.425  22.657  1.00  0.00     0.081 C 
BRANCH  12  14
ATOM     14  C   UNL A   1      32.420  28.409  25.154  1.00  0.00     0.016 A 
ATOM     15  C   UNL A   1      33.327  27.808  26.042  1.00  0.00     0.010 A 
ATOM     16  C   UNL A   1      31.961  29.704  25.444  1.00  0.00     0.095 A 
ATOM     17  C   UNL A   1      33.778  28.482  27.178  1.00  0.00     0.008 A 
ATOM     18  C   UNL A   1      32.448  30.389  26.567  1.00  0.00     0.269 A 
ATOM     19  C   UNL A   1      33.353  29.779  27.441  1.00  0.00     0.085 A 
BRANCH  18  20
ATOM     20  N   UNL A   1      32.070  31.789  26.782  1.00  0.00     0.062 N 
ATOM     21  O   UNL A   1      31.014  32.184  26.269  1.00  0.00    -0.258 OA
ATOM     22  O   UNL A   1      32.814  32.485  27.487  1.00  0.00    -0.258 OA
ENDBRANCH  18  20
ENDBRANCH  12  14
ENDBRANCH  10  12
BRANCH  10  23
ATOM     23  C   UNL A   1      29.809  27.939  22.566  1.00  0.00     0.380 C 
BRANCH  23  24
ATOM     24  C   UNL A   1      28.812  29.091  22.714  1.00  0.00     0.438 C 
ATOM     25  F   UNL A   1      28.725  29.806  21.576  1.00  0.00    -0.165 F 
ATOM     26  F   UNL A   1      27.570  28.622  22.981  1.00  0.00    -0.165 F 
ATOM     27  F   UNL A   1      29.157  29.914  23.726  1.00  0.00    -0.165 F 
ENDBRANCH  23  24
ENDBRANCH  10  23
ENDBRANCH   9  10
ENDBRANCH   7   9
ENDBRANCH   6   7
ENDBRANCH   5   6
ENDBRANCH   4   5
ENDBRANCH   3   4
ENDBRANCH   2   3
ENDBRANCH   1   2
BRANCH   1  28
ATOM     28  O   UNL A   1      35.769  23.230  25.907  1.00  0.00    -0.377 OA
BRANCH  28  29
ATOM     29  C   UNL A   1      35.499  21.835  25.969  1.00  0.00     0.188 C 
BRANCH  29  30
ATOM     30  C   UNL A   1      36.376  21.037  25.007  1.00  0.00     0.188 C 
BRANCH  30  31
ATOM     31  O   UNL A   1      37.776  21.035  25.276  1.00  0.00    -0.376 OA
BRANCH  31  32
ATOM     32  C   UNL A   1      38.443  19.812  24.935  1.00  0.00     0.202 C 
BRANCH  32  33
ATOM     33  C   UNL A   1      39.538  19.358  25.913  1.00  0.00     0.261 C 
BRANCH  33  34
ATOM     34  O   UNL A   1      40.837  19.289  25.287  1.00  0.00    -0.460 OA
BRANCH  34  35
ATOM     35  C   UNL A   1      41.894  19.425  26.118  1.00  0.00     0.338 C 
ATOM     36  O   UNL A   1      42.785  18.615  26.333  1.00  0.00    -0.246 OA
BRANCH  35  37
ATOM     37  C   UNL A   1      41.942  20.807  26.618  1.00  0.00     0.060 A 
ATOM     38  C   UNL A   1      42.078  21.853  25.690  1.00  0.00     0.016 A 
ATOM     39  C   UNL A   1      41.929  21.070  27.988  1.00  0.00     0.016 A 
ATOM     40  C   UNL A   1      42.245  23.163  26.134  1.00  0.00     0.010 A 
ATOM     41  C   UNL A   1      42.121  22.379  28.431  1.00  0.00     0.010 A 
ATOM     42  C   UNL A   1      42.322  23.421  27.507  1.00  0.00    -0.014 A 
BRANCH  42  43
ATOM     43  C   UNL A   1      42.847  24.720  27.981  1.00  0.00     0.031 A 
ATOM     44  C   UNL A   1      41.858  25.798  28.327  1.00  0.00     0.074 A 
ATOM     45  C   UNL A   1      44.167  24.944  28.096  1.00  0.00     0.049 A 
ATOM     46  N   UNL A   1      42.069  27.034  28.692  1.00  0.00    -0.248 NA
ATOM     47  C   UNL A   1      40.434  25.428  28.240  1.00  0.00     0.031 C 
ATOM     48  C   UNL A   1      45.218  23.964  27.835  1.00  0.00     0.029 A 
ATOM     49  N   UNL A   1      44.846  26.081  28.454  1.00  0.00    -0.354 N 
ATOM     50  C   UNL A   1      40.809  27.593  28.866  1.00  0.00     0.074 A 
ATOM     51  C   UNL A   1      39.839  26.572  28.538  1.00  0.00     0.031 C 
ATOM     52  C   UNL A   1      46.414  24.545  28.034  1.00  0.00     0.029 A 
ATOM     53  C   UNL A   1      46.210  25.947  28.394  1.00  0.00     0.049 A 
ATOM     54  H   UNL A   1      44.397  26.913  28.728  1.00  0.00     0.167 HD
ATOM     55  C   UNL A   1      40.487  28.847  29.262  1.00  0.00     0.031 A 
ATOM     56  C   UNL A   1      47.180  26.863  28.583  1.00  0.00     0.031 A 
ATOM     57  C   UNL A   1      41.455  29.866  29.561  1.00  0.00     0.049 A 
ATOM     58  C   UNL A   1      46.796  28.276  28.939  1.00  0.00     0.074 A 
ATOM     59  C   UNL A   1      41.237  31.165  29.984  1.00  0.00     0.029 A 
ATOM     60  N   UNL A   1      42.828  29.702  29.454  1.00  0.00    -0.354 N 
ATOM     61  N   UNL A   1      45.602  28.787  29.129  1.00  0.00    -0.248 NA
ATOM     62  C   UNL A   1      47.894  29.236  29.111  1.00  0.00     0.031 C 
ATOM     63  C   UNL A   1      42.476  31.808  30.069  1.00  0.00     0.029 A 
ATOM     64  C   UNL A   1      43.469  30.887  29.771  1.00  0.00     0.049 A 
ATOM     65  H   UNL A   1      43.280  28.868  29.192  1.00  0.00     0.167 HD
ATOM     66  C   UNL A   1      45.810  30.117  29.479  1.00  0.00     0.074 A 
ATOM     67  C   UNL A   1      47.242  30.328  29.486  1.00  0.00     0.031 C 
ATOM     68  C   UNL A   1      44.898  31.077  29.773  1.00  0.00     0.031 A 
BRANCH  55  69
ATOM     69  C   UNL A   1      39.026  29.191  29.349  1.00  0.00    -0.014 A 
ATOM     70  C   UNL A   1      38.296  29.002  30.534  1.00  0.00     0.009 A 
ATOM     71  C   UNL A   1      38.374  29.731  28.229  1.00  0.00     0.009 A 
ATOM     72  C   UNL A   1      36.935  29.313  30.583  1.00  0.00     0.001 A 
ATOM     73  C   UNL A   1      37.020  30.070  28.292  1.00  0.00     0.001 A 
ATOM     74  C   UNL A   1      36.301  29.851  29.465  1.00  0.00     0.000 A 
ENDBRANCH  55  69
BRANCH  56  75
ATOM     75  C   UNL A   1      48.609  26.486  28.423  1.00  0.00    -0.014 A 
ATOM     76  C   UNL A   1      49.363  26.051  29.524  1.00  0.00     0.009 A 
ATOM     77  C   UNL A   1      49.238  26.583  27.170  1.00  0.00     0.009 A 
ATOM     78  C   UNL A   1      50.720  25.751  29.381  1.00  0.00     0.001 A 
ATOM     79  C   UNL A   1      50.586  26.250  27.023  1.00  0.00     0.001 A 
ATOM     80  C   UNL A   1      51.328  25.846  28.131  1.00  0.00     0.000 A 
ENDBRANCH  56  75
BRANCH  68  81
ATOM     81  C   UNL A   1      45.422  32.429  30.172  1.00  0.00    -0.014 A 
ATOM     82  C   UNL A   1      45.743  32.729  31.505  1.00  0.00     0.009 A 
ATOM     83  C   UNL A   1      45.644  33.403  29.184  1.00  0.00     0.009 A 
ATOM     84  C   UNL A   1      46.242  33.989  31.844  1.00  0.00     0.001 A 
ATOM     85  C   UNL A   1      46.174  34.649  29.521  1.00  0.00     0.001 A 
ATOM     86  C   UNL A   1      46.462  34.945  30.853  1.00  0.00     0.000 A 
ENDBRANCH  68  81
ENDBRANCH  42  43
ENDBRANCH  35  37
ENDBRANCH  34  35
ENDBRANCH  33  34
ENDBRANCH  32  33
ENDBRANCH  31  32
ENDBRANCH  30  31
ENDBRANCH  29  30
ENDBRANCH  28  29
ENDBRANCH   1  28
TORSDOF 26
ENDMDL
MODEL 2
REMARK VINA RESULT:      -8.6      2.390      6.366
REMARK SMILES C[C@@H](c1cccc([N+](=O)[O-])c1)[N@H+](CC(=O)OCCOCCOCCOCCOC(=O)c1ccc(-c2c3nc(c(-c4ccccc4)c4ccc([nH]4)c(-c4ccccc4)c4nc(c(-c5ccccc5)c5ccc2[nH]5)C=C4)C=C3)cc1)CC(F)(F)F
REMARK SMILES IDX 21 1 20 2 19 3 18 4 17 5 16 6 14 7 15 8 13 9 12 10 2 12 1 13
REMARK SMILES IDX 3 14 4 15 11 16 5 17 7 18 6 19 8 20 9 21 10 22 79 23 80 24
REMARK SMILES IDX 81 25 82 26 83 27 22 28 23 29 24 30 25 31 26 32 27 33 28 34
REMARK SMILES IDX 29 35 30 36 31 37 32 38 78 39 33 40 77 41 34 42 35 43 36 44
REMARK SMILES IDX 71 45 37 46 76 47 70 48 72 49 38 50 75 51 69 52 68 53 39 55
REMARK SMILES IDX 61 56 46 57 60 58 47 59 50 60 59 61 73 62 48 63 49 64 58 66
REMARK SMILES IDX 74 67 51 68 40 69 41 70 45 71 42 72 44 73 43 74 62 75 63 76
REMARK SMILES IDX 67 77 64 78 66 79 65 80 52 81 53 82 57 83 54 84 56 85 55 86
REMARK H PARENT 12 11 72 54 50 65
REMARK Flexibility Score: inf
ROOT
ATOM      1  C   UNL A   1      36.111  22.029  26.153  1.00  0.00     0.188 C 
ENDROOT
BRANCH   1   2
ATOM      2  C   UNL A   1      34.697  21.485  25.971  1.00  0.00     0.188 C 
BRANCH   2   3
ATOM      3  O   UNL A   1      34.402  21.137  24.616  1.00  0.00    -0.376 OA
BRANCH   3   4
ATOM      4  C   UNL A   1      33.465  20.065  24.447  1.00  0.00     0.202 C 
BRANCH   4   5
ATOM      5  C   UNL A   1      32.017  20.532  24.287  1.00  0.00     0.261 C 
BRANCH   5   6
ATOM      6  O   UNL A   1      31.950  21.915  23.863  1.00  0.00    -0.459 OA
BRANCH   6   7
ATOM      7  C   UNL A   1      31.275  22.781  24.659  1.00  0.00     0.361 C 
ATOM      8  O   UNL A   1      30.757  22.471  25.728  1.00  0.00    -0.245 OA
BRANCH   7   9
ATOM      9  C   UNL A   1      31.081  24.172  24.052  1.00  0.00     0.387 C 
BRANCH   9  10
ATOM     10  N   UNL A   1      31.685  25.299  24.789  1.00  0.00    -0.312 N 
ATOM     11  H   UNL A   1      32.142  25.867  24.075  1.00  0.00     0.349 HD
BRANCH  10  12
ATOM     12  C   UNL A   1      30.761  26.348  25.255  1.00  0.00     0.213 C 
ATOM     13  C   UNL A   1      31.007  26.935  26.660  1.00  0.00     0.081 C 
BRANCH  12  14
ATOM     14  C   UNL A   1      30.688  27.475  24.228  1.00  0.00     0.016 A 
ATOM     15  C   UNL A   1      31.836  27.954  23.576  1.00  0.00     0.010 A 
ATOM     16  C   UNL A   1      29.440  27.995  23.849  1.00  0.00     0.095 A 
ATOM     17  C   UNL A   1      31.745  28.911  22.565  1.00  0.00     0.008 A 
ATOM     18  C   UNL A   1      29.353  28.929  22.806  1.00  0.00     0.269 A 
ATOM     19  C   UNL A   1      30.504  29.395  22.164  1.00  0.00     0.085 A 
BRANCH  18  20
ATOM     20  N   UNL A   1      28.037  29.359  22.326  1.00  0.00     0.062 N 
ATOM     21  O   UNL A   1      27.981  29.912  21.218  1.00  0.00    -0.258 OA
ATOM     22  O   UNL A   1      27.055  29.119  23.043  1.00  0.00    -0.258 OA
ENDBRANCH  18  20
ENDBRANCH  12  14
ENDBRANCH  10  12
BRANCH  10  23
ATOM     23  C   UNL A   1      32.876  24.955  25.588  1.00  0.00     0.380 C 
BRANCH  23  24
ATOM     24  C   UNL A   1      34.164  25.663  25.161  1.00  0.00     0.438 C 
ATOM     25  F   UNL A   1      34.228  26.906  25.675  1.00  0.00    -0.165 F 
ATOM     26  F   UNL A   1      35.253  24.994  25.609  1.00  0.00    -0.165 F 
ATOM     27  F   UNL A   1      34.263  25.736  23.817  1.00  0.00    -0.165 F 
ENDBRANCH  23  24
ENDBRANCH  10  23
ENDBRANCH   9  10
ENDBRANCH   7   9
ENDBRANCH   6   7
ENDBRANCH   5   6
ENDBRANCH   4   5
ENDBRANCH   3   4
ENDBRANCH   2   3
ENDBRANCH   1   2
BRANCH   1  28
ATOM     28  O   UNL A   1      36.890  21.767  24.985  1.00  0.00    -0.377 OA
BRANCH  28  29
ATOM     29  C   UNL A   1      38.156  21.200  25.300  1.00  0.00     0.188 C 
BRANCH  29  30
ATOM     30  C   UNL A   1      38.254  19.738  24.871  1.00  0.00     0.188 C 
BRANCH  30  31
ATOM     31  O   UNL A   1      39.294  18.968  25.466  1.00  0.00    -0.376 OA
BRANCH  31  32
ATOM     32  C   UNL A   1      40.358  19.746  26.032  1.00  0.00     0.202 C 
BRANCH  32  33
ATOM     33  C   UNL A   1      41.746  19.087  26.013  1.00  0.00     0.261 C 
BRANCH  33  34
ATOM     34  O   UNL A   1      42.603  19.643  24.994  1.00  0.00    -0.460 OA
BRANCH  34  35
ATOM     35  C   UNL A   1      43.721  20.257  25.441  1.00  0.00     0.338 C 
ATOM     36  O   UNL A   1      44.878  19.873  25.340  1.00  0.00    -0.246 OA
BRANCH  35  37
ATOM     37  C   UNL A   1      43.372  21.601  25.927  1.00  0.00     0.060 A 
ATOM     38  C   UNL A   1      43.357  22.664  25.010  1.00  0.00     0.016 A 
ATOM     39  C   UNL A   1      43.135  21.829  27.283  1.00  0.00     0.016 A 
ATOM     40  C   UNL A   1      43.147  23.968  25.454  1.00  0.00     0.010 A 
ATOM     41  C   UNL A   1      42.950  23.137  27.731  1.00  0.00     0.010 A 
ATOM     42  C   UNL A   1      42.997  24.213  26.824  1.00  0.00    -0.014 A 
BRANCH  42  43
ATOM     43  C   UNL A   1      43.132  25.593  27.341  1.00  0.00     0.031 A 
ATOM     44  C   UNL A   1      44.517  26.115  27.607  1.00  0.00     0.074 A 
ATOM     45  C   UNL A   1      42.056  26.363  27.576  1.00  0.00     0.049 A 
ATOM     46  N   UNL A   1      44.890  27.255  28.125  1.00  0.00    -0.248 NA
ATOM     47  C   UNL A   1      45.631  25.221  27.246  1.00  0.00     0.031 C 
ATOM     48  C   UNL A   1      40.670  25.984  27.313  1.00  0.00     0.029 A 
ATOM     49  N   UNL A   1      41.968  27.626  28.102  1.00  0.00    -0.354 N 
ATOM     50  C   UNL A   1      46.278  27.211  28.163  1.00  0.00     0.074 A 
ATOM     51  C   UNL A   1      46.680  25.922  27.645  1.00  0.00     0.031 C 
ATOM     52  C   UNL A   1      39.864  26.993  27.689  1.00  0.00     0.029 A 
ATOM     53  C   UNL A   1      40.678  28.068  28.255  1.00  0.00     0.049 A 
ATOM     54  H   UNL A   1      42.755  28.165  28.347  1.00  0.00     0.167 HD
ATOM     55  C   UNL A   1      47.142  28.160  28.594  1.00  0.00     0.031 A 
ATOM     56  C   UNL A   1      40.210  29.200  28.815  1.00  0.00     0.031 A 
ATOM     57  C   UNL A   1      46.736  29.428  29.133  1.00  0.00     0.049 A 
ATOM     58  C   UNL A   1      41.189  30.205  29.367  1.00  0.00     0.074 A 
ATOM     59  C   UNL A   1      47.531  30.467  29.585  1.00  0.00     0.029 A 
ATOM     60  N   UNL A   1      45.419  29.825  29.304  1.00  0.00    -0.354 N 
ATOM     61  N   UNL A   1      42.501  30.167  29.372  1.00  0.00    -0.248 NA
ATOM     62  C   UNL A   1      40.621  31.410  29.985  1.00  0.00     0.031 C 
ATOM     63  C   UNL A   1      46.693  31.465  30.093  1.00  0.00     0.029 A 
ATOM     64  C   UNL A   1      45.377  31.080  29.887  1.00  0.00     0.049 A 
ATOM     65  H   UNL A   1      44.631  29.293  29.050  1.00  0.00     0.167 HD
ATOM     66  C   UNL A   1      42.912  31.358  29.959  1.00  0.00     0.074 A 
ATOM     67  C   UNL A   1      41.712  32.100  30.285  1.00  0.00     0.031 C 
ATOM     68  C   UNL A   1      44.171  31.802  30.203  1.00  0.00     0.031 A 
BRANCH  55  69
ATOM     69  C   UNL A   1      48.609  27.835  28.538  1.00  0.00    -0.014 A 
ATOM     70  C   UNL A   1      49.272  27.238  29.623  1.00  0.00     0.009 A 
ATOM     71  C   UNL A   1      49.337  28.118  27.371  1.00  0.00     0.009 A 
ATOM     72  C   UNL A   1      50.640  26.964  29.552  1.00  0.00     0.001 A 
ATOM     73  C   UNL A   1      50.698  27.813  27.293  1.00  0.00     0.001 A 
ATOM     74  C   UNL A   1      51.350  27.247  28.386  1.00  0.00     0.000 A 
ENDBRANCH  55  69
BRANCH  56  75
ATOM     75  C   UNL A   1      38.746  29.445  28.903  1.00  0.00    -0.014 A 
ATOM     76  C   UNL A   1      38.034  29.116  30.066  1.00  0.00     0.009 A 
ATOM     77  C   UNL A   1      38.045  29.986  27.812  1.00  0.00     0.009 A 
ATOM     78  C   UNL A   1      36.649  29.296  30.126  1.00  0.00     0.001 A 
ATOM     79  C   UNL A   1      36.667  30.195  27.886  1.00  0.00     0.001 A 
ATOM     80  C   UNL A   1      35.969  29.840  29.038  1.00  0.00     0.000 A 
ENDBRANCH  56  75
BRANCH  68  81
ATOM     81  C   UNL A   1      44.316  33.170  30.810  1.00  0.00    -0.014 A 
ATOM     82  C   UNL A   1      44.364  34.326  30.016  1.00  0.00     0.009 A 
ATOM     83  C   UNL A   1      44.355  33.305  32.208  1.00  0.00     0.009 A 
ATOM     84  C   UNL A   1      44.484  35.585  30.608  1.00  0.00     0.001 A 
ATOM     85  C   UNL A   1      44.441  34.567  32.798  1.00  0.00     0.001 A 
ATOM     86  C   UNL A   1      44.517  35.705  31.997  1.00  0.00     0.000 A 
ENDBRANCH  68  81
ENDBRANCH  42  43
ENDBRANCH  35  37
ENDBRANCH  34  35
ENDBRANCH  33  34
ENDBRANCH  32  33
ENDBRANCH  31  32
ENDBRANCH  30  31
ENDBRANCH  29  30
ENDBRANCH  28  29
ENDBRANCH   1  28
TORSDOF 26
ENDMDL
MODEL 3
REMARK VINA RESULT:      -8.5      1.881      6.240
REMARK SMILES C[C@@H](c1cccc([N+](=O)[O-])c1)[N@H+](CC(=O)OCCOCCOCCOCCOC(=O)c1ccc(-c2c3nc(c(-c4ccccc4)c4ccc([nH]4)c(-c4ccccc4)c4nc(c(-c5ccccc5)c5ccc2[nH]5)C=C4)C=C3)cc1)CC(F)(F)F
REMARK SMILES IDX 21 1 20 2 19 3 18 4 17 5 16 6 14 7 15 8 13 9 12 10 2 12 1 13
REMARK SMILES IDX 3 14 4 15 11 16 5 17 7 18 6 19 8 20 9 21 10 22 79 23 80 24
REMARK SMILES IDX 81 25 82 26 83 27 22 28 23 29 24 30 25 31 26 32 27 33 28 34
REMARK SMILES IDX 29 35 30 36 31 37 32 38 78 39 33 40 77 41 34 42 35 43 36 44
REMARK SMILES IDX 71 45 37 46 76 47 70 48 72 49 38 50 75 51 69 52 68 53 39 55
REMARK SMILES IDX 61 56 46 57 60 58 47 59 50 60 59 61 73 62 48 63 49 64 58 66
REMARK SMILES IDX 74 67 51 68 40 69 41 70 45 71 42 72 44 73 43 74 62 75 63 76
REMARK SMILES IDX 67 77 64 78 66 79 65 80 52 81 53 82 57 83 54 84 56 85 55 86
REMARK H PARENT 12 11 72 54 50 65
REMARK Flexibility Score: inf
ROOT
ATOM      1  C   UNL A   1      35.182  22.827  26.251  1.00  0.00     0.188 C 
ENDROOT
BRANCH   1   2
ATOM      2  C   UNL A   1      33.835  23.542  26.246  1.00  0.00     0.188 C 
BRANCH   2   3
ATOM      3  O   UNL A   1      33.664  24.406  25.120  1.00  0.00    -0.376 OA
BRANCH   3   4
ATOM      4  C   UNL A   1      32.813  23.901  24.082  1.00  0.00     0.202 C 
BRANCH   4   5
ATOM      5  C   UNL A   1      31.433  23.460  24.575  1.00  0.00     0.261 C 
BRANCH   5   6
ATOM      6  O   UNL A   1      30.440  24.491  24.362  1.00  0.00    -0.459 OA
BRANCH   6   7
ATOM      7  C   UNL A   1      30.352  25.475  25.292  1.00  0.00     0.361 C 
ATOM      8  O   UNL A   1      30.612  25.322  26.482  1.00  0.00    -0.245 OA
BRANCH   7   9
ATOM      9  C   UNL A   1      29.757  26.784  24.766  1.00  0.00     0.387 C 
BRANCH   9  10
ATOM     10  N   UNL A   1      30.662  27.646  23.980  1.00  0.00    -0.312 N 
ATOM     11  H   UNL A   1      30.532  28.582  24.362  1.00  0.00     0.349 HD
BRANCH  10  12
ATOM     12  C   UNL A   1      32.098  27.546  24.294  1.00  0.00     0.213 C 
ATOM     13  C   UNL A   1      33.090  27.694  23.123  1.00  0.00     0.081 C 
BRANCH  12  14
ATOM     14  C   UNL A   1      32.460  28.525  25.407  1.00  0.00     0.016 A 
ATOM     15  C   UNL A   1      33.539  28.290  26.274  1.00  0.00     0.010 A 
ATOM     16  C   UNL A   1      31.762  29.738  25.524  1.00  0.00     0.095 A 
ATOM     17  C   UNL A   1      33.924  29.240  27.221  1.00  0.00     0.008 A 
ATOM     18  C   UNL A   1      32.180  30.704  26.452  1.00  0.00     0.269 A 
ATOM     19  C   UNL A   1      33.258  30.457  27.307  1.00  0.00     0.085 A 
BRANCH  18  20
ATOM     20  N   UNL A   1      31.534  32.020  26.469  1.00  0.00     0.062 N 
ATOM     21  O   UNL A   1      31.945  32.852  27.290  1.00  0.00    -0.258 OA
ATOM     22  O   UNL A   1      30.634  32.230  25.643  1.00  0.00    -0.258 OA
ENDBRANCH  18  20
ENDBRANCH  12  14
ENDBRANCH  10  12
BRANCH  10  23
ATOM     23  C   UNL A   1      30.225  27.912  22.597  1.00  0.00     0.380 C 
BRANCH  23  24
ATOM     24  C   UNL A   1      29.602  29.293  22.374  1.00  0.00     0.438 C 
ATOM     25  F   UNL A   1      28.402  29.191  21.770  1.00  0.00    -0.165 F 
ATOM     26  F   UNL A   1      29.398  29.926  23.554  1.00  0.00    -0.165 F 
ATOM     27  F   UNL A   1      30.406  30.081  21.629  1.00  0.00    -0.165 F 
ENDBRANCH  23  24
ENDBRANCH  10  23
ENDBRANCH   9  10
ENDBRANCH   7   9
ENDBRANCH   6   7
ENDBRANCH   5   6
ENDBRANCH   4   5
ENDBRANCH   3   4
ENDBRANCH   2   3
ENDBRANCH   1   2
BRANCH   1  28
ATOM     28  O   UNL A   1      34.988  21.416  26.139  1.00  0.00    -0.377 OA
BRANCH  28  29
ATOM     29  C   UNL A   1      35.868  20.826  25.189  1.00  0.00     0.188 C 
BRANCH  29  30
ATOM     30  C   UNL A   1      37.143  21.645  25.002  1.00  0.00     0.188 C 
BRANCH  30  31
ATOM     31  O   UNL A   1      38.366  21.008  25.361  1.00  0.00    -0.376 OA
BRANCH  31  32
ATOM     32  C   UNL A   1      39.235  21.809  26.174  1.00  0.00     0.202 C 
BRANCH  32  33
ATOM     33  C   UNL A   1      40.641  21.236  26.408  1.00  0.00     0.261 C 
BRANCH  33  34
ATOM     34  O   UNL A   1      41.629  21.841  25.547  1.00  0.00    -0.460 OA
BRANCH  34  35
ATOM     35  C   UNL A   1      42.711  22.357  26.171  1.00  0.00     0.338 C 
ATOM     36  O   UNL A   1      43.846  21.903  26.202  1.00  0.00    -0.246 OA
BRANCH  35  37
ATOM     37  C   UNL A   1      42.380  23.697  26.682  1.00  0.00     0.060 A 
ATOM     38  C   UNL A   1      42.212  24.744  25.762  1.00  0.00     0.016 A 
ATOM     39  C   UNL A   1      42.309  23.938  28.055  1.00  0.00     0.016 A 
ATOM     40  C   UNL A   1      42.015  26.046  26.215  1.00  0.00     0.010 A 
ATOM     41  C   UNL A   1      42.138  25.246  28.507  1.00  0.00     0.010 A 
ATOM     42  C   UNL A   1      42.032  26.308  27.590  1.00  0.00    -0.014 A 
BRANCH  42  43
ATOM     43  C   UNL A   1      42.184  27.700  28.070  1.00  0.00     0.031 A 
ATOM     44  C   UNL A   1      43.574  28.264  28.169  1.00  0.00     0.074 A 
ATOM     45  C   UNL A   1      41.120  28.443  28.415  1.00  0.00     0.049 A 
ATOM     46  N   UNL A   1      43.970  29.423  28.626  1.00  0.00    -0.248 NA
ATOM     47  C   UNL A   1      44.666  27.396  27.695  1.00  0.00     0.031 C 
ATOM     48  C   UNL A   1      39.724  28.022  28.317  1.00  0.00     0.029 A 
ATOM     49  N   UNL A   1      41.054  29.712  28.931  1.00  0.00    -0.354 N 
ATOM     50  C   UNL A   1      45.354  29.418  28.507  1.00  0.00     0.074 A 
ATOM     51  C   UNL A   1      45.732  28.133  27.964  1.00  0.00     0.031 C 
ATOM     52  C   UNL A   1      38.937  29.014  28.768  1.00  0.00     0.029 A 
ATOM     53  C   UNL A   1      39.777  30.120  29.223  1.00  0.00     0.049 A 
ATOM     54  H   UNL A   1      41.847  30.277  29.077  1.00  0.00     0.167 HD
ATOM     55  C   UNL A   1      46.233  30.398  28.823  1.00  0.00     0.031 A 
ATOM     56  C   UNL A   1      39.342  31.248  29.818  1.00  0.00     0.031 A 
ATOM     57  C   UNL A   1      45.853  31.664  29.388  1.00  0.00     0.049 A 
ATOM     58  C   UNL A   1      40.347  32.289  30.241  1.00  0.00     0.074 A 
ATOM     59  C   UNL A   1      46.663  32.731  29.733  1.00  0.00     0.029 A 
ATOM     60  N   UNL A   1      44.553  32.026  29.703  1.00  0.00    -0.354 N 
ATOM     61  N   UNL A   1      41.652  32.288  30.097  1.00  0.00    -0.248 NA
ATOM     62  C   UNL A   1      39.817  33.489  30.904  1.00  0.00     0.031 C 
ATOM     63  C   UNL A   1      45.858  33.714  30.319  1.00  0.00     0.029 A 
ATOM     64  C   UNL A   1      44.540  33.289  30.270  1.00  0.00     0.049 A 
ATOM     65  H   UNL A   1      43.756  31.468  29.547  1.00  0.00     0.167 HD
ATOM     66  C   UNL A   1      42.092  33.500  30.618  1.00  0.00     0.074 A 
ATOM     67  C   UNL A   1      40.915  34.213  31.068  1.00  0.00     0.031 C 
ATOM     68  C   UNL A   1      43.356  33.982  30.711  1.00  0.00     0.031 A 
BRANCH  55  69
ATOM     69  C   UNL A   1      47.693  30.114  28.605  1.00  0.00    -0.014 A 
ATOM     70  C   UNL A   1      48.326  30.418  27.389  1.00  0.00     0.009 A 
ATOM     71  C   UNL A   1      48.451  29.546  29.641  1.00  0.00     0.009 A 
ATOM     72  C   UNL A   1      49.681  30.127  27.204  1.00  0.00     0.001 A 
ATOM     73  C   UNL A   1      49.812  29.286  29.464  1.00  0.00     0.001 A 
ATOM     74  C   UNL A   1      50.422  29.567  28.243  1.00  0.00     0.000 A 
ENDBRANCH  55  69
BRANCH  56  75
ATOM     75  C   UNL A   1      37.891  31.453  30.068  1.00  0.00    -0.014 A 
ATOM     76  C   UNL A   1      37.073  32.045  29.094  1.00  0.00     0.009 A 
ATOM     77  C   UNL A   1      37.319  31.081  31.296  1.00  0.00     0.009 A 
ATOM     78  C   UNL A   1      35.721  32.287  29.354  1.00  0.00     0.001 A 
ATOM     79  C   UNL A   1      35.961  31.293  31.541  1.00  0.00     0.001 A 
ATOM     80  C   UNL A   1      35.166  31.906  30.574  1.00  0.00     0.000 A 
ENDBRANCH  56  75
BRANCH  68  81
ATOM     81  C   UNL A   1      43.529  35.364  31.279  1.00  0.00    -0.014 A 
ATOM     82  C   UNL A   1      43.596  35.587  32.663  1.00  0.00     0.009 A 
ATOM     83  C   UNL A   1      43.677  36.455  30.407  1.00  0.00     0.009 A 
ATOM     84  C   UNL A   1      43.772  36.881  33.162  1.00  0.00     0.001 A 
ATOM     85  C   UNL A   1      43.886  37.741  30.908  1.00  0.00     0.001 A 
ATOM     86  C   UNL A   1      43.923  37.954  32.285  1.00  0.00     0.000 A 
ENDBRANCH  68  81
ENDBRANCH  42  43
ENDBRANCH  35  37
ENDBRANCH  34  35
ENDBRANCH  33  34
ENDBRANCH  32  33
ENDBRANCH  31  32
ENDBRANCH  30  31
ENDBRANCH  29  30
ENDBRANCH  28  29
ENDBRANCH   1  28
TORSDOF 26
ENDMDL
