MODEL 1
REMARK VINA RESULT:      -7.8      0.000      0.000
REMARK SMILES NS(=O)(=O)c1ccc(-n2nc(NC(=O)NCCCC(=O)OCCOCCOCCOCCOC(=O)c3ccc(-c4c5nc(c(-c6ccccc6)c6ccc([nH]6)c(-c6ccccc6)c6nc(c(-c7ccccc7)c7ccc4[nH]7)C=C6)C=C5)cc3)cc2-c2ccccc2)cc1
REMARK SMILES IDX 25 1 24 2 23 3 22 4 21 5 19 6 20 7 18 8 17 9 16 10 15 11
REMARK SMILES IDX 12 12 13 13 14 15 11 17 9 18 10 19 85 20 84 21 8 22 5 23
REMARK SMILES IDX 6 24 93 25 7 26 92 27 2 28 3 29 4 30 1 31 86 34 87 35 91 36
REMARK SMILES IDX 88 37 90 38 89 39 26 40 27 41 28 42 29 43 30 44 31 45 32 46
REMARK SMILES IDX 33 47 34 48 35 49 36 50 37 51 83 52 38 53 82 54 39 55 40 56
REMARK SMILES IDX 41 57 76 58 42 59 81 60 75 61 77 62 43 63 80 64 74 65 73 66
REMARK SMILES IDX 44 68 66 69 51 70 65 71 52 72 55 73 64 74 78 75 53 76 54 77
REMARK SMILES IDX 63 79 79 80 56 81 45 82 46 83 50 84 47 85 49 86 48 87 67 88
REMARK SMILES IDX 68 89 72 90 69 91 71 92 70 93 57 94 58 95 62 96 59 97 61 98
REMARK SMILES IDX 60 99
REMARK H PARENT 12 14 15 16 1 32 1 33 77 67 55 78
REMARK Flexibility Score: inf
ROOT
ATOM      1  C   UNL A   1      46.079  33.175  27.900  1.00  0.00     0.188 C 
ENDROOT
BRANCH   1   2
ATOM      2  O   UNL A   1      45.099  34.052  27.363  1.00  0.00    -0.376 OA
BRANCH   2   3
ATOM      3  C   UNL A   1      45.489  35.326  26.881  1.00  0.00     0.202 C 
BRANCH   3   4
ATOM      4  C   UNL A   1      44.997  36.547  27.673  1.00  0.00     0.261 C 
BRANCH   4   5
ATOM      5  O   UNL A   1      44.162  37.482  26.967  1.00  0.00    -0.463 OA
BRANCH   5   6
ATOM      6  C   UNL A   1      42.852  37.475  27.321  1.00  0.00     0.305 C 
ATOM      7  O   UNL A   1      41.946  37.968  26.662  1.00  0.00    -0.252 OA
BRANCH   6   8
ATOM      8  C   UNL A   1      42.626  36.880  28.693  1.00  0.00     0.124 C 
BRANCH   8   9
ATOM      9  C   UNL A   1      41.641  35.725  28.836  1.00  0.00     0.033 C 
BRANCH   9  10
ATOM     10  C   UNL A   1      42.169  34.314  29.094  1.00  0.00     0.118 C 
BRANCH  10  11
ATOM     11  N   UNL A   1      43.177  34.193  30.110  1.00  0.00    -0.338 N 
ATOM     12  N   UNL A   1      41.950  33.460  32.017  1.00  0.00    -0.291 N 
ATOM     13  C   UNL A   1      43.092  33.749  31.374  1.00  0.00     0.320 C 
ATOM     14  H   UNL A   1      42.083  33.407  32.991  1.00  0.00     0.173 HD
ATOM     15  O   UNL A   1      44.141  33.719  32.028  1.00  0.00    -0.248 OA
ATOM     16  H   UNL A   1      44.078  34.482  29.834  1.00  0.00     0.165 HD
BRANCH  12  17
ATOM     17  C   UNL A   1      40.641  33.219  31.662  1.00  0.00     0.157 A 
ATOM     18  N   UNL A   1      38.514  33.278  31.363  1.00  0.00    -0.231 N 
ATOM     19  N   UNL A   1      39.582  34.033  31.757  1.00  0.00    -0.149 NA
ATOM     20  C   UNL A   1      38.919  32.045  30.874  1.00  0.00     0.076 A 
ATOM     21  C   UNL A   1      40.286  32.011  31.037  1.00  0.00     0.078 A 
BRANCH  18  22
ATOM     22  C   UNL A   1      37.196  33.800  31.508  1.00  0.00     0.065 A 
ATOM     23  C   UNL A   1      33.933  35.349  31.844  1.00  0.00     0.082 A 
ATOM     24  C   UNL A   1      34.413  34.577  30.288  1.00  0.00     0.024 A 
ATOM     25  C   UNL A   1      35.085  35.347  33.251  1.00  0.00     0.024 A 
ATOM     26  C   UNL A   1      36.054  33.824  30.118  1.00  0.00     0.030 A 
ATOM     27  C   UNL A   1      36.699  34.514  33.101  1.00  0.00     0.030 A 
BRANCH  23  28
ATOM     28  S   UNL A   1      32.484  36.344  31.899  1.00  0.00     0.238 S 
ATOM     29  O   UNL A   1      31.936  36.413  30.568  1.00  0.00    -0.207 OA
ATOM     30  O   UNL A   1      32.794  37.514  32.690  1.00  0.00    -0.207 OA
BRANCH  28  31
ATOM     31  N   UNL A   1      31.418  35.440  32.836  1.00  0.00    -0.225 NA
ATOM     32  H   UNL A   1      31.604  34.446  32.700  1.00  0.00     0.137 HD
ATOM     33  H   UNL A   1      30.459  35.647  32.556  1.00  0.00     0.137 HD
ENDBRANCH  28  31
ENDBRANCH  23  28
ENDBRANCH  18  22
BRANCH  20  34
ATOM     34  C   UNL A   1      38.125  31.100  30.103  1.00  0.00     0.000 A 
ATOM     35  C   UNL A   1      38.430  30.914  28.756  1.00  0.00     0.010 A 
ATOM     36  C   UNL A   1      37.155  30.289  30.699  1.00  0.00     0.010 A 
ATOM     37  C   UNL A   1      37.735  29.980  28.001  1.00  0.00     0.001 A 
ATOM     38  C   UNL A   1      36.432  29.375  29.927  1.00  0.00     0.001 A 
ATOM     39  C   UNL A   1      36.709  29.236  28.570  1.00  0.00     0.000 A 
ENDBRANCH  20  34
ENDBRANCH  12  17
ENDBRANCH  10  11
ENDBRANCH   9  10
ENDBRANCH   8   9
ENDBRANCH   6   8
ENDBRANCH   5   6
ENDBRANCH   4   5
ENDBRANCH   3   4
ENDBRANCH   2   3
ENDBRANCH   1   2
BRANCH   1  40
ATOM     40  C   UNL A   1      47.048  32.440  26.975  1.00  0.00     0.188 C 
BRANCH  40  41
ATOM     41  O   UNL A   1      47.074  31.038  26.939  1.00  0.00    -0.377 OA
BRANCH  41  42
ATOM     42  C   UNL A   1      46.262  30.288  26.065  1.00  0.00     0.188 C 
BRANCH  42  43
ATOM     43  C   UNL A   1      46.128  28.764  26.185  1.00  0.00     0.188 C 
BRANCH  43  44
ATOM     44  O   UNL A   1      46.985  28.013  27.046  1.00  0.00    -0.376 OA
BRANCH  44  45
ATOM     45  C   UNL A   1      46.839  26.617  27.310  1.00  0.00     0.202 C 
BRANCH  45  46
ATOM     46  C   UNL A   1      45.365  25.837  27.325  1.00  0.00     0.261 C 
BRANCH  46  47
ATOM     47  O   UNL A   1      43.664  26.279  26.366  1.00  0.00    -0.460 OA
BRANCH  47  48
ATOM     48  C   UNL A   1      42.475  26.743  25.812  1.00  0.00     0.338 C 
ATOM     49  O   UNL A   1      42.458  27.309  24.722  1.00  0.00    -0.246 OA
BRANCH  48  50
ATOM     50  C   UNL A   1      41.178  26.529  26.541  1.00  0.00     0.060 A 
ATOM     51  C   UNL A   1      40.504  27.730  26.785  1.00  0.00     0.016 A 
ATOM     52  C   UNL A   1      41.367  25.618  27.573  1.00  0.00     0.016 A 
ATOM     53  C   UNL A   1      40.607  28.260  28.055  1.00  0.00     0.010 A 
ATOM     54  C   UNL A   1      41.513  26.148  28.822  1.00  0.00     0.010 A 
ATOM     55  C   UNL A   1      41.288  27.512  29.010  1.00  0.00    -0.014 A 
BRANCH  55  56
ATOM     56  C   UNL A   1      41.849  28.132  30.189  1.00  0.00     0.031 A 
ATOM     57  C   UNL A   1      43.139  28.801  29.978  1.00  0.00     0.074 A 
ATOM     58  C   UNL A   1      41.201  28.330  31.351  1.00  0.00     0.049 A 
ATOM     59  N   UNL A   1      44.290  28.238  30.098  1.00  0.00    -0.248 NA
ATOM     60  C   UNL A   1      43.169  30.152  29.397  1.00  0.00     0.031 C 
ATOM     61  C   UNL A   1      39.799  28.113  31.708  1.00  0.00     0.029 A 
ATOM     62  N   UNL A   1      41.716  28.920  32.462  1.00  0.00    -0.354 N 
ATOM     63  C   UNL A   1      45.201  29.224  29.781  1.00  0.00     0.074 A 
ATOM     64  C   UNL A   1      44.461  30.244  29.081  1.00  0.00     0.031 C 
ATOM     65  C   UNL A   1      39.534  28.771  32.866  1.00  0.00     0.029 A 
ATOM     66  C   UNL A   1      40.775  29.306  33.399  1.00  0.00     0.049 A 
ATOM     67  H   UNL A   1      42.682  29.062  32.590  1.00  0.00     0.167 HD
ATOM     68  C   UNL A   1      46.424  29.281  30.368  1.00  0.00     0.031 A 
ATOM     69  C   UNL A   1      41.036  30.054  34.496  1.00  0.00     0.031 A 
ATOM     70  C   UNL A   1      46.649  28.160  31.251  1.00  0.00     0.049 A 
ATOM     71  C   UNL A   1      42.479  29.897  34.810  1.00  0.00     0.074 A 
ATOM     72  C   UNL A   1      46.648  26.786  31.111  1.00  0.00     0.029 A 
ATOM     73  N   UNL A   1      46.492  28.401  32.600  1.00  0.00    -0.354 N 
ATOM     74  N   UNL A   1      43.002  28.771  35.206  1.00  0.00    -0.248 NA
ATOM     75  C   UNL A   1      43.435  30.874  34.309  1.00  0.00     0.031 C 
ATOM     76  C   UNL A   1      46.049  26.284  32.306  1.00  0.00     0.029 A 
ATOM     77  C   UNL A   1      45.749  27.372  33.127  1.00  0.00     0.049 A 
ATOM     78  H   UNL A   1      46.850  29.171  33.097  1.00  0.00     0.167 HD
ATOM     79  C   UNL A   1      44.244  28.719  34.591  1.00  0.00     0.074 A 
ATOM     80  C   UNL A   1      44.517  30.096  34.190  1.00  0.00     0.031 C 
ATOM     81  C   UNL A   1      44.784  27.526  34.200  1.00  0.00     0.031 A 
BRANCH  68  82
ATOM     82  C   UNL A   1      47.251  30.528  30.443  1.00  0.00    -0.014 A 
ATOM     83  C   UNL A   1      48.557  30.493  29.931  1.00  0.00     0.009 A 
ATOM     84  C   UNL A   1      46.876  31.680  31.160  1.00  0.00     0.009 A 
ATOM     85  C   UNL A   1      49.443  31.554  30.140  1.00  0.00     0.001 A 
ATOM     86  C   UNL A   1      47.738  32.764  31.324  1.00  0.00     0.001 A 
ATOM     87  C   UNL A   1      49.031  32.691  30.829  1.00  0.00     0.000 A 
ENDBRANCH  68  82
BRANCH  69  88
ATOM     88  C   UNL A   1      40.181  31.036  35.183  1.00  0.00    -0.014 A 
ATOM     89  C   UNL A   1      40.585  32.372  35.311  1.00  0.00     0.009 A 
ATOM     90  C   UNL A   1      38.842  30.722  35.478  1.00  0.00     0.009 A 
ATOM     91  C   UNL A   1      39.673  33.366  35.688  1.00  0.00     0.001 A 
ATOM     92  C   UNL A   1      37.932  31.712  35.861  1.00  0.00     0.001 A 
ATOM     93  C   UNL A   1      38.345  33.038  35.953  1.00  0.00     0.000 A 
ENDBRANCH  69  88
BRANCH  81  94
ATOM     94  C   UNL A   1      44.119  26.263  34.701  1.00  0.00    -0.014 A 
ATOM     95  C   UNL A   1      42.723  26.083  34.698  1.00  0.00     0.009 A 
ATOM     96  C   UNL A   1      44.921  25.173  35.069  1.00  0.00     0.009 A 
ATOM     97  C   UNL A   1      42.147  24.871  35.089  1.00  0.00     0.001 A 
ATOM     98  C   UNL A   1      44.347  23.953  35.439  1.00  0.00     0.001 A 
ATOM     99  C   UNL A   1      42.961  23.804  35.458  1.00  0.00     0.000 A 
ENDBRANCH  81  94
ENDBRANCH  55  56
ENDBRANCH  48  50
ENDBRANCH  47  48
ENDBRANCH  46  47
ENDBRANCH  45  46
ENDBRANCH  44  45
ENDBRANCH  43  44
ENDBRANCH  42  43
ENDBRANCH  41  42
ENDBRANCH  40  41
ENDBRANCH   1  40
TORSDOF 28
ENDMDL
MODEL 2
REMARK VINA RESULT:      -7.2      4.317      9.703
REMARK SMILES NS(=O)(=O)c1ccc(-n2nc(NC(=O)NCCCC(=O)OCCOCCOCCOCCOC(=O)c3ccc(-c4c5nc(c(-c6ccccc6)c6ccc([nH]6)c(-c6ccccc6)c6nc(c(-c7ccccc7)c7ccc4[nH]7)C=C6)C=C5)cc3)cc2-c2ccccc2)cc1
REMARK SMILES IDX 25 1 24 2 23 3 22 4 21 5 19 6 20 7 18 8 17 9 16 10 15 11
REMARK SMILES IDX 12 12 13 13 14 15 11 17 9 18 10 19 85 20 84 21 8 22 5 23
REMARK SMILES IDX 6 24 93 25 7 26 92 27 2 28 3 29 4 30 1 31 86 34 87 35 91 36
REMARK SMILES IDX 88 37 90 38 89 39 26 40 27 41 28 42 29 43 30 44 31 45 32 46
REMARK SMILES IDX 33 47 34 48 35 49 36 50 37 51 83 52 38 53 82 54 39 55 40 56
REMARK SMILES IDX 41 57 76 58 42 59 81 60 75 61 77 62 43 63 80 64 74 65 73 66
REMARK SMILES IDX 44 68 66 69 51 70 65 71 52 72 55 73 64 74 78 75 53 76 54 77
REMARK SMILES IDX 63 79 79 80 56 81 45 82 46 83 50 84 47 85 49 86 48 87 67 88
REMARK SMILES IDX 68 89 72 90 69 91 71 92 70 93 57 94 58 95 62 96 59 97 61 98
REMARK SMILES IDX 60 99
REMARK H PARENT 12 14 15 16 1 32 1 33 77 67 55 78
REMARK Flexibility Score: inf
ROOT
ATOM      1  C   UNL A   1      34.648  23.499  23.207  1.00  0.00     0.188 C 
ENDROOT
BRANCH   1   2
ATOM      2  O   UNL A   1      33.753  24.261  22.410  1.00  0.00    -0.376 OA
BRANCH   2   3
ATOM      3  C   UNL A   1      33.526  25.624  22.720  1.00  0.00     0.202 C 
BRANCH   3   4
ATOM      4  C   UNL A   1      32.405  25.930  23.725  1.00  0.00     0.261 C 
BRANCH   4   5
ATOM      5  O   UNL A   1      32.596  27.070  24.581  1.00  0.00    -0.463 OA
BRANCH   5   6
ATOM      6  C   UNL A   1      31.643  27.252  25.530  1.00  0.00     0.305 C 
ATOM      7  O   UNL A   1      30.541  26.720  25.527  1.00  0.00    -0.252 OA
BRANCH   6   8
ATOM      8  C   UNL A   1      32.043  28.285  26.560  1.00  0.00     0.124 C 
BRANCH   8   9
ATOM      9  C   UNL A   1      33.416  28.172  27.214  1.00  0.00     0.033 C 
BRANCH   9  10
ATOM     10  C   UNL A   1      34.332  29.395  27.250  1.00  0.00     0.118 C 
BRANCH  10  11
ATOM     11  N   UNL A   1      33.680  30.675  27.251  1.00  0.00    -0.338 N 
ATOM     12  N   UNL A   1      35.084  32.007  28.640  1.00  0.00    -0.291 N 
ATOM     13  C   UNL A   1      34.049  31.841  27.803  1.00  0.00     0.320 C 
ATOM     14  H   UNL A   1      35.027  32.860  29.128  1.00  0.00     0.173 HD
ATOM     15  O   UNL A   1      33.303  32.809  27.615  1.00  0.00    -0.248 OA
ATOM     16  H   UNL A   1      32.822  30.701  26.767  1.00  0.00     0.165 HD
BRANCH  12  17
ATOM     17  C   UNL A   1      36.207  31.289  28.991  1.00  0.00     0.157 A 
ATOM     18  N   UNL A   1      37.916  30.434  29.973  1.00  0.00    -0.231 N 
ATOM     19  N   UNL A   1      36.791  31.176  30.190  1.00  0.00    -0.149 NA
ATOM     20  C   UNL A   1      37.959  29.949  28.673  1.00  0.00     0.076 A 
ATOM     21  C   UNL A   1      36.850  30.471  28.045  1.00  0.00     0.078 A 
BRANCH  18  22
ATOM     22  C   UNL A   1      38.862  30.269  31.026  1.00  0.00     0.065 A 
ATOM     23  C   UNL A   1      41.397  29.706  33.558  1.00  0.00     0.082 A 
ATOM     24  C   UNL A   1      41.405  31.227  32.592  1.00  0.00     0.024 A 
ATOM     25  C   UNL A   1      40.113  28.452  33.267  1.00  0.00     0.024 A 
ATOM     26  C   UNL A   1      40.148  31.493  31.311  1.00  0.00     0.030 A 
ATOM     27  C   UNL A   1      38.803  28.763  32.038  1.00  0.00     0.030 A 
BRANCH  23  28
ATOM     28  S   UNL A   1      42.788  29.318  34.562  1.00  0.00     0.238 S 
ATOM     29  O   UNL A   1      42.404  29.477  35.941  1.00  0.00    -0.207 OA
ATOM     30  O   UNL A   1      43.938  29.972  33.979  1.00  0.00    -0.207 OA
BRANCH  28  31
ATOM     31  N   UNL A   1      43.025  27.673  34.292  1.00  0.00    -0.225 NA
ATOM     32  H   UNL A   1      43.868  27.539  33.732  1.00  0.00     0.137 HD
ATOM     33  H   UNL A   1      42.221  27.291  33.794  1.00  0.00     0.137 HD
ENDBRANCH  28  31
ENDBRANCH  23  28
ENDBRANCH  18  22
BRANCH  20  34
ATOM     34  C   UNL A   1      38.823  28.900  28.153  1.00  0.00     0.000 A 
ATOM     35  C   UNL A   1      39.796  29.239  27.216  1.00  0.00     0.010 A 
ATOM     36  C   UNL A   1      38.786  27.595  28.656  1.00  0.00     0.010 A 
ATOM     37  C   UNL A   1      40.677  28.278  26.739  1.00  0.00     0.001 A 
ATOM     38  C   UNL A   1      39.652  26.622  28.147  1.00  0.00     0.001 A 
ATOM     39  C   UNL A   1      40.585  26.961  27.171  1.00  0.00     0.000 A 
ENDBRANCH  20  34
ENDBRANCH  12  17
ENDBRANCH  10  11
ENDBRANCH   9  10
ENDBRANCH   8   9
ENDBRANCH   6   8
ENDBRANCH   5   6
ENDBRANCH   4   5
ENDBRANCH   3   4
ENDBRANCH   2   3
ENDBRANCH   1   2
BRANCH   1  40
ATOM     40  C   UNL A   1      34.167  22.231  23.912  1.00  0.00     0.188 C 
BRANCH  40  41
ATOM     41  O   UNL A   1      34.899  21.687  24.978  1.00  0.00    -0.377 OA
BRANCH  41  42
ATOM     42  C   UNL A   1      35.834  22.440  25.715  1.00  0.00     0.188 C 
BRANCH  42  43
ATOM     43  C   UNL A   1      37.342  22.161  25.643  1.00  0.00     0.188 C 
BRANCH  43  44
ATOM     44  O   UNL A   1      37.870  21.185  24.743  1.00  0.00    -0.376 OA
BRANCH  44  45
ATOM     45  C   UNL A   1      38.464  19.952  25.150  1.00  0.00     0.202 C 
BRANCH  45  46
ATOM     46  C   UNL A   1      39.979  19.850  25.840  1.00  0.00     0.261 C 
BRANCH  46  47
ATOM     47  O   UNL A   1      41.475  21.180  25.866  1.00  0.00    -0.460 OA
BRANCH  47  48
ATOM     48  C   UNL A   1      42.449  22.155  26.059  1.00  0.00     0.338 C 
ATOM     49  O   UNL A   1      43.070  22.237  27.115  1.00  0.00    -0.246 OA
BRANCH  48  50
ATOM     50  C   UNL A   1      42.774  23.115  24.948  1.00  0.00     0.060 A 
ATOM     51  C   UNL A   1      44.119  23.055  24.573  1.00  0.00     0.016 A 
ATOM     52  C   UNL A   1      42.180  24.345  25.206  1.00  0.00     0.016 A 
ATOM     53  C   UNL A   1      44.951  24.043  25.060  1.00  0.00     0.010 A 
ATOM     54  C   UNL A   1      42.995  25.307  25.727  1.00  0.00     0.010 A 
ATOM     55  C   UNL A   1      44.368  25.067  25.798  1.00  0.00    -0.014 A 
BRANCH  55  56
ATOM     56  C   UNL A   1      45.146  25.866  26.718  1.00  0.00     0.031 A 
ATOM     57  C   UNL A   1      45.043  25.459  28.125  1.00  0.00     0.074 A 
ATOM     58  C   UNL A   1      46.087  26.761  26.371  1.00  0.00     0.049 A 
ATOM     59  N   UNL A   1      44.168  25.901  28.959  1.00  0.00    -0.248 NA
ATOM     60  C   UNL A   1      45.846  24.328  28.614  1.00  0.00     0.031 C 
ATOM     61  C   UNL A   1      46.659  27.082  25.064  1.00  0.00     0.029 A 
ATOM     62  N   UNL A   1      46.831  27.511  27.227  1.00  0.00    -0.354 N 
ATOM     63  C   UNL A   1      44.428  25.231  30.135  1.00  0.00     0.074 A 
ATOM     64  C   UNL A   1      45.238  24.093  29.777  1.00  0.00     0.031 C 
ATOM     65  C   UNL A   1      47.804  27.789  25.247  1.00  0.00     0.029 A 
ATOM     66  C   UNL A   1      47.944  28.101  26.660  1.00  0.00     0.049 A 
ATOM     67  H   UNL A   1      46.595  27.625  28.177  1.00  0.00     0.167 HD
ATOM     68  C   UNL A   1      44.222  25.808  31.347  1.00  0.00     0.031 A 
ATOM     69  C   UNL A   1      48.913  28.748  27.347  1.00  0.00     0.031 A 
ATOM     70  C   UNL A   1      43.628  27.119  31.223  1.00  0.00     0.049 A 
ATOM     71  C   UNL A   1      48.324  29.196  28.634  1.00  0.00     0.074 A 
ATOM     72  C   UNL A   1      42.476  27.624  30.652  1.00  0.00     0.029 A 
ATOM     73  N   UNL A   1      44.480  28.194  31.364  1.00  0.00    -0.354 N 
ATOM     74  N   UNL A   1      47.386  30.098  28.712  1.00  0.00    -0.248 NA
ATOM     75  C   UNL A   1      48.477  28.369  29.823  1.00  0.00     0.031 C 
ATOM     76  C   UNL A   1      42.857  28.872  30.073  1.00  0.00     0.029 A 
ATOM     77  C   UNL A   1      44.209  29.082  30.351  1.00  0.00     0.049 A 
ATOM     78  H   UNL A   1      45.162  28.305  32.066  1.00  0.00     0.167 HD
ATOM     79  C   UNL A   1      46.554  29.660  29.731  1.00  0.00     0.074 A 
ATOM     80  C   UNL A   1      47.354  28.693  30.475  1.00  0.00     0.031 C 
ATOM     81  C   UNL A   1      45.208  29.897  29.688  1.00  0.00     0.031 A 
BRANCH  68  82
ATOM     82  C   UNL A   1      44.897  25.358  32.606  1.00  0.00    -0.014 A 
ATOM     83  C   UNL A   1      46.204  25.803  32.856  1.00  0.00     0.009 A 
ATOM     84  C   UNL A   1      44.382  24.371  33.467  1.00  0.00     0.009 A 
ATOM     85  C   UNL A   1      46.959  25.273  33.907  1.00  0.00     0.001 A 
ATOM     86  C   UNL A   1      45.111  23.879  34.549  1.00  0.00     0.001 A 
ATOM     87  C   UNL A   1      46.409  24.317  34.757  1.00  0.00     0.000 A 
ENDBRANCH  68  82
BRANCH  69  88
ATOM     88  C   UNL A   1      50.355  28.850  27.061  1.00  0.00    -0.014 A 
ATOM     89  C   UNL A   1      51.183  27.723  27.151  1.00  0.00     0.009 A 
ATOM     90  C   UNL A   1      50.871  29.999  26.437  1.00  0.00     0.009 A 
ATOM     91  C   UNL A   1      52.473  27.734  26.604  1.00  0.00     0.001 A 
ATOM     92  C   UNL A   1      52.161  30.014  25.896  1.00  0.00     0.001 A 
ATOM     93  C   UNL A   1      52.957  28.875  25.968  1.00  0.00     0.000 A 
ENDBRANCH  69  88
BRANCH  81  94
ATOM     94  C   UNL A   1      44.706  30.875  28.648  1.00  0.00    -0.014 A 
ATOM     95  C   UNL A   1      44.819  32.270  28.795  1.00  0.00     0.009 A 
ATOM     96  C   UNL A   1      44.222  30.381  27.429  1.00  0.00     0.009 A 
ATOM     97  C   UNL A   1      44.421  33.142  27.778  1.00  0.00     0.001 A 
ATOM     98  C   UNL A   1      43.845  31.250  26.400  1.00  0.00     0.001 A 
ATOM     99  C   UNL A   1      43.937  32.630  26.577  1.00  0.00     0.000 A 
ENDBRANCH  81  94
ENDBRANCH  55  56
ENDBRANCH  48  50
ENDBRANCH  47  48
ENDBRANCH  46  47
ENDBRANCH  45  46
ENDBRANCH  44  45
ENDBRANCH  43  44
ENDBRANCH  42  43
ENDBRANCH  41  42
ENDBRANCH  40  41
ENDBRANCH   1  40
TORSDOF 28
ENDMDL
MODEL 3
REMARK VINA RESULT:      -6.8      6.315     12.316
REMARK SMILES NS(=O)(=O)c1ccc(-n2nc(NC(=O)NCCCC(=O)OCCOCCOCCOCCOC(=O)c3ccc(-c4c5nc(c(-c6ccccc6)c6ccc([nH]6)c(-c6ccccc6)c6nc(c(-c7ccccc7)c7ccc4[nH]7)C=C6)C=C5)cc3)cc2-c2ccccc2)cc1
REMARK SMILES IDX 25 1 24 2 23 3 22 4 21 5 19 6 20 7 18 8 17 9 16 10 15 11
REMARK SMILES IDX 12 12 13 13 14 15 11 17 9 18 10 19 85 20 84 21 8 22 5 23
REMARK SMILES IDX 6 24 93 25 7 26 92 27 2 28 3 29 4 30 1 31 86 34 87 35 91 36
REMARK SMILES IDX 88 37 90 38 89 39 26 40 27 41 28 42 29 43 30 44 31 45 32 46
REMARK SMILES IDX 33 47 34 48 35 49 36 50 37 51 83 52 38 53 82 54 39 55 40 56
REMARK SMILES IDX 41 57 76 58 42 59 81 60 75 61 77 62 43 63 80 64 74 65 73 66
REMARK SMILES IDX 44 68 66 69 51 70 65 71 52 72 55 73 64 74 78 75 53 76 54 77
REMARK SMILES IDX 63 79 79 80 56 81 45 82 46 83 50 84 47 85 49 86 48 87 67 88
REMARK SMILES IDX 68 89 72 90 69 91 71 92 70 93 57 94 58 95 62 96 59 97 61 98
REMARK SMILES IDX 60 99
REMARK H PARENT 12 14 15 16 1 32 1 33 77 67 55 78
REMARK Flexibility Score: inf
ROOT
ATOM      1  C   UNL A   1      30.904  26.867  24.767  1.00  0.00     0.188 C 
ENDROOT
BRANCH   1   2
ATOM      2  O   UNL A   1      30.074  25.721  24.641  1.00  0.00    -0.376 OA
BRANCH   2   3
ATOM      3  C   UNL A   1      30.275  24.825  23.563  1.00  0.00     0.202 C 
BRANCH   3   4
ATOM      4  C   UNL A   1      31.030  23.524  23.875  1.00  0.00     0.261 C 
BRANCH   4   5
ATOM      5  O   UNL A   1      31.891  23.012  22.843  1.00  0.00    -0.463 OA
BRANCH   5   6
ATOM      6  C   UNL A   1      32.029  21.662  22.816  1.00  0.00     0.305 C 
ATOM      7  O   UNL A   1      31.940  20.968  21.812  1.00  0.00    -0.252 OA
BRANCH   6   8
ATOM      8  C   UNL A   1      32.199  21.071  24.198  1.00  0.00     0.124 C 
BRANCH   8   9
ATOM      9  C   UNL A   1      32.255  19.554  24.342  1.00  0.00     0.033 C 
BRANCH   9  10
ATOM     10  C   UNL A   1      33.149  18.934  25.416  1.00  0.00     0.118 C 
BRANCH  10  11
ATOM     11  N   UNL A   1      33.625  17.605  25.154  1.00  0.00    -0.338 N 
ATOM     12  N   UNL A   1      35.941  17.931  24.698  1.00  0.00    -0.291 N 
ATOM     13  C   UNL A   1      34.866  17.156  24.909  1.00  0.00     0.320 C 
ATOM     14  H   UNL A   1      36.679  17.428  24.284  1.00  0.00     0.173 HD
ATOM     15  O   UNL A   1      34.999  15.937  24.749  1.00  0.00    -0.248 OA
ATOM     16  H   UNL A   1      32.928  16.909  25.154  1.00  0.00     0.165 HD
BRANCH  12  17
ATOM     17  C   UNL A   1      36.275  19.250  24.912  1.00  0.00     0.157 A 
ATOM     18  N   UNL A   1      37.251  21.110  25.367  1.00  0.00    -0.231 N 
ATOM     19  N   UNL A   1      37.484  19.788  25.114  1.00  0.00    -0.149 NA
ATOM     20  C   UNL A   1      35.917  21.435  25.172  1.00  0.00     0.076 A 
ATOM     21  C   UNL A   1      35.289  20.251  24.852  1.00  0.00     0.078 A 
BRANCH  18  22
ATOM     22  C   UNL A   1      38.327  21.942  25.794  1.00  0.00     0.065 A 
ATOM     23  C   UNL A   1      41.123  24.090  26.645  1.00  0.00     0.082 A 
ATOM     24  C   UNL A   1      39.448  24.754  26.616  1.00  0.00     0.024 A 
ATOM     25  C   UNL A   1      41.413  22.338  26.251  1.00  0.00     0.024 A 
ATOM     26  C   UNL A   1      38.056  23.681  26.167  1.00  0.00     0.030 A 
ATOM     27  C   UNL A   1      40.001  21.246  25.885  1.00  0.00     0.030 A 
BRANCH  23  28
ATOM     28  S   UNL A   1      42.484  25.197  26.766  1.00  0.00     0.238 S 
ATOM     29  O   UNL A   1      43.352  24.727  27.816  1.00  0.00    -0.207 OA
ATOM     30  O   UNL A   1      41.954  26.541  26.717  1.00  0.00    -0.207 OA
BRANCH  28  31
ATOM     31  N   UNL A   1      43.299  24.984  25.308  1.00  0.00    -0.225 NA
ATOM     32  H   UNL A   1      42.684  25.244  24.535  1.00  0.00     0.137 HD
ATOM     33  H   UNL A   1      43.573  24.007  25.210  1.00  0.00     0.137 HD
ENDBRANCH  28  31
ENDBRANCH  23  28
ENDBRANCH  18  22
BRANCH  20  34
ATOM     34  C   UNL A   1      35.343  22.767  25.054  1.00  0.00     0.000 A 
ATOM     35  C   UNL A   1      35.322  23.376  23.801  1.00  0.00     0.010 A 
ATOM     36  C   UNL A   1      34.707  23.396  26.128  1.00  0.00     0.010 A 
ATOM     37  C   UNL A   1      34.731  24.622  23.636  1.00  0.00     0.001 A 
ATOM     38  C   UNL A   1      34.145  24.666  25.966  1.00  0.00     0.001 A 
ATOM     39  C   UNL A   1      34.177  25.289  24.721  1.00  0.00     0.000 A 
ENDBRANCH  20  34
ENDBRANCH  12  17
ENDBRANCH  10  11
ENDBRANCH   9  10
ENDBRANCH   8   9
ENDBRANCH   6   8
ENDBRANCH   5   6
ENDBRANCH   4   5
ENDBRANCH   3   4
ENDBRANCH   2   3
ENDBRANCH   1   2
BRANCH   1  40
ATOM     40  C   UNL A   1      30.572  28.150  24.006  1.00  0.00     0.188 C 
BRANCH  40  41
ATOM     41  O   UNL A   1      31.010  29.394  24.482  1.00  0.00    -0.377 OA
BRANCH  41  42
ATOM     42  C   UNL A   1      31.721  29.534  25.691  1.00  0.00     0.188 C 
BRANCH  42  43
ATOM     43  C   UNL A   1      33.255  29.534  25.737  1.00  0.00     0.188 C 
BRANCH  43  44
ATOM     44  O   UNL A   1      33.961  30.061  26.862  1.00  0.00    -0.376 OA
BRANCH  44  45
ATOM     45  C   UNL A   1      34.956  29.348  27.596  1.00  0.00     0.202 C 
BRANCH  45  46
ATOM     46  C   UNL A   1      36.257  30.088  28.331  1.00  0.00     0.261 C 
BRANCH  46  47
ATOM     47  O   UNL A   1      36.363  31.828  29.315  1.00  0.00    -0.460 OA
BRANCH  47  48
ATOM     48  C   UNL A   1      36.271  33.083  29.909  1.00  0.00     0.338 C 
ATOM     49  O   UNL A   1      36.765  34.076  29.381  1.00  0.00    -0.246 OA
BRANCH  48  50
ATOM     50  C   UNL A   1      35.531  33.242  31.208  1.00  0.00     0.060 A 
ATOM     51  C   UNL A   1      35.956  34.364  31.925  1.00  0.00     0.016 A 
ATOM     52  C   UNL A   1      35.431  32.010  31.842  1.00  0.00     0.016 A 
ATOM     53  C   UNL A   1      36.829  34.145  32.972  1.00  0.00     0.010 A 
ATOM     54  C   UNL A   1      36.323  31.779  32.847  1.00  0.00     0.010 A 
ATOM     55  C   UNL A   1      37.135  32.825  33.287  1.00  0.00    -0.014 A 
BRANCH  55  56
ATOM     56  C   UNL A   1      38.338  32.486  34.014  1.00  0.00     0.031 A 
ATOM     57  C   UNL A   1      38.492  33.171  35.303  1.00  0.00     0.074 A 
ATOM     58  C   UNL A   1      39.168  31.469  33.719  1.00  0.00     0.049 A 
ATOM     59  N   UNL A   1      39.076  34.306  35.470  1.00  0.00    -0.248 NA
ATOM     60  C   UNL A   1      37.776  32.665  36.484  1.00  0.00     0.031 C 
ATOM     61  C   UNL A   1      39.048  30.400  32.729  1.00  0.00     0.029 A 
ATOM     62  N   UNL A   1      40.295  31.135  34.400  1.00  0.00    -0.354 N 
ATOM     63  C   UNL A   1      38.959  34.570  36.818  1.00  0.00     0.074 A 
ATOM     64  C   UNL A   1      37.914  33.705  37.307  1.00  0.00     0.031 C 
ATOM     65  C   UNL A   1      39.942  29.422  33.027  1.00  0.00     0.029 A 
ATOM     66  C   UNL A   1      40.789  29.876  34.117  1.00  0.00     0.049 A 
ATOM     67  H   UNL A   1      40.726  31.742  35.045  1.00  0.00     0.167 HD
ATOM     68  C   UNL A   1      39.916  35.251  37.498  1.00  0.00     0.031 A 
ATOM     69  C   UNL A   1      41.795  29.269  34.788  1.00  0.00     0.031 A 
ATOM     70  C   UNL A   1      40.969  35.716  36.624  1.00  0.00     0.049 A 
ATOM     71  C   UNL A   1      42.604  30.332  35.437  1.00  0.00     0.074 A 
ATOM     72  C   UNL A   1      41.027  36.517  35.500  1.00  0.00     0.029 A 
ATOM     73  N   UNL A   1      42.135  34.980  36.623  1.00  0.00    -0.354 N 
ATOM     74  N   UNL A   1      43.306  31.200  34.766  1.00  0.00    -0.248 NA
ATOM     75  C   UNL A   1      42.332  30.702  36.819  1.00  0.00     0.031 C 
ATOM     76  C   UNL A   1      42.001  35.907  34.652  1.00  0.00     0.029 A 
ATOM     77  C   UNL A   1      42.511  34.790  35.315  1.00  0.00     0.049 A 
ATOM     78  H   UNL A   1      42.613  34.650  37.417  1.00  0.00     0.167 HD
ATOM     79  C   UNL A   1      43.168  32.389  35.467  1.00  0.00     0.074 A 
ATOM     80  C   UNL A   1      42.700  31.988  36.789  1.00  0.00     0.031 C 
ATOM     81  C   UNL A   1      43.155  33.591  34.815  1.00  0.00     0.031 A 
BRANCH  68  82
ATOM     82  C   UNL A   1      40.098  35.168  38.983  1.00  0.00    -0.014 A 
ATOM     83  C   UNL A   1      39.914  33.926  39.608  1.00  0.00     0.009 A 
ATOM     84  C   UNL A   1      40.257  36.288  39.821  1.00  0.00     0.009 A 
ATOM     85  C   UNL A   1      39.879  33.817  41.002  1.00  0.00     0.001 A 
ATOM     86  C   UNL A   1      40.277  36.177  41.211  1.00  0.00     0.001 A 
ATOM     87  C   UNL A   1      40.068  34.941  41.801  1.00  0.00     0.000 A 
ENDBRANCH  68  82
BRANCH  69  88
ATOM     88  C   UNL A   1      42.005  27.837  35.066  1.00  0.00    -0.014 A 
ATOM     89  C   UNL A   1      42.791  27.051  34.213  1.00  0.00     0.009 A 
ATOM     90  C   UNL A   1      41.653  27.303  36.318  1.00  0.00     0.009 A 
ATOM     91  C   UNL A   1      43.239  25.785  34.614  1.00  0.00     0.001 A 
ATOM     92  C   UNL A   1      42.094  26.037  36.716  1.00  0.00     0.001 A 
ATOM     93  C   UNL A   1      42.899  25.284  35.868  1.00  0.00     0.000 A 
ENDBRANCH  69  88
BRANCH  81  94
ATOM     94  C   UNL A   1      43.567  33.597  33.359  1.00  0.00    -0.014 A 
ATOM     95  C   UNL A   1      44.892  33.824  32.941  1.00  0.00     0.009 A 
ATOM     96  C   UNL A   1      42.624  33.239  32.385  1.00  0.00     0.009 A 
ATOM     97  C   UNL A   1      45.252  33.739  31.594  1.00  0.00     0.001 A 
ATOM     98  C   UNL A   1      42.987  33.131  31.039  1.00  0.00     0.001 A 
ATOM     99  C   UNL A   1      44.299  33.389  30.642  1.00  0.00     0.000 A 
ENDBRANCH  81  94
ENDBRANCH  55  56
ENDBRANCH  48  50
ENDBRANCH  47  48
ENDBRANCH  46  47
ENDBRANCH  45  46
ENDBRANCH  44  45
ENDBRANCH  43  44
ENDBRANCH  42  43
ENDBRANCH  41  42
ENDBRANCH  40  41
ENDBRANCH   1  40
TORSDOF 28
ENDMDL
