MODEL 1
REMARK VINA RESULT:      -7.4      0.000      0.000
REMARK SMILES COc1ccccc1[C@@H]1C[N@@H+](Cc2cn3cc(C)ccc3n2)C[C@H]1C(=O)OCCOCCOCCOCCOC(=O)c1ccc(-c2c3nc(c(-c4ccccc4)c4ccc([nH]4)c(-c4ccccc4)c4nc(c(-c5ccccc5)c5ccc2[nH]5)C=C4)C=C3)cc1
REMARK SMILES IDX 33 1 32 2 31 3 30 4 29 5 28 6 27 7 25 8 26 9 24 10 9 11
REMARK SMILES IDX 10 12 11 13 23 14 8 16 3 17 4 18 5 19 7 20 6 21 2 22 1 23
REMARK SMILES IDX 12 24 13 25 14 26 22 27 15 28 21 29 16 30 20 31 17 32 19 33
REMARK SMILES IDX 18 34 34 35 35 36 36 37 37 38 38 39 39 40 40 41 41 42 42 43
REMARK SMILES IDX 43 44 89 45 44 46 88 47 45 48 46 49 47 50 82 51 48 52 87 53
REMARK SMILES IDX 81 54 83 55 49 56 86 57 80 58 79 59 50 61 72 62 57 63 71 64
REMARK SMILES IDX 58 65 61 66 70 67 84 68 59 69 60 70 69 72 85 73 62 74 51 75
REMARK SMILES IDX 52 76 56 77 53 78 55 79 54 80 73 81 74 82 78 83 75 84 77 85
REMARK SMILES IDX 76 86 63 87 64 88 68 89 65 90 67 91 66 92
REMARK H PARENT 11 15 83 60 61 71
REMARK Flexibility Score: inf
ROOT
ATOM      1  O   UNL A   1      32.535  34.724  29.404  1.00  0.00    -0.377 OA
ENDROOT
BRANCH   1   2
ATOM      2  C   UNL A   1      33.298  35.542  30.277  1.00  0.00     0.188 C 
BRANCH   2   3
ATOM      3  C   UNL A   1      33.786  35.177  31.692  1.00  0.00     0.188 C 
BRANCH   3   4
ATOM      4  O   UNL A   1      33.724  33.837  32.139  1.00  0.00    -0.376 OA
BRANCH   4   5
ATOM      5  C   UNL A   1      34.903  33.115  32.459  1.00  0.00     0.202 C 
BRANCH   5   6
ATOM      6  C   UNL A   1      35.852  33.629  33.535  1.00  0.00     0.261 C 
BRANCH   6   7
ATOM      7  O   UNL A   1      37.175  33.053  33.481  1.00  0.00    -0.463 OA
BRANCH   7   8
ATOM      8  C   UNL A   1      37.659  32.718  34.700  1.00  0.00     0.315 C 
ATOM      9  O   UNL A   1      36.954  32.692  35.712  1.00  0.00    -0.252 OA
BRANCH   8  10
ATOM     10  C   UNL A   1      39.131  32.372  34.820  1.00  0.00     0.167 C 
ATOM     11  C   UNL A   1      40.082  31.918  33.696  1.00  0.00     0.098 C 
ATOM     12  C   UNL A   1      41.422  32.533  34.134  1.00  0.00     0.272 C 
ATOM     13  N   UNL A   1      41.106  33.801  34.784  1.00  0.00    -0.329 N 
ATOM     14  C   UNL A   1      39.789  33.629  35.403  1.00  0.00     0.278 C 
ATOM     15  H   UNL A   1      41.812  34.008  35.490  1.00  0.00     0.348 HD
BRANCH  11  16
ATOM     16  C   UNL A   1      40.337  30.438  33.401  1.00  0.00     0.004 A 
ATOM     17  C   UNL A   1      39.336  29.474  33.205  1.00  0.00     0.122 A 
ATOM     18  C   UNL A   1      39.661  28.140  32.924  1.00  0.00     0.047 A 
ATOM     19  C   UNL A   1      40.997  27.734  32.886  1.00  0.00     0.004 A 
ATOM     20  C   UNL A   1      41.676  29.987  33.416  1.00  0.00     0.008 A 
ATOM     21  C   UNL A   1      42.002  28.653  33.162  1.00  0.00     0.001 A 
BRANCH  17  22
ATOM     22  O   UNL A   1      38.037  29.801  33.493  1.00  0.00    -0.496 OA
ATOM     23  C   UNL A   1      37.161  29.695  32.375  1.00  0.00     0.278 C 
ENDBRANCH  17  22
ENDBRANCH  11  16
BRANCH  13  24
ATOM     24  C   UNL A   1      41.209  34.984  33.922  1.00  0.00     0.321 C 
BRANCH  24  25
ATOM     25  C   UNL A   1      42.002  34.795  32.663  1.00  0.00     0.114 A 
ATOM     26  C   UNL A   1      41.525  34.570  31.386  1.00  0.00     0.122 A 
ATOM     27  N   UNL A   1      43.384  34.825  32.657  1.00  0.00    -0.228 NA
ATOM     28  N   UNL A   1      42.628  34.431  30.589  1.00  0.00    -0.306 N 
ATOM     29  C   UNL A   1      43.738  34.602  31.407  1.00  0.00     0.137 A 
ATOM     30  C   UNL A   1      42.702  34.136  29.230  1.00  0.00     0.096 A 
ATOM     31  C   UNL A   1      45.014  34.484  30.788  1.00  0.00     0.048 A 
ATOM     32  C   UNL A   1      43.909  33.988  28.649  1.00  0.00    -0.034 A 
ATOM     33  C   UNL A   1      45.101  34.186  29.476  1.00  0.00     0.009 A 
ATOM     34  C   UNL A   1      44.097  33.613  27.212  1.00  0.00     0.046 C 
ENDBRANCH  24  25
ENDBRANCH  13  24
ENDBRANCH   8  10
ENDBRANCH   7   8
ENDBRANCH   6   7
ENDBRANCH   5   6
ENDBRANCH   4   5
ENDBRANCH   3   4
ENDBRANCH   2   3
ENDBRANCH   1   2
BRANCH   1  35
ATOM     35  C   UNL A   1      33.014  34.429  28.114  1.00  0.00     0.188 C 
BRANCH  35  36
ATOM     36  C   UNL A   1      34.022  33.279  28.019  1.00  0.00     0.188 C 
BRANCH  36  37
ATOM     37  O   UNL A   1      35.370  33.714  27.876  1.00  0.00    -0.376 OA
BRANCH  37  38
ATOM     38  C   UNL A   1      36.218  33.602  29.010  1.00  0.00     0.202 C 
BRANCH  38  39
ATOM     39  C   UNL A   1      36.773  32.214  29.326  1.00  0.00     0.261 C 
BRANCH  39  40
ATOM     40  O   UNL A   1      37.061  31.385  28.206  1.00  0.00    -0.460 OA
BRANCH  40  41
ATOM     41  C   UNL A   1      36.912  30.057  28.349  1.00  0.00     0.338 C 
ATOM     42  O   UNL A   1      35.948  29.383  28.042  1.00  0.00    -0.246 OA
BRANCH  41  43
ATOM     43  C   UNL A   1      38.091  29.539  29.066  1.00  0.00     0.060 A 
ATOM     44  C   UNL A   1      39.089  30.464  29.371  1.00  0.00     0.016 A 
ATOM     45  C   UNL A   1      38.315  28.155  29.159  1.00  0.00     0.016 A 
ATOM     46  C   UNL A   1      40.381  30.005  29.499  1.00  0.00     0.010 A 
ATOM     47  C   UNL A   1      39.610  27.695  29.273  1.00  0.00     0.010 A 
ATOM     48  C   UNL A   1      40.631  28.638  29.324  1.00  0.00    -0.014 A 
BRANCH  48  49
ATOM     49  C   UNL A   1      41.995  28.272  29.009  1.00  0.00     0.031 A 
ATOM     50  C   UNL A   1      42.191  27.088  28.161  1.00  0.00     0.074 A 
ATOM     51  C   UNL A   1      43.047  28.946  29.503  1.00  0.00     0.049 A 
ATOM     52  N   UNL A   1      42.647  25.938  28.524  1.00  0.00    -0.248 NA
ATOM     53  C   UNL A   1      41.781  27.181  26.758  1.00  0.00     0.031 C 
ATOM     54  C   UNL A   1      43.079  30.269  30.131  1.00  0.00     0.029 A 
ATOM     55  N   UNL A   1      44.358  28.583  29.460  1.00  0.00    -0.354 N 
ATOM     56  C   UNL A   1      42.720  25.180  27.365  1.00  0.00     0.074 A 
ATOM     57  C   UNL A   1      42.082  25.956  26.326  1.00  0.00     0.031 C 
ATOM     58  C   UNL A   1      44.364  30.683  30.210  1.00  0.00     0.029 A 
ATOM     59  C   UNL A   1      45.234  29.604  29.772  1.00  0.00     0.049 A 
ATOM     60  H   UNL A   1      44.654  27.673  29.227  1.00  0.00     0.167 HD
ATOM     61  C   UNL A   1      43.452  24.038  27.292  1.00  0.00     0.031 A 
ATOM     62  C   UNL A   1      46.577  29.575  29.609  1.00  0.00     0.031 A 
ATOM     63  C   UNL A   1      43.848  23.542  28.582  1.00  0.00     0.049 A 
ATOM     64  C   UNL A   1      47.006  28.157  29.567  1.00  0.00     0.074 A 
ATOM     65  C   UNL A   1      43.178  23.101  29.706  1.00  0.00     0.029 A 
ATOM     66  N   UNL A   1      45.144  23.758  28.981  1.00  0.00    -0.354 N 
ATOM     67  N   UNL A   1      46.975  27.365  30.601  1.00  0.00    -0.248 NA
ATOM     68  C   UNL A   1      47.111  27.485  28.280  1.00  0.00     0.031 C 
ATOM     69  C   UNL A   1      43.982  23.515  30.807  1.00  0.00     0.029 A 
ATOM     70  C   UNL A   1      45.095  24.178  30.287  1.00  0.00     0.049 A 
ATOM     71  H   UNL A   1      45.954  23.634  28.435  1.00  0.00     0.167 HD
ATOM     72  C   UNL A   1      46.637  26.119  30.093  1.00  0.00     0.074 A 
ATOM     73  C   UNL A   1      46.863  26.227  28.655  1.00  0.00     0.031 C 
ATOM     74  C   UNL A   1      45.938  25.214  30.842  1.00  0.00     0.031 A 
BRANCH  61  75
ATOM     75  C   UNL A   1      44.066  23.539  26.020  1.00  0.00    -0.014 A 
ATOM     76  C   UNL A   1      43.790  22.233  25.588  1.00  0.00     0.009 A 
ATOM     77  C   UNL A   1      45.103  24.230  25.363  1.00  0.00     0.009 A 
ATOM     78  C   UNL A   1      44.529  21.641  24.559  1.00  0.00     0.001 A 
ATOM     79  C   UNL A   1      45.814  23.658  24.307  1.00  0.00     0.001 A 
ATOM     80  C   UNL A   1      45.539  22.354  23.919  1.00  0.00     0.000 A 
ENDBRANCH  61  75
BRANCH  62  81
ATOM     81  C   UNL A   1      47.455  30.701  29.238  1.00  0.00    -0.014 A 
ATOM     82  C   UNL A   1      47.238  31.430  28.061  1.00  0.00     0.009 A 
ATOM     83  C   UNL A   1      48.376  31.218  30.170  1.00  0.00     0.009 A 
ATOM     84  C   UNL A   1      47.900  32.645  27.840  1.00  0.00     0.001 A 
ATOM     85  C   UNL A   1      49.043  32.424  29.946  1.00  0.00     0.001 A 
ATOM     86  C   UNL A   1      48.795  33.145  28.785  1.00  0.00     0.000 A 
ENDBRANCH  62  81
BRANCH  74  87
ATOM     87  C   UNL A   1      45.757  25.517  32.310  1.00  0.00    -0.014 A 
ATOM     88  C   UNL A   1      44.521  25.930  32.840  1.00  0.00     0.009 A 
ATOM     89  C   UNL A   1      46.802  25.240  33.202  1.00  0.00     0.009 A 
ATOM     90  C   UNL A   1      44.349  26.103  34.215  1.00  0.00     0.001 A 
ATOM     91  C   UNL A   1      46.624  25.392  34.581  1.00  0.00     0.001 A 
ATOM     92  C   UNL A   1      45.400  25.830  35.086  1.00  0.00     0.000 A 
ENDBRANCH  74  87
ENDBRANCH  48  49
ENDBRANCH  41  43
ENDBRANCH  40  41
ENDBRANCH  39  40
ENDBRANCH  38  39
ENDBRANCH  37  38
ENDBRANCH  36  37
ENDBRANCH  35  36
ENDBRANCH   1  35
TORSDOF 24
ENDMDL
MODEL 2
REMARK VINA RESULT:      -7.3      2.572      6.446
REMARK SMILES COc1ccccc1[C@@H]1C[N@@H+](Cc2cn3cc(C)ccc3n2)C[C@H]1C(=O)OCCOCCOCCOCCOC(=O)c1ccc(-c2c3nc(c(-c4ccccc4)c4ccc([nH]4)c(-c4ccccc4)c4nc(c(-c5ccccc5)c5ccc2[nH]5)C=C4)C=C3)cc1
REMARK SMILES IDX 33 1 32 2 31 3 30 4 29 5 28 6 27 7 25 8 26 9 24 10 9 11
REMARK SMILES IDX 10 12 11 13 23 14 8 16 3 17 4 18 5 19 7 20 6 21 2 22 1 23
REMARK SMILES IDX 12 24 13 25 14 26 22 27 15 28 21 29 16 30 20 31 17 32 19 33
REMARK SMILES IDX 18 34 34 35 35 36 36 37 37 38 38 39 39 40 40 41 41 42 42 43
REMARK SMILES IDX 43 44 89 45 44 46 88 47 45 48 46 49 47 50 82 51 48 52 87 53
REMARK SMILES IDX 81 54 83 55 49 56 86 57 80 58 79 59 50 61 72 62 57 63 71 64
REMARK SMILES IDX 58 65 61 66 70 67 84 68 59 69 60 70 69 72 85 73 62 74 51 75
REMARK SMILES IDX 52 76 56 77 53 78 55 79 54 80 73 81 74 82 78 83 75 84 77 85
REMARK SMILES IDX 76 86 63 87 64 88 68 89 65 90 67 91 66 92
REMARK H PARENT 11 15 83 60 61 71
REMARK Flexibility Score: inf
ROOT
ATOM      1  O   UNL A   1      32.739  35.298  30.512  1.00  0.00    -0.377 OA
ENDROOT
BRANCH   1   2
ATOM      2  C   UNL A   1      33.292  36.070  31.566  1.00  0.00     0.188 C 
BRANCH   2   3
ATOM      3  C   UNL A   1      34.326  35.603  32.608  1.00  0.00     0.188 C 
BRANCH   3   4
ATOM      4  O   UNL A   1      34.171  34.350  33.246  1.00  0.00    -0.376 OA
BRANCH   4   5
ATOM      5  C   UNL A   1      35.011  33.968  34.324  1.00  0.00     0.202 C 
BRANCH   5   6
ATOM      6  C   UNL A   1      36.316  33.227  34.059  1.00  0.00     0.261 C 
BRANCH   6   7
ATOM      7  O   UNL A   1      37.431  33.692  34.850  1.00  0.00    -0.463 OA
BRANCH   7   8
ATOM      8  C   UNL A   1      37.684  32.908  35.925  1.00  0.00     0.315 C 
ATOM      9  O   UNL A   1      37.654  31.676  35.872  1.00  0.00    -0.252 OA
BRANCH   8  10
ATOM     10  C   UNL A   1      38.009  33.580  37.246  1.00  0.00     0.167 C 
ATOM     11  C   UNL A   1      38.485  32.908  38.547  1.00  0.00     0.098 C 
ATOM     12  C   UNL A   1      39.413  33.978  39.147  1.00  0.00     0.272 C 
ATOM     13  N   UNL A   1      40.059  34.647  38.021  1.00  0.00    -0.329 N 
ATOM     14  C   UNL A   1      39.103  34.603  36.912  1.00  0.00     0.278 C 
ATOM     15  H   UNL A   1      40.274  35.611  38.275  1.00  0.00     0.348 HD
BRANCH  11  16
ATOM     16  C   UNL A   1      37.505  32.490  39.647  1.00  0.00     0.004 A 
ATOM     17  C   UNL A   1      37.876  31.980  40.901  1.00  0.00     0.122 A 
ATOM     18  C   UNL A   1      36.910  31.635  41.856  1.00  0.00     0.047 A 
ATOM     19  C   UNL A   1      35.551  31.748  41.555  1.00  0.00     0.004 A 
ATOM     20  C   UNL A   1      36.125  32.537  39.348  1.00  0.00     0.008 A 
ATOM     21  C   UNL A   1      35.160  32.170  40.290  1.00  0.00     0.001 A 
BRANCH  17  22
ATOM     22  O   UNL A   1      39.182  31.625  41.110  1.00  0.00    -0.496 OA
ATOM     23  C   UNL A   1      39.387  30.885  42.310  1.00  0.00     0.278 C 
ENDBRANCH  17  22
ENDBRANCH  11  16
BRANCH  13  24
ATOM     24  C   UNL A   1      41.393  34.139  37.679  1.00  0.00     0.321 C 
BRANCH  24  25
ATOM     25  C   UNL A   1      41.692  34.055  36.211  1.00  0.00     0.114 A 
ATOM     26  C   UNL A   1      41.872  35.098  35.322  1.00  0.00     0.122 A 
ATOM     27  N   UNL A   1      41.821  32.844  35.558  1.00  0.00    -0.228 NA
ATOM     28  N   UNL A   1      42.086  34.520  34.100  1.00  0.00    -0.306 N 
ATOM     29  C   UNL A   1      42.053  33.145  34.296  1.00  0.00     0.137 A 
ATOM     30  C   UNL A   1      42.267  35.124  32.859  1.00  0.00     0.096 A 
ATOM     31  C   UNL A   1      42.241  32.330  33.145  1.00  0.00     0.048 A 
ATOM     32  C   UNL A   1      42.408  34.356  31.762  1.00  0.00    -0.034 A 
ATOM     33  C   UNL A   1      42.404  32.901  31.935  1.00  0.00     0.009 A 
ATOM     34  C   UNL A   1      42.549  34.905  30.377  1.00  0.00     0.046 C 
ENDBRANCH  24  25
ENDBRANCH  13  24
ENDBRANCH   8  10
ENDBRANCH   7   8
ENDBRANCH   6   7
ENDBRANCH   5   6
ENDBRANCH   4   5
ENDBRANCH   3   4
ENDBRANCH   2   3
ENDBRANCH   1   2
BRANCH   1  35
ATOM     35  C   UNL A   1      33.239  35.429  29.203  1.00  0.00     0.188 C 
BRANCH  35  36
ATOM     36  C   UNL A   1      32.927  34.272  28.247  1.00  0.00     0.188 C 
BRANCH  36  37
ATOM     37  O   UNL A   1      33.907  33.240  28.263  1.00  0.00    -0.376 OA
BRANCH  37  38
ATOM     38  C   UNL A   1      35.234  33.591  27.899  1.00  0.00     0.202 C 
BRANCH  38  39
ATOM     39  C   UNL A   1      36.311  33.438  28.973  1.00  0.00     0.261 C 
BRANCH  39  40
ATOM     40  O   UNL A   1      36.566  32.110  29.418  1.00  0.00    -0.460 OA
BRANCH  40  41
ATOM     41  C   UNL A   1      36.069  31.738  30.609  1.00  0.00     0.338 C 
ATOM     42  O   UNL A   1      34.960  31.967  31.053  1.00  0.00    -0.246 OA
BRANCH  41  43
ATOM     43  C   UNL A   1      37.148  31.085  31.372  1.00  0.00     0.060 A 
ATOM     44  C   UNL A   1      38.422  31.636  31.243  1.00  0.00     0.016 A 
ATOM     45  C   UNL A   1      36.947  29.817  31.944  1.00  0.00     0.016 A 
ATOM     46  C   UNL A   1      39.507  30.808  31.429  1.00  0.00     0.010 A 
ATOM     47  C   UNL A   1      38.031  28.984  32.117  1.00  0.00     0.010 A 
ATOM     48  C   UNL A   1      39.283  29.462  31.744  1.00  0.00    -0.014 A 
BRANCH  48  49
ATOM     49  C   UNL A   1      40.376  28.552  31.479  1.00  0.00     0.031 A 
ATOM     50  C   UNL A   1      41.311  28.292  32.582  1.00  0.00     0.074 A 
ATOM     51  C   UNL A   1      40.570  28.002  30.269  1.00  0.00     0.049 A 
ATOM     52  N   UNL A   1      42.528  28.705  32.685  1.00  0.00    -0.248 NA
ATOM     53  C   UNL A   1      40.814  27.527  33.728  1.00  0.00     0.031 C 
ATOM     54  C   UNL A   1      39.643  27.918  29.137  1.00  0.00     0.029 A 
ATOM     55  N   UNL A   1      41.662  27.314  29.837  1.00  0.00    -0.354 N 
ATOM     56  C   UNL A   1      43.019  28.140  33.852  1.00  0.00     0.074 A 
ATOM     57  C   UNL A   1      41.896  27.508  34.507  1.00  0.00     0.031 C 
ATOM     58  C   UNL A   1      40.133  27.035  28.237  1.00  0.00     0.029 A 
ATOM     59  C   UNL A   1      41.456  26.611  28.666  1.00  0.00     0.049 A 
ATOM     60  H   UNL A   1      42.521  27.317  30.317  1.00  0.00     0.167 HD
ATOM     61  C   UNL A   1      44.349  28.078  34.123  1.00  0.00     0.031 A 
ATOM     62  C   UNL A   1      42.294  25.693  28.133  1.00  0.00     0.031 A 
ATOM     63  C   UNL A   1      45.135  28.926  33.269  1.00  0.00     0.049 A 
ATOM     64  C   UNL A   1      43.652  25.942  28.672  1.00  0.00     0.074 A 
ATOM     65  C   UNL A   1      45.195  30.284  33.029  1.00  0.00     0.029 A 
ATOM     66  N   UNL A   1      45.824  28.335  32.238  1.00  0.00    -0.354 N 
ATOM     67  N   UNL A   1      44.371  26.982  28.358  1.00  0.00    -0.248 NA
ATOM     68  C   UNL A   1      44.081  25.235  29.869  1.00  0.00     0.031 C 
ATOM     69  C   UNL A   1      45.509  30.407  31.645  1.00  0.00     0.029 A 
ATOM     70  C   UNL A   1      45.627  29.116  31.126  1.00  0.00     0.049 A 
ATOM     71  H   UNL A   1      46.357  27.509  32.287  1.00  0.00     0.167 HD
ATOM     72  C   UNL A   1      45.062  27.306  29.517  1.00  0.00     0.074 A 
ATOM     73  C   UNL A   1      44.945  26.125  30.366  1.00  0.00     0.031 C 
ATOM     74  C   UNL A   1      45.417  28.597  29.792  1.00  0.00     0.031 A 
BRANCH  61  75
ATOM     75  C   UNL A   1      44.963  27.008  34.971  1.00  0.00    -0.014 A 
ATOM     76  C   UNL A   1      45.277  25.768  34.395  1.00  0.00     0.009 A 
ATOM     77  C   UNL A   1      45.018  27.098  36.376  1.00  0.00     0.009 A 
ATOM     78  C   UNL A   1      45.610  24.665  35.188  1.00  0.00     0.001 A 
ATOM     79  C   UNL A   1      45.393  26.011  37.168  1.00  0.00     0.001 A 
ATOM     80  C   UNL A   1      45.669  24.789  36.574  1.00  0.00     0.000 A 
ENDBRANCH  61  75
BRANCH  62  81
ATOM     81  C   UNL A   1      41.925  24.472  27.390  1.00  0.00    -0.014 A 
ATOM     82  C   UNL A   1      42.631  24.083  26.244  1.00  0.00     0.009 A 
ATOM     83  C   UNL A   1      41.017  23.551  27.947  1.00  0.00     0.009 A 
ATOM     84  C   UNL A   1      42.454  22.806  25.694  1.00  0.00     0.001 A 
ATOM     85  C   UNL A   1      40.833  22.282  27.394  1.00  0.00     0.001 A 
ATOM     86  C   UNL A   1      41.562  21.904  26.273  1.00  0.00     0.000 A 
ENDBRANCH  62  81
BRANCH  74  87
ATOM     87  C   UNL A   1      45.248  29.617  28.691  1.00  0.00    -0.014 A 
ATOM     88  C   UNL A   1      46.299  29.954  27.818  1.00  0.00     0.009 A 
ATOM     89  C   UNL A   1      43.974  30.140  28.430  1.00  0.00     0.009 A 
ATOM     90  C   UNL A   1      46.090  30.821  26.743  1.00  0.00     0.001 A 
ATOM     91  C   UNL A   1      43.760  30.990  27.340  1.00  0.00     0.001 A 
ATOM     92  C   UNL A   1      44.820  31.336  26.502  1.00  0.00     0.000 A 
ENDBRANCH  74  87
ENDBRANCH  48  49
ENDBRANCH  41  43
ENDBRANCH  40  41
ENDBRANCH  39  40
ENDBRANCH  38  39
ENDBRANCH  37  38
ENDBRANCH  36  37
ENDBRANCH  35  36
ENDBRANCH   1  35
TORSDOF 24
ENDMDL
MODEL 3
REMARK VINA RESULT:      -7.2      2.706      6.644
REMARK SMILES COc1ccccc1[C@@H]1C[N@@H+](Cc2cn3cc(C)ccc3n2)C[C@H]1C(=O)OCCOCCOCCOCCOC(=O)c1ccc(-c2c3nc(c(-c4ccccc4)c4ccc([nH]4)c(-c4ccccc4)c4nc(c(-c5ccccc5)c5ccc2[nH]5)C=C4)C=C3)cc1
REMARK SMILES IDX 33 1 32 2 31 3 30 4 29 5 28 6 27 7 25 8 26 9 24 10 9 11
REMARK SMILES IDX 10 12 11 13 23 14 8 16 3 17 4 18 5 19 7 20 6 21 2 22 1 23
REMARK SMILES IDX 12 24 13 25 14 26 22 27 15 28 21 29 16 30 20 31 17 32 19 33
REMARK SMILES IDX 18 34 34 35 35 36 36 37 37 38 38 39 39 40 40 41 41 42 42 43
REMARK SMILES IDX 43 44 89 45 44 46 88 47 45 48 46 49 47 50 82 51 48 52 87 53
REMARK SMILES IDX 81 54 83 55 49 56 86 57 80 58 79 59 50 61 72 62 57 63 71 64
REMARK SMILES IDX 58 65 61 66 70 67 84 68 59 69 60 70 69 72 85 73 62 74 51 75
REMARK SMILES IDX 52 76 56 77 53 78 55 79 54 80 73 81 74 82 78 83 75 84 77 85
REMARK SMILES IDX 76 86 63 87 64 88 68 89 65 90 67 91 66 92
REMARK H PARENT 11 15 83 60 61 71
REMARK Flexibility Score: inf
ROOT
ATOM      1  O   UNL A   1      32.606  34.798  29.356  1.00  0.00    -0.377 OA
ENDROOT
BRANCH   1   2
ATOM      2  C   UNL A   1      32.921  35.894  30.199  1.00  0.00     0.188 C 
BRANCH   2   3
ATOM      3  C   UNL A   1      32.628  36.012  31.707  1.00  0.00     0.188 C 
BRANCH   3   4
ATOM      4  O   UNL A   1      32.830  34.899  32.556  1.00  0.00    -0.376 OA
BRANCH   4   5
ATOM      5  C   UNL A   1      34.135  34.417  32.836  1.00  0.00     0.202 C 
BRANCH   5   6
ATOM      6  C   UNL A   1      35.276  35.392  33.098  1.00  0.00     0.261 C 
BRANCH   6   7
ATOM      7  O   UNL A   1      36.367  34.834  33.863  1.00  0.00    -0.463 OA
BRANCH   7   8
ATOM      8  C   UNL A   1      37.435  34.500  33.101  1.00  0.00     0.315 C 
ATOM      9  O   UNL A   1      37.426  34.584  31.870  1.00  0.00    -0.252 OA
BRANCH   8  10
ATOM     10  C   UNL A   1      38.686  33.995  33.795  1.00  0.00     0.167 C 
ATOM     11  C   UNL A   1      39.906  34.820  34.243  1.00  0.00     0.098 C 
ATOM     12  C   UNL A   1      40.350  34.081  35.517  1.00  0.00     0.272 C 
ATOM     13  N   UNL A   1      39.134  33.585  36.155  1.00  0.00    -0.329 N 
ATOM     14  C   UNL A   1      38.182  33.316  35.074  1.00  0.00     0.278 C 
ATOM     15  H   UNL A   1      39.344  32.731  36.672  1.00  0.00     0.348 HD
BRANCH  11  16
ATOM     16  C   UNL A   1      41.145  34.980  33.357  1.00  0.00     0.004 A 
ATOM     17  C   UNL A   1      42.257  35.776  33.669  1.00  0.00     0.122 A 
ATOM     18  C   UNL A   1      43.357  35.853  32.803  1.00  0.00     0.047 A 
ATOM     19  C   UNL A   1      43.342  35.173  31.584  1.00  0.00     0.004 A 
ATOM     20  C   UNL A   1      41.131  34.351  32.092  1.00  0.00     0.008 A 
ATOM     21  C   UNL A   1      42.216  34.447  31.216  1.00  0.00     0.001 A 
BRANCH  17  22
ATOM     22  O   UNL A   1      42.175  36.642  34.727  1.00  0.00    -0.496 OA
ATOM     23  C   UNL A   1      43.209  36.465  35.691  1.00  0.00     0.278 C 
ENDBRANCH  17  22
ENDBRANCH  11  16
BRANCH  13  24
ATOM     24  C   UNL A   1      38.599  34.440  37.222  1.00  0.00     0.321 C 
BRANCH  24  25
ATOM     25  C   UNL A   1      38.022  33.713  38.399  1.00  0.00     0.114 A 
ATOM     26  C   UNL A   1      38.528  33.641  39.683  1.00  0.00     0.122 A 
ATOM     27  N   UNL A   1      36.847  32.990  38.309  1.00  0.00    -0.228 NA
ATOM     28  N   UNL A   1      37.669  32.839  40.384  1.00  0.00    -0.306 N 
ATOM     29  C   UNL A   1      36.656  32.473  39.507  1.00  0.00     0.137 A 
ATOM     30  C   UNL A   1      37.751  32.401  41.703  1.00  0.00     0.096 A 
ATOM     31  C   UNL A   1      35.643  31.616  40.020  1.00  0.00     0.048 A 
ATOM     32  C   UNL A   1      36.813  31.560  42.182  1.00  0.00    -0.034 A 
ATOM     33  C   UNL A   1      35.716  31.174  41.292  1.00  0.00     0.009 A 
ATOM     34  C   UNL A   1      36.841  30.986  43.564  1.00  0.00     0.046 C 
ENDBRANCH  24  25
ENDBRANCH  13  24
ENDBRANCH   8  10
ENDBRANCH   7   8
ENDBRANCH   6   7
ENDBRANCH   5   6
ENDBRANCH   4   5
ENDBRANCH   3   4
ENDBRANCH   2   3
ENDBRANCH   1   2
BRANCH   1  35
ATOM     35  C   UNL A   1      33.626  34.135  28.647  1.00  0.00     0.188 C 
BRANCH  35  36
ATOM     36  C   UNL A   1      34.516  33.199  29.472  1.00  0.00     0.188 C 
BRANCH  36  37
ATOM     37  O   UNL A   1      34.900  32.018  28.775  1.00  0.00    -0.376 OA
BRANCH  37  38
ATOM     38  C   UNL A   1      36.277  31.857  28.470  1.00  0.00     0.202 C 
BRANCH  38  39
ATOM     39  C   UNL A   1      37.172  31.304  29.579  1.00  0.00     0.261 C 
BRANCH  39  40
ATOM     40  O   UNL A   1      36.563  30.375  30.469  1.00  0.00    -0.460 OA
BRANCH  40  41
ATOM     41  C   UNL A   1      36.778  30.532  31.786  1.00  0.00     0.338 C 
ATOM     42  O   UNL A   1      36.167  31.248  32.556  1.00  0.00    -0.246 OA
BRANCH  41  43
ATOM     43  C   UNL A   1      37.982  29.761  32.149  1.00  0.00     0.060 A 
ATOM     44  C   UNL A   1      38.981  30.455  32.830  1.00  0.00     0.016 A 
ATOM     45  C   UNL A   1      38.219  28.500  31.575  1.00  0.00     0.016 A 
ATOM     46  C   UNL A   1      40.279  30.016  32.699  1.00  0.00     0.010 A 
ATOM     47  C   UNL A   1      39.519  28.068  31.431  1.00  0.00     0.010 A 
ATOM     48  C   UNL A   1      40.535  28.896  31.896  1.00  0.00    -0.014 A 
BRANCH  48  49
ATOM     49  C   UNL A   1      41.891  28.750  31.416  1.00  0.00     0.031 A 
ATOM     50  C   UNL A   1      42.304  29.616  30.303  1.00  0.00     0.074 A 
ATOM     51  C   UNL A   1      42.732  27.831  31.921  1.00  0.00     0.049 A 
ATOM     52  N   UNL A   1      42.517  29.266  29.081  1.00  0.00    -0.248 NA
ATOM     53  C   UNL A   1      42.444  31.049  30.574  1.00  0.00     0.031 C 
ATOM     54  C   UNL A   1      42.621  27.068  33.166  1.00  0.00     0.029 A 
ATOM     55  N   UNL A   1      43.940  27.451  31.422  1.00  0.00    -0.354 N 
ATOM     56  C   UNL A   1      42.959  30.409  28.433  1.00  0.00     0.074 A 
ATOM     57  C   UNL A   1      42.799  31.499  29.370  1.00  0.00     0.031 C 
ATOM     58  C   UNL A   1      43.812  26.485  33.428  1.00  0.00     0.029 A 
ATOM     59  C   UNL A   1      44.708  26.719  32.307  1.00  0.00     0.049 A 
ATOM     60  H   UNL A   1      44.239  27.678  30.512  1.00  0.00     0.167 HD
ATOM     61  C   UNL A   1      43.588  30.364  27.230  1.00  0.00     0.031 A 
ATOM     62  C   UNL A   1      46.011  26.396  32.148  1.00  0.00     0.031 A 
ATOM     63  C   UNL A   1      43.450  29.092  26.574  1.00  0.00     0.049 A 
ATOM     64  C   UNL A   1      46.330  26.464  30.702  1.00  0.00     0.074 A 
ATOM     65  C   UNL A   1      42.387  28.347  26.104  1.00  0.00     0.029 A 
ATOM     66  N   UNL A   1      44.522  28.233  26.608  1.00  0.00    -0.354 N 
ATOM     67  N   UNL A   1      45.870  25.620  29.824  1.00  0.00    -0.248 NA
ATOM     68  C   UNL A   1      46.853  27.704  30.149  1.00  0.00     0.031 C 
ATOM     69  C   UNL A   1      42.759  26.987  26.320  1.00  0.00     0.029 A 
ATOM     70  C   UNL A   1      44.027  26.988  26.904  1.00  0.00     0.049 A 
ATOM     71  H   UNL A   1      45.465  28.467  26.449  1.00  0.00     0.167 HD
ATOM     72  C   UNL A   1      45.659  26.370  28.676  1.00  0.00     0.074 A 
ATOM     73  C   UNL A   1      46.402  27.607  28.894  1.00  0.00     0.031 C 
ATOM     74  C   UNL A   1      44.675  26.041  27.785  1.00  0.00     0.031 A 
BRANCH  61  75
ATOM     75  C   UNL A   1      44.591  31.386  26.791  1.00  0.00    -0.014 A 
ATOM     76  C   UNL A   1      45.916  31.290  27.242  1.00  0.00     0.009 A 
ATOM     77  C   UNL A   1      44.216  32.578  26.141  1.00  0.00     0.009 A 
ATOM     78  C   UNL A   1      46.816  32.346  27.070  1.00  0.00     0.001 A 
ATOM     79  C   UNL A   1      45.124  33.617  25.929  1.00  0.00     0.001 A 
ATOM     80  C   UNL A   1      46.420  33.507  26.413  1.00  0.00     0.000 A 
ENDBRANCH  61  75
BRANCH  62  81
ATOM     81  C   UNL A   1      47.038  26.282  33.202  1.00  0.00    -0.014 A 
ATOM     82  C   UNL A   1      47.206  27.292  34.159  1.00  0.00     0.009 A 
ATOM     83  C   UNL A   1      47.703  25.059  33.414  1.00  0.00     0.009 A 
ATOM     84  C   UNL A   1      47.990  27.073  35.300  1.00  0.00     0.001 A 
ATOM     85  C   UNL A   1      48.493  24.844  34.545  1.00  0.00     0.001 A 
ATOM     86  C   UNL A   1      48.626  25.847  35.496  1.00  0.00     0.000 A 
ENDBRANCH  62  81
BRANCH  74  87
ATOM     87  C   UNL A   1      43.990  24.708  27.965  1.00  0.00    -0.014 A 
ATOM     88  C   UNL A   1      42.897  24.542  28.836  1.00  0.00     0.009 A 
ATOM     89  C   UNL A   1      44.348  23.635  27.137  1.00  0.00     0.009 A 
ATOM     90  C   UNL A   1      42.213  23.326  28.907  1.00  0.00     0.001 A 
ATOM     91  C   UNL A   1      43.649  22.425  27.192  1.00  0.00     0.001 A 
ATOM     92  C   UNL A   1      42.587  22.269  28.082  1.00  0.00     0.000 A 
ENDBRANCH  74  87
ENDBRANCH  48  49
ENDBRANCH  41  43
ENDBRANCH  40  41
ENDBRANCH  39  40
ENDBRANCH  38  39
ENDBRANCH  37  38
ENDBRANCH  36  37
ENDBRANCH  35  36
ENDBRANCH   1  35
TORSDOF 24
ENDMDL
