MODEL 1
REMARK VINA RESULT:     -10.7      0.000      0.000
REMARK SMILES O=C(OCCOCCOCCOCCOC(=O)c1ccc(-c2c3nc(c(-c4ccccc4)c4ccc([nH]4)c(-c4ccccc4)c4nc(c(-c5ccccc5)c5ccc2[nH]5)C=C4)C=C3)cc1)C1=Cc2cc(Cl)cc(-c3ccc(O)cc3)c2O[C@@H]1C(F)(F)F
REMARK SMILES IDX 9 1 8 2 7 3 6 4 5 5 4 6 3 7 2 8 1 9 66 10 67 11 83 12 68 13
REMARK SMILES IDX 82 14 69 15 81 16 70 17 73 18 71 19 72 20 84 21 85 22 86 23
REMARK SMILES IDX 87 24 74 25 75 26 80 27 76 28 79 29 77 30 78 31 10 33 11 34
REMARK SMILES IDX 12 35 13 36 14 37 15 38 16 39 17 40 18 41 19 42 65 43 20 44
REMARK SMILES IDX 64 45 21 46 22 47 23 48 58 49 24 50 63 51 57 52 59 53 25 54
REMARK SMILES IDX 62 55 56 56 55 57 26 59 48 60 33 61 47 62 34 63 37 64 46 65
REMARK SMILES IDX 60 66 35 67 36 68 45 70 61 71 38 72 27 73 28 74 32 75 29 76
REMARK SMILES IDX 31 77 30 78 49 79 50 80 54 81 51 82 53 83 52 84 39 85 40 86
REMARK SMILES IDX 44 87 41 88 43 89 42 90
REMARK H PARENT 78 32 59 58 37 69
REMARK Flexibility Score: inf
ROOT
ATOM      1  O   UNL A   1      33.603  30.631  27.781  1.00  0.00    -0.377 OA
ENDROOT
BRANCH   1   2
ATOM      2  C   UNL A   1      34.489  29.838  26.991  1.00  0.00     0.188 C 
BRANCH   2   3
ATOM      3  C   UNL A   1      33.750  28.780  26.180  1.00  0.00     0.188 C 
BRANCH   3   4
ATOM      4  O   UNL A   1      33.217  29.290  24.977  1.00  0.00    -0.376 OA
BRANCH   4   5
ATOM      5  C   UNL A   1      33.529  28.618  23.772  1.00  0.00     0.202 C 
BRANCH   5   6
ATOM      6  C   UNL A   1      32.357  28.241  22.856  1.00  0.00     0.261 C 
BRANCH   6   7
ATOM      7  O   UNL A   1      32.593  27.052  22.079  1.00  0.00    -0.460 OA
BRANCH   7   8
ATOM      8  C   UNL A   1      33.130  25.995  22.749  1.00  0.00     0.338 C 
ATOM      9  O   UNL A   1      34.293  25.646  22.612  1.00  0.00    -0.246 OA
BRANCH   8  10
ATOM     10  C   UNL A   1      32.130  25.247  23.577  1.00  0.00     0.087 C 
ATOM     11  C   UNL A   1      31.703  24.078  23.064  1.00  0.00     0.027 C 
ATOM     12  C   UNL A   1      32.354  25.313  25.055  1.00  0.00     0.316 C 
ATOM     13  C   UNL A   1      32.192  22.870  23.752  1.00  0.00     0.019 A 
ATOM     14  O   UNL A   1      33.133  24.180  25.537  1.00  0.00    -0.475 OA
ATOM     15  C   UNL A   1      31.920  21.594  23.258  1.00  0.00     0.032 A 
ATOM     16  C   UNL A   1      33.134  23.029  24.775  1.00  0.00     0.135 A 
ATOM     17  C   UNL A   1      32.659  20.508  23.727  1.00  0.00     0.042 A 
ATOM     18  C   UNL A   1      34.077  21.999  25.007  1.00  0.00     0.026 A 
ATOM     19  Cl  UNL A   1      32.287  18.918  23.191  1.00  0.00    -0.084 Cl
ATOM     20  C   UNL A   1      33.771  20.714  24.540  1.00  0.00     0.033 A 
BRANCH  12  21
ATOM     21  C   UNL A   1      31.072  25.706  25.802  1.00  0.00     0.430 C 
ATOM     22  F   UNL A   1      30.130  26.197  24.964  1.00  0.00    -0.167 F 
ATOM     23  F   UNL A   1      30.519  24.598  26.377  1.00  0.00    -0.167 F 
ATOM     24  F   UNL A   1      31.272  26.601  26.788  1.00  0.00    -0.167 F 
ENDBRANCH  12  21
BRANCH  18  25
ATOM     25  C   UNL A   1      35.487  22.268  25.373  1.00  0.00    -0.014 A 
ATOM     26  C   UNL A   1      36.447  21.232  25.229  1.00  0.00     0.012 A 
ATOM     27  C   UNL A   1      35.941  23.505  25.820  1.00  0.00     0.012 A 
ATOM     28  C   UNL A   1      37.815  21.450  25.437  1.00  0.00     0.047 A 
ATOM     29  C   UNL A   1      37.316  23.724  26.011  1.00  0.00     0.047 A 
ATOM     30  C   UNL A   1      38.243  22.709  25.808  1.00  0.00     0.115 A 
BRANCH  30  31
ATOM     31  O   UNL A   1      39.573  22.911  26.010  1.00  0.00    -0.508 OA
ATOM     32  H   UNL A   1      40.127  23.145  25.291  1.00  0.00     0.293 HD
ENDBRANCH  30  31
ENDBRANCH  18  25
ENDBRANCH   8  10
ENDBRANCH   7   8
ENDBRANCH   6   7
ENDBRANCH   5   6
ENDBRANCH   4   5
ENDBRANCH   3   4
ENDBRANCH   2   3
ENDBRANCH   1   2
BRANCH   1  33
ATOM     33  C   UNL A   1      33.871  32.031  27.777  1.00  0.00     0.188 C 
BRANCH  33  34
ATOM     34  C   UNL A   1      32.650  32.939  27.505  1.00  0.00     0.188 C 
BRANCH  34  35
ATOM     35  O   UNL A   1      32.510  34.235  28.068  1.00  0.00    -0.376 OA
BRANCH  35  36
ATOM     36  C   UNL A   1      33.433  34.638  29.055  1.00  0.00     0.202 C 
BRANCH  36  37
ATOM     37  C   UNL A   1      32.984  35.847  29.895  1.00  0.00     0.261 C 
BRANCH  37  38
ATOM     38  O   UNL A   1      32.219  35.534  31.081  1.00  0.00    -0.460 OA
BRANCH  38  39
ATOM     39  C   UNL A   1      32.702  35.968  32.278  1.00  0.00     0.338 C 
ATOM     40  O   UNL A   1      32.230  36.828  32.979  1.00  0.00    -0.246 OA
BRANCH  39  41
ATOM     41  C   UNL A   1      33.873  35.107  32.671  1.00  0.00     0.060 A 
ATOM     42  C   UNL A   1      35.173  35.626  32.553  1.00  0.00     0.016 A 
ATOM     43  C   UNL A   1      33.714  33.813  33.181  1.00  0.00     0.016 A 
ATOM     44  C   UNL A   1      36.302  34.865  32.932  1.00  0.00     0.010 A 
ATOM     45  C   UNL A   1      34.841  33.056  33.557  1.00  0.00     0.010 A 
ATOM     46  C   UNL A   1      36.154  33.563  33.431  1.00  0.00    -0.014 A 
BRANCH  46  47
ATOM     47  C   UNL A   1      37.314  32.638  33.664  1.00  0.00     0.031 A 
ATOM     48  C   UNL A   1      38.249  32.953  34.800  1.00  0.00     0.074 A 
ATOM     49  C   UNL A   1      37.621  31.574  32.890  1.00  0.00     0.049 A 
ATOM     50  N   UNL A   1      39.381  32.380  35.120  1.00  0.00    -0.248 NA
ATOM     51  C   UNL A   1      37.834  34.031  35.710  1.00  0.00     0.031 C 
ATOM     52  C   UNL A   1      36.781  30.994  31.858  1.00  0.00     0.029 A 
ATOM     53  N   UNL A   1      38.773  30.813  32.820  1.00  0.00    -0.354 N 
ATOM     54  C   UNL A   1      39.789  32.993  36.294  1.00  0.00     0.074 A 
ATOM     55  C   UNL A   1      38.830  34.039  36.581  1.00  0.00     0.031 C 
ATOM     56  C   UNL A   1      37.487  30.098  31.143  1.00  0.00     0.029 A 
ATOM     57  C   UNL A   1      38.823  29.986  31.715  1.00  0.00     0.049 A 
ATOM     58  H   UNL A   1      39.489  30.858  33.493  1.00  0.00     0.167 HD
ATOM     59  C   UNL A   1      40.837  32.686  37.091  1.00  0.00     0.031 A 
ATOM     60  C   UNL A   1      39.819  29.224  31.216  1.00  0.00     0.031 A 
ATOM     61  C   UNL A   1      41.812  31.667  36.820  1.00  0.00     0.049 A 
ATOM     62  C   UNL A   1      41.094  29.064  32.000  1.00  0.00     0.074 A 
ATOM     63  C   UNL A   1      42.878  31.269  37.610  1.00  0.00     0.029 A 
ATOM     64  N   UNL A   1      41.864  30.905  35.667  1.00  0.00    -0.354 N 
ATOM     65  N   UNL A   1      41.413  29.575  33.162  1.00  0.00    -0.248 NA
ATOM     66  C   UNL A   1      42.122  28.169  31.439  1.00  0.00     0.031 C 
ATOM     67  C   UNL A   1      43.619  30.321  36.899  1.00  0.00     0.029 A 
ATOM     68  C   UNL A   1      42.978  30.082  35.696  1.00  0.00     0.049 A 
ATOM     69  H   UNL A   1      41.206  30.941  34.934  1.00  0.00     0.167 HD
ATOM     70  C   UNL A   1      42.633  29.005  33.506  1.00  0.00     0.074 A 
ATOM     71  C   UNL A   1      43.006  28.119  32.425  1.00  0.00     0.031 C 
ATOM     72  C   UNL A   1      43.359  29.187  34.634  1.00  0.00     0.031 A 
BRANCH  59  73
ATOM     73  C   UNL A   1      40.980  33.482  38.353  1.00  0.00    -0.014 A 
ATOM     74  C   UNL A   1      40.319  33.090  39.529  1.00  0.00     0.009 A 
ATOM     75  C   UNL A   1      41.807  34.614  38.375  1.00  0.00     0.009 A 
ATOM     76  C   UNL A   1      40.461  33.839  40.696  1.00  0.00     0.001 A 
ATOM     77  C   UNL A   1      41.967  35.344  39.551  1.00  0.00     0.001 A 
ATOM     78  C   UNL A   1      41.287  34.962  40.708  1.00  0.00     0.000 A 
ENDBRANCH  59  73
BRANCH  60  79
ATOM     79  C   UNL A   1      39.684  28.534  29.899  1.00  0.00    -0.014 A 
ATOM     80  C   UNL A   1      39.328  27.179  29.824  1.00  0.00     0.009 A 
ATOM     81  C   UNL A   1      40.041  29.204  28.717  1.00  0.00     0.009 A 
ATOM     82  C   UNL A   1      39.389  26.495  28.605  1.00  0.00     0.001 A 
ATOM     83  C   UNL A   1      40.076  28.523  27.496  1.00  0.00     0.001 A 
ATOM     84  C   UNL A   1      39.767  27.165  27.443  1.00  0.00     0.000 A 
ENDBRANCH  60  79
BRANCH  72  85
ATOM     85  C   UNL A   1      44.616  28.380  34.801  1.00  0.00    -0.014 A 
ATOM     86  C   UNL A   1      45.866  28.874  34.396  1.00  0.00     0.009 A 
ATOM     87  C   UNL A   1      44.555  27.125  35.430  1.00  0.00     0.009 A 
ATOM     88  C   UNL A   1      47.023  28.117  34.594  1.00  0.00     0.001 A 
ATOM     89  C   UNL A   1      45.718  26.387  35.658  1.00  0.00     0.001 A 
ATOM     90  C   UNL A   1      46.949  26.879  35.232  1.00  0.00     0.000 A 
ENDBRANCH  72  85
ENDBRANCH  46  47
ENDBRANCH  39  41
ENDBRANCH  38  39
ENDBRANCH  37  38
ENDBRANCH  36  37
ENDBRANCH  35  36
ENDBRANCH  34  35
ENDBRANCH  33  34
ENDBRANCH   1  33
TORSDOF 23
ENDMDL
MODEL 2
REMARK VINA RESULT:     -10.2      1.807      6.051
REMARK SMILES O=C(OCCOCCOCCOCCOC(=O)c1ccc(-c2c3nc(c(-c4ccccc4)c4ccc([nH]4)c(-c4ccccc4)c4nc(c(-c5ccccc5)c5ccc2[nH]5)C=C4)C=C3)cc1)C1=Cc2cc(Cl)cc(-c3ccc(O)cc3)c2O[C@@H]1C(F)(F)F
REMARK SMILES IDX 9 1 8 2 7 3 6 4 5 5 4 6 3 7 2 8 1 9 66 10 67 11 83 12 68 13
REMARK SMILES IDX 82 14 69 15 81 16 70 17 73 18 71 19 72 20 84 21 85 22 86 23
REMARK SMILES IDX 87 24 74 25 75 26 80 27 76 28 79 29 77 30 78 31 10 33 11 34
REMARK SMILES IDX 12 35 13 36 14 37 15 38 16 39 17 40 18 41 19 42 65 43 20 44
REMARK SMILES IDX 64 45 21 46 22 47 23 48 58 49 24 50 63 51 57 52 59 53 25 54
REMARK SMILES IDX 62 55 56 56 55 57 26 59 48 60 33 61 47 62 34 63 37 64 46 65
REMARK SMILES IDX 60 66 35 67 36 68 45 70 61 71 38 72 27 73 28 74 32 75 29 76
REMARK SMILES IDX 31 77 30 78 49 79 50 80 54 81 51 82 53 83 52 84 39 85 40 86
REMARK SMILES IDX 44 87 41 88 43 89 42 90
REMARK H PARENT 78 32 59 58 37 69
REMARK Flexibility Score: inf
ROOT
ATOM      1  O   UNL A   1      32.014  28.077  24.491  1.00  0.00    -0.377 OA
ENDROOT
BRANCH   1   2
ATOM      2  C   UNL A   1      32.652  28.266  25.755  1.00  0.00     0.188 C 
BRANCH   2   3
ATOM      3  C   UNL A   1      33.647  27.156  26.071  1.00  0.00     0.188 C 
BRANCH   3   4
ATOM      4  O   UNL A   1      33.451  26.005  25.278  1.00  0.00    -0.376 OA
BRANCH   4   5
ATOM      5  C   UNL A   1      34.292  25.817  24.157  1.00  0.00     0.202 C 
BRANCH   5   6
ATOM      6  C   UNL A   1      33.633  25.851  22.772  1.00  0.00     0.261 C 
BRANCH   6   7
ATOM      7  O   UNL A   1      32.516  24.952  22.644  1.00  0.00    -0.460 OA
BRANCH   7   8
ATOM      8  C   UNL A   1      32.821  23.629  22.532  1.00  0.00     0.338 C 
ATOM      9  O   UNL A   1      33.603  23.199  21.699  1.00  0.00    -0.246 OA
BRANCH   8  10
ATOM     10  C   UNL A   1      32.023  22.756  23.452  1.00  0.00     0.087 C 
ATOM     11  C   UNL A   1      31.824  21.492  23.033  1.00  0.00     0.027 C 
ATOM     12  C   UNL A   1      32.282  22.968  24.911  1.00  0.00     0.316 C 
ATOM     13  C   UNL A   1      32.572  20.457  23.768  1.00  0.00     0.019 A 
ATOM     14  O   UNL A   1      33.292  22.049  25.422  1.00  0.00    -0.475 OA
ATOM     15  C   UNL A   1      32.547  19.121  23.366  1.00  0.00     0.032 A 
ATOM     16  C   UNL A   1      33.498  20.872  24.732  1.00  0.00     0.135 A 
ATOM     17  C   UNL A   1      33.507  18.240  23.864  1.00  0.00     0.042 A 
ATOM     18  C   UNL A   1      34.639  20.070  24.979  1.00  0.00     0.026 A 
ATOM     19  Cl  UNL A   1      33.446  16.574  23.443  1.00  0.00    -0.084 Cl
ATOM     20  C   UNL A   1      34.583  18.720  24.606  1.00  0.00     0.033 A 
BRANCH  12  21
ATOM     21  C   UNL A   1      30.975  23.147  25.695  1.00  0.00     0.430 C 
ATOM     22  F   UNL A   1      31.202  23.451  26.993  1.00  0.00    -0.167 F 
ATOM     23  F   UNL A   1      30.274  24.200  25.182  1.00  0.00    -0.167 F 
ATOM     24  F   UNL A   1      30.163  22.073  25.646  1.00  0.00    -0.167 F 
ENDBRANCH  12  21
BRANCH  18  25
ATOM     25  C   UNL A   1      35.977  20.639  25.258  1.00  0.00    -0.014 A 
ATOM     26  C   UNL A   1      37.131  19.863  24.975  1.00  0.00     0.012 A 
ATOM     27  C   UNL A   1      36.176  21.925  25.753  1.00  0.00     0.012 A 
ATOM     28  C   UNL A   1      38.427  20.381  25.097  1.00  0.00     0.047 A 
ATOM     29  C   UNL A   1      37.476  22.447  25.857  1.00  0.00     0.047 A 
ATOM     30  C   UNL A   1      38.588  21.685  25.519  1.00  0.00     0.115 A 
BRANCH  30  31
ATOM     31  O   UNL A   1      39.850  22.181  25.637  1.00  0.00    -0.508 OA
ATOM     32  H   UNL A   1      40.526  21.656  26.019  1.00  0.00     0.293 HD
ENDBRANCH  30  31
ENDBRANCH  18  25
ENDBRANCH   8  10
ENDBRANCH   7   8
ENDBRANCH   6   7
ENDBRANCH   5   6
ENDBRANCH   4   5
ENDBRANCH   3   4
ENDBRANCH   2   3
ENDBRANCH   1   2
BRANCH   1  33
ATOM     33  C   UNL A   1      31.445  29.249  23.915  1.00  0.00     0.188 C 
BRANCH  33  34
ATOM     34  C   UNL A   1      30.574  30.100  24.868  1.00  0.00     0.188 C 
BRANCH  34  35
ATOM     35  O   UNL A   1      30.929  31.413  25.275  1.00  0.00    -0.376 OA
BRANCH  35  36
ATOM     36  C   UNL A   1      31.506  31.584  26.550  1.00  0.00     0.202 C 
BRANCH  36  37
ATOM     37  C   UNL A   1      31.742  33.051  26.953  1.00  0.00     0.261 C 
BRANCH  37  38
ATOM     38  O   UNL A   1      33.106  33.399  27.278  1.00  0.00    -0.460 OA
BRANCH  38  39
ATOM     39  C   UNL A   1      33.318  34.162  28.386  1.00  0.00     0.338 C 
ATOM     40  O   UNL A   1      32.596  35.027  28.816  1.00  0.00    -0.246 OA
BRANCH  39  41
ATOM     41  C   UNL A   1      34.556  33.670  29.087  1.00  0.00     0.060 A 
ATOM     42  C   UNL A   1      35.809  34.160  28.684  1.00  0.00     0.016 A 
ATOM     43  C   UNL A   1      34.505  32.762  30.150  1.00  0.00     0.016 A 
ATOM     44  C   UNL A   1      36.998  33.747  29.327  1.00  0.00     0.010 A 
ATOM     45  C   UNL A   1      35.690  32.350  30.790  1.00  0.00     0.010 A 
ATOM     46  C   UNL A   1      36.958  32.827  30.385  1.00  0.00    -0.014 A 
BRANCH  46  47
ATOM     47  C   UNL A   1      38.190  32.203  30.975  1.00  0.00     0.031 A 
ATOM     48  C   UNL A   1      38.753  30.982  30.301  1.00  0.00     0.074 A 
ATOM     49  C   UNL A   1      38.798  32.618  32.108  1.00  0.00     0.049 A 
ATOM     50  N   UNL A   1      39.727  30.199  30.691  1.00  0.00    -0.248 NA
ATOM     51  C   UNL A   1      38.164  30.620  29.004  1.00  0.00     0.031 C 
ATOM     52  C   UNL A   1      38.532  33.854  32.821  1.00  0.00     0.029 A 
ATOM     53  N   UNL A   1      39.749  32.000  32.899  1.00  0.00    -0.354 N 
ATOM     54  C   UNL A   1      39.900  29.283  29.667  1.00  0.00     0.074 A 
ATOM     55  C   UNL A   1      38.875  29.552  28.679  1.00  0.00     0.031 C 
ATOM     56  C   UNL A   1      39.152  33.836  34.015  1.00  0.00     0.029 A 
ATOM     57  C   UNL A   1      39.926  32.607  34.126  1.00  0.00     0.049 A 
ATOM     58  H   UNL A   1      40.250  31.203  32.613  1.00  0.00     0.167 HD
ATOM     59  C   UNL A   1      40.852  28.333  29.530  1.00  0.00     0.031 A 
ATOM     60  C   UNL A   1      40.627  32.227  35.215  1.00  0.00     0.031 A 
ATOM     61  C   UNL A   1      41.867  28.033  30.501  1.00  0.00     0.049 A 
ATOM     62  C   UNL A   1      41.523  31.019  35.137  1.00  0.00     0.074 A 
ATOM     63  C   UNL A   1      42.897  27.112  30.408  1.00  0.00     0.029 A 
ATOM     64  N   UNL A   1      41.968  28.620  31.749  1.00  0.00    -0.354 N 
ATOM     65  N   UNL A   1      41.747  30.228  34.118  1.00  0.00    -0.248 NA
ATOM     66  C   UNL A   1      42.315  30.689  36.335  1.00  0.00     0.031 C 
ATOM     67  C   UNL A   1      43.573  27.087  31.631  1.00  0.00     0.029 A 
ATOM     68  C   UNL A   1      43.005  28.038  32.461  1.00  0.00     0.049 A 
ATOM     69  H   UNL A   1      41.390  29.345  32.083  1.00  0.00     0.167 HD
ATOM     70  C   UNL A   1      42.757  29.363  34.524  1.00  0.00     0.074 A 
ATOM     71  C   UNL A   1      43.093  29.714  35.886  1.00  0.00     0.031 C 
ATOM     72  C   UNL A   1      43.362  28.383  33.812  1.00  0.00     0.031 A 
BRANCH  59  73
ATOM     73  C   UNL A   1      40.834  27.537  28.259  1.00  0.00    -0.014 A 
ATOM     74  C   UNL A   1      41.535  27.978  27.125  1.00  0.00     0.009 A 
ATOM     75  C   UNL A   1      40.137  26.322  28.207  1.00  0.00     0.009 A 
ATOM     76  C   UNL A   1      41.509  27.228  25.950  1.00  0.00     0.001 A 
ATOM     77  C   UNL A   1      40.137  25.562  27.039  1.00  0.00     0.001 A 
ATOM     78  C   UNL A   1      40.816  26.020  25.909  1.00  0.00     0.000 A 
ENDBRANCH  59  73
BRANCH  60  79
ATOM     79  C   UNL A   1      40.535  32.980  36.501  1.00  0.00    -0.014 A 
ATOM     80  C   UNL A   1      41.529  33.896  36.878  1.00  0.00     0.009 A 
ATOM     81  C   UNL A   1      39.510  32.684  37.415  1.00  0.00     0.009 A 
ATOM     82  C   UNL A   1      41.533  34.453  38.161  1.00  0.00     0.001 A 
ATOM     83  C   UNL A   1      39.503  33.263  38.688  1.00  0.00     0.001 A 
ATOM     84  C   UNL A   1      40.524  34.133  39.067  1.00  0.00     0.000 A 
ENDBRANCH  60  79
BRANCH  72  85
ATOM     85  C   UNL A   1      44.495  27.638  34.461  1.00  0.00    -0.014 A 
ATOM     86  C   UNL A   1      44.294  26.403  35.096  1.00  0.00     0.009 A 
ATOM     87  C   UNL A   1      45.798  28.156  34.384  1.00  0.00     0.009 A 
ATOM     88  C   UNL A   1      45.370  25.715  35.661  1.00  0.00     0.001 A 
ATOM     89  C   UNL A   1      46.877  27.450  34.919  1.00  0.00     0.001 A 
ATOM     90  C   UNL A   1      46.662  26.234  35.564  1.00  0.00     0.000 A 
ENDBRANCH  72  85
ENDBRANCH  46  47
ENDBRANCH  39  41
ENDBRANCH  38  39
ENDBRANCH  37  38
ENDBRANCH  36  37
ENDBRANCH  35  36
ENDBRANCH  34  35
ENDBRANCH  33  34
ENDBRANCH   1  33
TORSDOF 23
ENDMDL
MODEL 3
REMARK VINA RESULT:      -9.9      5.409     11.685
REMARK SMILES O=C(OCCOCCOCCOCCOC(=O)c1ccc(-c2c3nc(c(-c4ccccc4)c4ccc([nH]4)c(-c4ccccc4)c4nc(c(-c5ccccc5)c5ccc2[nH]5)C=C4)C=C3)cc1)C1=Cc2cc(Cl)cc(-c3ccc(O)cc3)c2O[C@@H]1C(F)(F)F
REMARK SMILES IDX 9 1 8 2 7 3 6 4 5 5 4 6 3 7 2 8 1 9 66 10 67 11 83 12 68 13
REMARK SMILES IDX 82 14 69 15 81 16 70 17 73 18 71 19 72 20 84 21 85 22 86 23
REMARK SMILES IDX 87 24 74 25 75 26 80 27 76 28 79 29 77 30 78 31 10 33 11 34
REMARK SMILES IDX 12 35 13 36 14 37 15 38 16 39 17 40 18 41 19 42 65 43 20 44
REMARK SMILES IDX 64 45 21 46 22 47 23 48 58 49 24 50 63 51 57 52 59 53 25 54
REMARK SMILES IDX 62 55 56 56 55 57 26 59 48 60 33 61 47 62 34 63 37 64 46 65
REMARK SMILES IDX 60 66 35 67 36 68 45 70 61 71 38 72 27 73 28 74 32 75 29 76
REMARK SMILES IDX 31 77 30 78 49 79 50 80 54 81 51 82 53 83 52 84 39 85 40 86
REMARK SMILES IDX 44 87 41 88 43 89 42 90
REMARK H PARENT 78 32 59 58 37 69
REMARK Flexibility Score: inf
ROOT
ATOM      1  O   UNL A   1      41.052  21.812  27.545  1.00  0.00    -0.377 OA
ENDROOT
BRANCH   1   2
ATOM      2  C   UNL A   1      40.263  22.963  27.244  1.00  0.00     0.188 C 
BRANCH   2   3
ATOM      3  C   UNL A   1      40.954  24.260  27.649  1.00  0.00     0.188 C 
BRANCH   3   4
ATOM      4  O   UNL A   1      40.656  25.331  26.779  1.00  0.00    -0.376 OA
BRANCH   4   5
ATOM      5  C   UNL A   1      40.307  26.577  27.351  1.00  0.00     0.202 C 
BRANCH   5   6
ATOM      6  C   UNL A   1      41.389  27.665  27.373  1.00  0.00     0.261 C 
BRANCH   6   7
ATOM      7  O   UNL A   1      40.859  29.002  27.423  1.00  0.00    -0.460 OA
BRANCH   7   8
ATOM      8  C   UNL A   1      39.671  29.152  28.072  1.00  0.00     0.338 C 
ATOM      9  O   UNL A   1      38.616  29.339  27.486  1.00  0.00    -0.246 OA
BRANCH   8  10
ATOM     10  C   UNL A   1      39.808  29.174  29.564  1.00  0.00     0.087 C 
ATOM     11  C   UNL A   1      40.698  30.056  30.057  1.00  0.00     0.027 C 
ATOM     12  C   UNL A   1      38.531  28.984  30.321  1.00  0.00     0.316 C 
ATOM     13  C   UNL A   1      40.118  31.218  30.753  1.00  0.00     0.019 A 
ATOM     14  O   UNL A   1      37.914  30.256  30.673  1.00  0.00    -0.475 OA
ATOM     15  C   UNL A   1      40.919  32.264  31.211  1.00  0.00     0.032 A 
ATOM     16  C   UNL A   1      38.726  31.370  30.734  1.00  0.00     0.135 A 
ATOM     17  C   UNL A   1      40.326  33.478  31.557  1.00  0.00     0.042 A 
ATOM     18  C   UNL A   1      38.177  32.674  30.778  1.00  0.00     0.026 A 
ATOM     19  Cl  UNL A   1      41.285  34.752  32.199  1.00  0.00    -0.084 Cl
ATOM     20  C   UNL A   1      38.981  33.707  31.280  1.00  0.00     0.033 A 
BRANCH  12  21
ATOM     21  C   UNL A   1      38.674  27.903  31.401  1.00  0.00     0.430 C 
ATOM     22  F   UNL A   1      39.814  28.048  32.114  1.00  0.00    -0.167 F 
ATOM     23  F   UNL A   1      37.653  28.016  32.301  1.00  0.00    -0.167 F 
ATOM     24  F   UNL A   1      38.633  26.646  30.918  1.00  0.00    -0.167 F 
ENDBRANCH  12  21
BRANCH  18  25
ATOM     25  C   UNL A   1      36.975  33.066  30.007  1.00  0.00    -0.014 A 
ATOM     26  C   UNL A   1      35.862  33.615  30.695  1.00  0.00     0.012 A 
ATOM     27  C   UNL A   1      36.885  32.964  28.622  1.00  0.00     0.012 A 
ATOM     28  C   UNL A   1      34.744  34.122  30.020  1.00  0.00     0.047 A 
ATOM     29  C   UNL A   1      35.770  33.490  27.947  1.00  0.00     0.047 A 
ATOM     30  C   UNL A   1      34.718  34.074  28.641  1.00  0.00     0.115 A 
BRANCH  30  31
ATOM     31  O   UNL A   1      33.627  34.567  27.992  1.00  0.00    -0.508 OA
ATOM     32  H   UNL A   1      32.782  34.523  28.396  1.00  0.00     0.293 HD
ENDBRANCH  30  31
ENDBRANCH  18  25
ENDBRANCH   8  10
ENDBRANCH   7   8
ENDBRANCH   6   7
ENDBRANCH   5   6
ENDBRANCH   4   5
ENDBRANCH   3   4
ENDBRANCH   2   3
ENDBRANCH   1   2
BRANCH   1  33
ATOM     33  C   UNL A   1      41.896  21.360  26.490  1.00  0.00     0.188 C 
BRANCH  33  34
ATOM     34  C   UNL A   1      41.966  19.826  26.309  1.00  0.00     0.188 C 
BRANCH  34  35
ATOM     35  O   UNL A   1      42.516  19.208  25.154  1.00  0.00    -0.376 OA
BRANCH  35  36
ATOM     36  C   UNL A   1      43.868  18.810  25.190  1.00  0.00     0.202 C 
BRANCH  36  37
ATOM     37  C   UNL A   1      44.787  19.585  24.228  1.00  0.00     0.261 C 
BRANCH  37  38
ATOM     38  O   UNL A   1      45.260  20.864  24.707  1.00  0.00    -0.460 OA
BRANCH  38  39
ATOM     39  C   UNL A   1      44.800  21.983  24.082  1.00  0.00     0.338 C 
ATOM     40  O   UNL A   1      44.278  22.040  22.997  1.00  0.00    -0.246 OA
BRANCH  39  41
ATOM     41  C   UNL A   1      44.928  23.152  25.021  1.00  0.00     0.060 A 
ATOM     42  C   UNL A   1      46.085  23.274  25.807  1.00  0.00     0.016 A 
ATOM     43  C   UNL A   1      43.947  24.145  25.119  1.00  0.00     0.016 A 
ATOM     44  C   UNL A   1      46.263  24.367  26.686  1.00  0.00     0.010 A 
ATOM     45  C   UNL A   1      44.125  25.234  25.996  1.00  0.00     0.010 A 
ATOM     46  C   UNL A   1      45.280  25.360  26.801  1.00  0.00    -0.014 A 
BRANCH  46  47
ATOM     47  C   UNL A   1      45.318  26.433  27.851  1.00  0.00     0.031 A 
ATOM     48  C   UNL A   1      45.000  26.044  29.268  1.00  0.00     0.074 A 
ATOM     49  C   UNL A   1      45.556  27.742  27.609  1.00  0.00     0.049 A 
ATOM     50  N   UNL A   1      44.847  26.808  30.320  1.00  0.00    -0.248 NA
ATOM     51  C   UNL A   1      44.872  24.604  29.538  1.00  0.00     0.031 C 
ATOM     52  C   UNL A   1      46.043  28.309  26.365  1.00  0.00     0.029 A 
ATOM     53  N   UNL A   1      45.363  28.854  28.406  1.00  0.00    -0.354 N 
ATOM     54  C   UNL A   1      44.654  25.942  31.383  1.00  0.00     0.074 A 
ATOM     55  C   UNL A   1      44.622  24.601  30.838  1.00  0.00     0.031 C 
ATOM     56  C   UNL A   1      45.950  29.651  26.407  1.00  0.00     0.029 A 
ATOM     57  C   UNL A   1      45.458  30.048  27.719  1.00  0.00     0.049 A 
ATOM     58  H   UNL A   1      45.176  28.800  29.370  1.00  0.00     0.167 HD
ATOM     59  C   UNL A   1      44.560  26.226  32.703  1.00  0.00     0.031 A 
ATOM     60  C   UNL A   1      45.186  31.316  28.094  1.00  0.00     0.031 A 
ATOM     61  C   UNL A   1      44.570  27.546  33.267  1.00  0.00     0.049 A 
ATOM     62  C   UNL A   1      44.850  31.609  29.532  1.00  0.00     0.074 A 
ATOM     63  C   UNL A   1      44.526  27.907  34.603  1.00  0.00     0.029 A 
ATOM     64  N   UNL A   1      44.599  28.721  32.537  1.00  0.00    -0.354 N 
ATOM     65  N   UNL A   1      44.775  30.780  30.543  1.00  0.00    -0.248 NA
ATOM     66  C   UNL A   1      44.625  33.018  29.899  1.00  0.00     0.031 C 
ATOM     67  C   UNL A   1      44.449  29.301  34.677  1.00  0.00     0.029 A 
ATOM     68  C   UNL A   1      44.512  29.809  33.391  1.00  0.00     0.049 A 
ATOM     69  H   UNL A   1      44.672  28.776  31.556  1.00  0.00     0.167 HD
ATOM     70  C   UNL A   1      44.578  31.570  31.669  1.00  0.00     0.074 A 
ATOM     71  C   UNL A   1      44.528  32.944  31.219  1.00  0.00     0.031 C 
ATOM     72  C   UNL A   1      44.472  31.182  32.962  1.00  0.00     0.031 A 
BRANCH  59  73
ATOM     73  C   UNL A   1      44.435  25.060  33.636  1.00  0.00    -0.014 A 
ATOM     74  C   UNL A   1      45.567  24.323  34.022  1.00  0.00     0.009 A 
ATOM     75  C   UNL A   1      43.181  24.715  34.158  1.00  0.00     0.009 A 
ATOM     76  C   UNL A   1      45.437  23.241  34.891  1.00  0.00     0.001 A 
ATOM     77  C   UNL A   1      43.059  23.649  35.048  1.00  0.00     0.001 A 
ATOM     78  C   UNL A   1      44.185  22.908  35.407  1.00  0.00     0.000 A 
ENDBRANCH  59  73
BRANCH  60  79
ATOM     79  C   UNL A   1      45.210  32.440  27.111  1.00  0.00    -0.014 A 
ATOM     80  C   UNL A   1      46.337  33.268  26.985  1.00  0.00     0.009 A 
ATOM     81  C   UNL A   1      44.051  32.764  26.388  1.00  0.00     0.009 A 
ATOM     82  C   UNL A   1      46.282  34.426  26.203  1.00  0.00     0.001 A 
ATOM     83  C   UNL A   1      44.009  33.910  25.587  1.00  0.00     0.001 A 
ATOM     84  C   UNL A   1      45.118  34.750  25.508  1.00  0.00     0.000 A 
ENDBRANCH  60  79
BRANCH  72  85
ATOM     85  C   UNL A   1      44.344  32.252  34.010  1.00  0.00    -0.014 A 
ATOM     86  C   UNL A   1      43.092  32.739  34.414  1.00  0.00     0.009 A 
ATOM     87  C   UNL A   1      45.498  32.738  34.647  1.00  0.00     0.009 A 
ATOM     88  C   UNL A   1      42.999  33.708  35.415  1.00  0.00     0.001 A 
ATOM     89  C   UNL A   1      45.400  33.682  35.672  1.00  0.00     0.001 A 
ATOM     90  C   UNL A   1      44.152  34.172  36.049  1.00  0.00     0.000 A 
ENDBRANCH  72  85
ENDBRANCH  46  47
ENDBRANCH  39  41
ENDBRANCH  38  39
ENDBRANCH  37  38
ENDBRANCH  36  37
ENDBRANCH  35  36
ENDBRANCH  34  35
ENDBRANCH  33  34
ENDBRANCH   1  33
TORSDOF 23
ENDMDL
