MODEL 1
REMARK VINA RESULT:      -9.4      0.000      0.000
REMARK SMILES CCc1ncc(C[N@H+]2CCC[C@@H](c3cccc(C(=O)OCCOCCOCCOCCOC(=O)c4ccc(-c5c6nc(c(-c7ccccc7)c7ccc([nH]7)c(-c7ccccc7)c7nc(c(-c8ccccc8)c8ccc5[nH]8)C=C7)C=C6)cc4)c3)C2)cn1
REMARK SMILES IDX 25 1 24 2 23 3 22 4 21 5 20 6 18 7 19 8 17 9 13 10 14 11
REMARK SMILES IDX 83 12 15 13 16 14 12 15 8 16 9 17 84 18 10 20 11 21 7 22
REMARK SMILES IDX 6 23 3 24 4 25 86 26 5 27 85 28 2 29 1 30 26 31 27 32 28 33
REMARK SMILES IDX 29 34 30 35 31 36 32 37 33 38 34 39 35 40 36 41 82 42 37 43
REMARK SMILES IDX 81 44 38 45 39 46 40 47 75 48 41 49 80 50 74 51 76 52 42 53
REMARK SMILES IDX 79 54 73 55 72 56 43 58 65 59 50 60 64 61 51 62 54 63 63 64
REMARK SMILES IDX 77 65 52 66 53 67 62 69 78 70 55 71 44 72 45 73 49 74 46 75
REMARK SMILES IDX 48 76 47 77 66 78 67 79 71 80 68 81 70 82 69 83 56 84 57 85
REMARK SMILES IDX 61 86 58 87 60 88 59 89
REMARK H PARENT 8 19 76 57 54 68
REMARK Flexibility Score: inf
ROOT
ATOM      1  C   UNL A   1      40.431  25.562  26.521  1.00  0.00     0.188 C 
ENDROOT
BRANCH   1   2
ATOM      2  C   UNL A   1      39.240  24.583  26.557  1.00  0.00     0.188 C 
BRANCH   2   3
ATOM      3  O   UNL A   1      39.628  23.234  26.754  1.00  0.00    -0.376 OA
BRANCH   3   4
ATOM      4  C   UNL A   1      38.909  22.202  26.107  1.00  0.00     0.202 C 
BRANCH   4   5
ATOM      5  C   UNL A   1      37.389  22.327  25.916  1.00  0.00     0.261 C 
BRANCH   5   6
ATOM      6  O   UNL A   1      36.861  21.818  24.688  1.00  0.00    -0.460 OA
BRANCH   6   7
ATOM      7  C   UNL A   1      36.228  20.624  24.727  1.00  0.00     0.338 C 
ATOM      8  O   UNL A   1      36.723  19.543  24.994  1.00  0.00    -0.246 OA
BRANCH   7   9
ATOM      9  C   UNL A   1      34.772  20.899  24.636  1.00  0.00     0.060 A 
ATOM     10  C   UNL A   1      32.907  22.282  23.896  1.00  0.00    -0.038 A 
ATOM     11  C   UNL A   1      32.057  21.519  24.716  1.00  0.00     0.004 A 
ATOM     12  C   UNL A   1      34.277  21.967  23.876  1.00  0.00     0.020 A 
ATOM     13  C   UNL A   1      32.552  20.458  25.478  1.00  0.00     0.001 A 
ATOM     14  C   UNL A   1      33.906  20.136  25.428  1.00  0.00     0.016 A 
BRANCH  10  15
ATOM     15  C   UNL A   1      32.365  23.304  22.902  1.00  0.00     0.074 C 
ATOM     16  N   UNL A   1      30.923  25.390  22.958  1.00  0.00    -0.331 N 
ATOM     17  C   UNL A   1      31.962  26.139  22.243  1.00  0.00     0.262 C 
ATOM     18  C   UNL A   1      31.493  24.275  23.720  1.00  0.00     0.270 C 
ATOM     19  H   UNL A   1      30.313  24.998  22.241  1.00  0.00     0.348 HD
ATOM     20  C   UNL A   1      32.777  25.223  21.324  1.00  0.00     0.062 C 
ATOM     21  C   UNL A   1      33.425  24.079  22.106  1.00  0.00     0.020 C 
BRANCH  16  22
ATOM     22  C   UNL A   1      30.059  26.246  23.801  1.00  0.00     0.302 C 
BRANCH  22  23
ATOM     23  C   UNL A   1      30.735  27.381  24.517  1.00  0.00     0.043 A 
ATOM     24  C   UNL A   1      31.758  29.472  25.931  1.00  0.00     0.127 A 
ATOM     25  N   UNL A   1      31.902  28.234  26.443  1.00  0.00    -0.241 NA
ATOM     26  N   UNL A   1      31.175  29.739  24.749  1.00  0.00    -0.241 NA
ATOM     27  C   UNL A   1      31.390  27.218  25.719  1.00  0.00     0.124 A 
ATOM     28  C   UNL A   1      30.702  28.683  24.061  1.00  0.00     0.124 A 
BRANCH  24  29
ATOM     29  C   UNL A   1      32.180  30.633  26.790  1.00  0.00     0.074 C 
ATOM     30  C   UNL A   1      31.391  31.904  26.511  1.00  0.00     0.012 C 
ENDBRANCH  24  29
ENDBRANCH  22  23
ENDBRANCH  16  22
ENDBRANCH  10  15
ENDBRANCH   7   9
ENDBRANCH   6   7
ENDBRANCH   5   6
ENDBRANCH   4   5
ENDBRANCH   3   4
ENDBRANCH   2   3
ENDBRANCH   1   2
BRANCH   1  31
ATOM     31  O   UNL A   1      41.235  25.592  25.350  1.00  0.00    -0.377 OA
BRANCH  31  32
ATOM     32  C   UNL A   1      42.545  25.028  25.377  1.00  0.00     0.188 C 
BRANCH  32  33
ATOM     33  C   UNL A   1      42.808  23.516  25.160  1.00  0.00     0.188 C 
BRANCH  33  34
ATOM     34  O   UNL A   1      43.954  23.206  24.389  1.00  0.00    -0.376 OA
BRANCH  34  35
ATOM     35  C   UNL A   1      44.680  22.034  24.708  1.00  0.00     0.202 C 
BRANCH  35  36
ATOM     36  C   UNL A   1      46.016  22.229  25.441  1.00  0.00     0.261 C 
BRANCH  36  37
ATOM     37  O   UNL A   1      45.928  22.789  26.760  1.00  0.00    -0.460 OA
BRANCH  37  38
ATOM     38  C   UNL A   1      46.409  24.038  26.920  1.00  0.00     0.338 C 
ATOM     39  O   UNL A   1      47.420  24.511  26.421  1.00  0.00    -0.246 OA
BRANCH  38  40
ATOM     40  C   UNL A   1      45.406  24.824  27.662  1.00  0.00     0.060 A 
ATOM     41  C   UNL A   1      45.476  26.222  27.618  1.00  0.00     0.016 A 
ATOM     42  C   UNL A   1      44.410  24.187  28.407  1.00  0.00     0.016 A 
ATOM     43  C   UNL A   1      44.582  26.987  28.364  1.00  0.00     0.010 A 
ATOM     44  C   UNL A   1      43.524  24.955  29.167  1.00  0.00     0.010 A 
ATOM     45  C   UNL A   1      43.634  26.356  29.183  1.00  0.00    -0.014 A 
BRANCH  45  46
ATOM     46  C   UNL A   1      42.901  27.166  30.184  1.00  0.00     0.031 A 
ATOM     47  C   UNL A   1      43.500  27.333  31.556  1.00  0.00     0.074 A 
ATOM     48  C   UNL A   1      41.762  27.804  29.863  1.00  0.00     0.049 A 
ATOM     49  N   UNL A   1      43.073  28.046  32.568  1.00  0.00    -0.248 NA
ATOM     50  C   UNL A   1      44.751  26.603  31.820  1.00  0.00     0.031 C 
ATOM     51  C   UNL A   1      41.102  27.754  28.558  1.00  0.00     0.029 A 
ATOM     52  N   UNL A   1      40.968  28.636  30.612  1.00  0.00    -0.354 N 
ATOM     53  C   UNL A   1      44.003  27.852  33.583  1.00  0.00     0.074 A 
ATOM     54  C   UNL A   1      44.991  26.922  33.082  1.00  0.00     0.031 C 
ATOM     55  C   UNL A   1      40.007  28.534  28.595  1.00  0.00     0.029 A 
ATOM     56  C   UNL A   1      39.875  29.112  29.931  1.00  0.00     0.049 A 
ATOM     57  H   UNL A   1      41.163  28.867  31.549  1.00  0.00     0.167 HD
ATOM     58  C   UNL A   1      44.040  28.408  34.818  1.00  0.00     0.031 A 
ATOM     59  C   UNL A   1      38.879  29.920  30.344  1.00  0.00     0.031 A 
ATOM     60  C   UNL A   1      43.047  29.316  35.326  1.00  0.00     0.049 A 
ATOM     61  C   UNL A   1      38.904  30.461  31.750  1.00  0.00     0.074 A 
ATOM     62  C   UNL A   1      42.995  29.935  36.562  1.00  0.00     0.029 A 
ATOM     63  N   UNL A   1      41.924  29.730  34.625  1.00  0.00    -0.354 N 
ATOM     64  N   UNL A   1      39.803  30.294  32.689  1.00  0.00    -0.248 NA
ATOM     65  C   UNL A   1      37.778  31.321  32.142  1.00  0.00     0.031 C 
ATOM     66  C   UNL A   1      41.809  30.674  36.634  1.00  0.00     0.029 A 
ATOM     67  C   UNL A   1      41.161  30.576  35.414  1.00  0.00     0.049 A 
ATOM     68  H   UNL A   1      41.702  29.462  33.704  1.00  0.00     0.167 HD
ATOM     69  C   UNL A   1      39.370  31.056  33.769  1.00  0.00     0.074 A 
ATOM     70  C   UNL A   1      38.144  31.704  33.356  1.00  0.00     0.031 C 
ATOM     71  C   UNL A   1      39.937  31.208  34.993  1.00  0.00     0.031 A 
BRANCH  58  72
ATOM     72  C   UNL A   1      45.182  28.018  35.718  1.00  0.00    -0.014 A 
ATOM     73  C   UNL A   1      46.429  28.658  35.636  1.00  0.00     0.009 A 
ATOM     74  C   UNL A   1      44.996  27.020  36.686  1.00  0.00     0.009 A 
ATOM     75  C   UNL A   1      47.474  28.284  36.483  1.00  0.00     0.001 A 
ATOM     76  C   UNL A   1      46.033  26.670  37.554  1.00  0.00     0.001 A 
ATOM     77  C   UNL A   1      47.273  27.295  37.446  1.00  0.00     0.000 A 
ENDBRANCH  58  72
BRANCH  59  78
ATOM     78  C   UNL A   1      37.761  30.268  29.424  1.00  0.00    -0.014 A 
ATOM     79  C   UNL A   1      37.702  31.529  28.809  1.00  0.00     0.009 A 
ATOM     80  C   UNL A   1      36.721  29.356  29.194  1.00  0.00     0.009 A 
ATOM     81  C   UNL A   1      36.605  31.881  28.017  1.00  0.00     0.001 A 
ATOM     82  C   UNL A   1      35.643  29.696  28.374  1.00  0.00     0.001 A 
ATOM     83  C   UNL A   1      35.580  30.962  27.798  1.00  0.00     0.000 A 
ENDBRANCH  59  78
BRANCH  71  84
ATOM     84  C   UNL A   1      39.254  32.151  35.949  1.00  0.00    -0.014 A 
ATOM     85  C   UNL A   1      39.598  33.510  36.019  1.00  0.00     0.009 A 
ATOM     86  C   UNL A   1      38.248  31.664  36.800  1.00  0.00     0.009 A 
ATOM     87  C   UNL A   1      38.998  34.345  36.963  1.00  0.00     0.001 A 
ATOM     88  C   UNL A   1      37.620  32.510  37.715  1.00  0.00     0.001 A 
ATOM     89  C   UNL A   1      38.008  33.845  37.809  1.00  0.00     0.000 A 
ENDBRANCH  71  84
ENDBRANCH  45  46
ENDBRANCH  38  40
ENDBRANCH  37  38
ENDBRANCH  36  37
ENDBRANCH  35  36
ENDBRANCH  34  35
ENDBRANCH  33  34
ENDBRANCH  32  33
ENDBRANCH  31  32
ENDBRANCH   1  31
TORSDOF 24
ENDMDL
MODEL 2
REMARK VINA RESULT:      -8.5      4.454      9.214
REMARK SMILES CCc1ncc(C[N@H+]2CCC[C@@H](c3cccc(C(=O)OCCOCCOCCOCCOC(=O)c4ccc(-c5c6nc(c(-c7ccccc7)c7ccc([nH]7)c(-c7ccccc7)c7nc(c(-c8ccccc8)c8ccc5[nH]8)C=C7)C=C6)cc4)c3)C2)cn1
REMARK SMILES IDX 25 1 24 2 23 3 22 4 21 5 20 6 18 7 19 8 17 9 13 10 14 11
REMARK SMILES IDX 83 12 15 13 16 14 12 15 8 16 9 17 84 18 10 20 11 21 7 22
REMARK SMILES IDX 6 23 3 24 4 25 86 26 5 27 85 28 2 29 1 30 26 31 27 32 28 33
REMARK SMILES IDX 29 34 30 35 31 36 32 37 33 38 34 39 35 40 36 41 82 42 37 43
REMARK SMILES IDX 81 44 38 45 39 46 40 47 75 48 41 49 80 50 74 51 76 52 42 53
REMARK SMILES IDX 79 54 73 55 72 56 43 58 65 59 50 60 64 61 51 62 54 63 63 64
REMARK SMILES IDX 77 65 52 66 53 67 62 69 78 70 55 71 44 72 45 73 49 74 46 75
REMARK SMILES IDX 48 76 47 77 66 78 67 79 71 80 68 81 70 82 69 83 56 84 57 85
REMARK SMILES IDX 61 86 58 87 60 88 59 89
REMARK H PARENT 8 19 76 57 54 68
REMARK Flexibility Score: inf
ROOT
ATOM      1  C   UNL A   1      46.485  23.080  24.026  1.00  0.00     0.188 C 
ENDROOT
BRANCH   1   2
ATOM      2  C   UNL A   1      44.985  22.720  24.069  1.00  0.00     0.188 C 
BRANCH   2   3
ATOM      3  O   UNL A   1      44.560  22.237  25.332  1.00  0.00    -0.376 OA
BRANCH   3   4
ATOM      4  C   UNL A   1      43.178  22.088  25.591  1.00  0.00     0.202 C 
BRANCH   4   5
ATOM      5  C   UNL A   1      42.634  20.748  26.110  1.00  0.00     0.261 C 
BRANCH   5   6
ATOM      6  O   UNL A   1      41.383  20.798  26.803  1.00  0.00    -0.460 OA
BRANCH   6   7
ATOM      7  C   UNL A   1      40.275  20.430  26.121  1.00  0.00     0.338 C 
ATOM      8  O   UNL A   1      40.003  19.314  25.717  1.00  0.00    -0.246 OA
BRANCH   7   9
ATOM      9  C   UNL A   1      39.330  21.573  26.175  1.00  0.00     0.060 A 
ATOM     10  C   UNL A   1      37.298  22.693  25.430  1.00  0.00    -0.038 A 
ATOM     11  C   UNL A   1      37.723  23.849  26.109  1.00  0.00     0.004 A 
ATOM     12  C   UNL A   1      38.124  21.557  25.460  1.00  0.00     0.020 A 
ATOM     13  C   UNL A   1      38.928  23.866  26.816  1.00  0.00     0.001 A 
ATOM     14  C   UNL A   1      39.725  22.725  26.864  1.00  0.00     0.016 A 
BRANCH  10  15
ATOM     15  C   UNL A   1      35.900  22.581  24.828  1.00  0.00     0.074 C 
ATOM     16  N   UNL A   1      33.573  23.463  25.317  1.00  0.00    -0.331 N 
ATOM     17  C   UNL A   1      33.469  23.977  23.947  1.00  0.00     0.262 C 
ATOM     18  C   UNL A   1      34.969  23.384  25.757  1.00  0.00     0.270 C 
ATOM     19  H   UNL A   1      33.199  22.514  25.293  1.00  0.00     0.348 HD
ATOM     20  C   UNL A   1      34.290  23.128  22.970  1.00  0.00     0.062 C 
ATOM     21  C   UNL A   1      35.764  23.072  23.379  1.00  0.00     0.020 C 
BRANCH  16  22
ATOM     22  C   UNL A   1      32.734  24.204  26.286  1.00  0.00     0.302 C 
BRANCH  22  23
ATOM     23  C   UNL A   1      32.170  25.516  25.817  1.00  0.00     0.043 A 
ATOM     24  C   UNL A   1      31.211  27.830  24.749  1.00  0.00     0.127 A 
ATOM     25  N   UNL A   1      30.365  26.787  24.854  1.00  0.00    -0.241 NA
ATOM     26  N   UNL A   1      32.488  27.815  25.172  1.00  0.00    -0.241 NA
ATOM     27  C   UNL A   1      30.866  25.656  25.392  1.00  0.00     0.124 A 
ATOM     28  C   UNL A   1      32.926  26.666  25.718  1.00  0.00     0.124 A 
BRANCH  24  29
ATOM     29  C   UNL A   1      30.724  29.049  24.014  1.00  0.00     0.074 C 
ATOM     30  C   UNL A   1      29.796  28.719  22.854  1.00  0.00     0.012 C 
ENDBRANCH  24  29
ENDBRANCH  22  23
ENDBRANCH  16  22
ENDBRANCH  10  15
ENDBRANCH   7   9
ENDBRANCH   6   7
ENDBRANCH   5   6
ENDBRANCH   4   5
ENDBRANCH   3   4
ENDBRANCH   2   3
ENDBRANCH   1   2
BRANCH   1  31
ATOM     31  O   UNL A   1      46.860  24.415  24.335  1.00  0.00    -0.377 OA
BRANCH  31  32
ATOM     32  C   UNL A   1      45.856  25.375  24.660  1.00  0.00     0.188 C 
BRANCH  32  33
ATOM     33  C   UNL A   1      45.770  26.057  26.049  1.00  0.00     0.188 C 
BRANCH  33  34
ATOM     34  O   UNL A   1      44.466  26.420  26.465  1.00  0.00    -0.376 OA
BRANCH  34  35
ATOM     35  C   UNL A   1      43.496  26.687  25.471  1.00  0.00     0.202 C 
BRANCH  35  36
ATOM     36  C   UNL A   1      42.093  27.070  25.962  1.00  0.00     0.261 C 
BRANCH  36  37
ATOM     37  O   UNL A   1      41.495  26.171  26.908  1.00  0.00    -0.460 OA
BRANCH  37  38
ATOM     38  C   UNL A   1      41.166  26.686  28.110  1.00  0.00     0.338 C 
ATOM     39  O   UNL A   1      40.114  27.226  28.420  1.00  0.00    -0.246 OA
BRANCH  38  40
ATOM     40  C   UNL A   1      42.226  26.328  29.069  1.00  0.00     0.060 A 
ATOM     41  C   UNL A   1      42.763  27.328  29.889  1.00  0.00     0.016 A 
ATOM     42  C   UNL A   1      42.696  25.014  29.153  1.00  0.00     0.016 A 
ATOM     43  C   UNL A   1      43.811  27.028  30.756  1.00  0.00     0.010 A 
ATOM     44  C   UNL A   1      43.758  24.718  30.012  1.00  0.00     0.010 A 
ATOM     45  C   UNL A   1      44.348  25.734  30.784  1.00  0.00    -0.014 A 
BRANCH  45  46
ATOM     46  C   UNL A   1      45.638  25.509  31.480  1.00  0.00     0.031 A 
ATOM     47  C   UNL A   1      46.918  25.744  30.722  1.00  0.00     0.074 A 
ATOM     48  C   UNL A   1      45.676  25.174  32.782  1.00  0.00     0.049 A 
ATOM     49  N   UNL A   1      48.156  25.675  31.140  1.00  0.00    -0.248 NA
ATOM     50  C   UNL A   1      46.782  26.113  29.303  1.00  0.00     0.031 C 
ATOM     51  C   UNL A   1      44.508  24.956  33.635  1.00  0.00     0.029 A 
ATOM     52  N   UNL A   1      46.747  24.975  33.617  1.00  0.00    -0.354 N 
ATOM     53  C   UNL A   1      48.944  25.994  30.040  1.00  0.00     0.074 A 
ATOM     54  C   UNL A   1      48.048  26.213  28.926  1.00  0.00     0.031 C 
ATOM     55  C   UNL A   1      44.927  24.666  34.879  1.00  0.00     0.029 A 
ATOM     56  C   UNL A   1      46.389  24.649  34.901  1.00  0.00     0.049 A 
ATOM     57  H   UNL A   1      47.683  25.059  33.322  1.00  0.00     0.167 HD
ATOM     58  C   UNL A   1      50.291  26.107  29.965  1.00  0.00     0.031 A 
ATOM     59  C   UNL A   1      47.157  24.364  35.971  1.00  0.00     0.031 A 
ATOM     60  C   UNL A   1      51.185  25.869  31.066  1.00  0.00     0.049 A 
ATOM     61  C   UNL A   1      48.656  24.421  35.838  1.00  0.00     0.074 A 
ATOM     62  C   UNL A   1      52.566  25.960  31.092  1.00  0.00     0.029 A 
ATOM     63  N   UNL A   1      50.787  25.484  32.337  1.00  0.00    -0.354 N 
ATOM     64  N   UNL A   1      49.387  24.752  34.801  1.00  0.00    -0.248 NA
ATOM     65  C   UNL A   1      49.435  24.081  37.038  1.00  0.00     0.031 C 
ATOM     66  C   UNL A   1      53.007  25.569  32.361  1.00  0.00     0.029 A 
ATOM     67  C   UNL A   1      51.897  25.310  33.147  1.00  0.00     0.049 A 
ATOM     68  H   UNL A   1      49.853  25.355  32.622  1.00  0.00     0.167 HD
ATOM     69  C   UNL A   1      50.707  24.695  35.233  1.00  0.00     0.074 A 
ATOM     70  C   UNL A   1      50.672  24.325  36.631  1.00  0.00     0.031 C 
ATOM     71  C   UNL A   1      51.848  24.931  34.536  1.00  0.00     0.031 A 
BRANCH  58  72
ATOM     72  C   UNL A   1      50.881  26.477  28.630  1.00  0.00    -0.014 A 
ATOM     73  C   UNL A   1      51.161  27.813  28.299  1.00  0.00     0.009 A 
ATOM     74  C   UNL A   1      51.193  25.471  27.704  1.00  0.00     0.009 A 
ATOM     75  C   UNL A   1      51.712  28.134  27.057  1.00  0.00     0.001 A 
ATOM     76  C   UNL A   1      51.773  25.792  26.475  1.00  0.00     0.001 A 
ATOM     77  C   UNL A   1      52.023  27.123  26.149  1.00  0.00     0.000 A 
ENDBRANCH  58  72
BRANCH  59  78
ATOM     78  C   UNL A   1      46.531  23.989  37.269  1.00  0.00    -0.014 A 
ATOM     79  C   UNL A   1      46.136  24.974  38.188  1.00  0.00     0.009 A 
ATOM     80  C   UNL A   1      46.370  22.639  37.615  1.00  0.00     0.009 A 
ATOM     81  C   UNL A   1      45.630  24.613  39.440  1.00  0.00     0.001 A 
ATOM     82  C   UNL A   1      45.832  22.281  38.853  1.00  0.00     0.001 A 
ATOM     83  C   UNL A   1      45.476  23.267  39.769  1.00  0.00     0.000 A 
ENDBRANCH  59  78
BRANCH  71  84
ATOM     84  C   UNL A   1      53.145  24.840  35.298  1.00  0.00    -0.014 A 
ATOM     85  C   UNL A   1      53.693  25.950  35.958  1.00  0.00     0.009 A 
ATOM     86  C   UNL A   1      53.831  23.615  35.350  1.00  0.00     0.009 A 
ATOM     87  C   UNL A   1      54.931  25.853  36.598  1.00  0.00     0.001 A 
ATOM     88  C   UNL A   1      55.048  23.510  36.024  1.00  0.00     0.001 A 
ATOM     89  C   UNL A   1      55.606  24.633  36.632  1.00  0.00     0.000 A 
ENDBRANCH  71  84
ENDBRANCH  45  46
ENDBRANCH  38  40
ENDBRANCH  37  38
ENDBRANCH  36  37
ENDBRANCH  35  36
ENDBRANCH  34  35
ENDBRANCH  33  34
ENDBRANCH  32  33
ENDBRANCH  31  32
ENDBRANCH   1  31
TORSDOF 24
ENDMDL
MODEL 3
REMARK VINA RESULT:      -8.3      4.658      6.696
REMARK SMILES CCc1ncc(C[N@H+]2CCC[C@@H](c3cccc(C(=O)OCCOCCOCCOCCOC(=O)c4ccc(-c5c6nc(c(-c7ccccc7)c7ccc([nH]7)c(-c7ccccc7)c7nc(c(-c8ccccc8)c8ccc5[nH]8)C=C7)C=C6)cc4)c3)C2)cn1
REMARK SMILES IDX 25 1 24 2 23 3 22 4 21 5 20 6 18 7 19 8 17 9 13 10 14 11
REMARK SMILES IDX 83 12 15 13 16 14 12 15 8 16 9 17 84 18 10 20 11 21 7 22
REMARK SMILES IDX 6 23 3 24 4 25 86 26 5 27 85 28 2 29 1 30 26 31 27 32 28 33
REMARK SMILES IDX 29 34 30 35 31 36 32 37 33 38 34 39 35 40 36 41 82 42 37 43
REMARK SMILES IDX 81 44 38 45 39 46 40 47 75 48 41 49 80 50 74 51 76 52 42 53
REMARK SMILES IDX 79 54 73 55 72 56 43 58 65 59 50 60 64 61 51 62 54 63 63 64
REMARK SMILES IDX 77 65 52 66 53 67 62 69 78 70 55 71 44 72 45 73 49 74 46 75
REMARK SMILES IDX 48 76 47 77 66 78 67 79 71 80 68 81 70 82 69 83 56 84 57 85
REMARK SMILES IDX 61 86 58 87 60 88 59 89
REMARK H PARENT 8 19 76 57 54 68
REMARK Flexibility Score: inf
ROOT
ATOM      1  C   UNL A   1      40.503  26.318  26.777  1.00  0.00     0.188 C 
ENDROOT
BRANCH   1   2
ATOM      2  C   UNL A   1      39.278  25.607  27.388  1.00  0.00     0.188 C 
BRANCH   2   3
ATOM      3  O   UNL A   1      39.422  24.198  27.453  1.00  0.00    -0.376 OA
BRANCH   3   4
ATOM      4  C   UNL A   1      38.846  23.393  26.444  1.00  0.00     0.202 C 
BRANCH   4   5
ATOM      5  C   UNL A   1      37.356  23.543  26.097  1.00  0.00     0.261 C 
BRANCH   5   6
ATOM      6  O   UNL A   1      36.927  22.941  24.872  1.00  0.00    -0.460 OA
BRANCH   6   7
ATOM      7  C   UNL A   1      36.747  21.602  24.863  1.00  0.00     0.338 C 
ATOM      8  O   UNL A   1      37.557  20.754  25.192  1.00  0.00    -0.246 OA
BRANCH   7   9
ATOM      9  C   UNL A   1      35.302  21.357  24.624  1.00  0.00     0.060 A 
ATOM     10  C   UNL A   1      33.037  22.173  24.251  1.00  0.00    -0.038 A 
ATOM     11  C   UNL A   1      32.566  20.862  24.444  1.00  0.00     0.004 A 
ATOM     12  C   UNL A   1      34.417  22.411  24.358  1.00  0.00     0.020 A 
ATOM     13  C   UNL A   1      33.447  19.813  24.715  1.00  0.00     0.001 A 
ATOM     14  C   UNL A   1      34.817  20.055  24.789  1.00  0.00     0.016 A 
BRANCH  10  15
ATOM     15  C   UNL A   1      32.126  23.291  23.752  1.00  0.00     0.074 C 
ATOM     16  N   UNL A   1      30.986  25.347  24.705  1.00  0.00    -0.331 N 
ATOM     17  C   UNL A   1      31.581  26.177  23.652  1.00  0.00     0.262 C 
ATOM     18  C   UNL A   1      31.804  24.162  24.981  1.00  0.00     0.270 C 
ATOM     19  H   UNL A   1      30.088  25.028  24.342  1.00  0.00     0.348 HD
ATOM     20  C   UNL A   1      31.806  25.371  22.368  1.00  0.00     0.062 C 
ATOM     21  C   UNL A   1      32.701  24.155  22.620  1.00  0.00     0.020 C 
BRANCH  16  22
ATOM     22  C   UNL A   1      30.678  26.100  25.941  1.00  0.00     0.302 C 
BRANCH  22  23
ATOM     23  C   UNL A   1      31.721  27.077  26.408  1.00  0.00     0.043 A 
ATOM     24  C   UNL A   1      33.605  28.941  27.036  1.00  0.00     0.127 A 
ATOM     25  N   UNL A   1      32.313  29.254  27.251  1.00  0.00    -0.241 NA
ATOM     26  N   UNL A   1      34.028  27.754  26.565  1.00  0.00    -0.241 NA
ATOM     27  C   UNL A   1      31.402  28.310  26.936  1.00  0.00     0.124 A 
ATOM     28  C   UNL A   1      33.076  26.844  26.288  1.00  0.00     0.124 A 
BRANCH  24  29
ATOM     29  C   UNL A   1      34.626  30.028  27.232  1.00  0.00     0.074 C 
ATOM     30  C   UNL A   1      36.024  29.495  27.514  1.00  0.00     0.012 C 
ENDBRANCH  24  29
ENDBRANCH  22  23
ENDBRANCH  16  22
ENDBRANCH  10  15
ENDBRANCH   7   9
ENDBRANCH   6   7
ENDBRANCH   5   6
ENDBRANCH   4   5
ENDBRANCH   3   4
ENDBRANCH   2   3
ENDBRANCH   1   2
BRANCH   1  31
ATOM     31  O   UNL A   1      41.119  25.728  25.640  1.00  0.00    -0.377 OA
BRANCH  31  32
ATOM     32  C   UNL A   1      42.372  25.062  25.780  1.00  0.00     0.188 C 
BRANCH  32  33
ATOM     33  C   UNL A   1      42.499  23.518  25.808  1.00  0.00     0.188 C 
BRANCH  33  34
ATOM     34  O   UNL A   1      43.600  22.989  25.092  1.00  0.00    -0.376 OA
BRANCH  34  35
ATOM     35  C   UNL A   1      44.406  22.015  25.728  1.00  0.00     0.202 C 
BRANCH  35  36
ATOM     36  C   UNL A   1      45.923  22.131  25.518  1.00  0.00     0.261 C 
BRANCH  36  37
ATOM     37  O   UNL A   1      46.537  23.317  26.046  1.00  0.00    -0.460 OA
BRANCH  37  38
ATOM     38  C   UNL A   1      46.735  24.332  25.181  1.00  0.00     0.338 C 
ATOM     39  O   UNL A   1      47.124  24.253  24.024  1.00  0.00    -0.246 OA
BRANCH  38  40
ATOM     40  C   UNL A   1      46.225  25.569  25.799  1.00  0.00     0.060 A 
ATOM     41  C   UNL A   1      45.497  26.469  25.010  1.00  0.00     0.016 A 
ATOM     42  C   UNL A   1      46.471  25.846  27.147  1.00  0.00     0.016 A 
ATOM     43  C   UNL A   1      45.062  27.676  25.553  1.00  0.00     0.010 A 
ATOM     44  C   UNL A   1      46.048  27.063  27.686  1.00  0.00     0.010 A 
ATOM     45  C   UNL A   1      45.380  28.002  26.879  1.00  0.00    -0.014 A 
BRANCH  45  46
ATOM     46  C   UNL A   1      45.173  29.394  27.343  1.00  0.00     0.031 A 
ATOM     47  C   UNL A   1      43.916  29.722  28.106  1.00  0.00     0.074 A 
ATOM     48  C   UNL A   1      46.115  30.335  27.159  1.00  0.00     0.049 A 
ATOM     49  N   UNL A   1      43.552  30.849  28.663  1.00  0.00    -0.248 NA
ATOM     50  C   UNL A   1      42.941  28.629  28.266  1.00  0.00     0.031 C 
ATOM     51  C   UNL A   1      47.391  30.134  26.472  1.00  0.00     0.029 A 
ATOM     52  N   UNL A   1      46.147  31.650  27.552  1.00  0.00    -0.354 N 
ATOM     53  C   UNL A   1      42.312  30.600  29.240  1.00  0.00     0.074 A 
ATOM     54  C   UNL A   1      41.966  29.231  28.929  1.00  0.00     0.031 C 
ATOM     55  C   UNL A   1      48.087  31.284  26.503  1.00  0.00     0.029 A 
ATOM     56  C   UNL A   1      47.295  32.306  27.185  1.00  0.00     0.049 A 
ATOM     57  H   UNL A   1      45.414  32.081  28.049  1.00  0.00     0.167 HD
ATOM     58  C   UNL A   1      41.536  31.432  29.975  1.00  0.00     0.031 A 
ATOM     59  C   UNL A   1      47.661  33.589  27.374  1.00  0.00     0.031 A 
ATOM     60  C   UNL A   1      41.868  32.800  30.268  1.00  0.00     0.049 A 
ATOM     61  C   UNL A   1      46.741  34.514  28.128  1.00  0.00     0.074 A 
ATOM     62  C   UNL A   1      41.149  33.724  31.006  1.00  0.00     0.029 A 
ATOM     63  N   UNL A   1      43.015  33.445  29.829  1.00  0.00    -0.354 N 
ATOM     64  N   UNL A   1      45.586  34.258  28.694  1.00  0.00    -0.248 NA
ATOM     65  C   UNL A   1      47.192  35.904  28.284  1.00  0.00     0.031 C 
ATOM     66  C   UNL A   1      41.830  34.946  30.961  1.00  0.00     0.029 A 
ATOM     67  C   UNL A   1      43.010  34.762  30.261  1.00  0.00     0.049 A 
ATOM     68  H   UNL A   1      43.727  33.028  29.292  1.00  0.00     0.167 HD
ATOM     69  C   UNL A   1      45.191  35.445  29.301  1.00  0.00     0.074 A 
ATOM     70  C   UNL A   1      46.242  36.409  29.057  1.00  0.00     0.031 C 
ATOM     71  C   UNL A   1      44.060  35.713  30.002  1.00  0.00     0.031 A 
BRANCH  58  72
ATOM     72  C   UNL A   1      40.229  30.887  30.487  1.00  0.00    -0.014 A 
ATOM     73  C   UNL A   1      40.148  30.221  31.721  1.00  0.00     0.009 A 
ATOM     74  C   UNL A   1      39.057  31.072  29.739  1.00  0.00     0.009 A 
ATOM     75  C   UNL A   1      38.925  29.726  32.179  1.00  0.00     0.001 A 
ATOM     76  C   UNL A   1      37.830  30.604  30.215  1.00  0.00     0.001 A 
ATOM     77  C   UNL A   1      37.766  29.924  31.429  1.00  0.00     0.000 A 
ENDBRANCH  58  72
BRANCH  59  78
ATOM     78  C   UNL A   1      48.957  34.089  26.839  1.00  0.00    -0.014 A 
ATOM     79  C   UNL A   1      49.049  34.590  25.531  1.00  0.00     0.009 A 
ATOM     80  C   UNL A   1      50.121  34.023  27.619  1.00  0.00     0.009 A 
ATOM     81  C   UNL A   1      50.285  34.977  25.004  1.00  0.00     0.001 A 
ATOM     82  C   UNL A   1      51.349  34.443  27.104  1.00  0.00     0.001 A 
ATOM     83  C   UNL A   1      51.432  34.906  25.793  1.00  0.00     0.000 A 
ENDBRANCH  59  78
BRANCH  71  84
ATOM     84  C   UNL A   1      43.933  37.094  30.591  1.00  0.00    -0.014 A 
ATOM     85  C   UNL A   1      44.180  37.343  31.950  1.00  0.00     0.009 A 
ATOM     86  C   UNL A   1      43.555  38.166  29.766  1.00  0.00     0.009 A 
ATOM     87  C   UNL A   1      43.987  38.619  32.483  1.00  0.00     0.001 A 
ATOM     88  C   UNL A   1      43.402  39.449  30.292  1.00  0.00     0.001 A 
ATOM     89  C   UNL A   1      43.601  39.672  31.654  1.00  0.00     0.000 A 
ENDBRANCH  71  84
ENDBRANCH  45  46
ENDBRANCH  38  40
ENDBRANCH  37  38
ENDBRANCH  36  37
ENDBRANCH  35  36
ENDBRANCH  34  35
ENDBRANCH  33  34
ENDBRANCH  32  33
ENDBRANCH  31  32
ENDBRANCH   1  31
TORSDOF 24
ENDMDL
