MODEL 1
REMARK VINA RESULT:     -10.2      0.000      0.000
REMARK SMILES CCc1cc(C(=O)c2[nH]c3cc(Cl)ccc3c2CC(=O)OCCOCCOCCOCCOC(=O)c2ccc(-c3c4nc(c(-c5ccccc5)c5ccc([nH]5)c(-c5ccccc5)c5nc(c(-c6ccccc6)c6ccc3[nH]6)C=C5)C=C4)cc2)ncc1Cl
REMARK SMILES IDX 26 1 25 2 24 3 23 4 22 5 21 6 19 7 20 8 18 9 17 10 8 11 9 12
REMARK SMILES IDX 10 13 16 15 11 16 15 17 12 18 14 19 13 20 6 21 7 22 5 23
REMARK SMILES IDX 3 24 4 25 86 26 85 27 87 28 84 29 2 30 1 31 27 32 28 33
REMARK SMILES IDX 29 34 30 35 31 36 32 37 33 38 34 39 35 40 36 41 37 42 83 43
REMARK SMILES IDX 38 44 82 45 39 46 40 47 41 48 76 49 42 50 81 51 75 52 77 53
REMARK SMILES IDX 43 54 80 55 74 56 73 57 44 59 66 60 51 61 65 62 52 63 55 64
REMARK SMILES IDX 64 65 78 66 53 67 54 68 63 70 79 71 56 72 45 73 46 74 50 75
REMARK SMILES IDX 47 76 49 77 48 78 67 79 68 80 72 81 69 82 71 83 70 84 57 85
REMARK SMILES IDX 58 86 62 87 59 88 61 89 60 90
REMARK H PARENT 9 14 77 58 55 69
REMARK Flexibility Score: inf
ROOT
ATOM      1  C   UNL A   1      34.251  22.873  23.960  1.00  0.00     0.188 C 
ENDROOT
BRANCH   1   2
ATOM      2  C   UNL A   1      33.568  21.600  24.451  1.00  0.00     0.188 C 
BRANCH   2   3
ATOM      3  O   UNL A   1      32.195  21.675  24.769  1.00  0.00    -0.376 OA
BRANCH   3   4
ATOM      4  C   UNL A   1      31.841  22.264  26.018  1.00  0.00     0.202 C 
BRANCH   4   5
ATOM      5  C   UNL A   1      30.877  23.470  26.078  1.00  0.00     0.261 C 
BRANCH   5   6
ATOM      6  O   UNL A   1      31.312  24.677  25.390  1.00  0.00    -0.463 OA
BRANCH   6   7
ATOM      7  C   UNL A   1      30.540  25.082  24.350  1.00  0.00     0.310 C 
ATOM      8  O   UNL A   1      30.316  24.362  23.375  1.00  0.00    -0.252 OA
BRANCH   7   9
ATOM      9  C   UNL A   1      29.929  26.474  24.399  1.00  0.00     0.161 C 
BRANCH   9  10
ATOM     10  C   UNL A   1      30.412  27.627  23.543  1.00  0.00     0.000 A 
ATOM     11  C   UNL A   1      31.682  28.233  23.544  1.00  0.00     0.093 A 
ATOM     12  N   UNL A   1      31.653  29.192  22.553  1.00  0.00    -0.351 N 
ATOM     13  C   UNL A   1      30.352  29.528  22.265  1.00  0.00     0.048 A 
ATOM     14  H   UNL A   1      32.447  29.578  22.115  1.00  0.00     0.167 HD
ATOM     15  C   UNL A   1      29.549  28.553  22.853  1.00  0.00     0.004 A 
ATOM     16  C   UNL A   1      29.835  30.626  21.565  1.00  0.00     0.047 A 
ATOM     17  C   UNL A   1      28.149  28.698  22.759  1.00  0.00     0.012 A 
ATOM     18  C   UNL A   1      28.445  30.766  21.531  1.00  0.00     0.043 A 
ATOM     19  C   UNL A   1      27.609  29.823  22.121  1.00  0.00     0.021 A 
ATOM     20  Cl  UNL A   1      27.757  32.153  20.776  1.00  0.00    -0.084 Cl
BRANCH  11  21
ATOM     21  C   UNL A   1      32.824  27.943  24.409  1.00  0.00     0.227 C 
ATOM     22  O   UNL A   1      33.604  27.016  24.189  1.00  0.00    -0.285 OA
BRANCH  21  23
ATOM     23  C   UNL A   1      33.063  28.695  25.675  1.00  0.00     0.113 A 
ATOM     24  C   UNL A   1      34.646  29.444  27.340  1.00  0.00    -0.026 A 
ATOM     25  C   UNL A   1      34.228  28.475  26.403  1.00  0.00     0.037 A 
ATOM     26  C   UNL A   1      33.851  30.590  27.498  1.00  0.00     0.062 A 
ATOM     27  C   UNL A   1      32.666  30.682  26.778  1.00  0.00     0.132 A 
ATOM     28  Cl  UNL A   1      34.319  31.936  28.464  1.00  0.00    -0.082 Cl
ATOM     29  N   UNL A   1      32.248  29.759  25.882  1.00  0.00    -0.251 NA
BRANCH  24  30
ATOM     30  C   UNL A   1      35.986  29.262  28.015  1.00  0.00     0.034 C 
ATOM     31  C   UNL A   1      37.151  29.953  27.319  1.00  0.00     0.009 C 
ENDBRANCH  24  30
ENDBRANCH  21  23
ENDBRANCH  11  21
ENDBRANCH   9  10
ENDBRANCH   7   9
ENDBRANCH   6   7
ENDBRANCH   5   6
ENDBRANCH   4   5
ENDBRANCH   3   4
ENDBRANCH   2   3
ENDBRANCH   1   2
BRANCH   1  32
ATOM     32  O   UNL A   1      35.152  23.550  24.818  1.00  0.00    -0.377 OA
BRANCH  32  33
ATOM     33  C   UNL A   1      35.861  22.834  25.816  1.00  0.00     0.188 C 
BRANCH  33  34
ATOM     34  C   UNL A   1      37.100  22.045  25.402  1.00  0.00     0.188 C 
BRANCH  34  35
ATOM     35  O   UNL A   1      36.975  20.637  25.201  1.00  0.00    -0.376 OA
BRANCH  35  36
ATOM     36  C   UNL A   1      38.078  19.890  24.696  1.00  0.00     0.202 C 
BRANCH  36  37
ATOM     37  C   UNL A   1      39.067  19.417  25.753  1.00  0.00     0.261 C 
BRANCH  37  38
ATOM     38  O   UNL A   1      40.366  19.970  25.508  1.00  0.00    -0.460 OA
BRANCH  38  39
ATOM     39  C   UNL A   1      41.153  20.073  26.601  1.00  0.00     0.338 C 
ATOM     40  O   UNL A   1      41.859  19.209  27.098  1.00  0.00    -0.246 OA
BRANCH  39  41
ATOM     41  C   UNL A   1      41.169  21.475  27.044  1.00  0.00     0.060 A 
ATOM     42  C   UNL A   1      40.586  22.432  26.203  1.00  0.00     0.016 A 
ATOM     43  C   UNL A   1      41.790  21.851  28.238  1.00  0.00     0.016 A 
ATOM     44  C   UNL A   1      40.673  23.780  26.524  1.00  0.00     0.010 A 
ATOM     45  C   UNL A   1      41.890  23.203  28.553  1.00  0.00     0.010 A 
ATOM     46  C   UNL A   1      41.376  24.168  27.670  1.00  0.00    -0.014 A 
BRANCH  46  47
ATOM     47  C   UNL A   1      41.776  25.579  27.822  1.00  0.00     0.031 A 
ATOM     48  C   UNL A   1      43.052  26.024  27.169  1.00  0.00     0.074 A 
ATOM     49  C   UNL A   1      41.006  26.444  28.500  1.00  0.00     0.049 A 
ATOM     50  N   UNL A   1      43.636  27.194  27.194  1.00  0.00    -0.248 NA
ATOM     51  C   UNL A   1      43.770  25.007  26.381  1.00  0.00     0.031 C 
ATOM     52  C   UNL A   1      39.718  26.128  29.113  1.00  0.00     0.029 A 
ATOM     53  N   UNL A   1      41.206  27.769  28.783  1.00  0.00    -0.354 N 
ATOM     54  C   UNL A   1      44.792  27.049  26.438  1.00  0.00     0.074 A 
ATOM     55  C   UNL A   1      44.849  25.673  26.000  1.00  0.00     0.031 C 
ATOM     56  C   UNL A   1      39.239  27.236  29.706  1.00  0.00     0.029 A 
ATOM     57  C   UNL A   1      40.208  28.318  29.546  1.00  0.00     0.049 A 
ATOM     58  H   UNL A   1      41.989  28.276  28.470  1.00  0.00     0.167 HD
ATOM     59  C   UNL A   1      45.723  27.983  26.134  1.00  0.00     0.031 A 
ATOM     60  C   UNL A   1      40.106  29.553  30.070  1.00  0.00     0.031 A 
ATOM     61  C   UNL A   1      45.670  29.341  26.605  1.00  0.00     0.049 A 
ATOM     62  C   UNL A   1      41.207  30.547  29.810  1.00  0.00     0.074 A 
ATOM     63  C   UNL A   1      46.556  30.375  26.364  1.00  0.00     0.029 A 
ATOM     64  N   UNL A   1      44.674  29.847  27.428  1.00  0.00    -0.354 N 
ATOM     65  N   UNL A   1      42.294  30.410  29.086  1.00  0.00    -0.248 NA
ATOM     66  C   UNL A   1      41.063  31.867  30.436  1.00  0.00     0.031 C 
ATOM     67  C   UNL A   1      46.132  31.487  27.099  1.00  0.00     0.029 A 
ATOM     68  C   UNL A   1      44.940  31.170  27.734  1.00  0.00     0.049 A 
ATOM     69  H   UNL A   1      43.893  29.339  27.747  1.00  0.00     0.167 HD
ATOM     70  C   UNL A   1      42.945  31.635  29.141  1.00  0.00     0.074 A 
ATOM     71  C   UNL A   1      42.124  32.505  29.963  1.00  0.00     0.031 C 
ATOM     72  C   UNL A   1      44.112  32.012  28.561  1.00  0.00     0.031 A 
BRANCH  59  73
ATOM     73  C   UNL A   1      46.897  27.535  25.306  1.00  0.00    -0.014 A 
ATOM     74  C   UNL A   1      47.985  26.854  25.877  1.00  0.00     0.009 A 
ATOM     75  C   UNL A   1      46.925  27.819  23.932  1.00  0.00     0.009 A 
ATOM     76  C   UNL A   1      49.098  26.518  25.101  1.00  0.00     0.001 A 
ATOM     77  C   UNL A   1      48.021  27.449  23.151  1.00  0.00     0.001 A 
ATOM     78  C   UNL A   1      49.113  26.813  23.739  1.00  0.00     0.000 A 
ENDBRANCH  59  73
BRANCH  60  79
ATOM     79  C   UNL A   1      38.922  29.913  30.892  1.00  0.00    -0.014 A 
ATOM     80  C   UNL A   1      37.971  30.823  30.409  1.00  0.00     0.009 A 
ATOM     81  C   UNL A   1      38.729  29.338  32.158  1.00  0.00     0.009 A 
ATOM     82  C   UNL A   1      36.860  31.163  31.184  1.00  0.00     0.001 A 
ATOM     83  C   UNL A   1      37.601  29.656  32.918  1.00  0.00     0.001 A 
ATOM     84  C   UNL A   1      36.671  30.574  32.433  1.00  0.00     0.000 A 
ENDBRANCH  60  79
BRANCH  72  85
ATOM     85  C   UNL A   1      44.549  33.439  28.758  1.00  0.00    -0.014 A 
ATOM     86  C   UNL A   1      44.288  34.427  27.798  1.00  0.00     0.009 A 
ATOM     87  C   UNL A   1      45.191  33.805  29.953  1.00  0.00     0.009 A 
ATOM     88  C   UNL A   1      44.694  35.746  28.014  1.00  0.00     0.001 A 
ATOM     89  C   UNL A   1      45.563  35.129  30.181  1.00  0.00     0.001 A 
ATOM     90  C   UNL A   1      45.325  36.096  29.208  1.00  0.00     0.000 A 
ENDBRANCH  72  85
ENDBRANCH  46  47
ENDBRANCH  39  41
ENDBRANCH  38  39
ENDBRANCH  37  38
ENDBRANCH  36  37
ENDBRANCH  35  36
ENDBRANCH  34  35
ENDBRANCH  33  34
ENDBRANCH  32  33
ENDBRANCH   1  32
TORSDOF 24
ENDMDL
MODEL 2
REMARK VINA RESULT:      -9.1      4.793      8.726
REMARK SMILES CCc1cc(C(=O)c2[nH]c3cc(Cl)ccc3c2CC(=O)OCCOCCOCCOCCOC(=O)c2ccc(-c3c4nc(c(-c5ccccc5)c5ccc([nH]5)c(-c5ccccc5)c5nc(c(-c6ccccc6)c6ccc3[nH]6)C=C5)C=C4)cc2)ncc1Cl
REMARK SMILES IDX 26 1 25 2 24 3 23 4 22 5 21 6 19 7 20 8 18 9 17 10 8 11 9 12
REMARK SMILES IDX 10 13 16 15 11 16 15 17 12 18 14 19 13 20 6 21 7 22 5 23
REMARK SMILES IDX 3 24 4 25 86 26 85 27 87 28 84 29 2 30 1 31 27 32 28 33
REMARK SMILES IDX 29 34 30 35 31 36 32 37 33 38 34 39 35 40 36 41 37 42 83 43
REMARK SMILES IDX 38 44 82 45 39 46 40 47 41 48 76 49 42 50 81 51 75 52 77 53
REMARK SMILES IDX 43 54 80 55 74 56 73 57 44 59 66 60 51 61 65 62 52 63 55 64
REMARK SMILES IDX 64 65 78 66 53 67 54 68 63 70 79 71 56 72 45 73 46 74 50 75
REMARK SMILES IDX 47 76 49 77 48 78 67 79 68 80 72 81 69 82 71 83 70 84 57 85
REMARK SMILES IDX 58 86 62 87 59 88 61 89 60 90
REMARK H PARENT 9 14 77 58 55 69
REMARK Flexibility Score: inf
ROOT
ATOM      1  C   UNL A   1      38.936  21.542  25.702  1.00  0.00     0.188 C 
ENDROOT
BRANCH   1   2
ATOM      2  C   UNL A   1      37.643  20.782  25.416  1.00  0.00     0.188 C 
BRANCH   2   3
ATOM      3  O   UNL A   1      36.574  21.503  24.842  1.00  0.00    -0.376 OA
BRANCH   3   4
ATOM      4  C   UNL A   1      36.900  22.523  23.901  1.00  0.00     0.202 C 
BRANCH   4   5
ATOM      5  C   UNL A   1      35.837  23.548  23.446  1.00  0.00     0.261 C 
BRANCH   5   6
ATOM      6  O   UNL A   1      34.871  23.081  22.462  1.00  0.00    -0.463 OA
BRANCH   6   7
ATOM      7  C   UNL A   1      33.633  23.632  22.534  1.00  0.00     0.310 C 
ATOM      8  O   UNL A   1      33.424  24.821  22.285  1.00  0.00    -0.252 OA
BRANCH   7   9
ATOM      9  C   UNL A   1      32.465  22.742  22.932  1.00  0.00     0.161 C 
BRANCH   9  10
ATOM     10  C   UNL A   1      32.501  21.797  24.115  1.00  0.00     0.000 A 
ATOM     11  C   UNL A   1      32.914  22.074  25.432  1.00  0.00     0.093 A 
ATOM     12  N   UNL A   1      32.707  20.916  26.153  1.00  0.00    -0.351 N 
ATOM     13  C   UNL A   1      32.637  19.841  25.301  1.00  0.00     0.048 A 
ATOM     14  H   UNL A   1      32.622  20.868  27.133  1.00  0.00     0.167 HD
ATOM     15  C   UNL A   1      32.484  20.360  24.016  1.00  0.00     0.004 A 
ATOM     16  C   UNL A   1      32.729  18.468  25.566  1.00  0.00     0.047 A 
ATOM     17  C   UNL A   1      32.448  19.455  22.933  1.00  0.00     0.012 A 
ATOM     18  C   UNL A   1      32.737  17.603  24.469  1.00  0.00     0.043 A 
ATOM     19  C   UNL A   1      32.604  18.083  23.170  1.00  0.00     0.021 A 
ATOM     20  Cl  UNL A   1      32.954  15.914  24.730  1.00  0.00    -0.084 Cl
BRANCH  11  21
ATOM     21  C   UNL A   1      33.466  23.317  25.966  1.00  0.00     0.227 C 
ATOM     22  O   UNL A   1      34.511  23.355  26.616  1.00  0.00    -0.285 OA
BRANCH  21  23
ATOM     23  C   UNL A   1      32.743  24.616  25.841  1.00  0.00     0.113 A 
ATOM     24  C   UNL A   1      32.702  26.853  24.929  1.00  0.00    -0.026 A 
ATOM     25  C   UNL A   1      33.429  25.757  25.436  1.00  0.00     0.037 A 
ATOM     26  C   UNL A   1      31.304  26.741  24.866  1.00  0.00     0.062 A 
ATOM     27  C   UNL A   1      30.706  25.589  25.365  1.00  0.00     0.132 A 
ATOM     28  Cl  UNL A   1      30.296  27.914  24.110  1.00  0.00    -0.082 Cl
ATOM     29  N   UNL A   1      31.389  24.533  25.861  1.00  0.00    -0.251 NA
BRANCH  24  30
ATOM     30  C   UNL A   1      33.468  28.025  24.357  1.00  0.00     0.034 C 
ATOM     31  C   UNL A   1      33.010  29.389  24.854  1.00  0.00     0.009 C 
ENDBRANCH  24  30
ENDBRANCH  21  23
ENDBRANCH  11  21
ENDBRANCH   9  10
ENDBRANCH   7   9
ENDBRANCH   6   7
ENDBRANCH   5   6
ENDBRANCH   4   5
ENDBRANCH   3   4
ENDBRANCH   2   3
ENDBRANCH   1   2
BRANCH   1  32
ATOM     32  O   UNL A   1      40.043  20.845  26.245  1.00  0.00    -0.377 OA
BRANCH  32  33
ATOM     33  C   UNL A   1      40.886  21.475  27.195  1.00  0.00     0.188 C 
BRANCH  33  34
ATOM     34  C   UNL A   1      42.347  21.716  26.822  1.00  0.00     0.188 C 
BRANCH  34  35
ATOM     35  O   UNL A   1      42.717  22.997  26.312  1.00  0.00    -0.376 OA
BRANCH  35  36
ATOM     36  C   UNL A   1      41.787  24.075  26.357  1.00  0.00     0.202 C 
BRANCH  36  37
ATOM     37  C   UNL A   1      42.008  25.156  25.307  1.00  0.00     0.261 C 
BRANCH  37  38
ATOM     38  O   UNL A   1      43.071  26.032  25.703  1.00  0.00    -0.460 OA
BRANCH  38  39
ATOM     39  C   UNL A   1      42.763  27.346  25.669  1.00  0.00     0.338 C 
ATOM     40  O   UNL A   1      42.398  28.004  24.707  1.00  0.00    -0.246 OA
BRANCH  39  41
ATOM     41  C   UNL A   1      42.776  27.873  27.042  1.00  0.00     0.060 A 
ATOM     42  C   UNL A   1      42.187  27.093  28.046  1.00  0.00     0.016 A 
ATOM     43  C   UNL A   1      43.312  29.130  27.331  1.00  0.00     0.016 A 
ATOM     44  C   UNL A   1      42.077  27.594  29.336  1.00  0.00     0.010 A 
ATOM     45  C   UNL A   1      43.189  29.639  28.620  1.00  0.00     0.010 A 
ATOM     46  C   UNL A   1      42.527  28.891  29.608  1.00  0.00    -0.014 A 
BRANCH  46  47
ATOM     47  C   UNL A   1      42.095  29.552  30.854  1.00  0.00     0.031 A 
ATOM     48  C   UNL A   1      40.801  30.313  30.837  1.00  0.00     0.074 A 
ATOM     49  C   UNL A   1      42.825  29.451  31.976  1.00  0.00     0.049 A 
ATOM     50  N   UNL A   1      40.234  31.012  31.785  1.00  0.00    -0.248 NA
ATOM     51  C   UNL A   1      40.045  30.285  29.573  1.00  0.00     0.031 C 
ATOM     52  C   UNL A   1      44.059  28.681  32.115  1.00  0.00     0.029 A 
ATOM     53  N   UNL A   1      42.624  30.005  33.212  1.00  0.00    -0.354 N 
ATOM     54  C   UNL A   1      39.064  31.513  31.230  1.00  0.00     0.074 A 
ATOM     55  C   UNL A   1      39.020  31.074  29.853  1.00  0.00     0.031 C 
ATOM     56  C   UNL A   1      44.510  28.813  33.375  1.00  0.00     0.029 A 
ATOM     57  C   UNL A   1      43.618  29.708  34.108  1.00  0.00     0.049 A 
ATOM     58  H   UNL A   1      41.843  30.562  33.434  1.00  0.00     0.167 HD
ATOM     59  C   UNL A   1      38.109  32.272  31.817  1.00  0.00     0.031 A 
ATOM     60  C   UNL A   1      43.791  30.133  35.373  1.00  0.00     0.031 A 
ATOM     61  C   UNL A   1      38.183  32.729  33.178  1.00  0.00     0.049 A 
ATOM     62  C   UNL A   1      42.772  31.065  35.973  1.00  0.00     0.074 A 
ATOM     63  C   UNL A   1      37.277  33.503  33.881  1.00  0.00     0.029 A 
ATOM     64  N   UNL A   1      39.236  32.458  34.040  1.00  0.00    -0.354 N 
ATOM     65  N   UNL A   1      41.662  31.529  35.448  1.00  0.00    -0.248 NA
ATOM     66  C   UNL A   1      43.029  31.526  37.343  1.00  0.00     0.031 C 
ATOM     67  C   UNL A   1      37.818  33.759  35.145  1.00  0.00     0.029 A 
ATOM     68  C   UNL A   1      39.022  33.080  35.257  1.00  0.00     0.049 A 
ATOM     69  H   UNL A   1      40.021  31.906  33.817  1.00  0.00     0.167 HD
ATOM     70  C   UNL A   1      41.071  32.309  36.434  1.00  0.00     0.074 A 
ATOM     71  C   UNL A   1      41.944  32.245  37.591  1.00  0.00     0.031 C 
ATOM     72  C   UNL A   1      39.910  33.009  36.392  1.00  0.00     0.031 A 
BRANCH  59  73
ATOM     73  C   UNL A   1      36.947  32.695  30.959  1.00  0.00    -0.014 A 
ATOM     74  C   UNL A   1      35.675  32.118  31.105  1.00  0.00     0.009 A 
ATOM     75  C   UNL A   1      37.134  33.674  29.971  1.00  0.00     0.009 A 
ATOM     76  C   UNL A   1      34.632  32.472  30.245  1.00  0.00     0.001 A 
ATOM     77  C   UNL A   1      36.081  34.054  29.138  1.00  0.00     0.001 A 
ATOM     78  C   UNL A   1      34.836  33.441  29.265  1.00  0.00     0.000 A 
ENDBRANCH  59  73
BRANCH  60  79
ATOM     79  C   UNL A   1      44.975  29.682  36.149  1.00  0.00    -0.014 A 
ATOM     80  C   UNL A   1      46.144  30.456  36.176  1.00  0.00     0.009 A 
ATOM     81  C   UNL A   1      44.938  28.483  36.879  1.00  0.00     0.009 A 
ATOM     82  C   UNL A   1      47.258  30.030  36.903  1.00  0.00     0.001 A 
ATOM     83  C   UNL A   1      46.042  28.075  37.630  1.00  0.00     0.001 A 
ATOM     84  C   UNL A   1      47.204  28.845  37.636  1.00  0.00     0.000 A 
ENDBRANCH  60  79
BRANCH  72  85
ATOM     85  C   UNL A   1      39.494  33.727  37.647  1.00  0.00    -0.014 A 
ATOM     86  C   UNL A   1      39.802  35.079  37.857  1.00  0.00     0.009 A 
ATOM     87  C   UNL A   1      38.737  33.045  38.614  1.00  0.00     0.009 A 
ATOM     88  C   UNL A   1      39.391  35.724  39.026  1.00  0.00     0.001 A 
ATOM     89  C   UNL A   1      38.298  33.700  39.763  1.00  0.00     0.001 A 
ATOM     90  C   UNL A   1      38.634  35.035  39.974  1.00  0.00     0.000 A 
ENDBRANCH  72  85
ENDBRANCH  46  47
ENDBRANCH  39  41
ENDBRANCH  38  39
ENDBRANCH  37  38
ENDBRANCH  36  37
ENDBRANCH  35  36
ENDBRANCH  34  35
ENDBRANCH  33  34
ENDBRANCH  32  33
ENDBRANCH   1  32
TORSDOF 24
ENDMDL
MODEL 3
REMARK VINA RESULT:      -9.1      4.411      6.494
REMARK SMILES CCc1cc(C(=O)c2[nH]c3cc(Cl)ccc3c2CC(=O)OCCOCCOCCOCCOC(=O)c2ccc(-c3c4nc(c(-c5ccccc5)c5ccc([nH]5)c(-c5ccccc5)c5nc(c(-c6ccccc6)c6ccc3[nH]6)C=C5)C=C4)cc2)ncc1Cl
REMARK SMILES IDX 26 1 25 2 24 3 23 4 22 5 21 6 19 7 20 8 18 9 17 10 8 11 9 12
REMARK SMILES IDX 10 13 16 15 11 16 15 17 12 18 14 19 13 20 6 21 7 22 5 23
REMARK SMILES IDX 3 24 4 25 86 26 85 27 87 28 84 29 2 30 1 31 27 32 28 33
REMARK SMILES IDX 29 34 30 35 31 36 32 37 33 38 34 39 35 40 36 41 37 42 83 43
REMARK SMILES IDX 38 44 82 45 39 46 40 47 41 48 76 49 42 50 81 51 75 52 77 53
REMARK SMILES IDX 43 54 80 55 74 56 73 57 44 59 66 60 51 61 65 62 52 63 55 64
REMARK SMILES IDX 64 65 78 66 53 67 54 68 63 70 79 71 56 72 45 73 46 74 50 75
REMARK SMILES IDX 47 76 49 77 48 78 67 79 68 80 72 81 69 82 71 83 70 84 57 85
REMARK SMILES IDX 58 86 62 87 59 88 61 89 60 90
REMARK H PARENT 9 14 77 58 55 69
REMARK Flexibility Score: inf
ROOT
ATOM      1  C   UNL A   1      34.712  22.196  23.404  1.00  0.00     0.188 C 
ENDROOT
BRANCH   1   2
ATOM      2  C   UNL A   1      33.599  23.226  23.233  1.00  0.00     0.188 C 
BRANCH   2   3
ATOM      3  O   UNL A   1      32.490  23.141  24.102  1.00  0.00    -0.376 OA
BRANCH   3   4
ATOM      4  C   UNL A   1      32.649  23.655  25.422  1.00  0.00     0.202 C 
BRANCH   4   5
ATOM      5  C   UNL A   1      31.425  23.873  26.339  1.00  0.00     0.261 C 
BRANCH   5   6
ATOM      6  O   UNL A   1      30.928  25.238  26.435  1.00  0.00    -0.463 OA
BRANCH   6   7
ATOM      7  C   UNL A   1      30.375  25.752  25.308  1.00  0.00     0.310 C 
ATOM      8  O   UNL A   1      30.032  25.044  24.358  1.00  0.00    -0.252 OA
BRANCH   7   9
ATOM      9  C   UNL A   1      30.171  27.257  25.220  1.00  0.00     0.161 C 
BRANCH   9  10
ATOM     10  C   UNL A   1      30.574  28.085  24.017  1.00  0.00     0.000 A 
ATOM     11  C   UNL A   1      31.854  28.569  23.689  1.00  0.00     0.093 A 
ATOM     12  N   UNL A   1      31.724  29.211  22.475  1.00  0.00    -0.351 N 
ATOM     13  C   UNL A   1      30.410  29.550  22.264  1.00  0.00     0.048 A 
ATOM     14  H   UNL A   1      32.464  29.398  21.852  1.00  0.00     0.167 HD
ATOM     15  C   UNL A   1      29.660  28.842  23.200  1.00  0.00     0.004 A 
ATOM     16  C   UNL A   1      29.842  30.445  21.346  1.00  0.00     0.047 A 
ATOM     17  C   UNL A   1      28.266  29.061  23.240  1.00  0.00     0.012 A 
ATOM     18  C   UNL A   1      28.467  30.674  21.443  1.00  0.00     0.043 A 
ATOM     19  C   UNL A   1      27.686  30.000  22.376  1.00  0.00     0.021 A 
ATOM     20  Cl  UNL A   1      27.734  31.842  20.410  1.00  0.00    -0.084 Cl
BRANCH  11  21
ATOM     21  C   UNL A   1      33.092  28.447  24.455  1.00  0.00     0.227 C 
ATOM     22  O   UNL A   1      34.020  27.716  24.105  1.00  0.00    -0.285 OA
BRANCH  21  23
ATOM     23  C   UNL A   1      33.276  29.130  25.768  1.00  0.00     0.113 A 
ATOM     24  C   UNL A   1      34.779  29.763  27.551  1.00  0.00    -0.026 A 
ATOM     25  C   UNL A   1      34.396  28.851  26.546  1.00  0.00     0.037 A 
ATOM     26  C   UNL A   1      33.996  30.915  27.726  1.00  0.00     0.062 A 
ATOM     27  C   UNL A   1      32.853  31.067  26.949  1.00  0.00     0.132 A 
ATOM     28  Cl  UNL A   1      34.434  32.202  28.782  1.00  0.00    -0.082 Cl
ATOM     29  N   UNL A   1      32.468  30.198  25.986  1.00  0.00    -0.251 NA
BRANCH  24  30
ATOM     30  C   UNL A   1      36.078  29.521  28.287  1.00  0.00     0.034 C 
ATOM     31  C   UNL A   1      37.333  29.822  27.480  1.00  0.00     0.009 C 
ENDBRANCH  24  30
ENDBRANCH  21  23
ENDBRANCH  11  21
ENDBRANCH   9  10
ENDBRANCH   7   9
ENDBRANCH   6   7
ENDBRANCH   5   6
ENDBRANCH   4   5
ENDBRANCH   3   4
ENDBRANCH   2   3
ENDBRANCH   1   2
BRANCH   1  32
ATOM     32  O   UNL A   1      36.032  22.641  23.663  1.00  0.00    -0.377 OA
BRANCH  32  33
ATOM     33  C   UNL A   1      36.278  23.582  24.694  1.00  0.00     0.188 C 
BRANCH  33  34
ATOM     34  C   UNL A   1      36.770  23.068  26.045  1.00  0.00     0.188 C 
BRANCH  34  35
ATOM     35  O   UNL A   1      37.977  22.308  26.085  1.00  0.00    -0.376 OA
BRANCH  35  36
ATOM     36  C   UNL A   1      39.220  22.961  26.327  1.00  0.00     0.202 C 
BRANCH  36  37
ATOM     37  C   UNL A   1      39.173  24.053  27.387  1.00  0.00     0.261 C 
BRANCH  37  38
ATOM     38  O   UNL A   1      39.640  25.296  26.848  1.00  0.00    -0.460 OA
BRANCH  38  39
ATOM     39  C   UNL A   1      40.798  25.744  27.378  1.00  0.00     0.338 C 
ATOM     40  O   UNL A   1      41.936  25.461  27.034  1.00  0.00    -0.246 OA
BRANCH  39  41
ATOM     41  C   UNL A   1      40.495  26.788  28.368  1.00  0.00     0.060 A 
ATOM     42  C   UNL A   1      41.291  27.941  28.367  1.00  0.00     0.016 A 
ATOM     43  C   UNL A   1      39.481  26.616  29.313  1.00  0.00     0.016 A 
ATOM     44  C   UNL A   1      41.115  28.904  29.351  1.00  0.00     0.010 A 
ATOM     45  C   UNL A   1      39.313  27.575  30.309  1.00  0.00     0.010 A 
ATOM     46  C   UNL A   1      40.164  28.692  30.355  1.00  0.00    -0.014 A 
BRANCH  46  47
ATOM     47  C   UNL A   1      40.219  29.514  31.579  1.00  0.00     0.031 A 
ATOM     48  C   UNL A   1      41.377  29.312  32.512  1.00  0.00     0.074 A 
ATOM     49  C   UNL A   1      39.277  30.434  31.833  1.00  0.00     0.049 A 
ATOM     50  N   UNL A   1      41.625  29.876  33.665  1.00  0.00    -0.248 NA
ATOM     51  C   UNL A   1      42.393  28.333  32.088  1.00  0.00     0.031 C 
ATOM     52  C   UNL A   1      38.150  30.755  30.959  1.00  0.00     0.029 A 
ATOM     53  N   UNL A   1      39.124  31.267  32.909  1.00  0.00    -0.354 N 
ATOM     54  C   UNL A   1      42.816  29.315  34.107  1.00  0.00     0.074 A 
ATOM     55  C   UNL A   1      43.222  28.338  33.120  1.00  0.00     0.031 C 
ATOM     56  C   UNL A   1      37.417  31.722  31.538  1.00  0.00     0.029 A 
ATOM     57  C   UNL A   1      38.002  32.051  32.835  1.00  0.00     0.049 A 
ATOM     58  H   UNL A   1      39.759  31.300  33.661  1.00  0.00     0.167 HD
ATOM     59  C   UNL A   1      43.512  29.591  35.234  1.00  0.00     0.031 A 
ATOM     60  C   UNL A   1      37.498  32.919  33.731  1.00  0.00     0.031 A 
ATOM     61  C   UNL A   1      43.079  30.541  36.222  1.00  0.00     0.049 A 
ATOM     62  C   UNL A   1      38.231  33.132  35.029  1.00  0.00     0.074 A 
ATOM     63  C   UNL A   1      43.699  30.903  37.405  1.00  0.00     0.029 A 
ATOM     64  N   UNL A   1      41.903  31.274  36.144  1.00  0.00    -0.354 N 
ATOM     65  N   UNL A   1      39.362  32.607  35.439  1.00  0.00    -0.248 NA
ATOM     66  C   UNL A   1      37.618  34.063  35.985  1.00  0.00     0.031 C 
ATOM     67  C   UNL A   1      42.862  31.802  38.074  1.00  0.00     0.029 A 
ATOM     68  C   UNL A   1      41.759  32.060  37.273  1.00  0.00     0.049 A 
ATOM     69  H   UNL A   1      41.264  31.238  35.395  1.00  0.00     0.167 HD
ATOM     70  C   UNL A   1      39.614  33.169  36.684  1.00  0.00     0.074 A 
ATOM     71  C   UNL A   1      38.520  34.082  36.956  1.00  0.00     0.031 C 
ATOM     72  C   UNL A   1      40.657  32.956  37.525  1.00  0.00     0.031 A 
BRANCH  59  73
ATOM     73  C   UNL A   1      44.773  28.804  35.471  1.00  0.00    -0.014 A 
ATOM     74  C   UNL A   1      45.986  29.153  34.854  1.00  0.00     0.009 A 
ATOM     75  C   UNL A   1      44.742  27.680  36.310  1.00  0.00     0.009 A 
ATOM     76  C   UNL A   1      47.124  28.361  35.029  1.00  0.00     0.001 A 
ATOM     77  C   UNL A   1      45.889  26.912  36.513  1.00  0.00     0.001 A 
ATOM     78  C   UNL A   1      47.075  27.244  35.860  1.00  0.00     0.000 A 
ENDBRANCH  59  73
BRANCH  60  79
ATOM     79  C   UNL A   1      36.238  33.645  33.430  1.00  0.00    -0.014 A 
ATOM     80  C   UNL A   1      36.273  34.958  32.938  1.00  0.00     0.009 A 
ATOM     81  C   UNL A   1      34.992  33.025  33.619  1.00  0.00     0.009 A 
ATOM     82  C   UNL A   1      35.087  35.641  32.658  1.00  0.00     0.001 A 
ATOM     83  C   UNL A   1      33.809  33.699  33.309  1.00  0.00     0.001 A 
ATOM     84  C   UNL A   1      33.857  35.009  32.836  1.00  0.00     0.000 A 
ENDBRANCH  60  79
BRANCH  72  85
ATOM     85  C   UNL A   1      40.688  33.756  38.799  1.00  0.00    -0.014 A 
ATOM     86  C   UNL A   1      40.114  33.273  39.984  1.00  0.00     0.009 A 
ATOM     87  C   UNL A   1      41.348  34.995  38.819  1.00  0.00     0.009 A 
ATOM     88  C   UNL A   1      40.169  34.033  41.155  1.00  0.00     0.001 A 
ATOM     89  C   UNL A   1      41.433  35.735  39.998  1.00  0.00     0.001 A 
ATOM     90  C   UNL A   1      40.834  35.259  41.162  1.00  0.00     0.000 A 
ENDBRANCH  72  85
ENDBRANCH  46  47
ENDBRANCH  39  41
ENDBRANCH  38  39
ENDBRANCH  37  38
ENDBRANCH  36  37
ENDBRANCH  35  36
ENDBRANCH  34  35
ENDBRANCH  33  34
ENDBRANCH  32  33
ENDBRANCH   1  32
TORSDOF 24
ENDMDL
