MODEL 1
REMARK VINA RESULT:      -8.4      0.000      0.000
REMARK SMILES Cc1cc([C@H]([NH3+])C(=O)OCCOCCOCCOCCOC(=O)c2ccc(-c3c4nc(c(-c5ccccc5)c5ccc([nH]5)c(-c5ccccc5)c5nc(c(-c6ccccc6)c6ccc3[nH]6)C=C5)C=C4)cc2)ccc1F
REMARK SMILES IDX 16 1 15 2 14 3 13 4 12 5 11 6 10 7 9 8 7 9 8 10 5 11 4 12
REMARK SMILES IDX 1 13 2 14 3 15 74 16 73 17 75 18 72 19 6 20 17 24 18 25
REMARK SMILES IDX 19 26 20 27 21 28 22 29 23 30 24 31 25 32 71 33 26 34 70 35
REMARK SMILES IDX 27 36 28 37 29 38 64 39 30 40 69 41 63 42 65 43 31 44 68 45
REMARK SMILES IDX 62 46 61 47 32 49 54 50 39 51 53 52 40 53 43 54 52 55 66 56
REMARK SMILES IDX 41 57 42 58 51 60 67 61 44 62 33 63 34 64 38 65 35 66 37 67
REMARK SMILES IDX 36 68 55 69 56 70 60 71 57 72 59 73 58 74 45 75 46 76 50 77
REMARK SMILES IDX 47 78 49 79 48 80
REMARK H PARENT 6 21 6 22 6 23 65 48 43 59
REMARK Flexibility Score: inf
ROOT
ATOM      1  C   UNL A   1      36.474  34.199  34.776  1.00  0.00     0.188 C 
ENDROOT
BRANCH   1   2
ATOM      2  O   UNL A   1      36.629  32.913  35.360  1.00  0.00    -0.377 OA
BRANCH   2   3
ATOM      3  C   UNL A   1      37.929  32.363  35.296  1.00  0.00     0.188 C 
BRANCH   3   4
ATOM      4  C   UNL A   1      38.003  31.006  34.579  1.00  0.00     0.188 C 
BRANCH   4   5
ATOM      5  O   UNL A   1      38.924  30.001  34.986  1.00  0.00    -0.376 OA
BRANCH   5   6
ATOM      6  C   UNL A   1      40.316  30.099  34.732  1.00  0.00     0.202 C 
BRANCH   6   7
ATOM      7  C   UNL A   1      41.395  29.564  35.690  1.00  0.00     0.261 C 
BRANCH   7   8
ATOM      8  O   UNL A   1      41.167  28.275  36.266  1.00  0.00    -0.459 OA
BRANCH   8   9
ATOM      9  C   UNL A   1      41.783  27.247  35.625  1.00  0.00     0.369 C 
ATOM     10  O   UNL A   1      42.294  27.336  34.510  1.00  0.00    -0.245 OA
BRANCH   9  11
ATOM     11  C   UNL A   1      41.718  25.921  36.404  1.00  0.00     0.323 C 
BRANCH  11  12
ATOM     12  C   UNL A   1      42.784  24.991  35.892  1.00  0.00     0.021 A 
ATOM     13  C   UNL A   1      46.514  24.352  36.325  1.00  0.00     0.047 C 
ATOM     14  C   UNL A   1      45.092  24.217  35.882  1.00  0.00    -0.015 A 
ATOM     15  C   UNL A   1      44.123  25.128  36.304  1.00  0.00     0.017 A 
ATOM     16  C   UNL A   1      44.697  23.162  35.058  1.00  0.00     0.126 A 
ATOM     17  C   UNL A   1      43.376  23.012  34.646  1.00  0.00     0.040 A 
ATOM     18  F   UNL A   1      45.601  22.257  34.659  1.00  0.00    -0.207 F 
ATOM     19  C   UNL A   1      42.417  23.929  35.059  1.00  0.00     0.013 A 
ENDBRANCH  11  12
BRANCH  11  20
ATOM     20  N   UNL A   1      40.409  25.244  36.434  1.00  0.00    -0.342 N 
ATOM     21  H   UNL A   1      39.763  25.726  35.808  1.00  0.00     0.345 HD
ATOM     22  H   UNL A   1      40.039  25.263  37.385  1.00  0.00     0.345 HD
ATOM     23  H   UNL A   1      40.518  24.277  36.131  1.00  0.00     0.345 HD
ENDBRANCH  11  20
ENDBRANCH   9  11
ENDBRANCH   8   9
ENDBRANCH   7   8
ENDBRANCH   6   7
ENDBRANCH   5   6
ENDBRANCH   4   5
ENDBRANCH   3   4
ENDBRANCH   2   3
ENDBRANCH   1   2
BRANCH   1  24
ATOM     24  C   UNL A   1      35.165  34.502  34.012  1.00  0.00     0.188 C 
BRANCH  24  25
ATOM     25  O   UNL A   1      35.171  35.719  33.279  1.00  0.00    -0.376 OA
BRANCH  25  26
ATOM     26  C   UNL A   1      33.946  36.408  33.071  1.00  0.00     0.202 C 
BRANCH  26  27
ATOM     27  C   UNL A   1      33.438  36.562  31.626  1.00  0.00     0.261 C 
BRANCH  27  28
ATOM     28  O   UNL A   1      32.903  35.383  31.005  1.00  0.00    -0.460 OA
BRANCH  28  29
ATOM     29  C   UNL A   1      33.294  35.095  29.747  1.00  0.00     0.338 C 
ATOM     30  O   UNL A   1      32.877  35.590  28.714  1.00  0.00    -0.246 OA
BRANCH  29  31
ATOM     31  C   UNL A   1      34.477  34.213  29.839  1.00  0.00     0.060 A 
ATOM     32  C   UNL A   1      34.465  33.157  30.761  1.00  0.00     0.016 A 
ATOM     33  C   UNL A   1      35.579  34.410  29.005  1.00  0.00     0.016 A 
ATOM     34  C   UNL A   1      35.572  32.315  30.876  1.00  0.00     0.010 A 
ATOM     35  C   UNL A   1      36.699  33.584  29.140  1.00  0.00     0.010 A 
ATOM     36  C   UNL A   1      36.711  32.554  30.098  1.00  0.00    -0.014 A 
BRANCH  36  37
ATOM     37  C   UNL A   1      37.987  31.876  30.434  1.00  0.00     0.031 A 
ATOM     38  C   UNL A   1      38.928  32.568  31.381  1.00  0.00     0.074 A 
ATOM     39  C   UNL A   1      38.303  30.672  29.928  1.00  0.00     0.049 A 
ATOM     40  N   UNL A   1      40.122  32.211  31.778  1.00  0.00    -0.248 NA
ATOM     41  C   UNL A   1      38.457  33.841  31.954  1.00  0.00     0.031 C 
ATOM     42  C   UNL A   1      37.457  29.872  29.045  1.00  0.00     0.029 A 
ATOM     43  N   UNL A   1      39.439  29.917  30.083  1.00  0.00    -0.354 N 
ATOM     44  C   UNL A   1      40.547  33.216  32.637  1.00  0.00     0.074 A 
ATOM     45  C   UNL A   1      39.500  34.212  32.680  1.00  0.00     0.031 C 
ATOM     46  C   UNL A   1      38.109  28.739  28.728  1.00  0.00     0.029 A 
ATOM     47  C   UNL A   1      39.432  28.754  29.353  1.00  0.00     0.049 A 
ATOM     48  H   UNL A   1      40.188  30.184  30.664  1.00  0.00     0.167 HD
ATOM     49  C   UNL A   1      41.706  33.304  33.331  1.00  0.00     0.031 A 
ATOM     50  C   UNL A   1      40.394  27.825  29.188  1.00  0.00     0.031 A 
ATOM     51  C   UNL A   1      42.757  32.325  33.273  1.00  0.00     0.049 A 
ATOM     52  C   UNL A   1      41.715  27.994  29.894  1.00  0.00     0.074 A 
ATOM     53  C   UNL A   1      43.964  32.317  33.948  1.00  0.00     0.029 A 
ATOM     54  N   UNL A   1      42.731  31.185  32.484  1.00  0.00    -0.354 N 
ATOM     55  N   UNL A   1      42.098  28.934  30.725  1.00  0.00    -0.248 NA
ATOM     56  C   UNL A   1      42.738  26.966  29.639  1.00  0.00     0.031 C 
ATOM     57  C   UNL A   1      44.698  31.207  33.515  1.00  0.00     0.029 A 
ATOM     58  C   UNL A   1      43.917  30.486  32.626  1.00  0.00     0.049 A 
ATOM     59  H   UNL A   1      41.980  30.915  31.908  1.00  0.00     0.167 HD
ATOM     60  C   UNL A   1      43.391  28.597  31.112  1.00  0.00     0.074 A 
ATOM     61  C   UNL A   1      43.718  27.356  30.441  1.00  0.00     0.031 C 
ATOM     62  C   UNL A   1      44.231  29.255  31.949  1.00  0.00     0.031 A 
BRANCH  49  63
ATOM     63  C   UNL A   1      41.912  34.530  34.177  1.00  0.00    -0.014 A 
ATOM     64  C   UNL A   1      41.533  34.560  35.529  1.00  0.00     0.009 A 
ATOM     65  C   UNL A   1      42.516  35.666  33.617  1.00  0.00     0.009 A 
ATOM     66  C   UNL A   1      41.721  35.717  36.290  1.00  0.00     0.001 A 
ATOM     67  C   UNL A   1      42.732  36.809  34.387  1.00  0.00     0.001 A 
ATOM     68  C   UNL A   1      42.324  36.837  35.720  1.00  0.00     0.000 A 
ENDBRANCH  49  63
BRANCH  50  69
ATOM     69  C   UNL A   1      40.165  26.659  28.292  1.00  0.00    -0.014 A 
ATOM     70  C   UNL A   1      40.658  26.656  26.978  1.00  0.00     0.009 A 
ATOM     71  C   UNL A   1      39.418  25.556  28.736  1.00  0.00     0.009 A 
ATOM     72  C   UNL A   1      40.386  25.587  26.121  1.00  0.00     0.001 A 
ATOM     73  C   UNL A   1      39.174  24.474  27.887  1.00  0.00     0.001 A 
ATOM     74  C   UNL A   1      39.649  24.496  26.576  1.00  0.00     0.000 A 
ENDBRANCH  50  69
BRANCH  62  75
ATOM     75  C   UNL A   1      45.575  28.630  32.216  1.00  0.00    -0.014 A 
ATOM     76  C   UNL A   1      46.642  28.775  31.315  1.00  0.00     0.009 A 
ATOM     77  C   UNL A   1      45.788  27.927  33.412  1.00  0.00     0.009 A 
ATOM     78  C   UNL A   1      47.883  28.197  31.591  1.00  0.00     0.001 A 
ATOM     79  C   UNL A   1      47.040  27.380  33.702  1.00  0.00     0.001 A 
ATOM     80  C   UNL A   1      48.082  27.507  32.787  1.00  0.00     0.000 A 
ENDBRANCH  62  75
ENDBRANCH  36  37
ENDBRANCH  29  31
ENDBRANCH  28  29
ENDBRANCH  27  28
ENDBRANCH  26  27
ENDBRANCH  25  26
ENDBRANCH  24  25
ENDBRANCH   1  24
TORSDOF 22
ENDMDL
MODEL 2
REMARK VINA RESULT:      -7.9      5.092      8.313
REMARK SMILES Cc1cc([C@H]([NH3+])C(=O)OCCOCCOCCOCCOC(=O)c2ccc(-c3c4nc(c(-c5ccccc5)c5ccc([nH]5)c(-c5ccccc5)c5nc(c(-c6ccccc6)c6ccc3[nH]6)C=C5)C=C4)cc2)ccc1F
REMARK SMILES IDX 16 1 15 2 14 3 13 4 12 5 11 6 10 7 9 8 7 9 8 10 5 11 4 12
REMARK SMILES IDX 1 13 2 14 3 15 74 16 73 17 75 18 72 19 6 20 17 24 18 25
REMARK SMILES IDX 19 26 20 27 21 28 22 29 23 30 24 31 25 32 71 33 26 34 70 35
REMARK SMILES IDX 27 36 28 37 29 38 64 39 30 40 69 41 63 42 65 43 31 44 68 45
REMARK SMILES IDX 62 46 61 47 32 49 54 50 39 51 53 52 40 53 43 54 52 55 66 56
REMARK SMILES IDX 41 57 42 58 51 60 67 61 44 62 33 63 34 64 38 65 35 66 37 67
REMARK SMILES IDX 36 68 55 69 56 70 60 71 57 72 59 73 58 74 45 75 46 76 50 77
REMARK SMILES IDX 47 78 49 79 48 80
REMARK H PARENT 6 21 6 22 6 23 65 48 43 59
REMARK Flexibility Score: inf
ROOT
ATOM      1  C   UNL A   1      33.031  35.371  29.675  1.00  0.00     0.188 C 
ENDROOT
BRANCH   1   2
ATOM      2  O   UNL A   1      34.335  35.263  29.122  1.00  0.00    -0.377 OA
BRANCH   2   3
ATOM      3  C   UNL A   1      34.497  34.282  28.117  1.00  0.00     0.188 C 
BRANCH   3   4
ATOM      4  C   UNL A   1      33.316  33.307  27.994  1.00  0.00     0.188 C 
BRANCH   4   5
ATOM      5  O   UNL A   1      33.515  31.941  27.649  1.00  0.00    -0.376 OA
BRANCH   5   6
ATOM      6  C   UNL A   1      34.801  31.343  27.629  1.00  0.00     0.202 C 
BRANCH   6   7
ATOM      7  C   UNL A   1      35.046  29.845  27.883  1.00  0.00     0.261 C 
BRANCH   7   8
ATOM      8  O   UNL A   1      33.964  28.955  27.596  1.00  0.00    -0.459 OA
BRANCH   8   9
ATOM      9  C   UNL A   1      33.602  28.903  26.287  1.00  0.00     0.369 C 
ATOM     10  O   UNL A   1      34.385  28.706  25.361  1.00  0.00    -0.245 OA
BRANCH   9  11
ATOM     11  C   UNL A   1      32.106  29.189  26.060  1.00  0.00     0.323 C 
BRANCH  11  12
ATOM     12  C   UNL A   1      31.478  28.023  25.347  1.00  0.00     0.021 A 
ATOM     13  C   UNL A   1      31.151  24.245  25.717  1.00  0.00     0.047 C 
ATOM     14  C   UNL A   1      30.993  25.642  25.203  1.00  0.00    -0.015 A 
ATOM     15  C   UNL A   1      31.638  26.709  25.829  1.00  0.00     0.017 A 
ATOM     16  C   UNL A   1      30.177  25.911  24.104  1.00  0.00     0.126 A 
ATOM     17  C   UNL A   1      30.007  27.204  23.620  1.00  0.00     0.040 A 
ATOM     18  F   UNL A   1      29.524  24.908  23.501  1.00  0.00    -0.207 F 
ATOM     19  C   UNL A   1      30.661  28.263  24.239  1.00  0.00     0.013 A 
ENDBRANCH  11  12
BRANCH  11  20
ATOM     20  N   UNL A   1      31.779  30.453  25.376  1.00  0.00    -0.342 N 
ATOM     21  H   UNL A   1      32.595  31.066  25.385  1.00  0.00     0.345 HD
ATOM     22  H   UNL A   1      31.005  30.911  25.859  1.00  0.00     0.345 HD
ATOM     23  H   UNL A   1      31.510  30.259  24.412  1.00  0.00     0.345 HD
ENDBRANCH  11  20
ENDBRANCH   9  11
ENDBRANCH   8   9
ENDBRANCH   7   8
ENDBRANCH   6   7
ENDBRANCH   5   6
ENDBRANCH   4   5
ENDBRANCH   3   4
ENDBRANCH   2   3
ENDBRANCH   1   2
BRANCH   1  24
ATOM     24  C   UNL A   1      32.901  35.675  31.185  1.00  0.00     0.188 C 
BRANCH  24  25
ATOM     25  O   UNL A   1      34.107  36.078  31.818  1.00  0.00    -0.376 OA
BRANCH  25  26
ATOM     26  C   UNL A   1      34.339  35.701  33.168  1.00  0.00     0.202 C 
BRANCH  26  27
ATOM     27  C   UNL A   1      34.484  34.203  33.487  1.00  0.00     0.261 C 
BRANCH  27  28
ATOM     28  O   UNL A   1      35.626  33.535  32.931  1.00  0.00    -0.460 OA
BRANCH  28  29
ATOM     29  C   UNL A   1      35.419  32.629  31.953  1.00  0.00     0.338 C 
ATOM     30  O   UNL A   1      34.355  32.329  31.438  1.00  0.00    -0.246 OA
BRANCH  29  31
ATOM     31  C   UNL A   1      36.743  32.198  31.456  1.00  0.00     0.060 A 
ATOM     32  C   UNL A   1      37.137  32.574  30.165  1.00  0.00     0.016 A 
ATOM     33  C   UNL A   1      37.599  31.450  32.266  1.00  0.00     0.016 A 
ATOM     34  C   UNL A   1      38.378  32.174  29.667  1.00  0.00     0.010 A 
ATOM     35  C   UNL A   1      38.830  31.026  31.757  1.00  0.00     0.010 A 
ATOM     36  C   UNL A   1      39.209  31.358  30.444  1.00  0.00    -0.014 A 
BRANCH  36  37
ATOM     37  C   UNL A   1      40.365  30.674  29.816  1.00  0.00     0.031 A 
ATOM     38  C   UNL A   1      41.650  31.443  29.674  1.00  0.00     0.074 A 
ATOM     39  C   UNL A   1      40.290  29.401  29.393  1.00  0.00     0.049 A 
ATOM     40  N   UNL A   1      42.774  31.088  29.107  1.00  0.00    -0.248 NA
ATOM     41  C   UNL A   1      41.665  32.800  30.247  1.00  0.00     0.031 C 
ATOM     42  C   UNL A   1      39.124  28.530  29.522  1.00  0.00     0.029 A 
ATOM     43  N   UNL A   1      41.224  28.623  28.755  1.00  0.00    -0.354 N 
ATOM     44  C   UNL A   1      43.624  32.178  29.246  1.00  0.00     0.074 A 
ATOM     45  C   UNL A   1      42.879  33.217  29.920  1.00  0.00     0.031 C 
ATOM     46  C   UNL A   1      39.410  27.337  28.969  1.00  0.00     0.029 A 
ATOM     47  C   UNL A   1      40.763  27.376  28.415  1.00  0.00     0.049 A 
ATOM     48  H   UNL A   1      42.140  28.931  28.561  1.00  0.00     0.167 HD
ATOM     49  C   UNL A   1      44.912  32.305  28.849  1.00  0.00     0.031 A 
ATOM     50  C   UNL A   1      41.357  26.390  27.713  1.00  0.00     0.031 A 
ATOM     51  C   UNL A   1      45.648  31.281  28.159  1.00  0.00     0.049 A 
ATOM     52  C   UNL A   1      42.758  26.592  27.194  1.00  0.00     0.074 A 
ATOM     53  C   UNL A   1      46.961  31.308  27.725  1.00  0.00     0.029 A 
ATOM     54  N   UNL A   1      45.128  30.049  27.790  1.00  0.00    -0.354 N 
ATOM     55  N   UNL A   1      43.563  27.616  27.353  1.00  0.00    -0.248 NA
ATOM     56  C   UNL A   1      43.334  25.495  26.399  1.00  0.00     0.031 C 
ATOM     57  C   UNL A   1      47.216  30.119  27.033  1.00  0.00     0.029 A 
ATOM     58  C   UNL A   1      46.084  29.322  27.100  1.00  0.00     0.049 A 
ATOM     59  H   UNL A   1      44.216  29.738  27.989  1.00  0.00     0.167 HD
ATOM     60  C   UNL A   1      44.745  27.275  26.705  1.00  0.00     0.074 A 
ATOM     61  C   UNL A   1      44.560  25.943  26.168  1.00  0.00     0.031 C 
ATOM     62  C   UNL A   1      45.884  28.000  26.568  1.00  0.00     0.031 A 
BRANCH  49  63
ATOM     63  C   UNL A   1      45.589  33.621  29.113  1.00  0.00    -0.014 A 
ATOM     64  C   UNL A   1      45.536  34.671  28.182  1.00  0.00     0.009 A 
ATOM     65  C   UNL A   1      46.273  33.820  30.321  1.00  0.00     0.009 A 
ATOM     66  C   UNL A   1      46.187  35.880  28.443  1.00  0.00     0.001 A 
ATOM     67  C   UNL A   1      46.894  35.039  30.594  1.00  0.00     0.001 A 
ATOM     68  C   UNL A   1      46.860  36.064  29.650  1.00  0.00     0.000 A 
ENDBRANCH  49  63
BRANCH  50  69
ATOM     69  C   UNL A   1      40.624  25.128  27.424  1.00  0.00    -0.014 A 
ATOM     70  C   UNL A   1      41.061  23.905  27.957  1.00  0.00     0.009 A 
ATOM     71  C   UNL A   1      39.499  25.135  26.584  1.00  0.00     0.009 A 
ATOM     72  C   UNL A   1      40.406  22.715  27.632  1.00  0.00     0.001 A 
ATOM     73  C   UNL A   1      38.826  23.947  26.285  1.00  0.00     0.001 A 
ATOM     74  C   UNL A   1      39.287  22.737  26.801  1.00  0.00     0.000 A 
ENDBRANCH  50  69
BRANCH  62  75
ATOM     75  C   UNL A   1      47.032  27.356  25.837  1.00  0.00    -0.014 A 
ATOM     76  C   UNL A   1      47.215  27.538  24.457  1.00  0.00     0.009 A 
ATOM     77  C   UNL A   1      47.972  26.597  26.552  1.00  0.00     0.009 A 
ATOM     78  C   UNL A   1      48.296  26.941  23.802  1.00  0.00     0.001 A 
ATOM     79  C   UNL A   1      49.070  26.031  25.901  1.00  0.00     0.001 A 
ATOM     80  C   UNL A   1      49.226  26.195  24.527  1.00  0.00     0.000 A 
ENDBRANCH  62  75
ENDBRANCH  36  37
ENDBRANCH  29  31
ENDBRANCH  28  29
ENDBRANCH  27  28
ENDBRANCH  26  27
ENDBRANCH  25  26
ENDBRANCH  24  25
ENDBRANCH   1  24
TORSDOF 22
ENDMDL
MODEL 3
REMARK VINA RESULT:      -7.8      5.465      8.491
REMARK SMILES Cc1cc([C@H]([NH3+])C(=O)OCCOCCOCCOCCOC(=O)c2ccc(-c3c4nc(c(-c5ccccc5)c5ccc([nH]5)c(-c5ccccc5)c5nc(c(-c6ccccc6)c6ccc3[nH]6)C=C5)C=C4)cc2)ccc1F
REMARK SMILES IDX 16 1 15 2 14 3 13 4 12 5 11 6 10 7 9 8 7 9 8 10 5 11 4 12
REMARK SMILES IDX 1 13 2 14 3 15 74 16 73 17 75 18 72 19 6 20 17 24 18 25
REMARK SMILES IDX 19 26 20 27 21 28 22 29 23 30 24 31 25 32 71 33 26 34 70 35
REMARK SMILES IDX 27 36 28 37 29 38 64 39 30 40 69 41 63 42 65 43 31 44 68 45
REMARK SMILES IDX 62 46 61 47 32 49 54 50 39 51 53 52 40 53 43 54 52 55 66 56
REMARK SMILES IDX 41 57 42 58 51 60 67 61 44 62 33 63 34 64 38 65 35 66 37 67
REMARK SMILES IDX 36 68 55 69 56 70 60 71 57 72 59 73 58 74 45 75 46 76 50 77
REMARK SMILES IDX 47 78 49 79 48 80
REMARK H PARENT 6 21 6 22 6 23 65 48 43 59
REMARK Flexibility Score: inf
ROOT
ATOM      1  C   UNL A   1      34.331  32.214  28.139  1.00  0.00     0.188 C 
ENDROOT
BRANCH   1   2
ATOM      2  O   UNL A   1      33.257  31.905  27.262  1.00  0.00    -0.377 OA
BRANCH   2   3
ATOM      3  C   UNL A   1      33.172  30.557  26.846  1.00  0.00     0.188 C 
BRANCH   3   4
ATOM      4  C   UNL A   1      31.920  30.233  26.015  1.00  0.00     0.188 C 
BRANCH   4   5
ATOM      5  O   UNL A   1      31.589  28.894  25.665  1.00  0.00    -0.376 OA
BRANCH   5   6
ATOM      6  C   UNL A   1      31.943  27.787  26.479  1.00  0.00     0.202 C 
BRANCH   6   7
ATOM      7  C   UNL A   1      31.258  26.412  26.387  1.00  0.00     0.261 C 
BRANCH   7   8
ATOM      8  O   UNL A   1      31.976  25.375  25.713  1.00  0.00    -0.459 OA
BRANCH   8   9
ATOM      9  C   UNL A   1      31.217  24.317  25.323  1.00  0.00     0.369 C 
ATOM     10  O   UNL A   1      30.550  24.289  24.291  1.00  0.00    -0.245 OA
BRANCH   9  11
ATOM     11  C   UNL A   1      31.211  23.166  26.346  1.00  0.00     0.323 C 
BRANCH  11  12
ATOM     12  C   UNL A   1      32.209  22.122  25.925  1.00  0.00     0.021 A 
ATOM     13  C   UNL A   1      32.505  19.230  23.463  1.00  0.00     0.047 C 
ATOM     14  C   UNL A   1      32.841  20.245  24.511  1.00  0.00    -0.015 A 
ATOM     15  C   UNL A   1      31.885  21.163  24.947  1.00  0.00     0.017 A 
ATOM     16  C   UNL A   1      34.124  20.312  25.055  1.00  0.00     0.126 A 
ATOM     17  C   UNL A   1      34.459  21.257  26.020  1.00  0.00     0.040 A 
ATOM     18  F   UNL A   1      35.069  19.461  24.635  1.00  0.00    -0.207 F 
ATOM     19  C   UNL A   1      33.501  22.162  26.460  1.00  0.00     0.013 A 
ENDBRANCH  11  12
BRANCH  11  20
ATOM     20  N   UNL A   1      29.902  22.549  26.628  1.00  0.00    -0.342 N 
ATOM     21  H   UNL A   1      30.001  21.874  27.386  1.00  0.00     0.345 HD
ATOM     22  H   UNL A   1      29.563  22.073  25.791  1.00  0.00     0.345 HD
ATOM     23  H   UNL A   1      29.237  23.272  26.901  1.00  0.00     0.345 HD
ENDBRANCH  11  20
ENDBRANCH   9  11
ENDBRANCH   8   9
ENDBRANCH   7   8
ENDBRANCH   6   7
ENDBRANCH   5   6
ENDBRANCH   4   5
ENDBRANCH   3   4
ENDBRANCH   2   3
ENDBRANCH   1   2
BRANCH   1  24
ATOM     24  C   UNL A   1      34.600  33.700  28.470  1.00  0.00     0.188 C 
BRANCH  24  25
ATOM     25  O   UNL A   1      35.671  33.923  29.377  1.00  0.00    -0.376 OA
BRANCH  25  26
ATOM     26  C   UNL A   1      35.386  34.437  30.671  1.00  0.00     0.202 C 
BRANCH  26  27
ATOM     27  C   UNL A   1      34.427  33.638  31.571  1.00  0.00     0.261 C 
BRANCH  27  28
ATOM     28  O   UNL A   1      34.857  32.325  31.960  1.00  0.00    -0.460 OA
BRANCH  28  29
ATOM     29  C   UNL A   1      35.906  32.222  32.801  1.00  0.00     0.338 C 
ATOM     30  O   UNL A   1      35.944  32.542  33.977  1.00  0.00    -0.246 OA
BRANCH  29  31
ATOM     31  C   UNL A   1      36.961  31.454  32.105  1.00  0.00     0.060 A 
ATOM     32  C   UNL A   1      38.117  31.095  32.812  1.00  0.00     0.016 A 
ATOM     33  C   UNL A   1      36.801  31.072  30.772  1.00  0.00     0.016 A 
ATOM     34  C   UNL A   1      39.132  30.379  32.177  1.00  0.00     0.010 A 
ATOM     35  C   UNL A   1      37.831  30.379  30.128  1.00  0.00     0.010 A 
ATOM     36  C   UNL A   1      39.013  30.059  30.820  1.00  0.00    -0.014 A 
BRANCH  36  37
ATOM     37  C   UNL A   1      40.202  29.589  30.067  1.00  0.00     0.031 A 
ATOM     38  C   UNL A   1      41.324  30.563  29.838  1.00  0.00     0.074 A 
ATOM     39  C   UNL A   1      40.297  28.329  29.609  1.00  0.00     0.049 A 
ATOM     40  N   UNL A   1      42.434  30.411  29.162  1.00  0.00    -0.248 NA
ATOM     41  C   UNL A   1      41.171  31.892  30.454  1.00  0.00     0.031 C 
ATOM     42  C   UNL A   1      39.307  27.274  29.811  1.00  0.00     0.029 A 
ATOM     43  N   UNL A   1      41.283  27.730  28.865  1.00  0.00    -0.354 N 
ATOM     44  C   UNL A   1      43.103  31.624  29.262  1.00  0.00     0.074 A 
ATOM     45  C   UNL A   1      42.264  32.511  30.036  1.00  0.00     0.031 C 
ATOM     46  C   UNL A   1      39.732  26.156  29.195  1.00  0.00     0.029 A 
ATOM     47  C   UNL A   1      41.003  26.430  28.524  1.00  0.00     0.049 A 
ATOM     48  H   UNL A   1      42.113  28.190  28.601  1.00  0.00     0.167 HD
ATOM     49  C   UNL A   1      44.310  31.971  28.757  1.00  0.00     0.031 A 
ATOM     50  C   UNL A   1      41.682  25.571  27.738  1.00  0.00     0.031 A 
ATOM     51  C   UNL A   1      45.136  31.097  27.969  1.00  0.00     0.049 A 
ATOM     52  C   UNL A   1      42.977  26.013  27.104  1.00  0.00     0.074 A 
ATOM     53  C   UNL A   1      46.380  31.351  27.422  1.00  0.00     0.029 A 
ATOM     54  N   UNL A   1      44.793  29.804  27.606  1.00  0.00    -0.354 N 
ATOM     55  N   UNL A   1      43.614  27.153  27.227  1.00  0.00    -0.248 NA
ATOM     56  C   UNL A   1      43.647  25.043  26.224  1.00  0.00     0.031 C 
ATOM     57  C   UNL A   1      46.761  30.235  26.669  1.00  0.00     0.029 A 
ATOM     58  C   UNL A   1      45.786  29.260  26.809  1.00  0.00     0.049 A 
ATOM     59  H   UNL A   1      43.966  29.342  27.874  1.00  0.00     0.167 HD
ATOM     60  C   UNL A   1      44.770  27.026  26.465  1.00  0.00     0.074 A 
ATOM     61  C   UNL A   1      44.756  25.693  25.900  1.00  0.00     0.031 C 
ATOM     62  C   UNL A   1      45.756  27.933  26.252  1.00  0.00     0.031 A 
BRANCH  49  63
ATOM     63  C   UNL A   1      44.783  33.377  29.005  1.00  0.00    -0.014 A 
ATOM     64  C   UNL A   1      44.421  34.433  28.153  1.00  0.00     0.009 A 
ATOM     65  C   UNL A   1      45.588  33.651  30.121  1.00  0.00     0.009 A 
ATOM     66  C   UNL A   1      44.888  35.728  28.395  1.00  0.00     0.001 A 
ATOM     67  C   UNL A   1      46.025  34.951  30.379  1.00  0.00     0.001 A 
ATOM     68  C   UNL A   1      45.684  35.986  29.510  1.00  0.00     0.000 A 
ENDBRANCH  49  63
BRANCH  50  69
ATOM     69  C   UNL A   1      41.142  24.210  27.473  1.00  0.00    -0.014 A 
ATOM     70  C   UNL A   1      40.079  24.022  26.575  1.00  0.00     0.009 A 
ATOM     71  C   UNL A   1      41.664  23.093  28.145  1.00  0.00     0.009 A 
ATOM     72  C   UNL A   1      39.534  22.750  26.377  1.00  0.00     0.001 A 
ATOM     73  C   UNL A   1      41.138  21.818  27.922  1.00  0.00     0.001 A 
ATOM     74  C   UNL A   1      40.066  21.650  27.046  1.00  0.00     0.000 A 
ENDBRANCH  50  69
BRANCH  62  75
ATOM     75  C   UNL A   1      46.921  27.504  25.399  1.00  0.00    -0.014 A 
ATOM     76  C   UNL A   1      47.967  26.729  25.925  1.00  0.00     0.009 A 
ATOM     77  C   UNL A   1      46.945  27.841  24.036  1.00  0.00     0.009 A 
ATOM     78  C   UNL A   1      49.031  26.332  25.111  1.00  0.00     0.001 A 
ATOM     79  C   UNL A   1      47.992  27.414  23.217  1.00  0.00     0.001 A 
ATOM     80  C   UNL A   1      49.039  26.669  23.757  1.00  0.00     0.000 A 
ENDBRANCH  62  75
ENDBRANCH  36  37
ENDBRANCH  29  31
ENDBRANCH  28  29
ENDBRANCH  27  28
ENDBRANCH  26  27
ENDBRANCH  25  26
ENDBRANCH  24  25
ENDBRANCH   1  24
TORSDOF 22
ENDMDL
