MODEL 1
REMARK VINA RESULT:      -9.7      0.000      0.000
REMARK SMILES Cc1nccn1C1(C(=O)OCCOCCOCCOCCOC(=O)c2ccc(-c3c4nc(c(-c5ccccc5)c5ccc([nH]5)c(-c5ccccc5)c5nc(c(-c6ccccc6)c6ccc3[nH]6)C=C5)C=C4)cc2)CCN(C(=O)[C@@H]2C[C@H]2c2ccccc2)CC1
REMARK SMILES IDX 16 1 15 2 14 3 13 4 12 5 11 6 10 7 8 8 9 9 7 10 73 11 88 12
REMARK SMILES IDX 74 13 87 14 75 15 76 16 77 17 6 18 1 19 2 20 3 21 4 22 5 23
REMARK SMILES IDX 78 24 79 25 80 26 81 27 82 28 86 29 83 30 85 31 84 32 17 33
REMARK SMILES IDX 18 34 19 35 20 36 21 37 22 38 23 39 24 40 25 41 26 42 72 43
REMARK SMILES IDX 27 44 71 45 28 46 29 47 30 48 65 49 31 50 70 51 64 52 66 53
REMARK SMILES IDX 32 54 69 55 63 56 62 57 33 59 55 60 40 61 54 62 41 63 44 64
REMARK SMILES IDX 53 65 67 66 42 67 43 68 52 70 68 71 45 72 34 73 35 74 39 75
REMARK SMILES IDX 36 76 38 77 37 78 56 79 57 80 61 81 58 82 60 83 59 84 46 85
REMARK SMILES IDX 47 86 51 87 48 88 50 89 49 90
REMARK H PARENT 66 58 44 69
REMARK Flexibility Score: inf
ROOT
ATOM      1  O   UNL A   1      42.109  22.550  26.169  1.00  0.00    -0.377 OA
ENDROOT
BRANCH   1   2
ATOM      2  C   UNL A   1      41.202  21.471  26.108  1.00  0.00     0.188 C 
BRANCH   2   3
ATOM      3  C   UNL A   1      39.756  21.770  26.575  1.00  0.00     0.188 C 
BRANCH   3   4
ATOM      4  O   UNL A   1      38.870  22.454  25.698  1.00  0.00    -0.376 OA
BRANCH   4   5
ATOM      5  C   UNL A   1      37.640  21.834  25.334  1.00  0.00     0.202 C 
BRANCH   5   6
ATOM      6  C   UNL A   1      36.759  22.437  24.206  1.00  0.00     0.261 C 
BRANCH   6   7
ATOM      7  O   UNL A   1      35.356  22.201  24.435  1.00  0.00    -0.461 OA
BRANCH   7   8
ATOM      8  C   UNL A   1      34.327  22.689  23.656  1.00  0.00     0.332 C 
ATOM      9  O   UNL A   1      34.488  23.213  22.569  1.00  0.00    -0.249 OA
BRANCH   8  10
ATOM     10  C   UNL A   1      32.960  22.441  24.463  1.00  0.00     0.146 C 
ATOM     11  C   UNL A   1      31.447  22.754  24.259  1.00  0.00     0.062 C 
ATOM     12  C   UNL A   1      33.228  23.523  25.596  1.00  0.00     0.062 C 
ATOM     13  C   UNL A   1      31.112  24.101  23.706  1.00  0.00     0.122 C 
ATOM     14  C   UNL A   1      33.059  24.921  24.918  1.00  0.00     0.122 C 
ATOM     15  N   UNL A   1      31.674  25.133  24.550  1.00  0.00    -0.342 N 
ATOM     16  C   UNL A   1      30.810  26.117  25.013  1.00  0.00     0.226 C 
ATOM     17  O   UNL A   1      29.597  25.913  25.068  1.00  0.00    -0.275 OA
BRANCH  10  18
ATOM     18  N   UNL A   1      32.868  20.975  24.425  1.00  0.00    -0.318 N 
ATOM     19  C   UNL A   1      31.922  20.953  22.003  1.00  0.00     0.087 C 
ATOM     20  C   UNL A   1      32.452  20.301  23.251  1.00  0.00     0.106 A 
ATOM     21  N   UNL A   1      32.394  19.004  23.459  1.00  0.00    -0.242 NA
ATOM     22  C   UNL A   1      32.608  18.831  24.792  1.00  0.00     0.131 A 
ATOM     23  C   UNL A   1      32.825  20.038  25.421  1.00  0.00     0.108 A 
ENDBRANCH  10  18
BRANCH  16  24
ATOM     24  C   UNL A   1      31.250  27.501  25.316  1.00  0.00     0.087 C 
ATOM     25  C   UNL A   1      31.141  28.600  24.294  1.00  0.00     0.023 C 
ATOM     26  C   UNL A   1      32.487  28.248  24.887  1.00  0.00     0.032 C 
BRANCH  26  27
ATOM     27  C   UNL A   1      33.157  29.115  25.919  1.00  0.00    -0.044 A 
ATOM     28  C   UNL A   1      34.434  28.829  26.424  1.00  0.00     0.004 A 
ATOM     29  C   UNL A   1      32.490  30.245  26.420  1.00  0.00     0.004 A 
ATOM     30  C   UNL A   1      35.037  29.660  27.365  1.00  0.00     0.000 A 
ATOM     31  C   UNL A   1      33.086  31.076  27.368  1.00  0.00     0.000 A 
ATOM     32  C   UNL A   1      34.364  30.785  27.835  1.00  0.00     0.000 A 
ENDBRANCH  26  27
ENDBRANCH  16  24
ENDBRANCH   8  10
ENDBRANCH   7   8
ENDBRANCH   6   7
ENDBRANCH   5   6
ENDBRANCH   4   5
ENDBRANCH   3   4
ENDBRANCH   2   3
ENDBRANCH   1   2
BRANCH   1  33
ATOM     33  C   UNL A   1      43.315  22.334  26.895  1.00  0.00     0.188 C 
BRANCH  33  34
ATOM     34  C   UNL A   1      44.702  22.408  26.198  1.00  0.00     0.188 C 
BRANCH  34  35
ATOM     35  O   UNL A   1      45.506  23.530  26.526  1.00  0.00    -0.376 OA
BRANCH  35  36
ATOM     36  C   UNL A   1      45.691  24.042  27.834  1.00  0.00     0.202 C 
BRANCH  36  37
ATOM     37  C   UNL A   1      45.342  25.504  28.109  1.00  0.00     0.261 C 
BRANCH  37  38
ATOM     38  O   UNL A   1      44.106  25.654  28.772  1.00  0.00    -0.460 OA
BRANCH  38  39
ATOM     39  C   UNL A   1      43.213  26.383  28.074  1.00  0.00     0.338 C 
ATOM     40  O   UNL A   1      43.315  26.782  26.935  1.00  0.00    -0.246 OA
BRANCH  39  41
ATOM     41  C   UNL A   1      42.103  26.709  28.974  1.00  0.00     0.060 A 
ATOM     42  C   UNL A   1      40.954  27.169  28.337  1.00  0.00     0.016 A 
ATOM     43  C   UNL A   1      42.423  27.017  30.304  1.00  0.00     0.016 A 
ATOM     44  C   UNL A   1      40.342  28.259  28.891  1.00  0.00     0.010 A 
ATOM     45  C   UNL A   1      41.827  28.116  30.846  1.00  0.00     0.010 A 
ATOM     46  C   UNL A   1      40.899  28.789  30.059  1.00  0.00    -0.014 A 
BRANCH  46  47
ATOM     47  C   UNL A   1      40.506  30.116  30.443  1.00  0.00     0.031 A 
ATOM     48  C   UNL A   1      41.644  31.044  30.469  1.00  0.00     0.074 A 
ATOM     49  C   UNL A   1      39.216  30.434  30.648  1.00  0.00     0.049 A 
ATOM     50  N   UNL A   1      42.220  31.546  31.507  1.00  0.00    -0.248 NA
ATOM     51  C   UNL A   1      42.362  31.257  29.201  1.00  0.00     0.031 C 
ATOM     52  C   UNL A   1      38.010  29.653  30.352  1.00  0.00     0.029 A 
ATOM     53  N   UNL A   1      38.713  31.615  31.071  1.00  0.00    -0.354 N 
ATOM     54  C   UNL A   1      43.269  32.300  31.003  1.00  0.00     0.074 A 
ATOM     55  C   UNL A   1      43.445  31.899  29.632  1.00  0.00     0.031 C 
ATOM     56  C   UNL A   1      36.936  30.481  30.362  1.00  0.00     0.029 A 
ATOM     57  C   UNL A   1      37.369  31.800  30.796  1.00  0.00     0.049 A 
ATOM     58  H   UNL A   1      39.259  32.289  31.537  1.00  0.00     0.167 HD
ATOM     59  C   UNL A   1      43.722  33.402  31.654  1.00  0.00     0.031 A 
ATOM     60  C   UNL A   1      36.717  32.990  30.834  1.00  0.00     0.031 A 
ATOM     61  C   UNL A   1      43.264  33.446  33.017  1.00  0.00     0.049 A 
ATOM     62  C   UNL A   1      37.561  33.930  31.619  1.00  0.00     0.074 A 
ATOM     63  C   UNL A   1      43.451  32.643  34.125  1.00  0.00     0.029 A 
ATOM     64  N   UNL A   1      42.145  34.204  33.277  1.00  0.00    -0.354 N 
ATOM     65  N   UNL A   1      37.787  33.792  32.894  1.00  0.00    -0.248 NA
ATOM     66  C   UNL A   1      38.544  34.727  30.897  1.00  0.00     0.031 C 
ATOM     67  C   UNL A   1      42.188  32.627  34.785  1.00  0.00     0.029 A 
ATOM     68  C   UNL A   1      41.318  33.466  34.085  1.00  0.00     0.049 A 
ATOM     69  H   UNL A   1      41.971  35.113  32.943  1.00  0.00     0.167 HD
ATOM     70  C   UNL A   1      39.131  34.105  33.058  1.00  0.00     0.074 A 
ATOM     71  C   UNL A   1      39.523  34.757  31.809  1.00  0.00     0.031 C 
ATOM     72  C   UNL A   1      39.872  33.544  34.059  1.00  0.00     0.031 A 
BRANCH  59  73
ATOM     73  C   UNL A   1      44.214  34.621  30.923  1.00  0.00    -0.014 A 
ATOM     74  C   UNL A   1      45.595  34.791  30.754  1.00  0.00     0.009 A 
ATOM     75  C   UNL A   1      43.396  35.731  30.627  1.00  0.00     0.009 A 
ATOM     76  C   UNL A   1      46.128  36.024  30.362  1.00  0.00     0.001 A 
ATOM     77  C   UNL A   1      43.919  36.947  30.192  1.00  0.00     0.001 A 
ATOM     78  C   UNL A   1      45.291  37.102  30.085  1.00  0.00     0.000 A 
ENDBRANCH  59  73
BRANCH  60  79
ATOM     79  C   UNL A   1      35.632  33.457  29.942  1.00  0.00    -0.014 A 
ATOM     80  C   UNL A   1      34.403  33.890  30.464  1.00  0.00     0.009 A 
ATOM     81  C   UNL A   1      35.899  33.734  28.588  1.00  0.00     0.009 A 
ATOM     82  C   UNL A   1      33.491  34.600  29.668  1.00  0.00     0.001 A 
ATOM     83  C   UNL A   1      34.989  34.441  27.793  1.00  0.00     0.001 A 
ATOM     84  C   UNL A   1      33.790  34.885  28.337  1.00  0.00     0.000 A 
ENDBRANCH  60  79
BRANCH  72  85
ATOM     85  C   UNL A   1      39.143  32.720  35.096  1.00  0.00    -0.014 A 
ATOM     86  C   UNL A   1      38.946  31.332  34.973  1.00  0.00     0.009 A 
ATOM     87  C   UNL A   1      38.799  33.333  36.309  1.00  0.00     0.009 A 
ATOM     88  C   UNL A   1      38.404  30.587  36.027  1.00  0.00     0.001 A 
ATOM     89  C   UNL A   1      38.277  32.587  37.368  1.00  0.00     0.001 A 
ATOM     90  C   UNL A   1      38.077  31.216  37.226  1.00  0.00     0.000 A 
ENDBRANCH  72  85
ENDBRANCH  46  47
ENDBRANCH  39  41
ENDBRANCH  38  39
ENDBRANCH  37  38
ENDBRANCH  36  37
ENDBRANCH  35  36
ENDBRANCH  34  35
ENDBRANCH  33  34
ENDBRANCH   1  33
TORSDOF 23
ENDMDL
MODEL 2
REMARK VINA RESULT:      -9.3      5.401     12.880
REMARK SMILES Cc1nccn1C1(C(=O)OCCOCCOCCOCCOC(=O)c2ccc(-c3c4nc(c(-c5ccccc5)c5ccc([nH]5)c(-c5ccccc5)c5nc(c(-c6ccccc6)c6ccc3[nH]6)C=C5)C=C4)cc2)CCN(C(=O)[C@@H]2C[C@H]2c2ccccc2)CC1
REMARK SMILES IDX 16 1 15 2 14 3 13 4 12 5 11 6 10 7 8 8 9 9 7 10 73 11 88 12
REMARK SMILES IDX 74 13 87 14 75 15 76 16 77 17 6 18 1 19 2 20 3 21 4 22 5 23
REMARK SMILES IDX 78 24 79 25 80 26 81 27 82 28 86 29 83 30 85 31 84 32 17 33
REMARK SMILES IDX 18 34 19 35 20 36 21 37 22 38 23 39 24 40 25 41 26 42 72 43
REMARK SMILES IDX 27 44 71 45 28 46 29 47 30 48 65 49 31 50 70 51 64 52 66 53
REMARK SMILES IDX 32 54 69 55 63 56 62 57 33 59 55 60 40 61 54 62 41 63 44 64
REMARK SMILES IDX 53 65 67 66 42 67 43 68 52 70 68 71 45 72 34 73 35 74 39 75
REMARK SMILES IDX 36 76 38 77 37 78 56 79 57 80 61 81 58 82 60 83 59 84 46 85
REMARK SMILES IDX 47 86 51 87 48 88 50 89 49 90
REMARK H PARENT 66 58 44 69
REMARK Flexibility Score: inf
ROOT
ATOM      1  O   UNL A   1      38.021  34.667  34.159  1.00  0.00    -0.377 OA
ENDROOT
BRANCH   1   2
ATOM      2  C   UNL A   1      39.243  34.850  33.476  1.00  0.00     0.188 C 
BRANCH   2   3
ATOM      3  C   UNL A   1      40.518  34.852  34.352  1.00  0.00     0.188 C 
BRANCH   3   4
ATOM      4  O   UNL A   1      41.762  34.479  33.772  1.00  0.00    -0.376 OA
BRANCH   4   5
ATOM      5  C   UNL A   1      42.836  35.414  33.773  1.00  0.00     0.202 C 
BRANCH   5   6
ATOM      6  C   UNL A   1      44.192  35.055  34.439  1.00  0.00     0.261 C 
BRANCH   6   7
ATOM      7  O   UNL A   1      44.541  33.672  34.236  1.00  0.00    -0.461 OA
BRANCH   7   8
ATOM      8  C   UNL A   1      45.428  33.203  33.289  1.00  0.00     0.332 C 
ATOM      9  O   UNL A   1      45.373  33.490  32.107  1.00  0.00    -0.249 OA
BRANCH   8  10
ATOM     10  C   UNL A   1      46.470  32.242  34.045  1.00  0.00     0.146 C 
ATOM     11  C   UNL A   1      47.606  31.254  33.641  1.00  0.00     0.062 C 
ATOM     12  C   UNL A   1      45.408  31.144  34.483  1.00  0.00     0.062 C 
ATOM     13  C   UNL A   1      47.336  30.372  32.466  1.00  0.00     0.122 C 
ATOM     14  C   UNL A   1      45.008  30.375  33.183  1.00  0.00     0.122 C 
ATOM     15  N   UNL A   1      46.132  29.602  32.695  1.00  0.00    -0.342 N 
ATOM     16  C   UNL A   1      46.223  28.224  32.553  1.00  0.00     0.226 C 
ATOM     17  O   UNL A   1      47.308  27.652  32.648  1.00  0.00    -0.275 OA
BRANCH  10  18
ATOM     18  N   UNL A   1      47.303  33.226  34.753  1.00  0.00    -0.318 N 
ATOM     19  C   UNL A   1      48.601  33.889  32.601  1.00  0.00     0.087 C 
ATOM     20  C   UNL A   1      48.234  34.029  34.053  1.00  0.00     0.106 A 
ATOM     21  N   UNL A   1      48.901  34.796  34.887  1.00  0.00    -0.242 NA
ATOM     22  C   UNL A   1      48.537  34.393  36.135  1.00  0.00     0.131 A 
ATOM     23  C   UNL A   1      47.612  33.374  36.077  1.00  0.00     0.108 A 
ENDBRANCH  10  18
BRANCH  16  24
ATOM     24  C   UNL A   1      45.078  27.379  32.131  1.00  0.00     0.087 C 
ATOM     25  C   UNL A   1      44.087  26.847  33.130  1.00  0.00     0.023 C 
ATOM     26  C   UNL A   1      44.865  25.891  32.254  1.00  0.00     0.032 C 
BRANCH  26  27
ATOM     27  C   UNL A   1      44.237  25.189  31.080  1.00  0.00    -0.044 A 
ATOM     28  C   UNL A   1      44.250  23.794  30.947  1.00  0.00     0.004 A 
ATOM     29  C   UNL A   1      43.626  25.942  30.063  1.00  0.00     0.004 A 
ATOM     30  C   UNL A   1      43.644  23.170  29.858  1.00  0.00     0.000 A 
ATOM     31  C   UNL A   1      43.025  25.323  28.967  1.00  0.00     0.000 A 
ATOM     32  C   UNL A   1      43.029  23.935  28.871  1.00  0.00     0.000 A 
ENDBRANCH  26  27
ENDBRANCH  16  24
ENDBRANCH   8  10
ENDBRANCH   7   8
ENDBRANCH   6   7
ENDBRANCH   5   6
ENDBRANCH   4   5
ENDBRANCH   3   4
ENDBRANCH   2   3
ENDBRANCH   1   2
BRANCH   1  33
ATOM     33  C   UNL A   1      36.873  34.402  33.361  1.00  0.00     0.188 C 
BRANCH  33  34
ATOM     34  C   UNL A   1      35.453  34.836  33.816  1.00  0.00     0.188 C 
BRANCH  34  35
ATOM     35  O   UNL A   1      34.945  36.025  33.230  1.00  0.00    -0.376 OA
BRANCH  35  36
ATOM     36  C   UNL A   1      33.581  36.264  32.931  1.00  0.00     0.202 C 
BRANCH  36  37
ATOM     37  C   UNL A   1      33.144  36.306  31.468  1.00  0.00     0.261 C 
BRANCH  37  38
ATOM     38  O   UNL A   1      33.181  35.037  30.851  1.00  0.00    -0.460 OA
BRANCH  38  39
ATOM     39  C   UNL A   1      33.409  35.097  29.524  1.00  0.00     0.338 C 
ATOM     40  O   UNL A   1      33.122  35.996  28.765  1.00  0.00    -0.246 OA
BRANCH  39  41
ATOM     41  C   UNL A   1      33.993  33.817  29.114  1.00  0.00     0.060 A 
ATOM     42  C   UNL A   1      34.156  32.896  30.146  1.00  0.00     0.016 A 
ATOM     43  C   UNL A   1      34.763  33.806  27.942  1.00  0.00     0.016 A 
ATOM     44  C   UNL A   1      35.349  32.229  30.187  1.00  0.00     0.010 A 
ATOM     45  C   UNL A   1      35.960  33.158  27.995  1.00  0.00     0.010 A 
ATOM     46  C   UNL A   1      36.278  32.501  29.178  1.00  0.00    -0.014 A 
BRANCH  46  47
ATOM     47  C   UNL A   1      37.639  32.103  29.400  1.00  0.00     0.031 A 
ATOM     48  C   UNL A   1      37.880  30.710  29.000  1.00  0.00     0.074 A 
ATOM     49  C   UNL A   1      38.564  32.977  29.835  1.00  0.00     0.049 A 
ATOM     50  N   UNL A   1      38.073  29.697  29.773  1.00  0.00    -0.248 NA
ATOM     51  C   UNL A   1      37.655  30.373  27.585  1.00  0.00     0.031 C 
ATOM     52  C   UNL A   1      38.473  34.434  29.966  1.00  0.00     0.029 A 
ATOM     53  N   UNL A   1      39.856  32.727  30.145  1.00  0.00    -0.354 N 
ATOM     54  C   UNL A   1      38.185  28.611  28.917  1.00  0.00     0.074 A 
ATOM     55  C   UNL A   1      37.692  29.043  27.636  1.00  0.00     0.031 C 
ATOM     56  C   UNL A   1      39.724  34.945  30.074  1.00  0.00     0.029 A 
ATOM     57  C   UNL A   1      40.672  33.844  30.156  1.00  0.00     0.049 A 
ATOM     58  H   UNL A   1      40.188  31.822  30.347  1.00  0.00     0.167 HD
ATOM     59  C   UNL A   1      38.943  27.532  29.240  1.00  0.00     0.031 A 
ATOM     60  C   UNL A   1      42.029  33.826  30.131  1.00  0.00     0.031 A 
ATOM     61  C   UNL A   1      39.265  27.505  30.643  1.00  0.00     0.049 A 
ATOM     62  C   UNL A   1      42.458  32.456  30.523  1.00  0.00     0.074 A 
ATOM     63  C   UNL A   1      38.523  27.406  31.803  1.00  0.00     0.029 A 
ATOM     64  N   UNL A   1      40.489  28.015  31.013  1.00  0.00    -0.354 N 
ATOM     65  N   UNL A   1      42.279  31.966  31.716  1.00  0.00    -0.248 NA
ATOM     66  C   UNL A   1      42.630  31.468  29.466  1.00  0.00     0.031 C 
ATOM     67  C   UNL A   1      39.164  28.281  32.727  1.00  0.00     0.029 A 
ATOM     68  C   UNL A   1      40.294  28.820  32.107  1.00  0.00     0.049 A 
ATOM     69  H   UNL A   1      41.350  27.833  30.571  1.00  0.00     0.167 HD
ATOM     70  C   UNL A   1      41.890  30.648  31.510  1.00  0.00     0.074 A 
ATOM     71  C   UNL A   1      42.209  30.374  30.109  1.00  0.00     0.031 C 
ATOM     72  C   UNL A   1      41.078  30.002  32.399  1.00  0.00     0.031 A 
BRANCH  59  73
ATOM     73  C   UNL A   1      39.725  26.762  28.213  1.00  0.00    -0.014 A 
ATOM     74  C   UNL A   1      40.588  27.465  27.360  1.00  0.00     0.009 A 
ATOM     75  C   UNL A   1      39.454  25.420  27.877  1.00  0.00     0.009 A 
ATOM     76  C   UNL A   1      41.105  26.869  26.205  1.00  0.00     0.001 A 
ATOM     77  C   UNL A   1      40.003  24.807  26.752  1.00  0.00     0.001 A 
ATOM     78  C   UNL A   1      40.810  25.542  25.900  1.00  0.00     0.000 A 
ENDBRANCH  59  73
BRANCH  60  79
ATOM     79  C   UNL A   1      42.935  34.772  29.443  1.00  0.00    -0.014 A 
ATOM     80  C   UNL A   1      43.576  35.802  30.149  1.00  0.00     0.009 A 
ATOM     81  C   UNL A   1      43.383  34.499  28.137  1.00  0.00     0.009 A 
ATOM     82  C   UNL A   1      44.646  36.509  29.579  1.00  0.00     0.001 A 
ATOM     83  C   UNL A   1      44.450  35.205  27.568  1.00  0.00     0.001 A 
ATOM     84  C   UNL A   1      45.090  36.202  28.294  1.00  0.00     0.000 A 
ENDBRANCH  60  79
BRANCH  72  85
ATOM     85  C   UNL A   1      40.770  30.699  33.704  1.00  0.00    -0.014 A 
ATOM     86  C   UNL A   1      39.503  31.232  34.008  1.00  0.00     0.009 A 
ATOM     87  C   UNL A   1      41.734  30.662  34.720  1.00  0.00     0.009 A 
ATOM     88  C   UNL A   1      39.221  31.729  35.286  1.00  0.00     0.001 A 
ATOM     89  C   UNL A   1      41.446  31.139  36.001  1.00  0.00     0.001 A 
ATOM     90  C   UNL A   1      40.192  31.675  36.283  1.00  0.00     0.000 A 
ENDBRANCH  72  85
ENDBRANCH  46  47
ENDBRANCH  39  41
ENDBRANCH  38  39
ENDBRANCH  37  38
ENDBRANCH  36  37
ENDBRANCH  35  36
ENDBRANCH  34  35
ENDBRANCH  33  34
ENDBRANCH   1  33
TORSDOF 23
ENDMDL
MODEL 3
REMARK VINA RESULT:      -9.1      3.751      8.691
REMARK SMILES Cc1nccn1C1(C(=O)OCCOCCOCCOCCOC(=O)c2ccc(-c3c4nc(c(-c5ccccc5)c5ccc([nH]5)c(-c5ccccc5)c5nc(c(-c6ccccc6)c6ccc3[nH]6)C=C5)C=C4)cc2)CCN(C(=O)[C@@H]2C[C@H]2c2ccccc2)CC1
REMARK SMILES IDX 16 1 15 2 14 3 13 4 12 5 11 6 10 7 8 8 9 9 7 10 73 11 88 12
REMARK SMILES IDX 74 13 87 14 75 15 76 16 77 17 6 18 1 19 2 20 3 21 4 22 5 23
REMARK SMILES IDX 78 24 79 25 80 26 81 27 82 28 86 29 83 30 85 31 84 32 17 33
REMARK SMILES IDX 18 34 19 35 20 36 21 37 22 38 23 39 24 40 25 41 26 42 72 43
REMARK SMILES IDX 27 44 71 45 28 46 29 47 30 48 65 49 31 50 70 51 64 52 66 53
REMARK SMILES IDX 32 54 69 55 63 56 62 57 33 59 55 60 40 61 54 62 41 63 44 64
REMARK SMILES IDX 53 65 67 66 42 67 43 68 52 70 68 71 45 72 34 73 35 74 39 75
REMARK SMILES IDX 36 76 38 77 37 78 56 79 57 80 61 81 58 82 60 83 59 84 46 85
REMARK SMILES IDX 47 86 51 87 48 88 50 89 49 90
REMARK H PARENT 66 58 44 69
REMARK Flexibility Score: inf
ROOT
ATOM      1  O   UNL A   1      31.749  30.872  27.049  1.00  0.00    -0.377 OA
ENDROOT
BRANCH   1   2
ATOM      2  C   UNL A   1      31.783  30.405  25.718  1.00  0.00     0.188 C 
BRANCH   2   3
ATOM      3  C   UNL A   1      32.187  28.923  25.527  1.00  0.00     0.188 C 
BRANCH   3   4
ATOM      4  O   UNL A   1      33.290  28.403  26.258  1.00  0.00    -0.376 OA
BRANCH   4   5
ATOM      5  C   UNL A   1      33.417  26.992  26.413  1.00  0.00     0.202 C 
BRANCH   5   6
ATOM      6  C   UNL A   1      34.708  26.263  25.953  1.00  0.00     0.261 C 
BRANCH   6   7
ATOM      7  O   UNL A   1      34.513  24.840  25.846  1.00  0.00    -0.461 OA
BRANCH   7   8
ATOM      8  C   UNL A   1      33.315  24.182  26.034  1.00  0.00     0.332 C 
ATOM      9  O   UNL A   1      32.795  24.015  27.122  1.00  0.00    -0.249 OA
BRANCH   8  10
ATOM     10  C   UNL A   1      32.803  23.701  24.589  1.00  0.00     0.146 C 
ATOM     11  C   UNL A   1      32.973  24.164  23.110  1.00  0.00     0.062 C 
ATOM     12  C   UNL A   1      31.299  24.182  24.768  1.00  0.00     0.062 C 
ATOM     13  C   UNL A   1      32.921  25.636  22.862  1.00  0.00     0.122 C 
ATOM     14  C   UNL A   1      31.324  25.743  24.698  1.00  0.00     0.122 C 
ATOM     15  N   UNL A   1      31.675  26.176  23.361  1.00  0.00    -0.342 N 
ATOM     16  C   UNL A   1      30.906  26.923  22.477  1.00  0.00     0.226 C 
ATOM     17  O   UNL A   1      31.039  26.791  21.261  1.00  0.00    -0.275 OA
BRANCH  10  18
ATOM     18  N   UNL A   1      33.472  22.398  24.468  1.00  0.00    -0.318 N 
ATOM     19  C   UNL A   1      31.416  21.096  25.381  1.00  0.00     0.087 C 
ATOM     20  C   UNL A   1      32.788  21.197  24.772  1.00  0.00     0.106 A 
ATOM     21  N   UNL A   1      33.590  20.163  24.644  1.00  0.00    -0.242 NA
ATOM     22  C   UNL A   1      34.830  20.679  24.419  1.00  0.00     0.131 A 
ATOM     23  C   UNL A   1      34.794  22.056  24.384  1.00  0.00     0.108 A 
ENDBRANCH  10  18
BRANCH  16  24
ATOM     24  C   UNL A   1      30.006  28.018  22.916  1.00  0.00     0.087 C 
ATOM     25  C   UNL A   1      28.639  27.732  23.476  1.00  0.00     0.023 C 
ATOM     26  C   UNL A   1      28.788  28.607  22.251  1.00  0.00     0.032 C 
BRANCH  26  27
ATOM     27  C   UNL A   1      28.629  30.103  22.312  1.00  0.00    -0.044 A 
ATOM     28  C   UNL A   1      28.219  30.859  21.204  1.00  0.00     0.004 A 
ATOM     29  C   UNL A   1      28.913  30.786  23.506  1.00  0.00     0.004 A 
ATOM     30  C   UNL A   1      28.063  32.240  21.296  1.00  0.00     0.000 A 
ATOM     31  C   UNL A   1      28.767  32.169  23.601  1.00  0.00     0.000 A 
ATOM     32  C   UNL A   1      28.334  32.894  22.495  1.00  0.00     0.000 A 
ENDBRANCH  26  27
ENDBRANCH  16  24
ENDBRANCH   8  10
ENDBRANCH   7   8
ENDBRANCH   6   7
ENDBRANCH   5   6
ENDBRANCH   4   5
ENDBRANCH   3   4
ENDBRANCH   2   3
ENDBRANCH   1   2
BRANCH   1  33
ATOM     33  C   UNL A   1      32.718  31.850  27.411  1.00  0.00     0.188 C 
BRANCH  33  34
ATOM     34  C   UNL A   1      32.422  33.369  27.276  1.00  0.00     0.188 C 
BRANCH  34  35
ATOM     35  O   UNL A   1      33.054  34.215  28.224  1.00  0.00    -0.376 OA
BRANCH  35  36
ATOM     36  C   UNL A   1      34.293  33.944  28.856  1.00  0.00     0.202 C 
BRANCH  36  37
ATOM     37  C   UNL A   1      35.524  33.697  27.987  1.00  0.00     0.261 C 
BRANCH  37  38
ATOM     38  O   UNL A   1      36.543  32.999  28.670  1.00  0.00    -0.460 OA
BRANCH  38  39
ATOM     39  C   UNL A   1      36.474  31.663  28.507  1.00  0.00     0.338 C 
ATOM     40  O   UNL A   1      35.920  31.055  27.618  1.00  0.00    -0.246 OA
BRANCH  39  41
ATOM     41  C   UNL A   1      37.115  31.039  29.668  1.00  0.00     0.060 A 
ATOM     42  C   UNL A   1      38.324  31.618  30.046  1.00  0.00     0.016 A 
ATOM     43  C   UNL A   1      36.775  29.709  29.953  1.00  0.00     0.016 A 
ATOM     44  C   UNL A   1      39.347  30.761  30.341  1.00  0.00     0.010 A 
ATOM     45  C   UNL A   1      37.800  28.853  30.226  1.00  0.00     0.010 A 
ATOM     46  C   UNL A   1      39.082  29.390  30.273  1.00  0.00    -0.014 A 
BRANCH  46  47
ATOM     47  C   UNL A   1      40.204  28.496  30.219  1.00  0.00     0.031 A 
ATOM     48  C   UNL A   1      40.848  28.336  31.529  1.00  0.00     0.074 A 
ATOM     49  C   UNL A   1      40.521  27.836  29.091  1.00  0.00     0.049 A 
ATOM     50  N   UNL A   1      41.988  28.807  31.903  1.00  0.00    -0.248 NA
ATOM     51  C   UNL A   1      40.024  27.779  32.615  1.00  0.00     0.031 C 
ATOM     52  C   UNL A   1      39.760  27.711  27.844  1.00  0.00     0.029 A 
ATOM     53  N   UNL A   1      41.579  27.020  28.881  1.00  0.00    -0.354 N 
ATOM     54  C   UNL A   1      42.109  28.436  33.234  1.00  0.00     0.074 A 
ATOM     55  C   UNL A   1      40.799  28.027  33.669  1.00  0.00     0.031 C 
ATOM     56  C   UNL A   1      40.255  26.672  27.128  1.00  0.00     0.029 A 
ATOM     57  C   UNL A   1      41.438  26.162  27.804  1.00  0.00     0.049 A 
ATOM     58  H   UNL A   1      42.383  27.036  29.448  1.00  0.00     0.167 HD
ATOM     59  C   UNL A   1      43.323  28.211  33.797  1.00  0.00     0.031 A 
ATOM     60  C   UNL A   1      42.198  25.061  27.573  1.00  0.00     0.031 A 
ATOM     61  C   UNL A   1      44.392  28.750  32.998  1.00  0.00     0.049 A 
ATOM     62  C   UNL A   1      43.428  25.194  28.400  1.00  0.00     0.074 A 
ATOM     63  C   UNL A   1      44.749  30.021  32.593  1.00  0.00     0.029 A 
ATOM     64  N   UNL A   1      45.035  27.881  32.146  1.00  0.00    -0.354 N 
ATOM     65  N   UNL A   1      44.336  26.104  28.189  1.00  0.00    -0.248 NA
ATOM     66  C   UNL A   1      43.404  24.642  29.748  1.00  0.00     0.031 C 
ATOM     67  C   UNL A   1      45.209  29.865  31.253  1.00  0.00     0.029 A 
ATOM     68  C   UNL A   1      45.169  28.506  30.932  1.00  0.00     0.049 A 
ATOM     69  H   UNL A   1      45.345  26.974  32.369  1.00  0.00     0.167 HD
ATOM     70  C   UNL A   1      44.704  26.545  29.454  1.00  0.00     0.074 A 
ATOM     71  C   UNL A   1      44.162  25.548  30.376  1.00  0.00     0.031 C 
ATOM     72  C   UNL A   1      45.150  27.821  29.656  1.00  0.00     0.031 A 
BRANCH  59  73
ATOM     73  C   UNL A   1      43.544  27.145  34.834  1.00  0.00    -0.014 A 
ATOM     74  C   UNL A   1      43.465  25.801  34.444  1.00  0.00     0.009 A 
ATOM     75  C   UNL A   1      43.565  27.404  36.220  1.00  0.00     0.009 A 
ATOM     76  C   UNL A   1      43.358  24.778  35.393  1.00  0.00     0.001 A 
ATOM     77  C   UNL A   1      43.506  26.386  37.170  1.00  0.00     0.001 A 
ATOM     78  C   UNL A   1      43.375  25.072  36.754  1.00  0.00     0.000 A 
ENDBRANCH  59  73
BRANCH  60  79
ATOM     79  C   UNL A   1      41.767  23.768  26.998  1.00  0.00    -0.014 A 
ATOM     80  C   UNL A   1      42.564  23.092  26.062  1.00  0.00     0.009 A 
ATOM     81  C   UNL A   1      40.693  23.061  27.572  1.00  0.00     0.009 A 
ATOM     82  C   UNL A   1      42.314  21.749  25.737  1.00  0.00     0.001 A 
ATOM     83  C   UNL A   1      40.443  21.723  27.248  1.00  0.00     0.001 A 
ATOM     84  C   UNL A   1      41.261  21.062  26.339  1.00  0.00     0.000 A 
ENDBRANCH  60  79
BRANCH  72  85
ATOM     85  C   UNL A   1      45.409  28.677  28.437  1.00  0.00    -0.014 A 
ATOM     86  C   UNL A   1      44.491  29.631  27.961  1.00  0.00     0.009 A 
ATOM     87  C   UNL A   1      46.686  28.640  27.860  1.00  0.00     0.009 A 
ATOM     88  C   UNL A   1      44.837  30.507  26.925  1.00  0.00     0.001 A 
ATOM     89  C   UNL A   1      47.038  29.527  26.841  1.00  0.00     0.001 A 
ATOM     90  C   UNL A   1      46.114  30.458  26.371  1.00  0.00     0.000 A 
ENDBRANCH  72  85
ENDBRANCH  46  47
ENDBRANCH  39  41
ENDBRANCH  38  39
ENDBRANCH  37  38
ENDBRANCH  36  37
ENDBRANCH  35  36
ENDBRANCH  34  35
ENDBRANCH  33  34
ENDBRANCH   1  33
TORSDOF 23
ENDMDL
