MODEL 1
REMARK VINA RESULT:      -9.5      0.000      0.000
REMARK SMILES NC(=O)c1c(-c2ccc(Cl)cc2)csc1NC(=O)[C@H]1[C@@H](C(=O)OCCOCCOCCOCCOC(=O)c2ccc(-c3c4nc(c(-c5ccccc5)c5ccc([nH]5)c(-c5ccccc5)c5nc(c(-c6ccccc6)c6ccc3[nH]6)C=C5)C=C4)cc2)[C@@H]2CC[C@H]1O2
REMARK SMILES IDX 28 1 27 2 26 3 25 4 24 5 23 6 21 7 22 8 20 9 19 10 89 11
REMARK SMILES IDX 86 12 88 13 90 14 87 15 17 16 16 17 18 19 15 20 4 21 5 22
REMARK SMILES IDX 13 23 14 24 2 25 1 26 3 29 6 30 7 31 12 32 8 33 11 34 9 35
REMARK SMILES IDX 10 36 29 37 30 38 31 39 32 40 33 41 34 42 35 43 36 44 37 45
REMARK SMILES IDX 38 46 39 47 85 48 40 49 84 50 41 51 42 52 43 53 78 54 44 55
REMARK SMILES IDX 83 56 77 57 79 58 45 59 82 60 76 61 75 62 46 64 68 65 53 66
REMARK SMILES IDX 67 67 54 68 57 69 66 70 80 71 55 72 56 73 65 75 81 76 58 77
REMARK SMILES IDX 47 78 48 79 52 80 49 81 51 82 50 83 69 84 70 85 74 86 71 87
REMARK SMILES IDX 73 88 72 89 59 90 60 91 64 92 61 93 63 94 62 95
REMARK H PARENT 16 18 1 27 1 28 79 63 57 74
REMARK Flexibility Score: inf
ROOT
ATOM      1  C   UNL A   1      42.415  21.313  26.194  1.00  0.00     0.188 C 
ENDROOT
BRANCH   1   2
ATOM      2  C   UNL A   1      41.050  20.991  26.823  1.00  0.00     0.188 C 
BRANCH   2   3
ATOM      3  O   UNL A   1      40.024  21.103  25.831  1.00  0.00    -0.376 OA
BRANCH   3   4
ATOM      4  C   UNL A   1      38.965  21.998  26.174  1.00  0.00     0.202 C 
BRANCH   4   5
ATOM      5  C   UNL A   1      37.604  21.507  25.642  1.00  0.00     0.261 C 
BRANCH   5   6
ATOM      6  O   UNL A   1      36.591  22.527  25.669  1.00  0.00    -0.463 OA
BRANCH   6   7
ATOM      7  C   UNL A   1      35.352  22.125  26.026  1.00  0.00     0.312 C 
ATOM      8  O   UNL A   1      34.908  22.249  27.159  1.00  0.00    -0.252 OA
BRANCH   7   9
ATOM      9  C   UNL A   1      34.659  21.408  24.866  1.00  0.00     0.143 C 
ATOM     10  C   UNL A   1      34.455  22.219  23.569  1.00  0.00     0.124 C 
ATOM     11  C   UNL A   1      32.969  22.669  23.733  1.00  0.00     0.132 C 
ATOM     12  C   UNL A   1      33.206  21.165  25.280  1.00  0.00     0.133 C 
ATOM     13  C   UNL A   1      32.040  21.566  23.231  1.00  0.00     0.035 C 
ATOM     14  O   UNL A   1      32.698  22.511  25.146  1.00  0.00    -0.373 OA
ATOM     15  C   UNL A   1      32.397  20.429  24.197  1.00  0.00     0.036 C 
BRANCH  10  16
ATOM     16  C   UNL A   1      35.394  23.376  23.274  1.00  0.00     0.231 C 
ATOM     17  N   UNL A   1      35.051  24.685  23.484  1.00  0.00    -0.317 N 
ATOM     18  H   UNL A   1      35.680  25.312  23.061  1.00  0.00     0.170 HD
ATOM     19  O   UNL A   1      36.531  23.146  22.846  1.00  0.00    -0.274 OA
BRANCH  17  20
ATOM     20  C   UNL A   1      34.027  25.332  24.151  1.00  0.00     0.108 A 
ATOM     21  C   UNL A   1      32.942  25.999  23.591  1.00  0.00     0.082 A 
ATOM     22  C   UNL A   1      32.098  26.552  24.622  1.00  0.00     0.007 A 
ATOM     23  C   UNL A   1      32.616  26.383  25.884  1.00  0.00     0.076 A 
ATOM     24  S   UNL A   1      34.089  25.521  25.840  1.00  0.00    -0.125 S 
BRANCH  21  25
ATOM     25  C   UNL A   1      32.581  26.098  22.173  1.00  0.00     0.252 C 
ATOM     26  N   UNL A   1      33.006  27.224  21.525  1.00  0.00    -0.365 N 
ATOM     27  H   UNL A   1      32.797  27.352  20.573  1.00  0.00     0.159 HD
ATOM     28  H   UNL A   1      33.522  27.906  22.012  1.00  0.00     0.159 HD
ATOM     29  O   UNL A   1      31.841  25.321  21.573  1.00  0.00    -0.269 OA
ENDBRANCH  21  25
BRANCH  22  30
ATOM     30  C   UNL A   1      30.852  27.244  24.354  1.00  0.00    -0.017 A 
ATOM     31  C   UNL A   1      30.897  28.594  24.004  1.00  0.00     0.010 A 
ATOM     32  C   UNL A   1      29.675  26.513  24.157  1.00  0.00     0.010 A 
ATOM     33  C   UNL A   1      29.776  29.219  23.459  1.00  0.00     0.021 A 
ATOM     34  C   UNL A   1      28.556  27.135  23.600  1.00  0.00     0.021 A 
ATOM     35  C   UNL A   1      28.612  28.484  23.252  1.00  0.00     0.041 A 
ATOM     36  Cl  UNL A   1      27.260  29.236  22.503  1.00  0.00    -0.084 Cl
ENDBRANCH  22  30
ENDBRANCH  17  20
ENDBRANCH  10  16
ENDBRANCH   7   9
ENDBRANCH   6   7
ENDBRANCH   5   6
ENDBRANCH   4   5
ENDBRANCH   3   4
ENDBRANCH   2   3
ENDBRANCH   1   2
BRANCH   1  37
ATOM     37  O   UNL A   1      42.193  22.259  25.142  1.00  0.00    -0.377 OA
BRANCH  37  38
ATOM     38  C   UNL A   1      43.059  23.387  25.134  1.00  0.00     0.188 C 
BRANCH  38  39
ATOM     39  C   UNL A   1      44.520  22.954  25.148  1.00  0.00     0.188 C 
BRANCH  39  40
ATOM     40  O   UNL A   1      45.291  23.931  24.450  1.00  0.00    -0.376 OA
BRANCH  40  41
ATOM     41  C   UNL A   1      46.400  24.444  25.194  1.00  0.00     0.202 C 
BRANCH  41  42
ATOM     42  C   UNL A   1      46.036  25.400  26.346  1.00  0.00     0.261 C 
BRANCH  42  43
ATOM     43  O   UNL A   1      44.833  26.181  26.152  1.00  0.00    -0.460 OA
BRANCH  43  44
ATOM     44  C   UNL A   1      44.993  27.519  26.076  1.00  0.00     0.338 C 
ATOM     45  O   UNL A   1      45.721  28.132  25.304  1.00  0.00    -0.246 OA
BRANCH  44  46
ATOM     46  C   UNL A   1      44.106  28.192  27.039  1.00  0.00     0.060 A 
ATOM     47  C   UNL A   1      43.907  29.573  26.935  1.00  0.00     0.016 A 
ATOM     48  C   UNL A   1      43.609  27.488  28.141  1.00  0.00     0.016 A 
ATOM     49  C   UNL A   1      43.252  30.258  27.964  1.00  0.00     0.010 A 
ATOM     50  C   UNL A   1      42.972  28.180  29.180  1.00  0.00     0.010 A 
ATOM     51  C   UNL A   1      42.826  29.573  29.119  1.00  0.00    -0.014 A 
BRANCH  51  52
ATOM     52  C   UNL A   1      42.437  30.357  30.324  1.00  0.00     0.031 A 
ATOM     53  C   UNL A   1      41.029  30.874  30.419  1.00  0.00     0.074 A 
ATOM     54  C   UNL A   1      43.289  30.575  31.342  1.00  0.00     0.049 A 
ATOM     55  N   UNL A   1      40.447  31.507  31.405  1.00  0.00    -0.248 NA
ATOM     56  C   UNL A   1      40.177  30.682  29.234  1.00  0.00     0.031 C 
ATOM     57  C   UNL A   1      44.691  30.193  31.359  1.00  0.00     0.029 A 
ATOM     58  N   UNL A   1      43.079  31.118  32.587  1.00  0.00    -0.354 N 
ATOM     59  C   UNL A   1      39.176  31.826  30.946  1.00  0.00     0.074 A 
ATOM     60  C   UNL A   1      39.059  31.288  29.608  1.00  0.00     0.031 C 
ATOM     61  C   UNL A   1      45.179  30.358  32.601  1.00  0.00     0.029 A 
ATOM     62  C   UNL A   1      44.149  30.963  33.439  1.00  0.00     0.049 A 
ATOM     63  H   UNL A   1      42.245  31.574  32.844  1.00  0.00     0.167 HD
ATOM     64  C   UNL A   1      38.209  32.544  31.563  1.00  0.00     0.031 A 
ATOM     65  C   UNL A   1      44.281  31.278  34.743  1.00  0.00     0.031 A 
ATOM     66  C   UNL A   1      38.333  33.126  32.870  1.00  0.00     0.049 A 
ATOM     67  C   UNL A   1      43.168  32.029  35.427  1.00  0.00     0.074 A 
ATOM     68  C   UNL A   1      37.430  33.927  33.548  1.00  0.00     0.029 A 
ATOM     69  N   UNL A   1      39.434  32.975  33.696  1.00  0.00    -0.354 N 
ATOM     70  N   UNL A   1      41.981  32.343  34.972  1.00  0.00    -0.248 NA
ATOM     71  C   UNL A   1      43.440  32.520  36.788  1.00  0.00     0.031 C 
ATOM     72  C   UNL A   1      38.003  34.290  34.772  1.00  0.00     0.029 A 
ATOM     73  C   UNL A   1      39.240  33.677  34.873  1.00  0.00     0.049 A 
ATOM     74  H   UNL A   1      40.236  32.447  33.478  1.00  0.00     0.167 HD
ATOM     75  C   UNL A   1      41.378  33.092  35.975  1.00  0.00     0.074 A 
ATOM     76  C   UNL A   1      42.305  33.134  37.086  1.00  0.00     0.031 C 
ATOM     77  C   UNL A   1      40.178  33.721  35.962  1.00  0.00     0.031 A 
BRANCH  64  78
ATOM     78  C   UNL A   1      36.961  32.808  30.776  1.00  0.00    -0.014 A 
ATOM     79  C   UNL A   1      36.979  33.609  29.624  1.00  0.00     0.009 A 
ATOM     80  C   UNL A   1      35.746  32.250  31.204  1.00  0.00     0.009 A 
ATOM     81  C   UNL A   1      35.795  33.867  28.931  1.00  0.00     0.001 A 
ATOM     82  C   UNL A   1      34.568  32.494  30.497  1.00  0.00     0.001 A 
ATOM     83  C   UNL A   1      34.592  33.310  29.366  1.00  0.00     0.000 A 
ENDBRANCH  64  78
BRANCH  65  84
ATOM     84  C   UNL A   1      45.515  30.936  35.501  1.00  0.00    -0.014 A 
ATOM     85  C   UNL A   1      45.575  29.748  36.249  1.00  0.00     0.009 A 
ATOM     86  C   UNL A   1      46.611  31.810  35.536  1.00  0.00     0.009 A 
ATOM     87  C   UNL A   1      46.693  29.458  37.035  1.00  0.00     0.001 A 
ATOM     88  C   UNL A   1      47.742  31.501  36.297  1.00  0.00     0.001 A 
ATOM     89  C   UNL A   1      47.778  30.332  37.054  1.00  0.00     0.000 A 
ENDBRANCH  65  84
BRANCH  77  90
ATOM     90  C   UNL A   1      39.813  34.523  37.176  1.00  0.00    -0.014 A 
ATOM     91  C   UNL A   1      39.187  33.916  38.277  1.00  0.00     0.009 A 
ATOM     92  C   UNL A   1      40.138  35.886  37.242  1.00  0.00     0.009 A 
ATOM     93  C   UNL A   1      38.868  34.665  39.410  1.00  0.00     0.001 A 
ATOM     94  C   UNL A   1      39.836  36.628  38.385  1.00  0.00     0.001 A 
ATOM     95  C   UNL A   1      39.196  36.019  39.465  1.00  0.00     0.000 A 
ENDBRANCH  77  90
ENDBRANCH  51  52
ENDBRANCH  44  46
ENDBRANCH  43  44
ENDBRANCH  42  43
ENDBRANCH  41  42
ENDBRANCH  40  41
ENDBRANCH  39  40
ENDBRANCH  38  39
ENDBRANCH  37  38
ENDBRANCH   1  37
TORSDOF 24
ENDMDL
MODEL 2
REMARK VINA RESULT:      -9.3      6.043     13.787
REMARK SMILES NC(=O)c1c(-c2ccc(Cl)cc2)csc1NC(=O)[C@H]1[C@@H](C(=O)OCCOCCOCCOCCOC(=O)c2ccc(-c3c4nc(c(-c5ccccc5)c5ccc([nH]5)c(-c5ccccc5)c5nc(c(-c6ccccc6)c6ccc3[nH]6)C=C5)C=C4)cc2)[C@@H]2CC[C@H]1O2
REMARK SMILES IDX 28 1 27 2 26 3 25 4 24 5 23 6 21 7 22 8 20 9 19 10 89 11
REMARK SMILES IDX 86 12 88 13 90 14 87 15 17 16 16 17 18 19 15 20 4 21 5 22
REMARK SMILES IDX 13 23 14 24 2 25 1 26 3 29 6 30 7 31 12 32 8 33 11 34 9 35
REMARK SMILES IDX 10 36 29 37 30 38 31 39 32 40 33 41 34 42 35 43 36 44 37 45
REMARK SMILES IDX 38 46 39 47 85 48 40 49 84 50 41 51 42 52 43 53 78 54 44 55
REMARK SMILES IDX 83 56 77 57 79 58 45 59 82 60 76 61 75 62 46 64 68 65 53 66
REMARK SMILES IDX 67 67 54 68 57 69 66 70 80 71 55 72 56 73 65 75 81 76 58 77
REMARK SMILES IDX 47 78 48 79 52 80 49 81 51 82 50 83 69 84 70 85 74 86 71 87
REMARK SMILES IDX 73 88 72 89 59 90 60 91 64 92 61 93 63 94 62 95
REMARK H PARENT 16 18 1 27 1 28 79 63 57 74
REMARK Flexibility Score: inf
ROOT
ATOM      1  C   UNL A   1      35.417  34.799  31.829  1.00  0.00     0.188 C 
ENDROOT
BRANCH   1   2
ATOM      2  C   UNL A   1      36.510  34.768  32.911  1.00  0.00     0.188 C 
BRANCH   2   3
ATOM      3  O   UNL A   1      35.915  34.948  34.201  1.00  0.00    -0.376 OA
BRANCH   3   4
ATOM      4  C   UNL A   1      36.010  33.810  35.059  1.00  0.00     0.202 C 
BRANCH   4   5
ATOM      5  C   UNL A   1      37.451  33.265  35.128  1.00  0.00     0.261 C 
BRANCH   5   6
ATOM      6  O   UNL A   1      37.600  32.197  36.079  1.00  0.00    -0.463 OA
BRANCH   6   7
ATOM      7  C   UNL A   1      38.835  32.034  36.603  1.00  0.00     0.312 C 
ATOM      8  O   UNL A   1      39.441  30.972  36.572  1.00  0.00    -0.252 OA
BRANCH   7   9
ATOM      9  C   UNL A   1      39.291  33.306  37.321  1.00  0.00     0.143 C 
ATOM     10  C   UNL A   1      40.670  33.258  38.011  1.00  0.00     0.124 C 
ATOM     11  C   UNL A   1      40.252  32.980  39.489  1.00  0.00     0.132 C 
ATOM     12  C   UNL A   1      38.374  33.501  38.531  1.00  0.00     0.133 C 
ATOM     13  C   UNL A   1      39.910  34.295  40.183  1.00  0.00     0.035 C 
ATOM     14  O   UNL A   1      38.901  32.466  39.391  1.00  0.00    -0.373 OA
ATOM     15  C   UNL A   1      38.721  34.766  39.337  1.00  0.00     0.036 C 
BRANCH  10  16
ATOM     16  C   UNL A   1      41.712  32.279  37.497  1.00  0.00     0.231 C 
ATOM     17  N   UNL A   1      42.235  32.344  36.233  1.00  0.00    -0.317 N 
ATOM     18  H   UNL A   1      42.737  31.533  35.990  1.00  0.00     0.170 HD
ATOM     19  O   UNL A   1      42.136  31.389  38.244  1.00  0.00    -0.274 OA
BRANCH  17  20
ATOM     20  C   UNL A   1      42.223  33.282  35.218  1.00  0.00     0.108 A 
ATOM     21  C   UNL A   1      42.137  33.046  33.849  1.00  0.00     0.082 A 
ATOM     22  C   UNL A   1      42.166  34.289  33.117  1.00  0.00     0.007 A 
ATOM     23  C   UNL A   1      42.377  35.381  33.924  1.00  0.00     0.076 A 
ATOM     24  S   UNL A   1      42.492  34.925  35.565  1.00  0.00    -0.125 S 
BRANCH  21  25
ATOM     25  C   UNL A   1      41.950  31.761  33.167  1.00  0.00     0.252 C 
ATOM     26  N   UNL A   1      40.800  31.087  33.469  1.00  0.00    -0.365 N 
ATOM     27  H   UNL A   1      40.613  30.219  33.046  1.00  0.00     0.159 HD
ATOM     28  H   UNL A   1      40.158  31.470  34.110  1.00  0.00     0.159 HD
ATOM     29  O   UNL A   1      42.785  31.207  32.456  1.00  0.00    -0.269 OA
ENDBRANCH  21  25
BRANCH  22  30
ATOM     30  C   UNL A   1      42.023  34.374  31.676  1.00  0.00    -0.017 A 
ATOM     31  C   UNL A   1      40.747  34.264  31.121  1.00  0.00     0.010 A 
ATOM     32  C   UNL A   1      43.081  34.852  30.896  1.00  0.00     0.010 A 
ATOM     33  C   UNL A   1      40.521  34.627  29.794  1.00  0.00     0.021 A 
ATOM     34  C   UNL A   1      42.854  35.227  29.570  1.00  0.00     0.021 A 
ATOM     35  C   UNL A   1      41.575  35.115  29.026  1.00  0.00     0.041 A 
ATOM     36  Cl  UNL A   1      41.276  35.640  27.417  1.00  0.00    -0.084 Cl
ENDBRANCH  22  30
ENDBRANCH  17  20
ENDBRANCH  10  16
ENDBRANCH   7   9
ENDBRANCH   6   7
ENDBRANCH   5   6
ENDBRANCH   4   5
ENDBRANCH   3   4
ENDBRANCH   2   3
ENDBRANCH   1   2
BRANCH   1  37
ATOM     37  O   UNL A   1      34.484  33.755  32.129  1.00  0.00    -0.377 OA
BRANCH  37  38
ATOM     38  C   UNL A   1      34.561  32.604  31.299  1.00  0.00     0.188 C 
BRANCH  38  39
ATOM     39  C   UNL A   1      35.459  32.857  30.094  1.00  0.00     0.188 C 
BRANCH  39  40
ATOM     40  O   UNL A   1      34.642  32.947  28.927  1.00  0.00    -0.376 OA
BRANCH  40  41
ATOM     41  C   UNL A   1      35.080  32.127  27.840  1.00  0.00     0.202 C 
BRANCH  41  42
ATOM     42  C   UNL A   1      35.006  30.608  28.088  1.00  0.00     0.261 C 
BRANCH  42  43
ATOM     43  O   UNL A   1      36.233  29.877  27.854  1.00  0.00    -0.460 OA
BRANCH  43  44
ATOM     44  C   UNL A   1      36.909  29.473  28.950  1.00  0.00     0.338 C 
ATOM     45  O   UNL A   1      36.494  29.440  30.102  1.00  0.00    -0.246 OA
BRANCH  44  46
ATOM     46  C   UNL A   1      38.251  28.999  28.573  1.00  0.00     0.060 A 
ATOM     47  C   UNL A   1      39.062  28.403  29.544  1.00  0.00     0.016 A 
ATOM     48  C   UNL A   1      38.767  29.297  27.307  1.00  0.00     0.016 A 
ATOM     49  C   UNL A   1      40.409  28.151  29.261  1.00  0.00     0.010 A 
ATOM     50  C   UNL A   1      40.121  29.064  27.034  1.00  0.00     0.010 A 
ATOM     51  C   UNL A   1      40.961  28.529  28.022  1.00  0.00    -0.014 A 
BRANCH  51  52
ATOM     52  C   UNL A   1      42.442  28.556  27.866  1.00  0.00     0.031 A 
ATOM     53  C   UNL A   1      43.115  27.386  27.204  1.00  0.00     0.074 A 
ATOM     54  C   UNL A   1      43.184  29.608  28.256  1.00  0.00     0.049 A 
ATOM     55  N   UNL A   1      44.375  27.228  26.890  1.00  0.00    -0.248 NA
ATOM     56  C   UNL A   1      42.260  26.231  26.885  1.00  0.00     0.031 C 
ATOM     57  C   UNL A   1      42.681  30.773  28.965  1.00  0.00     0.029 A 
ATOM     58  N   UNL A   1      44.513  29.892  28.054  1.00  0.00    -0.354 N 
ATOM     59  C   UNL A   1      44.474  25.942  26.377  1.00  0.00     0.074 A 
ATOM     60  C   UNL A   1      43.142  25.375  26.388  1.00  0.00     0.031 C 
ATOM     61  C   UNL A   1      43.637  31.718  28.997  1.00  0.00     0.029 A 
ATOM     62  C   UNL A   1      44.857  31.179  28.406  1.00  0.00     0.049 A 
ATOM     63  H   UNL A   1      45.157  29.240  27.693  1.00  0.00     0.167 HD
ATOM     64  C   UNL A   1      45.579  25.273  25.975  1.00  0.00     0.031 A 
ATOM     65  C   UNL A   1      46.025  31.839  28.272  1.00  0.00     0.031 A 
ATOM     66  C   UNL A   1      46.912  25.807  26.007  1.00  0.00     0.049 A 
ATOM     67  C   UNL A   1      47.231  31.090  27.770  1.00  0.00     0.074 A 
ATOM     68  C   UNL A   1      48.103  25.179  25.683  1.00  0.00     0.029 A 
ATOM     69  N   UNL A   1      47.233  27.098  26.392  1.00  0.00    -0.354 N 
ATOM     70  N   UNL A   1      47.313  29.867  27.309  1.00  0.00    -0.248 NA
ATOM     71  C   UNL A   1      48.520  31.800  27.826  1.00  0.00     0.031 C 
ATOM     72  C   UNL A   1      49.148  26.082  25.908  1.00  0.00     0.029 A 
ATOM     73  C   UNL A   1      48.602  27.284  26.326  1.00  0.00     0.049 A 
ATOM     74  H   UNL A   1      46.582  27.782  26.672  1.00  0.00     0.167 HD
ATOM     75  C   UNL A   1      48.661  29.650  27.051  1.00  0.00     0.074 A 
ATOM     76  C   UNL A   1      49.352  30.886  27.348  1.00  0.00     0.031 C 
ATOM     77  C   UNL A   1      49.275  28.515  26.639  1.00  0.00     0.031 A 
BRANCH  64  78
ATOM     78  C   UNL A   1      45.388  23.849  25.549  1.00  0.00    -0.014 A 
ATOM     79  C   UNL A   1      45.566  22.787  26.449  1.00  0.00     0.009 A 
ATOM     80  C   UNL A   1      45.032  23.569  24.221  1.00  0.00     0.009 A 
ATOM     81  C   UNL A   1      45.417  21.468  26.016  1.00  0.00     0.001 A 
ATOM     82  C   UNL A   1      44.863  22.250  23.797  1.00  0.00     0.001 A 
ATOM     83  C   UNL A   1      45.064  21.201  24.693  1.00  0.00     0.000 A 
ENDBRANCH  64  78
BRANCH  65  84
ATOM     84  C   UNL A   1      46.148  33.274  28.647  1.00  0.00    -0.014 A 
ATOM     85  C   UNL A   1      45.988  34.273  27.671  1.00  0.00     0.009 A 
ATOM     86  C   UNL A   1      46.487  33.656  29.953  1.00  0.00     0.009 A 
ATOM     87  C   UNL A   1      46.189  35.618  27.991  1.00  0.00     0.001 A 
ATOM     88  C   UNL A   1      46.655  35.005  30.278  1.00  0.00     0.001 A 
ATOM     89  C   UNL A   1      46.517  35.984  29.295  1.00  0.00     0.000 A 
ENDBRANCH  65  84
BRANCH  77  90
ATOM     90  C   UNL A   1      50.770  28.555  26.509  1.00  0.00    -0.014 A 
ATOM     91  C   UNL A   1      51.595  28.306  27.618  1.00  0.00     0.009 A 
ATOM     92  C   UNL A   1      51.361  28.797  25.260  1.00  0.00     0.009 A 
ATOM     93  C   UNL A   1      52.983  28.328  27.485  1.00  0.00     0.001 A 
ATOM     94  C   UNL A   1      52.750  28.796  25.125  1.00  0.00     0.001 A 
ATOM     95  C   UNL A   1      53.560  28.569  26.239  1.00  0.00     0.000 A 
ENDBRANCH  77  90
ENDBRANCH  51  52
ENDBRANCH  44  46
ENDBRANCH  43  44
ENDBRANCH  42  43
ENDBRANCH  41  42
ENDBRANCH  40  41
ENDBRANCH  39  40
ENDBRANCH  38  39
ENDBRANCH  37  38
ENDBRANCH   1  37
TORSDOF 24
ENDMDL
MODEL 3
REMARK VINA RESULT:      -9.2      5.461     10.560
REMARK SMILES NC(=O)c1c(-c2ccc(Cl)cc2)csc1NC(=O)[C@H]1[C@@H](C(=O)OCCOCCOCCOCCOC(=O)c2ccc(-c3c4nc(c(-c5ccccc5)c5ccc([nH]5)c(-c5ccccc5)c5nc(c(-c6ccccc6)c6ccc3[nH]6)C=C5)C=C4)cc2)[C@@H]2CC[C@H]1O2
REMARK SMILES IDX 28 1 27 2 26 3 25 4 24 5 23 6 21 7 22 8 20 9 19 10 89 11
REMARK SMILES IDX 86 12 88 13 90 14 87 15 17 16 16 17 18 19 15 20 4 21 5 22
REMARK SMILES IDX 13 23 14 24 2 25 1 26 3 29 6 30 7 31 12 32 8 33 11 34 9 35
REMARK SMILES IDX 10 36 29 37 30 38 31 39 32 40 33 41 34 42 35 43 36 44 37 45
REMARK SMILES IDX 38 46 39 47 85 48 40 49 84 50 41 51 42 52 43 53 78 54 44 55
REMARK SMILES IDX 83 56 77 57 79 58 45 59 82 60 76 61 75 62 46 64 68 65 53 66
REMARK SMILES IDX 67 67 54 68 57 69 66 70 80 71 55 72 56 73 65 75 81 76 58 77
REMARK SMILES IDX 47 78 48 79 52 80 49 81 51 82 50 83 69 84 70 85 74 86 71 87
REMARK SMILES IDX 73 88 72 89 59 90 60 91 64 92 61 93 63 94 62 95
REMARK H PARENT 16 18 1 27 1 28 79 63 57 74
REMARK Flexibility Score: inf
ROOT
ATOM      1  C   UNL A   1      34.846  34.030  29.051  1.00  0.00     0.188 C 
ENDROOT
BRANCH   1   2
ATOM      2  C   UNL A   1      33.735  33.655  28.055  1.00  0.00     0.188 C 
BRANCH   2   3
ATOM      3  O   UNL A   1      33.779  32.248  27.793  1.00  0.00    -0.376 OA
BRANCH   3   4
ATOM      4  C   UNL A   1      32.617  31.733  27.140  1.00  0.00     0.202 C 
BRANCH   4   5
ATOM      5  C   UNL A   1      32.637  30.193  27.067  1.00  0.00     0.261 C 
BRANCH   5   6
ATOM      6  O   UNL A   1      31.769  29.670  26.047  1.00  0.00    -0.463 OA
BRANCH   6   7
ATOM      7  C   UNL A   1      32.375  29.168  24.949  1.00  0.00     0.312 C 
ATOM      8  O   UNL A   1      33.377  29.663  24.453  1.00  0.00    -0.252 OA
BRANCH   7   9
ATOM      9  C   UNL A   1      31.573  28.000  24.373  1.00  0.00     0.143 C 
ATOM     10  C   UNL A   1      32.167  26.588  24.562  1.00  0.00     0.124 C 
ATOM     11  C   UNL A   1      32.845  26.365  23.174  1.00  0.00     0.132 C 
ATOM     12  C   UNL A   1      31.615  28.124  22.848  1.00  0.00     0.133 C 
ATOM     13  C   UNL A   1      31.816  25.838  22.177  1.00  0.00     0.035 C 
ATOM     14  O   UNL A   1      32.976  27.696  22.618  1.00  0.00    -0.373 OA
ATOM     15  C   UNL A   1      30.826  27.008  22.141  1.00  0.00     0.036 C 
BRANCH  10  16
ATOM     16  C   UNL A   1      33.109  26.341  25.727  1.00  0.00     0.231 C 
ATOM     17  N   UNL A   1      33.218  25.128  26.353  1.00  0.00    -0.317 N 
ATOM     18  H   UNL A   1      33.712  25.184  27.202  1.00  0.00     0.170 HD
ATOM     19  O   UNL A   1      33.835  27.258  26.131  1.00  0.00    -0.274 OA
BRANCH  17  20
ATOM     20  C   UNL A   1      32.797  23.842  26.070  1.00  0.00     0.108 A 
ATOM     21  C   UNL A   1      33.432  22.902  25.265  1.00  0.00     0.082 A 
ATOM     22  C   UNL A   1      32.669  21.679  25.212  1.00  0.00     0.007 A 
ATOM     23  C   UNL A   1      31.465  21.771  25.869  1.00  0.00     0.076 A 
ATOM     24  S   UNL A   1      31.269  23.305  26.592  1.00  0.00    -0.125 S 
BRANCH  21  25
ATOM     25  C   UNL A   1      34.735  23.018  24.602  1.00  0.00     0.252 C 
ATOM     26  N   UNL A   1      35.823  23.081  25.427  1.00  0.00    -0.365 N 
ATOM     27  H   UNL A   1      36.726  23.160  25.046  1.00  0.00     0.159 HD
ATOM     28  H   UNL A   1      35.702  23.047  26.403  1.00  0.00     0.159 HD
ATOM     29  O   UNL A   1      34.905  23.180  23.395  1.00  0.00    -0.269 OA
ENDBRANCH  21  25
BRANCH  22  30
ATOM     30  C   UNL A   1      33.108  20.488  24.509  1.00  0.00    -0.017 A 
ATOM     31  C   UNL A   1      34.255  19.831  24.956  1.00  0.00     0.010 A 
ATOM     32  C   UNL A   1      32.247  19.851  23.609  1.00  0.00     0.010 A 
ATOM     33  C   UNL A   1      34.548  18.543  24.510  1.00  0.00     0.021 A 
ATOM     34  C   UNL A   1      32.534  18.556  23.171  1.00  0.00     0.021 A 
ATOM     35  C   UNL A   1      33.681  17.907  23.625  1.00  0.00     0.041 A 
ATOM     36  Cl  UNL A   1      34.003  16.289  23.143  1.00  0.00    -0.084 Cl
ENDBRANCH  22  30
ENDBRANCH  17  20
ENDBRANCH  10  16
ENDBRANCH   7   9
ENDBRANCH   6   7
ENDBRANCH   5   6
ENDBRANCH   4   5
ENDBRANCH   3   4
ENDBRANCH   2   3
ENDBRANCH   1   2
BRANCH   1  37
ATOM     37  O   UNL A   1      34.220  34.330  30.303  1.00  0.00    -0.377 OA
BRANCH  37  38
ATOM     38  C   UNL A   1      34.784  33.694  31.442  1.00  0.00     0.188 C 
BRANCH  38  39
ATOM     39  C   UNL A   1      36.116  33.038  31.098  1.00  0.00     0.188 C 
BRANCH  39  40
ATOM     40  O   UNL A   1      36.180  31.769  31.747  1.00  0.00    -0.376 OA
BRANCH  40  41
ATOM     41  C   UNL A   1      37.258  30.938  31.305  1.00  0.00     0.202 C 
BRANCH  41  42
ATOM     42  C   UNL A   1      36.884  29.472  31.012  1.00  0.00     0.261 C 
BRANCH  42  43
ATOM     43  O   UNL A   1      37.998  28.579  30.776  1.00  0.00    -0.460 OA
BRANCH  43  44
ATOM     44  C   UNL A   1      39.014  28.640  31.662  1.00  0.00     0.338 C 
ATOM     45  O   UNL A   1      38.954  28.426  32.867  1.00  0.00    -0.246 OA
BRANCH  44  46
ATOM     46  C   UNL A   1      40.274  28.954  30.970  1.00  0.00     0.060 A 
ATOM     47  C   UNL A   1      41.458  29.036  31.711  1.00  0.00     0.016 A 
ATOM     48  C   UNL A   1      40.256  29.334  29.624  1.00  0.00     0.016 A 
ATOM     49  C   UNL A   1      42.615  29.547  31.114  1.00  0.00     0.010 A 
ATOM     50  C   UNL A   1      41.411  29.865  29.034  1.00  0.00     0.010 A 
ATOM     51  C   UNL A   1      42.586  30.014  29.786  1.00  0.00    -0.014 A 
BRANCH  51  52
ATOM     52  C   UNL A   1      43.716  30.844  29.284  1.00  0.00     0.031 A 
ATOM     53  C   UNL A   1      44.962  30.149  28.812  1.00  0.00     0.074 A 
ATOM     54  C   UNL A   1      43.639  32.185  29.200  1.00  0.00     0.049 A 
ATOM     55  N   UNL A   1      46.035  30.659  28.263  1.00  0.00    -0.248 NA
ATOM     56  C   UNL A   1      45.019  28.692  29.015  1.00  0.00     0.031 C 
ATOM     57  C   UNL A   1      42.528  32.992  29.679  1.00  0.00     0.029 A 
ATOM     58  N   UNL A   1      44.488  33.099  28.624  1.00  0.00    -0.354 N 
ATOM     59  C   UNL A   1      46.910  29.595  28.094  1.00  0.00     0.074 A 
ATOM     60  C   UNL A   1      46.233  28.407  28.566  1.00  0.00     0.031 C 
ATOM     61  C   UNL A   1      42.677  34.254  29.237  1.00  0.00     0.029 A 
ATOM     62  C   UNL A   1      43.953  34.364  28.538  1.00  0.00     0.049 A 
ATOM     63  H   UNL A   1      45.391  32.870  28.305  1.00  0.00     0.167 HD
ATOM     64  C   UNL A   1      48.182  29.610  27.633  1.00  0.00     0.031 A 
ATOM     65  C   UNL A   1      44.441  35.483  27.964  1.00  0.00     0.031 A 
ATOM     66  C   UNL A   1      48.882  30.791  27.210  1.00  0.00     0.049 A 
ATOM     67  C   UNL A   1      45.840  35.463  27.407  1.00  0.00     0.074 A 
ATOM     68  C   UNL A   1      50.196  30.913  26.790  1.00  0.00     0.029 A 
ATOM     69  N   UNL A   1      48.326  32.058  27.158  1.00  0.00    -0.354 N 
ATOM     70  N   UNL A   1      46.664  34.454  27.275  1.00  0.00    -0.248 NA
ATOM     71  C   UNL A   1      46.396  36.755  26.971  1.00  0.00     0.031 C 
ATOM     72  C   UNL A   1      50.444  32.263  26.519  1.00  0.00     0.029 A 
ATOM     73  C   UNL A   1      49.272  32.971  26.725  1.00  0.00     0.049 A 
ATOM     74  H   UNL A   1      47.396  32.277  27.394  1.00  0.00     0.167 HD
ATOM     75  C   UNL A   1      47.843  34.991  26.772  1.00  0.00     0.074 A 
ATOM     76  C   UNL A   1      47.608  36.404  26.565  1.00  0.00     0.031 C 
ATOM     77  C   UNL A   1      49.026  34.375  26.539  1.00  0.00     0.031 A 
BRANCH  64  78
ATOM     78  C   UNL A   1      48.921  28.306  27.650  1.00  0.00    -0.014 A 
ATOM     79  C   UNL A   1      49.444  27.780  28.841  1.00  0.00     0.009 A 
ATOM     80  C   UNL A   1      49.102  27.601  26.451  1.00  0.00     0.009 A 
ATOM     81  C   UNL A   1      50.160  26.581  28.823  1.00  0.00     0.001 A 
ATOM     82  C   UNL A   1      49.800  26.393  26.440  1.00  0.00     0.001 A 
ATOM     83  C   UNL A   1      50.336  25.889  27.625  1.00  0.00     0.000 A 
ENDBRANCH  64  78
BRANCH  65  84
ATOM     84  C   UNL A   1      43.642  36.736  27.912  1.00  0.00    -0.014 A 
ATOM     85  C   UNL A   1      43.793  37.710  28.915  1.00  0.00     0.009 A 
ATOM     86  C   UNL A   1      42.686  36.946  26.908  1.00  0.00     0.009 A 
ATOM     87  C   UNL A   1      42.986  38.850  28.926  1.00  0.00     0.001 A 
ATOM     88  C   UNL A   1      41.903  38.104  26.903  1.00  0.00     0.001 A 
ATOM     89  C   UNL A   1      42.045  39.049  27.918  1.00  0.00     0.000 A 
ENDBRANCH  65  84
BRANCH  77  90
ATOM     90  C   UNL A   1      50.160  35.232  26.055  1.00  0.00    -0.014 A 
ATOM     91  C   UNL A   1      50.336  35.482  24.684  1.00  0.00     0.009 A 
ATOM     92  C   UNL A   1      51.030  35.833  26.975  1.00  0.00     0.009 A 
ATOM     93  C   UNL A   1      51.381  36.295  24.243  1.00  0.00     0.001 A 
ATOM     94  C   UNL A   1      52.061  36.662  26.533  1.00  0.00     0.001 A 
ATOM     95  C   UNL A   1      52.240  36.887  25.167  1.00  0.00     0.000 A 
ENDBRANCH  77  90
ENDBRANCH  51  52
ENDBRANCH  44  46
ENDBRANCH  43  44
ENDBRANCH  42  43
ENDBRANCH  41  42
ENDBRANCH  40  41
ENDBRANCH  39  40
ENDBRANCH  38  39
ENDBRANCH  37  38
ENDBRANCH   1  37
TORSDOF 24
ENDMDL
