MODEL 1
REMARK VINA RESULT:     -10.7      0.000      0.000
REMARK SMILES C[C@@H]1C(C(=O)OCCOCCOCCOCCOC(=O)c2ccc(-c3c4nc(c(-c5ccccc5)c5ccc([nH]5)c(-c5ccccc5)c5nc(c(-c6ccccc6)c6ccc3[nH]6)C=C5)C=C4)cc2)=NC2=C1C(=O)C[C@H](c1ccccc1)C2
REMARK SMILES IDX 13 1 12 2 11 3 10 4 9 5 8 6 7 7 6 8 4 9 5 10 3 11 1 12 2 13
REMARK SMILES IDX 71 14 69 15 70 16 72 17 82 18 73 19 74 20 75 21 76 22 77 23
REMARK SMILES IDX 81 24 78 25 80 26 79 27 14 28 15 29 16 30 17 31 18 32 19 33
REMARK SMILES IDX 20 34 21 35 22 36 68 37 23 38 67 39 24 40 25 41 26 42 61 43
REMARK SMILES IDX 27 44 66 45 60 46 62 47 28 48 65 49 59 50 58 51 29 53 51 54
REMARK SMILES IDX 36 55 50 56 37 57 40 58 49 59 63 60 38 61 39 62 48 64 64 65
REMARK SMILES IDX 41 66 30 67 31 68 35 69 32 70 34 71 33 72 52 73 53 74 57 75
REMARK SMILES IDX 54 76 56 77 55 78 42 79 43 80 47 81 44 82 46 83 45 84
REMARK H PARENT 62 52 40 63
REMARK Flexibility Score: inf
ROOT
ATOM      1  C   UNL A   1      34.152  31.492  27.872  1.00  0.00     0.188 C 
ENDROOT
BRANCH   1   2
ATOM      2  O   UNL A   1      33.711  30.298  27.253  1.00  0.00    -0.377 OA
BRANCH   2   3
ATOM      3  C   UNL A   1      32.318  30.110  27.044  1.00  0.00     0.188 C 
BRANCH   3   4
ATOM      4  C   UNL A   1      31.766  30.239  25.625  1.00  0.00     0.188 C 
BRANCH   4   5
ATOM      5  O   UNL A   1      31.230  29.050  25.062  1.00  0.00    -0.376 OA
BRANCH   5   6
ATOM      6  C   UNL A   1      31.777  28.660  23.791  1.00  0.00     0.202 C 
BRANCH   6   7
ATOM      7  C   UNL A   1      33.288  28.339  23.750  1.00  0.00     0.261 C 
BRANCH   7   8
ATOM      8  O   UNL A   1      33.564  26.924  23.867  1.00  0.00    -0.459 OA
BRANCH   8   9
ATOM      9  C   UNL A   1      33.253  26.129  22.818  1.00  0.00     0.353 C 
ATOM     10  O   UNL A   1      33.731  26.180  21.706  1.00  0.00    -0.245 OA
BRANCH   9  11
ATOM     11  C   UNL A   1      32.418  24.955  23.345  1.00  0.00     0.133 C 
ATOM     12  C   UNL A   1      30.012  25.421  23.755  1.00  0.00     0.020 C 
ATOM     13  C   UNL A   1      31.361  25.175  24.411  1.00  0.00     0.078 C 
ATOM     14  C   UNL A   1      31.512  23.801  24.956  1.00  0.00     0.026 C 
ATOM     15  N   UNL A   1      32.653  23.707  23.026  1.00  0.00    -0.249 NA
ATOM     16  C   UNL A   1      32.097  22.996  24.067  1.00  0.00     0.049 C 
ATOM     17  C   UNL A   1      31.577  23.437  26.376  1.00  0.00     0.161 C 
ATOM     18  C   UNL A   1      32.557  21.621  24.445  1.00  0.00     0.065 C 
ATOM     19  O   UNL A   1      30.851  24.017  27.180  1.00  0.00    -0.294 OA
ATOM     20  C   UNL A   1      32.632  22.416  26.829  1.00  0.00     0.089 C 
ATOM     21  C   UNL A   1      33.455  21.727  25.696  1.00  0.00     0.033 C 
BRANCH  21  22
ATOM     22  C   UNL A   1      34.847  22.320  25.415  1.00  0.00    -0.044 A 
ATOM     23  C   UNL A   1      35.673  21.840  24.378  1.00  0.00     0.004 A 
ATOM     24  C   UNL A   1      35.401  23.299  26.250  1.00  0.00     0.004 A 
ATOM     25  C   UNL A   1      36.925  22.388  24.101  1.00  0.00     0.000 A 
ATOM     26  C   UNL A   1      36.682  23.815  26.003  1.00  0.00     0.000 A 
ATOM     27  C   UNL A   1      37.426  23.394  24.907  1.00  0.00     0.000 A 
ENDBRANCH  21  22
ENDBRANCH   9  11
ENDBRANCH   8   9
ENDBRANCH   7   8
ENDBRANCH   6   7
ENDBRANCH   5   6
ENDBRANCH   4   5
ENDBRANCH   3   4
ENDBRANCH   2   3
ENDBRANCH   1   2
BRANCH   1  28
ATOM     28  C   UNL A   1      33.590  32.855  27.420  1.00  0.00     0.188 C 
BRANCH  28  29
ATOM     29  O   UNL A   1      33.019  33.859  28.240  1.00  0.00    -0.376 OA
BRANCH  29  30
ATOM     30  C   UNL A   1      33.679  34.498  29.311  1.00  0.00     0.202 C 
BRANCH  30  31
ATOM     31  C   UNL A   1      32.999  35.533  30.214  1.00  0.00     0.261 C 
BRANCH  31  32
ATOM     32  O   UNL A   1      32.573  35.003  31.452  1.00  0.00    -0.460 OA
BRANCH  32  33
ATOM     33  C   UNL A   1      33.097  35.668  32.500  1.00  0.00     0.338 C 
ATOM     34  O   UNL A   1      32.795  36.785  32.889  1.00  0.00    -0.246 OA
BRANCH  33  35
ATOM     35  C   UNL A   1      34.157  34.867  33.114  1.00  0.00     0.060 A 
ATOM     36  C   UNL A   1      35.370  35.531  33.304  1.00  0.00     0.016 A 
ATOM     37  C   UNL A   1      34.037  33.475  33.232  1.00  0.00     0.016 A 
ATOM     38  C   UNL A   1      36.514  34.779  33.333  1.00  0.00     0.010 A 
ATOM     39  C   UNL A   1      35.187  32.721  33.261  1.00  0.00     0.010 A 
ATOM     40  C   UNL A   1      36.403  33.392  33.194  1.00  0.00    -0.014 A 
BRANCH  40  41
ATOM     41  C   UNL A   1      37.629  32.689  32.904  1.00  0.00     0.031 A 
ATOM     42  C   UNL A   1      38.601  32.679  34.001  1.00  0.00     0.074 A 
ATOM     43  C   UNL A   1      37.858  32.120  31.709  1.00  0.00     0.049 A 
ATOM     44  N   UNL A   1      39.729  33.303  34.061  1.00  0.00    -0.248 NA
ATOM     45  C   UNL A   1      38.206  31.985  35.232  1.00  0.00     0.031 C 
ATOM     46  C   UNL A   1      36.886  31.818  30.654  1.00  0.00     0.029 A 
ATOM     47  N   UNL A   1      39.019  31.597  31.234  1.00  0.00    -0.354 N 
ATOM     48  C   UNL A   1      40.279  32.937  35.279  1.00  0.00     0.074 A 
ATOM     49  C   UNL A   1      39.243  32.263  36.021  1.00  0.00     0.031 C 
ATOM     50  C   UNL A   1      37.454  30.967  29.770  1.00  0.00     0.029 A 
ATOM     51  C   UNL A   1      38.853  30.788  30.126  1.00  0.00     0.049 A 
ATOM     52  H   UNL A   1      39.896  31.778  31.642  1.00  0.00     0.167 HD
ATOM     53  C   UNL A   1      41.620  32.979  35.489  1.00  0.00     0.031 A 
ATOM     54  C   UNL A   1      39.786  29.966  29.597  1.00  0.00     0.031 A 
ATOM     55  C   UNL A   1      42.305  33.794  34.524  1.00  0.00     0.049 A 
ATOM     56  C   UNL A   1      41.118  30.415  30.063  1.00  0.00     0.074 A 
ATOM     57  C   UNL A   1      42.306  35.132  34.188  1.00  0.00     0.029 A 
ATOM     58  N   UNL A   1      42.913  33.130  33.487  1.00  0.00    -0.354 N 
ATOM     59  N   UNL A   1      41.686  31.522  29.681  1.00  0.00    -0.248 NA
ATOM     60  C   UNL A   1      41.706  29.793  31.242  1.00  0.00     0.031 C 
ATOM     61  C   UNL A   1      42.593  35.178  32.792  1.00  0.00     0.029 A 
ATOM     62  C   UNL A   1      42.759  33.867  32.340  1.00  0.00     0.049 A 
ATOM     63  H   UNL A   1      43.383  32.269  33.555  1.00  0.00     0.167 HD
ATOM     64  C   UNL A   1      42.408  31.951  30.784  1.00  0.00     0.074 A 
ATOM     65  C   UNL A   1      42.514  30.779  31.642  1.00  0.00     0.031 C 
ATOM     66  C   UNL A   1      42.598  33.282  31.023  1.00  0.00     0.031 A 
BRANCH  53  67
ATOM     67  C   UNL A   1      42.331  31.927  36.300  1.00  0.00    -0.014 A 
ATOM     68  C   UNL A   1      43.086  32.325  37.414  1.00  0.00     0.009 A 
ATOM     69  C   UNL A   1      42.515  30.605  35.846  1.00  0.00     0.009 A 
ATOM     70  C   UNL A   1      44.009  31.457  38.010  1.00  0.00     0.001 A 
ATOM     71  C   UNL A   1      43.399  29.721  36.466  1.00  0.00     0.001 A 
ATOM     72  C   UNL A   1      44.166  30.158  37.535  1.00  0.00     0.000 A 
ENDBRANCH  53  67
BRANCH  54  73
ATOM     73  C   UNL A   1      39.570  28.664  28.938  1.00  0.00    -0.014 A 
ATOM     74  C   UNL A   1      40.033  28.436  27.634  1.00  0.00     0.009 A 
ATOM     75  C   UNL A   1      39.129  27.555  29.684  1.00  0.00     0.009 A 
ATOM     76  C   UNL A   1      40.088  27.138  27.112  1.00  0.00     0.001 A 
ATOM     77  C   UNL A   1      39.175  26.261  29.159  1.00  0.00     0.001 A 
ATOM     78  C   UNL A   1      39.671  26.052  27.879  1.00  0.00     0.000 A 
ENDBRANCH  54  73
BRANCH  66  79
ATOM     79  C   UNL A   1      42.345  34.234  29.881  1.00  0.00    -0.014 A 
ATOM     80  C   UNL A   1      41.066  34.726  29.567  1.00  0.00     0.009 A 
ATOM     81  C   UNL A   1      43.445  34.736  29.170  1.00  0.00     0.009 A 
ATOM     82  C   UNL A   1      40.890  35.659  28.541  1.00  0.00     0.001 A 
ATOM     83  C   UNL A   1      43.272  35.687  28.161  1.00  0.00     0.001 A 
ATOM     84  C   UNL A   1      41.994  36.141  27.841  1.00  0.00     0.000 A 
ENDBRANCH  66  79
ENDBRANCH  40  41
ENDBRANCH  33  35
ENDBRANCH  32  33
ENDBRANCH  31  32
ENDBRANCH  30  31
ENDBRANCH  29  30
ENDBRANCH  28  29
ENDBRANCH   1  28
TORSDOF 21
ENDMDL
MODEL 2
REMARK VINA RESULT:     -10.2      3.890      7.917
REMARK SMILES C[C@@H]1C(C(=O)OCCOCCOCCOCCOC(=O)c2ccc(-c3c4nc(c(-c5ccccc5)c5ccc([nH]5)c(-c5ccccc5)c5nc(c(-c6ccccc6)c6ccc3[nH]6)C=C5)C=C4)cc2)=NC2=C1C(=O)C[C@H](c1ccccc1)C2
REMARK SMILES IDX 13 1 12 2 11 3 10 4 9 5 8 6 7 7 6 8 4 9 5 10 3 11 1 12 2 13
REMARK SMILES IDX 71 14 69 15 70 16 72 17 82 18 73 19 74 20 75 21 76 22 77 23
REMARK SMILES IDX 81 24 78 25 80 26 79 27 14 28 15 29 16 30 17 31 18 32 19 33
REMARK SMILES IDX 20 34 21 35 22 36 68 37 23 38 67 39 24 40 25 41 26 42 61 43
REMARK SMILES IDX 27 44 66 45 60 46 62 47 28 48 65 49 59 50 58 51 29 53 51 54
REMARK SMILES IDX 36 55 50 56 37 57 40 58 49 59 63 60 38 61 39 62 48 64 64 65
REMARK SMILES IDX 41 66 30 67 31 68 35 69 32 70 34 71 33 72 52 73 53 74 57 75
REMARK SMILES IDX 54 76 56 77 55 78 42 79 43 80 47 81 44 82 46 83 45 84
REMARK H PARENT 62 52 40 63
REMARK Flexibility Score: inf
ROOT
ATOM      1  C   UNL A   1      33.463  34.188  28.003  1.00  0.00     0.188 C 
ENDROOT
BRANCH   1   2
ATOM      2  O   UNL A   1      32.164  33.760  27.635  1.00  0.00    -0.377 OA
BRANCH   2   3
ATOM      3  C   UNL A   1      32.031  32.605  26.820  1.00  0.00     0.188 C 
BRANCH   3   4
ATOM      4  C   UNL A   1      32.758  31.326  27.237  1.00  0.00     0.188 C 
BRANCH   4   5
ATOM      5  O   UNL A   1      32.725  30.263  26.295  1.00  0.00    -0.376 OA
BRANCH   5   6
ATOM      6  C   UNL A   1      31.536  30.178  25.493  1.00  0.00     0.202 C 
BRANCH   6   7
ATOM      7  C   UNL A   1      31.438  28.985  24.515  1.00  0.00     0.261 C 
BRANCH   7   8
ATOM      8  O   UNL A   1      31.889  27.741  25.100  1.00  0.00    -0.459 OA
BRANCH   8   9
ATOM      9  C   UNL A   1      32.743  26.976  24.382  1.00  0.00     0.353 C 
ATOM     10  O   UNL A   1      33.938  27.140  24.269  1.00  0.00    -0.245 OA
BRANCH   9  11
ATOM     11  C   UNL A   1      32.007  25.691  23.981  1.00  0.00     0.133 C 
ATOM     12  C   UNL A   1      29.533  25.733  24.208  1.00  0.00     0.020 C 
ATOM     13  C   UNL A   1      30.827  25.191  24.793  1.00  0.00     0.078 C 
ATOM     14  C   UNL A   1      31.087  23.771  24.441  1.00  0.00     0.026 C 
ATOM     15  N   UNL A   1      32.423  24.893  23.031  1.00  0.00    -0.249 NA
ATOM     16  C   UNL A   1      31.854  23.680  23.353  1.00  0.00     0.049 C 
ATOM     17  C   UNL A   1      31.049  22.631  25.365  1.00  0.00     0.161 C 
ATOM     18  C   UNL A   1      32.435  22.370  22.916  1.00  0.00     0.065 C 
ATOM     19  O   UNL A   1      30.179  22.587  26.232  1.00  0.00    -0.294 OA
ATOM     20  C   UNL A   1      32.168  21.581  25.288  1.00  0.00     0.089 C 
ATOM     21  C   UNL A   1      33.180  21.738  24.111  1.00  0.00     0.033 C 
BRANCH  21  22
ATOM     22  C   UNL A   1      34.512  22.431  24.452  1.00  0.00    -0.044 A 
ATOM     23  C   UNL A   1      35.555  22.558  23.512  1.00  0.00     0.004 A 
ATOM     24  C   UNL A   1      34.787  22.875  25.752  1.00  0.00     0.004 A 
ATOM     25  C   UNL A   1      36.755  23.206  23.805  1.00  0.00     0.000 A 
ATOM     26  C   UNL A   1      36.014  23.481  26.062  1.00  0.00     0.000 A 
ATOM     27  C   UNL A   1      36.980  23.686  25.083  1.00  0.00     0.000 A 
ENDBRANCH  21  22
ENDBRANCH   9  11
ENDBRANCH   8   9
ENDBRANCH   7   8
ENDBRANCH   6   7
ENDBRANCH   5   6
ENDBRANCH   4   5
ENDBRANCH   3   4
ENDBRANCH   2   3
ENDBRANCH   1   2
BRANCH   1  28
ATOM     28  C   UNL A   1      33.760  34.599  29.460  1.00  0.00     0.188 C 
BRANCH  28  29
ATOM     29  O   UNL A   1      34.757  34.064  30.312  1.00  0.00    -0.376 OA
BRANCH  29  30
ATOM     30  C   UNL A   1      34.905  32.695  30.621  1.00  0.00     0.202 C 
BRANCH  30  31
ATOM     31  C   UNL A   1      35.479  31.672  29.634  1.00  0.00     0.261 C 
BRANCH  31  32
ATOM     32  O   UNL A   1      36.789  31.256  29.957  1.00  0.00    -0.460 OA
BRANCH  32  33
ATOM     33  C   UNL A   1      36.814  30.025  30.504  1.00  0.00     0.338 C 
ATOM     34  O   UNL A   1      36.277  29.668  31.540  1.00  0.00    -0.246 OA
BRANCH  33  35
ATOM     35  C   UNL A   1      37.647  29.138  29.689  1.00  0.00     0.060 A 
ATOM     36  C   UNL A   1      38.282  28.111  30.387  1.00  0.00     0.016 A 
ATOM     37  C   UNL A   1      37.993  29.477  28.373  1.00  0.00     0.016 A 
ATOM     38  C   UNL A   1      39.449  27.612  29.872  1.00  0.00     0.010 A 
ATOM     39  C   UNL A   1      39.165  28.976  27.857  1.00  0.00     0.010 A 
ATOM     40  C   UNL A   1      39.926  28.142  28.669  1.00  0.00    -0.014 A 
BRANCH  40  41
ATOM     41  C   UNL A   1      41.295  27.827  28.343  1.00  0.00     0.031 A 
ATOM     42  C   UNL A   1      41.493  26.500  27.751  1.00  0.00     0.074 A 
ATOM     43  C   UNL A   1      42.301  28.682  28.594  1.00  0.00     0.049 A 
ATOM     44  N   UNL A   1      42.062  25.475  28.289  1.00  0.00    -0.248 NA
ATOM     45  C   UNL A   1      40.867  26.255  26.446  1.00  0.00     0.031 C 
ATOM     46  C   UNL A   1      42.212  30.110  28.908  1.00  0.00     0.029 A 
ATOM     47  N   UNL A   1      43.639  28.453  28.517  1.00  0.00    -0.354 N 
ATOM     48  C   UNL A   1      42.027  24.491  27.314  1.00  0.00     0.074 A 
ATOM     49  C   UNL A   1      41.148  24.965  26.273  1.00  0.00     0.031 C 
ATOM     50  C   UNL A   1      43.439  30.663  28.770  1.00  0.00     0.029 A 
ATOM     51  C   UNL A   1      44.400  29.606  28.500  1.00  0.00     0.049 A 
ATOM     52  H   UNL A   1      44.028  27.550  28.478  1.00  0.00     0.167 HD
ATOM     53  C   UNL A   1      42.925  23.473  27.304  1.00  0.00     0.031 A 
ATOM     54  C   UNL A   1      45.715  29.684  28.199  1.00  0.00     0.031 A 
ATOM     55  C   UNL A   1      43.588  23.311  28.569  1.00  0.00     0.049 A 
ATOM     56  C   UNL A   1      46.311  28.338  28.370  1.00  0.00     0.074 A 
ATOM     57  C   UNL A   1      43.200  22.970  29.848  1.00  0.00     0.029 A 
ATOM     58  N   UNL A   1      44.843  23.858  28.674  1.00  0.00    -0.354 N 
ATOM     59  N   UNL A   1      46.473  27.757  29.522  1.00  0.00    -0.248 NA
ATOM     60  C   UNL A   1      46.430  27.461  27.213  1.00  0.00     0.031 C 
ATOM     61  C   UNL A   1      44.095  23.660  30.718  1.00  0.00     0.029 A 
ATOM     62  C   UNL A   1      44.991  24.387  29.931  1.00  0.00     0.049 A 
ATOM     63  H   UNL A   1      45.525  23.869  27.965  1.00  0.00     0.167 HD
ATOM     64  C   UNL A   1      46.295  26.406  29.269  1.00  0.00     0.074 A 
ATOM     65  C   UNL A   1      46.435  26.274  27.825  1.00  0.00     0.031 C 
ATOM     66  C   UNL A   1      45.768  25.577  30.217  1.00  0.00     0.031 A 
BRANCH  53  67
ATOM     67  C   UNL A   1      43.500  22.931  26.022  1.00  0.00    -0.014 A 
ATOM     68  C   UNL A   1      43.498  21.543  25.812  1.00  0.00     0.009 A 
ATOM     69  C   UNL A   1      44.290  23.706  25.149  1.00  0.00     0.009 A 
ATOM     70  C   UNL A   1      44.284  20.963  24.809  1.00  0.00     0.001 A 
ATOM     71  C   UNL A   1      45.038  23.136  24.118  1.00  0.00     0.001 A 
ATOM     72  C   UNL A   1      45.054  21.759  23.965  1.00  0.00     0.000 A 
ENDBRANCH  53  67
BRANCH  54  73
ATOM     73  C   UNL A   1      46.421  30.786  27.518  1.00  0.00    -0.014 A 
ATOM     74  C   UNL A   1      45.710  31.743  26.781  1.00  0.00     0.009 A 
ATOM     75  C   UNL A   1      47.775  31.044  27.802  1.00  0.00     0.009 A 
ATOM     76  C   UNL A   1      46.324  32.934  26.375  1.00  0.00     0.001 A 
ATOM     77  C   UNL A   1      48.391  32.228  27.389  1.00  0.00     0.001 A 
ATOM     78  C   UNL A   1      47.659  33.180  26.690  1.00  0.00     0.000 A 
ENDBRANCH  54  73
BRANCH  66  79
ATOM     79  C   UNL A   1      45.748  26.077  31.640  1.00  0.00    -0.014 A 
ATOM     80  C   UNL A   1      44.637  26.727  32.205  1.00  0.00     0.009 A 
ATOM     81  C   UNL A   1      46.842  25.786  32.469  1.00  0.00     0.009 A 
ATOM     82  C   UNL A   1      44.641  27.114  33.549  1.00  0.00     0.001 A 
ATOM     83  C   UNL A   1      46.835  26.150  33.817  1.00  0.00     0.001 A 
ATOM     84  C   UNL A   1      45.739  26.821  34.354  1.00  0.00     0.000 A 
ENDBRANCH  66  79
ENDBRANCH  40  41
ENDBRANCH  33  35
ENDBRANCH  32  33
ENDBRANCH  31  32
ENDBRANCH  30  31
ENDBRANCH  29  30
ENDBRANCH  28  29
ENDBRANCH   1  28
TORSDOF 21
ENDMDL
MODEL 3
REMARK VINA RESULT:      -9.9      3.135      4.418
REMARK SMILES C[C@@H]1C(C(=O)OCCOCCOCCOCCOC(=O)c2ccc(-c3c4nc(c(-c5ccccc5)c5ccc([nH]5)c(-c5ccccc5)c5nc(c(-c6ccccc6)c6ccc3[nH]6)C=C5)C=C4)cc2)=NC2=C1C(=O)C[C@H](c1ccccc1)C2
REMARK SMILES IDX 13 1 12 2 11 3 10 4 9 5 8 6 7 7 6 8 4 9 5 10 3 11 1 12 2 13
REMARK SMILES IDX 71 14 69 15 70 16 72 17 82 18 73 19 74 20 75 21 76 22 77 23
REMARK SMILES IDX 81 24 78 25 80 26 79 27 14 28 15 29 16 30 17 31 18 32 19 33
REMARK SMILES IDX 20 34 21 35 22 36 68 37 23 38 67 39 24 40 25 41 26 42 61 43
REMARK SMILES IDX 27 44 66 45 60 46 62 47 28 48 65 49 59 50 58 51 29 53 51 54
REMARK SMILES IDX 36 55 50 56 37 57 40 58 49 59 63 60 38 61 39 62 48 64 64 65
REMARK SMILES IDX 41 66 30 67 31 68 35 69 32 70 34 71 33 72 52 73 53 74 57 75
REMARK SMILES IDX 54 76 56 77 55 78 42 79 43 80 47 81 44 82 46 83 45 84
REMARK H PARENT 62 52 40 63
REMARK Flexibility Score: inf
ROOT
ATOM      1  C   UNL A   1      34.443  29.488  27.275  1.00  0.00     0.188 C 
ENDROOT
BRANCH   1   2
ATOM      2  O   UNL A   1      33.775  28.735  26.279  1.00  0.00    -0.377 OA
BRANCH   2   3
ATOM      3  C   UNL A   1      33.155  29.424  25.203  1.00  0.00     0.188 C 
BRANCH   3   4
ATOM      4  C   UNL A   1      33.481  28.993  23.772  1.00  0.00     0.188 C 
BRANCH   4   5
ATOM      5  O   UNL A   1      32.383  28.517  23.007  1.00  0.00    -0.376 OA
BRANCH   5   6
ATOM      6  C   UNL A   1      32.431  27.128  22.643  1.00  0.00     0.202 C 
BRANCH   6   7
ATOM      7  C   UNL A   1      33.821  26.541  22.308  1.00  0.00     0.261 C 
BRANCH   7   8
ATOM      8  O   UNL A   1      33.989  25.187  22.790  1.00  0.00    -0.459 OA
BRANCH   8   9
ATOM      9  C   UNL A   1      33.308  24.202  22.161  1.00  0.00     0.353 C 
ATOM     10  O   UNL A   1      33.446  23.851  21.010  1.00  0.00    -0.245 OA
BRANCH   9  11
ATOM     11  C   UNL A   1      32.548  23.399  23.223  1.00  0.00     0.133 C 
ATOM     12  C   UNL A   1      30.183  24.057  23.606  1.00  0.00     0.020 C 
ATOM     13  C   UNL A   1      31.592  24.090  24.177  1.00  0.00     0.078 C 
ATOM     14  C   UNL A   1      31.818  23.091  25.253  1.00  0.00     0.026 C 
ATOM     15  N   UNL A   1      32.775  22.132  23.464  1.00  0.00    -0.249 NA
ATOM     16  C   UNL A   1      32.332  21.963  24.758  1.00  0.00     0.049 C 
ATOM     17  C   UNL A   1      32.022  23.384  26.676  1.00  0.00     0.161 C 
ATOM     18  C   UNL A   1      32.850  20.882  25.657  1.00  0.00     0.065 C 
ATOM     19  O   UNL A   1      31.363  24.276  27.207  1.00  0.00    -0.294 OA
ATOM     20  C   UNL A   1      33.133  22.639  27.432  1.00  0.00     0.089 C 
ATOM     21  C   UNL A   1      33.858  21.503  26.645  1.00  0.00     0.033 C 
BRANCH  21  22
ATOM     22  C   UNL A   1      35.208  21.879  26.006  1.00  0.00    -0.044 A 
ATOM     23  C   UNL A   1      35.789  23.153  26.172  1.00  0.00     0.004 A 
ATOM     24  C   UNL A   1      35.871  20.999  25.142  1.00  0.00     0.004 A 
ATOM     25  C   UNL A   1      37.023  23.493  25.618  1.00  0.00     0.000 A 
ATOM     26  C   UNL A   1      37.088  21.359  24.541  1.00  0.00     0.000 A 
ATOM     27  C   UNL A   1      37.685  22.585  24.812  1.00  0.00     0.000 A 
ENDBRANCH  21  22
ENDBRANCH   9  11
ENDBRANCH   8   9
ENDBRANCH   7   8
ENDBRANCH   6   7
ENDBRANCH   5   6
ENDBRANCH   4   5
ENDBRANCH   3   4
ENDBRANCH   2   3
ENDBRANCH   1   2
BRANCH   1  28
ATOM     28  C   UNL A   1      34.121  30.984  27.464  1.00  0.00     0.188 C 
BRANCH  28  29
ATOM     29  O   UNL A   1      35.034  32.066  27.424  1.00  0.00    -0.376 OA
BRANCH  29  30
ATOM     30  C   UNL A   1      34.853  33.300  28.085  1.00  0.00     0.202 C 
BRANCH  30  31
ATOM     31  C   UNL A   1      35.725  33.756  29.260  1.00  0.00     0.261 C 
BRANCH  31  32
ATOM     32  O   UNL A   1      36.578  32.743  29.751  1.00  0.00    -0.460 OA
BRANCH  32  33
ATOM     33  C   UNL A   1      36.056  32.107  30.817  1.00  0.00     0.338 C 
ATOM     34  O   UNL A   1      34.920  32.208  31.251  1.00  0.00    -0.246 OA
BRANCH  33  35
ATOM     35  C   UNL A   1      37.083  31.280  31.452  1.00  0.00     0.060 A 
ATOM     36  C   UNL A   1      38.379  31.793  31.394  1.00  0.00     0.016 A 
ATOM     37  C   UNL A   1      36.816  29.957  31.829  1.00  0.00     0.016 A 
ATOM     38  C   UNL A   1      39.422  30.906  31.438  1.00  0.00     0.010 A 
ATOM     39  C   UNL A   1      37.864  29.066  31.874  1.00  0.00     0.010 A 
ATOM     40  C   UNL A   1      39.133  29.543  31.563  1.00  0.00    -0.014 A 
BRANCH  40  41
ATOM     41  C   UNL A   1      40.221  28.641  31.278  1.00  0.00     0.031 A 
ATOM     42  C   UNL A   1      41.149  28.433  32.394  1.00  0.00     0.074 A 
ATOM     43  C   UNL A   1      40.374  28.068  30.073  1.00  0.00     0.049 A 
ATOM     44  N   UNL A   1      42.367  28.845  32.493  1.00  0.00    -0.248 NA
ATOM     45  C   UNL A   1      40.607  27.791  33.598  1.00  0.00     0.031 C 
ATOM     46  C   UNL A   1      39.391  27.968  28.991  1.00  0.00     0.029 A 
ATOM     47  N   UNL A   1      41.436  27.358  29.608  1.00  0.00    -0.354 N 
ATOM     48  C   UNL A   1      42.814  28.359  33.712  1.00  0.00     0.074 A 
ATOM     49  C   UNL A   1      41.657  27.863  34.414  1.00  0.00     0.031 C 
ATOM     50  C   UNL A   1      39.821  27.051  28.096  1.00  0.00     0.029 A 
ATOM     51  C   UNL A   1      41.157  26.618  28.475  1.00  0.00     0.049 A 
ATOM     52  H   UNL A   1      42.321  27.371  30.038  1.00  0.00     0.167 HD
ATOM     53  C   UNL A   1      44.135  28.156  33.950  1.00  0.00     0.031 A 
ATOM     54  C   UNL A   1      41.941  25.655  27.942  1.00  0.00     0.031 A 
ATOM     55  C   UNL A   1      44.977  28.860  33.021  1.00  0.00     0.049 A 
ATOM     56  C   UNL A   1      43.321  25.849  28.447  1.00  0.00     0.074 A 
ATOM     57  C   UNL A   1      45.224  30.183  32.722  1.00  0.00     0.029 A 
ATOM     58  N   UNL A   1      45.483  28.122  31.978  1.00  0.00    -0.354 N 
ATOM     59  N   UNL A   1      44.084  26.846  28.107  1.00  0.00    -0.248 NA
ATOM     60  C   UNL A   1      43.760  25.105  29.620  1.00  0.00     0.031 C 
ATOM     61  C   UNL A   1      45.549  30.209  31.333  1.00  0.00     0.029 A 
ATOM     62  C   UNL A   1      45.491  28.900  30.849  1.00  0.00     0.049 A 
ATOM     63  H   UNL A   1      45.791  27.189  32.033  1.00  0.00     0.167 HD
ATOM     64  C   UNL A   1      44.844  27.114  29.235  1.00  0.00     0.074 A 
ATOM     65  C   UNL A   1      44.719  25.923  30.063  1.00  0.00     0.031 C 
ATOM     66  C   UNL A   1      45.262  28.384  29.514  1.00  0.00     0.031 A 
BRANCH  53  67
ATOM     67  C   UNL A   1      44.629  26.976  34.746  1.00  0.00    -0.014 A 
ATOM     68  C   UNL A   1      45.740  27.143  35.586  1.00  0.00     0.009 A 
ATOM     69  C   UNL A   1      44.219  25.653  34.486  1.00  0.00     0.009 A 
ATOM     70  C   UNL A   1      46.431  26.038  36.099  1.00  0.00     0.001 A 
ATOM     71  C   UNL A   1      44.876  24.550  35.033  1.00  0.00     0.001 A 
ATOM     72  C   UNL A   1      46.000  24.744  35.821  1.00  0.00     0.000 A 
ENDBRANCH  53  67
BRANCH  54  73
ATOM     73  C   UNL A   1      41.515  24.428  27.244  1.00  0.00    -0.014 A 
ATOM     74  C   UNL A   1      42.246  23.932  26.155  1.00  0.00     0.009 A 
ATOM     75  C   UNL A   1      40.527  23.598  27.806  1.00  0.00     0.009 A 
ATOM     76  C   UNL A   1      42.021  22.637  25.673  1.00  0.00     0.001 A 
ATOM     77  C   UNL A   1      40.296  22.309  27.319  1.00  0.00     0.001 A 
ATOM     78  C   UNL A   1      41.056  21.824  26.262  1.00  0.00     0.000 A 
ENDBRANCH  54  73
BRANCH  66  79
ATOM     79  C   UNL A   1      45.209  29.393  28.394  1.00  0.00    -0.014 A 
ATOM     80  C   UNL A   1      44.061  30.148  28.101  1.00  0.00     0.009 A 
ATOM     81  C   UNL A   1      46.387  29.667  27.683  1.00  0.00     0.009 A 
ATOM     82  C   UNL A   1      44.080  31.119  27.095  1.00  0.00     0.001 A 
ATOM     83  C   UNL A   1      46.413  30.655  26.695  1.00  0.00     0.001 A 
ATOM     84  C   UNL A   1      45.258  31.374  26.395  1.00  0.00     0.000 A 
ENDBRANCH  66  79
ENDBRANCH  40  41
ENDBRANCH  33  35
ENDBRANCH  32  33
ENDBRANCH  31  32
ENDBRANCH  30  31
ENDBRANCH  29  30
ENDBRANCH  28  29
ENDBRANCH   1  28
TORSDOF 21
ENDMDL
