MODEL 1
REMARK VINA RESULT:      -9.4      0.000      0.000
REMARK SMILES CC(C)(CC(=O)OCCOCCOCCOCCOC(=O)c1ccc(-c2c3nc(c(-c4ccccc4)c4ccc([nH]4)c(-c4ccccc4)c4nc(c(-c5ccccc5)c5ccc2[nH]5)C=C4)C=C3)cc1)c1c(F)cc(F)cc1F
REMARK SMILES IDX 13 1 12 2 11 3 10 4 9 5 8 6 7 7 5 8 6 9 4 10 2 11 1 12 3 13
REMARK SMILES IDX 70 14 71 15 77 16 72 17 73 18 76 19 78 20 74 21 75 22 14 23
REMARK SMILES IDX 15 24 16 25 17 26 18 27 19 28 20 29 21 30 22 31 23 32 69 33
REMARK SMILES IDX 24 34 68 35 25 36 26 37 27 38 62 39 28 40 67 41 61 42 63 43
REMARK SMILES IDX 29 44 66 45 60 46 59 47 30 49 52 50 37 51 51 52 38 53 41 54
REMARK SMILES IDX 50 55 64 56 39 57 40 58 49 60 65 61 42 62 31 63 32 64 36 65
REMARK SMILES IDX 33 66 35 67 34 68 53 69 54 70 58 71 55 72 57 73 56 74 43 75
REMARK SMILES IDX 44 76 48 77 45 78 47 79 46 80
REMARK H PARENT 63 48 41 59
REMARK Flexibility Score: inf
ROOT
ATOM      1  O   UNL A   1      31.568  26.361  26.751  1.00  0.00    -0.377 OA
ENDROOT
BRANCH   1   2
ATOM      2  C   UNL A   1      32.246  25.623  25.757  1.00  0.00     0.188 C 
BRANCH   2   3
ATOM      3  C   UNL A   1      33.284  26.422  24.952  1.00  0.00     0.188 C 
BRANCH   3   4
ATOM      4  O   UNL A   1      33.159  26.515  23.540  1.00  0.00    -0.376 OA
BRANCH   4   5
ATOM      5  C   UNL A   1      32.316  25.603  22.856  1.00  0.00     0.202 C 
BRANCH   5   6
ATOM      6  C   UNL A   1      32.928  24.488  21.986  1.00  0.00     0.261 C 
BRANCH   6   7
ATOM      7  O   UNL A   1      33.191  23.200  22.596  1.00  0.00    -0.463 OA
BRANCH   7   8
ATOM      8  C   UNL A   1      34.372  23.082  23.257  1.00  0.00     0.306 C 
ATOM      9  O   UNL A   1      35.464  23.085  22.695  1.00  0.00    -0.252 OA
BRANCH   8  10
ATOM     10  C   UNL A   1      34.254  22.755  24.745  1.00  0.00     0.134 C 
BRANCH  10  11
ATOM     11  C   UNL A   1      34.746  21.445  25.461  1.00  0.00     0.006 C 
ATOM     12  C   UNL A   1      36.280  21.544  25.674  1.00  0.00     0.017 C 
ATOM     13  C   UNL A   1      34.103  21.516  26.881  1.00  0.00     0.017 C 
BRANCH  11  14
ATOM     14  C   UNL A   1      34.312  20.074  24.889  1.00  0.00     0.030 A 
ATOM     15  C   UNL A   1      35.194  19.001  24.687  1.00  0.00     0.132 A 
ATOM     16  C   UNL A   1      32.979  19.833  24.487  1.00  0.00     0.132 A 
ATOM     17  F   UNL A   1      36.499  19.139  24.934  1.00  0.00    -0.206 F 
ATOM     18  C   UNL A   1      34.768  17.745  24.246  1.00  0.00     0.079 A 
ATOM     19  C   UNL A   1      32.541  18.599  24.006  1.00  0.00     0.079 A 
ATOM     20  F   UNL A   1      32.067  20.814  24.530  1.00  0.00    -0.206 F 
ATOM     21  C   UNL A   1      33.437  17.553  23.918  1.00  0.00     0.129 A 
ATOM     22  F   UNL A   1      33.016  16.349  23.509  1.00  0.00    -0.207 F 
ENDBRANCH  11  14
ENDBRANCH  10  11
ENDBRANCH   8  10
ENDBRANCH   7   8
ENDBRANCH   6   7
ENDBRANCH   5   6
ENDBRANCH   4   5
ENDBRANCH   3   4
ENDBRANCH   2   3
ENDBRANCH   1   2
BRANCH   1  23
ATOM     23  C   UNL A   1      31.429  27.747  26.499  1.00  0.00     0.188 C 
BRANCH  23  24
ATOM     24  C   UNL A   1      32.433  28.684  27.189  1.00  0.00     0.188 C 
BRANCH  24  25
ATOM     25  O   UNL A   1      31.893  29.969  27.496  1.00  0.00    -0.376 OA
BRANCH  25  26
ATOM     26  C   UNL A   1      31.619  30.854  26.416  1.00  0.00     0.202 C 
BRANCH  26  27
ATOM     27  C   UNL A   1      31.557  32.343  26.786  1.00  0.00     0.261 C 
BRANCH  27  28
ATOM     28  O   UNL A   1      32.809  33.043  26.764  1.00  0.00    -0.460 OA
BRANCH  28  29
ATOM     29  C   UNL A   1      33.162  33.742  27.864  1.00  0.00     0.338 C 
ATOM     30  O   UNL A   1      32.510  34.584  28.453  1.00  0.00    -0.246 OA
BRANCH  29  31
ATOM     31  C   UNL A   1      34.408  33.140  28.368  1.00  0.00     0.060 A 
ATOM     32  C   UNL A   1      34.371  31.822  28.846  1.00  0.00     0.016 A 
ATOM     33  C   UNL A   1      35.614  33.843  28.304  1.00  0.00     0.016 A 
ATOM     34  C   UNL A   1      35.545  31.206  29.277  1.00  0.00     0.010 A 
ATOM     35  C   UNL A   1      36.780  33.242  28.771  1.00  0.00     0.010 A 
ATOM     36  C   UNL A   1      36.741  31.934  29.285  1.00  0.00    -0.014 A 
BRANCH  36  37
ATOM     37  C   UNL A   1      37.887  31.446  30.078  1.00  0.00     0.031 A 
ATOM     38  C   UNL A   1      38.776  30.420  29.435  1.00  0.00     0.074 A 
ATOM     39  C   UNL A   1      38.115  31.876  31.330  1.00  0.00     0.049 A 
ATOM     40  N   UNL A   1      39.781  29.756  29.940  1.00  0.00    -0.248 NA
ATOM     41  C   UNL A   1      38.483  30.095  28.027  1.00  0.00     0.031 C 
ATOM     42  C   UNL A   1      37.349  32.905  32.029  1.00  0.00     0.029 A 
ATOM     43  N   UNL A   1      39.060  31.477  32.242  1.00  0.00    -0.354 N 
ATOM     44  C   UNL A   1      40.230  28.930  28.918  1.00  0.00     0.074 A 
ATOM     45  C   UNL A   1      39.381  29.158  27.773  1.00  0.00     0.031 C 
ATOM     46  C   UNL A   1      37.843  33.044  33.273  1.00  0.00     0.029 A 
ATOM     47  C   UNL A   1      38.931  32.086  33.465  1.00  0.00     0.049 A 
ATOM     48  H   UNL A   1      39.763  30.819  32.037  1.00  0.00     0.167 HD
ATOM     49  C   UNL A   1      41.260  28.055  28.934  1.00  0.00     0.031 A 
ATOM     50  C   UNL A   1      39.599  31.863  34.615  1.00  0.00     0.031 A 
ATOM     51  C   UNL A   1      42.073  27.807  30.090  1.00  0.00     0.049 A 
ATOM     52  C   UNL A   1      40.680  30.812  34.637  1.00  0.00     0.074 A 
ATOM     53  C   UNL A   1      43.141  26.941  30.224  1.00  0.00     0.029 A 
ATOM     54  N   UNL A   1      41.893  28.424  31.321  1.00  0.00    -0.354 N 
ATOM     55  N   UNL A   1      41.117  30.053  33.660  1.00  0.00    -0.248 NA
ATOM     56  C   UNL A   1      41.362  30.588  35.921  1.00  0.00     0.031 C 
ATOM     57  C   UNL A   1      43.568  26.987  31.554  1.00  0.00     0.029 A 
ATOM     58  C   UNL A   1      42.813  27.934  32.228  1.00  0.00     0.049 A 
ATOM     59  H   UNL A   1      41.212  29.107  31.517  1.00  0.00     0.167 HD
ATOM     60  C   UNL A   1      42.146  29.290  34.201  1.00  0.00     0.074 A 
ATOM     61  C   UNL A   1      42.271  29.681  35.590  1.00  0.00     0.031 C 
ATOM     62  C   UNL A   1      42.922  28.352  33.602  1.00  0.00     0.031 A 
BRANCH  49  63
ATOM     63  C   UNL A   1      41.517  27.270  27.680  1.00  0.00    -0.014 A 
ATOM     64  C   UNL A   1      40.910  26.022  27.460  1.00  0.00     0.009 A 
ATOM     65  C   UNL A   1      42.378  27.788  26.701  1.00  0.00     0.009 A 
ATOM     66  C   UNL A   1      41.189  25.296  26.300  1.00  0.00     0.001 A 
ATOM     67  C   UNL A   1      42.631  27.074  25.530  1.00  0.00     0.001 A 
ATOM     68  C   UNL A   1      42.046  25.824  25.335  1.00  0.00     0.000 A 
ENDBRANCH  49  63
BRANCH  50  69
ATOM     69  C   UNL A   1      39.250  32.623  35.846  1.00  0.00    -0.014 A 
ATOM     70  C   UNL A   1      38.161  32.238  36.642  1.00  0.00     0.009 A 
ATOM     71  C   UNL A   1      39.994  33.753  36.221  1.00  0.00     0.009 A 
ATOM     72  C   UNL A   1      37.808  32.982  37.772  1.00  0.00     0.001 A 
ATOM     73  C   UNL A   1      39.658  34.478  37.367  1.00  0.00     0.001 A 
ATOM     74  C   UNL A   1      38.560  34.097  38.136  1.00  0.00     0.000 A 
ENDBRANCH  50  69
BRANCH  62  75
ATOM     75  C   UNL A   1      44.012  27.722  34.422  1.00  0.00    -0.014 A 
ATOM     76  C   UNL A   1      45.263  28.338  34.574  1.00  0.00     0.009 A 
ATOM     77  C   UNL A   1      43.744  26.537  35.126  1.00  0.00     0.009 A 
ATOM     78  C   UNL A   1      46.232  27.766  35.401  1.00  0.00     0.001 A 
ATOM     79  C   UNL A   1      44.703  25.985  35.975  1.00  0.00     0.001 A 
ATOM     80  C   UNL A   1      45.948  26.596  36.106  1.00  0.00     0.000 A 
ENDBRANCH  62  75
ENDBRANCH  36  37
ENDBRANCH  29  31
ENDBRANCH  28  29
ENDBRANCH  27  28
ENDBRANCH  26  27
ENDBRANCH  25  26
ENDBRANCH  24  25
ENDBRANCH  23  24
ENDBRANCH   1  23
TORSDOF 22
ENDMDL
MODEL 2
REMARK VINA RESULT:      -9.2      1.815      2.623
REMARK SMILES CC(C)(CC(=O)OCCOCCOCCOCCOC(=O)c1ccc(-c2c3nc(c(-c4ccccc4)c4ccc([nH]4)c(-c4ccccc4)c4nc(c(-c5ccccc5)c5ccc2[nH]5)C=C4)C=C3)cc1)c1c(F)cc(F)cc1F
REMARK SMILES IDX 13 1 12 2 11 3 10 4 9 5 8 6 7 7 5 8 6 9 4 10 2 11 1 12 3 13
REMARK SMILES IDX 70 14 71 15 77 16 72 17 73 18 76 19 78 20 74 21 75 22 14 23
REMARK SMILES IDX 15 24 16 25 17 26 18 27 19 28 20 29 21 30 22 31 23 32 69 33
REMARK SMILES IDX 24 34 68 35 25 36 26 37 27 38 62 39 28 40 67 41 61 42 63 43
REMARK SMILES IDX 29 44 66 45 60 46 59 47 30 49 52 50 37 51 51 52 38 53 41 54
REMARK SMILES IDX 50 55 64 56 39 57 40 58 49 60 65 61 42 62 31 63 32 64 36 65
REMARK SMILES IDX 33 66 35 67 34 68 53 69 54 70 58 71 55 72 57 73 56 74 43 75
REMARK SMILES IDX 44 76 48 77 45 78 47 79 46 80
REMARK H PARENT 63 48 41 59
REMARK Flexibility Score: inf
ROOT
ATOM      1  O   UNL A   1      31.600  27.343  27.282  1.00  0.00    -0.377 OA
ENDROOT
BRANCH   1   2
ATOM      2  C   UNL A   1      31.529  26.890  25.947  1.00  0.00     0.188 C 
BRANCH   2   3
ATOM      3  C   UNL A   1      30.314  26.005  25.627  1.00  0.00     0.188 C 
BRANCH   3   4
ATOM      4  O   UNL A   1      29.942  25.783  24.275  1.00  0.00    -0.376 OA
BRANCH   4   5
ATOM      5  C   UNL A   1      30.777  24.991  23.446  1.00  0.00     0.202 C 
BRANCH   5   6
ATOM      6  C   UNL A   1      30.853  23.466  23.657  1.00  0.00     0.261 C 
BRANCH   6   7
ATOM      7  O   UNL A   1      31.724  22.692  22.796  1.00  0.00    -0.463 OA
BRANCH   7   8
ATOM      8  C   UNL A   1      32.375  21.654  23.383  1.00  0.00     0.306 C 
ATOM      9  O   UNL A   1      32.198  20.480  23.067  1.00  0.00    -0.252 OA
BRANCH   8  10
ATOM     10  C   UNL A   1      33.216  22.021  24.605  1.00  0.00     0.134 C 
BRANCH  10  11
ATOM     11  C   UNL A   1      34.537  22.872  24.616  1.00  0.00     0.006 C 
ATOM     12  C   UNL A   1      34.576  23.740  23.329  1.00  0.00     0.017 C 
ATOM     13  C   UNL A   1      34.348  23.864  25.805  1.00  0.00     0.017 C 
BRANCH  11  14
ATOM     14  C   UNL A   1      35.883  22.160  24.894  1.00  0.00     0.030 A 
ATOM     15  C   UNL A   1      37.078  22.838  25.175  1.00  0.00     0.132 A 
ATOM     16  C   UNL A   1      35.996  20.753  24.834  1.00  0.00     0.132 A 
ATOM     17  F   UNL A   1      37.121  24.173  25.161  1.00  0.00    -0.206 F 
ATOM     18  C   UNL A   1      38.265  22.175  25.504  1.00  0.00     0.079 A 
ATOM     19  C   UNL A   1      37.181  20.072  25.118  1.00  0.00     0.079 A 
ATOM     20  F   UNL A   1      34.949  20.000  24.467  1.00  0.00    -0.206 F 
ATOM     21  C   UNL A   1      38.301  20.793  25.481  1.00  0.00     0.129 A 
ATOM     22  F   UNL A   1      39.428  20.148  25.808  1.00  0.00    -0.207 F 
ENDBRANCH  11  14
ENDBRANCH  10  11
ENDBRANCH   8  10
ENDBRANCH   7   8
ENDBRANCH   6   7
ENDBRANCH   5   6
ENDBRANCH   4   5
ENDBRANCH   3   4
ENDBRANCH   2   3
ENDBRANCH   1   2
BRANCH   1  23
ATOM     23  C   UNL A   1      32.317  28.546  27.486  1.00  0.00     0.188 C 
BRANCH  23  24
ATOM     24  C   UNL A   1      32.185  29.627  26.402  1.00  0.00     0.188 C 
BRANCH  24  25
ATOM     25  O   UNL A   1      31.791  30.901  26.912  1.00  0.00    -0.376 OA
BRANCH  25  26
ATOM     26  C   UNL A   1      32.813  31.826  27.261  1.00  0.00     0.202 C 
BRANCH  26  27
ATOM     27  C   UNL A   1      32.393  33.303  27.252  1.00  0.00     0.261 C 
BRANCH  27  28
ATOM     28  O   UNL A   1      32.305  33.934  28.538  1.00  0.00    -0.460 OA
BRANCH  28  29
ATOM     29  C   UNL A   1      33.220  34.880  28.841  1.00  0.00     0.338 C 
ATOM     30  O   UNL A   1      33.036  36.073  28.991  1.00  0.00    -0.246 OA
BRANCH  29  31
ATOM     31  C   UNL A   1      34.465  34.171  29.185  1.00  0.00     0.060 A 
ATOM     32  C   UNL A   1      34.434  33.220  30.215  1.00  0.00     0.016 A 
ATOM     33  C   UNL A   1      35.633  34.392  28.451  1.00  0.00     0.016 A 
ATOM     34  C   UNL A   1      35.582  32.494  30.525  1.00  0.00     0.010 A 
ATOM     35  C   UNL A   1      36.791  33.694  28.786  1.00  0.00     0.010 A 
ATOM     36  C   UNL A   1      36.774  32.767  29.842  1.00  0.00    -0.014 A 
BRANCH  36  37
ATOM     37  C   UNL A   1      38.059  32.300  30.402  1.00  0.00     0.031 A 
ATOM     38  C   UNL A   1      38.633  31.035  29.831  1.00  0.00     0.074 A 
ATOM     39  C   UNL A   1      38.678  32.958  31.395  1.00  0.00     0.049 A 
ATOM     40  N   UNL A   1      39.684  30.356  30.206  1.00  0.00    -0.248 NA
ATOM     41  C   UNL A   1      37.914  30.453  28.683  1.00  0.00     0.031 C 
ATOM     42  C   UNL A   1      38.237  34.221  31.984  1.00  0.00     0.029 A 
ATOM     43  N   UNL A   1      39.813  32.635  32.095  1.00  0.00    -0.354 N 
ATOM     44  C   UNL A   1      39.745  29.265  29.348  1.00  0.00     0.074 A 
ATOM     45  C   UNL A   1      38.619  29.358  28.449  1.00  0.00     0.031 C 
ATOM     46  C   UNL A   1      39.084  34.557  32.974  1.00  0.00     0.029 A 
ATOM     47  C   UNL A   1      40.099  33.512  33.111  1.00  0.00     0.049 A 
ATOM     48  H   UNL A   1      40.369  31.849  31.887  1.00  0.00     0.167 HD
ATOM     49  C   UNL A   1      40.660  28.270  29.315  1.00  0.00     0.031 A 
ATOM     50  C   UNL A   1      41.054  33.453  34.060  1.00  0.00     0.031 A 
ATOM     51  C   UNL A   1      41.753  28.167  30.238  1.00  0.00     0.049 A 
ATOM     52  C   UNL A   1      42.005  32.283  34.064  1.00  0.00     0.074 A 
ATOM     53  C   UNL A   1      42.740  27.201  30.302  1.00  0.00     0.029 A 
ATOM     54  N   UNL A   1      41.993  29.061  31.272  1.00  0.00    -0.354 N 
ATOM     55  N   UNL A   1      42.073  31.268  33.235  1.00  0.00    -0.248 NA
ATOM     56  C   UNL A   1      43.013  32.250  35.135  1.00  0.00     0.031 C 
ATOM     57  C   UNL A   1      43.540  27.476  31.414  1.00  0.00     0.029 A 
ATOM     58  C   UNL A   1      43.096  28.653  31.998  1.00  0.00     0.049 A 
ATOM     59  H   UNL A   1      41.457  29.865  31.459  1.00  0.00     0.167 HD
ATOM     60  C   UNL A   1      43.149  30.498  33.660  1.00  0.00     0.074 A 
ATOM     61  C   UNL A   1      43.708  31.165  34.819  1.00  0.00     0.031 C 
ATOM     62  C   UNL A   1      43.636  29.345  33.139  1.00  0.00     0.031 A 
BRANCH  49  63
ATOM     63  C   UNL A   1      40.472  27.196  28.282  1.00  0.00    -0.014 A 
ATOM     64  C   UNL A   1      39.717  26.044  28.553  1.00  0.00     0.009 A 
ATOM     65  C   UNL A   1      41.060  27.341  27.016  1.00  0.00     0.009 A 
ATOM     66  C   UNL A   1      39.583  25.044  27.587  1.00  0.00     0.001 A 
ATOM     67  C   UNL A   1      40.899  26.355  26.043  1.00  0.00     0.001 A 
ATOM     68  C   UNL A   1      40.170  25.202  26.333  1.00  0.00     0.000 A 
ENDBRANCH  49  63
BRANCH  50  69
ATOM     69  C   UNL A   1      41.144  34.511  35.102  1.00  0.00    -0.014 A 
ATOM     70  C   UNL A   1      41.942  35.648  34.903  1.00  0.00     0.009 A 
ATOM     71  C   UNL A   1      40.448  34.379  36.314  1.00  0.00     0.009 A 
ATOM     72  C   UNL A   1      42.060  36.617  35.904  1.00  0.00     0.001 A 
ATOM     73  C   UNL A   1      40.544  35.363  37.301  1.00  0.00     0.001 A 
ATOM     74  C   UNL A   1      41.358  36.476  37.100  1.00  0.00     0.000 A 
ENDBRANCH  50  69
BRANCH  62  75
ATOM     75  C   UNL A   1      44.864  28.756  33.775  1.00  0.00    -0.014 A 
ATOM     76  C   UNL A   1      44.773  27.834  34.828  1.00  0.00     0.009 A 
ATOM     77  C   UNL A   1      46.127  29.066  33.245  1.00  0.00     0.009 A 
ATOM     78  C   UNL A   1      45.928  27.248  35.350  1.00  0.00     0.001 A 
ATOM     79  C   UNL A   1      47.276  28.456  33.749  1.00  0.00     0.001 A 
ATOM     80  C   UNL A   1      47.176  27.554  34.805  1.00  0.00     0.000 A 
ENDBRANCH  62  75
ENDBRANCH  36  37
ENDBRANCH  29  31
ENDBRANCH  28  29
ENDBRANCH  27  28
ENDBRANCH  26  27
ENDBRANCH  25  26
ENDBRANCH  24  25
ENDBRANCH  23  24
ENDBRANCH   1  23
TORSDOF 22
ENDMDL
MODEL 3
REMARK VINA RESULT:      -9.1      2.325      6.973
REMARK SMILES CC(C)(CC(=O)OCCOCCOCCOCCOC(=O)c1ccc(-c2c3nc(c(-c4ccccc4)c4ccc([nH]4)c(-c4ccccc4)c4nc(c(-c5ccccc5)c5ccc2[nH]5)C=C4)C=C3)cc1)c1c(F)cc(F)cc1F
REMARK SMILES IDX 13 1 12 2 11 3 10 4 9 5 8 6 7 7 5 8 6 9 4 10 2 11 1 12 3 13
REMARK SMILES IDX 70 14 71 15 77 16 72 17 73 18 76 19 78 20 74 21 75 22 14 23
REMARK SMILES IDX 15 24 16 25 17 26 18 27 19 28 20 29 21 30 22 31 23 32 69 33
REMARK SMILES IDX 24 34 68 35 25 36 26 37 27 38 62 39 28 40 67 41 61 42 63 43
REMARK SMILES IDX 29 44 66 45 60 46 59 47 30 49 52 50 37 51 51 52 38 53 41 54
REMARK SMILES IDX 50 55 64 56 39 57 40 58 49 60 65 61 42 62 31 63 32 64 36 65
REMARK SMILES IDX 33 66 35 67 34 68 53 69 54 70 58 71 55 72 57 73 56 74 43 75
REMARK SMILES IDX 44 76 48 77 45 78 47 79 46 80
REMARK H PARENT 63 48 41 59
REMARK Flexibility Score: inf
ROOT
ATOM      1  O   UNL A   1      33.860  31.052  28.081  1.00  0.00    -0.377 OA
ENDROOT
BRANCH   1   2
ATOM      2  C   UNL A   1      33.386  30.447  26.896  1.00  0.00     0.188 C 
BRANCH   2   3
ATOM      3  C   UNL A   1      33.140  28.933  26.997  1.00  0.00     0.188 C 
BRANCH   3   4
ATOM      4  O   UNL A   1      34.026  28.033  26.348  1.00  0.00    -0.376 OA
BRANCH   4   5
ATOM      5  C   UNL A   1      33.513  26.836  25.788  1.00  0.00     0.202 C 
BRANCH   5   6
ATOM      6  C   UNL A   1      32.261  26.877  24.889  1.00  0.00     0.261 C 
BRANCH   6   7
ATOM      7  O   UNL A   1      31.154  25.997  25.205  1.00  0.00    -0.463 OA
BRANCH   7   8
ATOM      8  C   UNL A   1      30.972  24.943  24.367  1.00  0.00     0.306 C 
ATOM      9  O   UNL A   1      30.082  24.899  23.522  1.00  0.00    -0.252 OA
BRANCH   8  10
ATOM     10  C   UNL A   1      31.834  23.717  24.665  1.00  0.00     0.134 C 
BRANCH  10  11
ATOM     11  C   UNL A   1      33.050  23.195  23.816  1.00  0.00     0.006 C 
ATOM     12  C   UNL A   1      32.705  21.779  23.279  1.00  0.00     0.017 C 
ATOM     13  C   UNL A   1      33.084  24.136  22.572  1.00  0.00     0.017 C 
BRANCH  11  14
ATOM     14  C   UNL A   1      34.472  23.271  24.421  1.00  0.00     0.030 A 
ATOM     15  C   UNL A   1      35.646  23.097  23.673  1.00  0.00     0.132 A 
ATOM     16  C   UNL A   1      34.673  23.482  25.803  1.00  0.00     0.132 A 
ATOM     17  F   UNL A   1      35.585  22.791  22.374  1.00  0.00    -0.206 F 
ATOM     18  C   UNL A   1      36.923  23.250  24.222  1.00  0.00     0.079 A 
ATOM     19  C   UNL A   1      35.938  23.598  26.380  1.00  0.00     0.079 A 
ATOM     20  F   UNL A   1      33.628  23.555  26.640  1.00  0.00    -0.206 F 
ATOM     21  C   UNL A   1      37.056  23.511  25.574  1.00  0.00     0.129 A 
ATOM     22  F   UNL A   1      38.273  23.674  26.107  1.00  0.00    -0.207 F 
ENDBRANCH  11  14
ENDBRANCH  10  11
ENDBRANCH   8  10
ENDBRANCH   7   8
ENDBRANCH   6   7
ENDBRANCH   5   6
ENDBRANCH   4   5
ENDBRANCH   3   4
ENDBRANCH   2   3
ENDBRANCH   1   2
BRANCH   1  23
ATOM     23  C   UNL A   1      33.982  32.462  28.044  1.00  0.00     0.188 C 
BRANCH  23  24
ATOM     24  C   UNL A   1      34.998  33.098  29.004  1.00  0.00     0.188 C 
BRANCH  24  25
ATOM     25  O   UNL A   1      34.991  34.526  28.978  1.00  0.00    -0.376 OA
BRANCH  25  26
ATOM     26  C   UNL A   1      33.808  35.179  28.531  1.00  0.00     0.202 C 
BRANCH  26  27
ATOM     27  C   UNL A   1      33.032  35.944  29.612  1.00  0.00     0.261 C 
BRANCH  27  28
ATOM     28  O   UNL A   1      32.618  35.171  30.747  1.00  0.00    -0.460 OA
BRANCH  28  29
ATOM     29  C   UNL A   1      32.871  35.667  31.977  1.00  0.00     0.338 C 
ATOM     30  O   UNL A   1      32.190  36.440  32.624  1.00  0.00    -0.246 OA
BRANCH  29  31
ATOM     31  C   UNL A   1      34.029  34.923  32.504  1.00  0.00     0.060 A 
ATOM     32  C   UNL A   1      35.302  35.504  32.404  1.00  0.00     0.016 A 
ATOM     33  C   UNL A   1      33.851  33.698  33.152  1.00  0.00     0.016 A 
ATOM     34  C   UNL A   1      36.407  34.850  32.944  1.00  0.00     0.010 A 
ATOM     35  C   UNL A   1      34.962  33.026  33.657  1.00  0.00     0.010 A 
ATOM     36  C   UNL A   1      36.243  33.587  33.527  1.00  0.00    -0.014 A 
BRANCH  36  37
ATOM     37  C   UNL A   1      37.424  32.728  33.749  1.00  0.00     0.031 A 
ATOM     38  C   UNL A   1      38.202  32.948  35.015  1.00  0.00     0.074 A 
ATOM     39  C   UNL A   1      37.807  31.806  32.850  1.00  0.00     0.049 A 
ATOM     40  N   UNL A   1      39.324  32.408  35.406  1.00  0.00    -0.248 NA
ATOM     41  C   UNL A   1      37.634  33.921  35.967  1.00  0.00     0.031 C 
ATOM     42  C   UNL A   1      37.096  31.473  31.617  1.00  0.00     0.029 A 
ATOM     43  N   UNL A   1      38.909  30.989  32.839  1.00  0.00    -0.354 N 
ATOM     44  C   UNL A   1      39.600  32.981  36.641  1.00  0.00     0.074 A 
ATOM     45  C   UNL A   1      38.544  33.924  36.926  1.00  0.00     0.031 C 
ATOM     46  C   UNL A   1      37.794  30.532  30.955  1.00  0.00     0.029 A 
ATOM     47  C   UNL A   1      39.016  30.230  31.700  1.00  0.00     0.049 A 
ATOM     48  H   UNL A   1      39.560  30.951  33.576  1.00  0.00     0.167 HD
ATOM     49  C   UNL A   1      40.646  32.745  37.464  1.00  0.00     0.031 A 
ATOM     50  C   UNL A   1      40.009  29.411  31.298  1.00  0.00     0.031 A 
ATOM     51  C   UNL A   1      41.711  31.835  37.152  1.00  0.00     0.049 A 
ATOM     52  C   UNL A   1      41.214  29.236  32.188  1.00  0.00     0.074 A 
ATOM     53  C   UNL A   1      42.824  31.517  37.908  1.00  0.00     0.029 A 
ATOM     54  N   UNL A   1      41.798  31.104  35.976  1.00  0.00    -0.354 N 
ATOM     55  N   UNL A   1      41.457  29.762  33.366  1.00  0.00    -0.248 NA
ATOM     56  C   UNL A   1      42.281  28.353  31.694  1.00  0.00     0.031 C 
ATOM     57  C   UNL A   1      43.616  30.642  37.161  1.00  0.00     0.029 A 
ATOM     58  C   UNL A   1      42.962  30.359  35.972  1.00  0.00     0.049 A 
ATOM     59  H   UNL A   1      41.130  31.117  35.252  1.00  0.00     0.167 HD
ATOM     60  C   UNL A   1      42.683  29.246  33.768  1.00  0.00     0.074 A 
ATOM     61  C   UNL A   1      43.133  28.363  32.712  1.00  0.00     0.031 C 
ATOM     62  C   UNL A   1      43.376  29.479  34.911  1.00  0.00     0.031 A 
BRANCH  49  63
ATOM     63  C   UNL A   1      40.706  33.527  38.744  1.00  0.00    -0.014 A 
ATOM     64  C   UNL A   1      40.127  33.041  39.927  1.00  0.00     0.009 A 
ATOM     65  C   UNL A   1      41.355  34.771  38.768  1.00  0.00     0.009 A 
ATOM     66  C   UNL A   1      40.168  33.801  41.098  1.00  0.00     0.001 A 
ATOM     67  C   UNL A   1      41.420  35.514  39.946  1.00  0.00     0.001 A 
ATOM     68  C   UNL A   1      40.818  35.034  41.108  1.00  0.00     0.000 A 
ENDBRANCH  49  63
BRANCH  50  69
ATOM     69  C   UNL A   1      39.926  28.719  29.984  1.00  0.00    -0.014 A 
ATOM     70  C   UNL A   1      40.272  29.385  28.799  1.00  0.00     0.009 A 
ATOM     71  C   UNL A   1      39.479  27.390  29.905  1.00  0.00     0.009 A 
ATOM     72  C   UNL A   1      40.149  28.745  27.562  1.00  0.00     0.001 A 
ATOM     73  C   UNL A   1      39.384  26.743  28.671  1.00  0.00     0.001 A 
ATOM     74  C   UNL A   1      39.709  27.424  27.500  1.00  0.00     0.000 A 
ENDBRANCH  50  69
BRANCH  62  75
ATOM     75  C   UNL A   1      44.663  28.728  35.110  1.00  0.00    -0.014 A 
ATOM     76  C   UNL A   1      44.681  27.442  35.670  1.00  0.00     0.009 A 
ATOM     77  C   UNL A   1      45.863  29.288  34.644  1.00  0.00     0.009 A 
ATOM     78  C   UNL A   1      45.884  26.740  35.776  1.00  0.00     0.001 A 
ATOM     79  C   UNL A   1      47.057  28.572  34.724  1.00  0.00     0.001 A 
ATOM     80  C   UNL A   1      47.068  27.302  35.296  1.00  0.00     0.000 A 
ENDBRANCH  62  75
ENDBRANCH  36  37
ENDBRANCH  29  31
ENDBRANCH  28  29
ENDBRANCH  27  28
ENDBRANCH  26  27
ENDBRANCH  25  26
ENDBRANCH  24  25
ENDBRANCH  23  24
ENDBRANCH   1  23
TORSDOF 22
ENDMDL
