MODEL 1
REMARK VINA RESULT:      -8.4      0.000      0.000
REMARK SMILES COc1ccc(CCN2/C(=[NH+]/C(=O)CCC(=O)OCCOCCOCCOCCOC(=O)c3ccc(-c4c5nc(c(-c6ccccc6)c6ccc([nH]6)c(-c6ccccc6)c6nc(c(-c7ccccc7)c7ccc4[nH]7)C=C6)C=C5)cc3)S[C@@H]3CS(=O)(=O)C[C@@H]32)cc1
REMARK SMILES IDX 22 1 21 2 20 3 19 4 18 5 16 6 17 7 15 8 14 9 12 10 9 11
REMARK SMILES IDX 10 12 88 13 11 14 81 15 82 16 87 17 83 19 84 20 13 21 85 22
REMARK SMILES IDX 86 23 8 24 7 25 6 26 3 27 4 28 90 29 5 30 89 31 2 32 1 33
REMARK SMILES IDX 23 34 24 35 25 36 26 37 27 38 28 39 29 40 30 41 31 42 32 43
REMARK SMILES IDX 33 44 34 45 80 46 35 47 79 48 36 49 37 50 38 51 73 52 39 53
REMARK SMILES IDX 78 54 72 55 74 56 40 57 77 58 71 59 70 60 41 62 63 63 48 64
REMARK SMILES IDX 62 65 49 66 52 67 61 68 75 69 50 70 51 71 60 73 76 74 53 75
REMARK SMILES IDX 42 76 43 77 47 78 44 79 46 80 45 81 64 82 65 83 69 84 66 85
REMARK SMILES IDX 68 86 67 87 54 88 55 89 59 90 56 91 58 92 57 93
REMARK H PARENT 11 18 74 61 52 72
REMARK Flexibility Score: inf
ROOT
ATOM      1  C   UNL A   1      46.284  22.329  24.310  1.00  0.00     0.188 C 
ENDROOT
BRANCH   1   2
ATOM      2  O   UNL A   1      46.136  21.365  25.326  1.00  0.00    -0.376 OA
BRANCH   2   3
ATOM      3  C   UNL A   1      45.667  20.051  25.082  1.00  0.00     0.202 C 
BRANCH   3   4
ATOM      4  C   UNL A   1      44.727  19.698  23.929  1.00  0.00     0.261 C 
BRANCH   4   5
ATOM      5  O   UNL A   1      43.582  18.934  24.318  1.00  0.00    -0.463 OA
BRANCH   5   6
ATOM      6  C   UNL A   1      43.599  18.524  25.605  1.00  0.00     0.306 C 
ATOM      7  O   UNL A   1      44.514  17.881  26.114  1.00  0.00    -0.252 OA
BRANCH   6   8
ATOM      8  C   UNL A   1      42.449  18.999  26.449  1.00  0.00     0.135 C 
BRANCH   8   9
ATOM      9  C   UNL A   1      41.542  20.156  26.081  1.00  0.00     0.139 C 
BRANCH   9  10
ATOM     10  C   UNL A   1      42.000  21.600  26.079  1.00  0.00     0.308 C 
ATOM     11  N   UNL A   1      41.535  24.681  28.064  1.00  0.00    -0.251 N 
ATOM     12  C   UNL A   1      41.834  23.722  27.060  1.00  0.00     0.314 C 
ATOM     13  C   UNL A   1      42.596  25.710  28.178  1.00  0.00     0.206 C 
ATOM     14  N   UNL A   1      41.436  22.489  26.988  1.00  0.00    -0.205 N 
ATOM     15  S   UNL A   1      43.058  24.449  25.989  1.00  0.00    -0.030 SA
ATOM     16  C   UNL A   1      43.823  25.208  27.406  1.00  0.00     0.120 C 
ATOM     17  C   UNL A   1      43.097  26.018  29.578  1.00  0.00     0.187 C 
ATOM     18  H   UNL A   1      40.721  22.177  27.588  1.00  0.00     0.316 HD
ATOM     19  C   UNL A   1      44.545  24.201  28.283  1.00  0.00     0.156 C 
ATOM     20  S   UNL A   1      44.499  24.974  29.875  1.00  0.00     0.155 S 
ATOM     21  O   UNL A   1      42.825  21.869  25.204  1.00  0.00    -0.247 OA
ATOM     22  O   UNL A   1      44.144  23.992  30.875  1.00  0.00    -0.229 OA
ATOM     23  O   UNL A   1      45.669  25.819  29.995  1.00  0.00    -0.229 OA
BRANCH  11  24
ATOM     24  C   UNL A   1      40.116  25.079  28.301  1.00  0.00     0.242 C 
BRANCH  24  25
ATOM     25  C   UNL A   1      39.605  26.478  27.829  1.00  0.00     0.081 C 
BRANCH  25  26
ATOM     26  C   UNL A   1      38.929  27.409  28.833  1.00  0.00    -0.044 A 
ATOM     27  C   UNL A   1      37.528  29.014  30.733  1.00  0.00     0.118 A 
ATOM     28  C   UNL A   1      37.642  29.423  29.415  1.00  0.00     0.046 A 
ATOM     29  C   UNL A   1      38.197  27.857  31.127  1.00  0.00     0.046 A 
ATOM     30  C   UNL A   1      38.361  28.643  28.489  1.00  0.00     0.007 A 
ATOM     31  C   UNL A   1      38.892  27.067  30.195  1.00  0.00     0.007 A 
BRANCH  27  32
ATOM     32  O   UNL A   1      36.759  29.591  31.698  1.00  0.00    -0.497 OA
ATOM     33  C   UNL A   1      36.551  30.998  31.652  1.00  0.00     0.278 C 
ENDBRANCH  27  32
ENDBRANCH  25  26
ENDBRANCH  24  25
ENDBRANCH  11  24
ENDBRANCH   9  10
ENDBRANCH   8   9
ENDBRANCH   6   8
ENDBRANCH   5   6
ENDBRANCH   4   5
ENDBRANCH   3   4
ENDBRANCH   2   3
ENDBRANCH   1   2
BRANCH   1  34
ATOM     34  C   UNL A   1      46.532  23.786  24.746  1.00  0.00     0.188 C 
BRANCH  34  35
ATOM     35  O   UNL A   1      47.345  24.721  24.057  1.00  0.00    -0.377 OA
BRANCH  35  36
ATOM     36  C   UNL A   1      47.634  25.955  24.672  1.00  0.00     0.188 C 
BRANCH  36  37
ATOM     37  C   UNL A   1      46.415  26.875  24.834  1.00  0.00     0.188 C 
BRANCH  37  38
ATOM     38  O   UNL A   1      46.597  28.260  25.055  1.00  0.00    -0.376 OA
BRANCH  38  39
ATOM     39  C   UNL A   1      45.842  28.971  26.020  1.00  0.00     0.202 C 
BRANCH  39  40
ATOM     40  C   UNL A   1      44.418  28.590  26.472  1.00  0.00     0.261 C 
BRANCH  40  41
ATOM     41  O   UNL A   1      43.630  29.548  27.180  1.00  0.00    -0.460 OA
BRANCH  41  42
ATOM     42  C   UNL A   1      44.010  29.823  28.440  1.00  0.00     0.338 C 
ATOM     43  O   UNL A   1      44.541  29.067  29.244  1.00  0.00    -0.246 OA
BRANCH  42  44
ATOM     44  C   UNL A   1      43.790  31.263  28.672  1.00  0.00     0.060 A 
ATOM     45  C   UNL A   1      44.740  32.175  28.215  1.00  0.00     0.016 A 
ATOM     46  C   UNL A   1      42.672  31.707  29.386  1.00  0.00     0.016 A 
ATOM     47  C   UNL A   1      44.582  33.529  28.504  1.00  0.00     0.010 A 
ATOM     48  C   UNL A   1      42.534  33.066  29.694  1.00  0.00     0.010 A 
ATOM     49  C   UNL A   1      43.505  33.986  29.276  1.00  0.00    -0.014 A 
BRANCH  49  50
ATOM     50  C   UNL A   1      43.541  35.375  29.807  1.00  0.00     0.031 A 
ATOM     51  C   UNL A   1      44.052  35.588  31.198  1.00  0.00     0.074 A 
ATOM     52  C   UNL A   1      43.186  36.440  29.068  1.00  0.00     0.049 A 
ATOM     53  N   UNL A   1      44.146  36.705  31.873  1.00  0.00    -0.248 NA
ATOM     54  C   UNL A   1      44.469  34.389  31.939  1.00  0.00     0.031 C 
ATOM     55  C   UNL A   1      42.694  36.364  27.705  1.00  0.00     0.029 A 
ATOM     56  N   UNL A   1      43.241  37.793  29.327  1.00  0.00    -0.354 N 
ATOM     57  C   UNL A   1      44.545  36.329  33.147  1.00  0.00     0.074 A 
ATOM     58  C   UNL A   1      44.733  34.895  33.134  1.00  0.00     0.031 C 
ATOM     59  C   UNL A   1      42.611  37.609  27.207  1.00  0.00     0.029 A 
ATOM     60  C   UNL A   1      42.983  38.576  28.224  1.00  0.00     0.049 A 
ATOM     61  H   UNL A   1      43.444  38.164  30.215  1.00  0.00     0.167 HD
ATOM     62  C   UNL A   1      44.678  37.111  34.241  1.00  0.00     0.031 A 
ATOM     63  C   UNL A   1      43.057  39.913  28.042  1.00  0.00     0.031 A 
ATOM     64  C   UNL A   1      44.490  38.536  34.240  1.00  0.00     0.049 A 
ATOM     65  C   UNL A   1      43.307  40.769  29.252  1.00  0.00     0.074 A 
ATOM     66  C   UNL A   1      44.550  39.409  35.312  1.00  0.00     0.029 A 
ATOM     67  N   UNL A   1      44.216  39.296  33.115  1.00  0.00    -0.354 N 
ATOM     68  N   UNL A   1      43.643  40.400  30.463  1.00  0.00    -0.248 NA
ATOM     69  C   UNL A   1      43.133  42.221  29.089  1.00  0.00     0.031 C 
ATOM     70  C   UNL A   1      44.264  40.693  34.841  1.00  0.00     0.029 A 
ATOM     71  C   UNL A   1      44.102  40.629  33.466  1.00  0.00     0.049 A 
ATOM     72  H   UNL A   1      44.118  38.940  32.202  1.00  0.00     0.167 HD
ATOM     73  C   UNL A   1      43.678  41.566  31.214  1.00  0.00     0.074 A 
ATOM     74  C   UNL A   1      43.419  42.663  30.306  1.00  0.00     0.031 C 
ATOM     75  C   UNL A   1      43.861  41.709  32.547  1.00  0.00     0.031 A 
BRANCH  62  76
ATOM     76  C   UNL A   1      44.922  36.422  35.549  1.00  0.00    -0.014 A 
ATOM     77  C   UNL A   1      43.886  35.841  36.291  1.00  0.00     0.009 A 
ATOM     78  C   UNL A   1      46.238  36.343  36.034  1.00  0.00     0.009 A 
ATOM     79  C   UNL A   1      44.161  35.214  37.509  1.00  0.00     0.001 A 
ATOM     80  C   UNL A   1      46.515  35.688  37.233  1.00  0.00     0.001 A 
ATOM     81  C   UNL A   1      45.476  35.131  37.972  1.00  0.00     0.000 A 
ENDBRANCH  62  76
BRANCH  63  82
ATOM     82  C   UNL A   1      42.888  40.550  26.697  1.00  0.00    -0.014 A 
ATOM     83  C   UNL A   1      44.020  40.935  25.953  1.00  0.00     0.009 A 
ATOM     84  C   UNL A   1      41.622  40.831  26.160  1.00  0.00     0.009 A 
ATOM     85  C   UNL A   1      43.887  41.606  24.733  1.00  0.00     0.001 A 
ATOM     86  C   UNL A   1      41.491  41.453  24.914  1.00  0.00     0.001 A 
ATOM     87  C   UNL A   1      42.623  41.855  24.209  1.00  0.00     0.000 A 
ENDBRANCH  63  82
BRANCH  75  88
ATOM     88  C   UNL A   1      43.801  43.100  33.111  1.00  0.00    -0.014 A 
ATOM     89  C   UNL A   1      44.965  43.867  33.273  1.00  0.00     0.009 A 
ATOM     90  C   UNL A   1      42.556  43.677  33.400  1.00  0.00     0.009 A 
ATOM     91  C   UNL A   1      44.882  45.182  33.733  1.00  0.00     0.001 A 
ATOM     92  C   UNL A   1      42.474  45.002  33.831  1.00  0.00     0.001 A 
ATOM     93  C   UNL A   1      43.637  45.751  34.002  1.00  0.00     0.000 A 
ENDBRANCH  75  88
ENDBRANCH  49  50
ENDBRANCH  42  44
ENDBRANCH  41  42
ENDBRANCH  40  41
ENDBRANCH  39  40
ENDBRANCH  38  39
ENDBRANCH  37  38
ENDBRANCH  36  37
ENDBRANCH  35  36
ENDBRANCH  34  35
ENDBRANCH   1  34
TORSDOF 26
ENDMDL
MODEL 2
REMARK VINA RESULT:      -8.0      3.842      9.843
REMARK SMILES COc1ccc(CCN2/C(=[NH+]/C(=O)CCC(=O)OCCOCCOCCOCCOC(=O)c3ccc(-c4c5nc(c(-c6ccccc6)c6ccc([nH]6)c(-c6ccccc6)c6nc(c(-c7ccccc7)c7ccc4[nH]7)C=C6)C=C5)cc3)S[C@@H]3CS(=O)(=O)C[C@@H]32)cc1
REMARK SMILES IDX 22 1 21 2 20 3 19 4 18 5 16 6 17 7 15 8 14 9 12 10 9 11
REMARK SMILES IDX 10 12 88 13 11 14 81 15 82 16 87 17 83 19 84 20 13 21 85 22
REMARK SMILES IDX 86 23 8 24 7 25 6 26 3 27 4 28 90 29 5 30 89 31 2 32 1 33
REMARK SMILES IDX 23 34 24 35 25 36 26 37 27 38 28 39 29 40 30 41 31 42 32 43
REMARK SMILES IDX 33 44 34 45 80 46 35 47 79 48 36 49 37 50 38 51 73 52 39 53
REMARK SMILES IDX 78 54 72 55 74 56 40 57 77 58 71 59 70 60 41 62 63 63 48 64
REMARK SMILES IDX 62 65 49 66 52 67 61 68 75 69 50 70 51 71 60 73 76 74 53 75
REMARK SMILES IDX 42 76 43 77 47 78 44 79 46 80 45 81 64 82 65 83 69 84 66 85
REMARK SMILES IDX 68 86 67 87 54 88 55 89 59 90 56 91 58 92 57 93
REMARK H PARENT 11 18 74 61 52 72
REMARK Flexibility Score: inf
ROOT
ATOM      1  C   UNL A   1      46.418  23.893  24.584  1.00  0.00     0.188 C 
ENDROOT
BRANCH   1   2
ATOM      2  O   UNL A   1      46.204  25.285  24.562  1.00  0.00    -0.376 OA
BRANCH   2   3
ATOM      3  C   UNL A   1      46.394  26.115  25.694  1.00  0.00     0.202 C 
BRANCH   3   4
ATOM      4  C   UNL A   1      45.662  27.442  25.892  1.00  0.00     0.261 C 
BRANCH   4   5
ATOM      5  O   UNL A   1      46.492  28.507  26.362  1.00  0.00    -0.463 OA
BRANCH   5   6
ATOM      6  C   UNL A   1      45.950  29.736  26.225  1.00  0.00     0.306 C 
ATOM      7  O   UNL A   1      46.453  30.644  25.567  1.00  0.00    -0.252 OA
BRANCH   6   8
ATOM      8  C   UNL A   1      44.596  29.919  26.853  1.00  0.00     0.135 C 
BRANCH   8   9
ATOM      9  C   UNL A   1      43.926  31.262  27.061  1.00  0.00     0.139 C 
BRANCH   9  10
ATOM     10  C   UNL A   1      44.628  32.583  26.823  1.00  0.00     0.308 C 
ATOM     11  N   UNL A   1      47.010  34.831  28.533  1.00  0.00    -0.251 N 
ATOM     12  C   UNL A   1      46.034  34.251  27.679  1.00  0.00     0.314 C 
ATOM     13  C   UNL A   1      47.966  35.681  27.783  1.00  0.00     0.206 C 
ATOM     14  N   UNL A   1      45.374  33.148  27.852  1.00  0.00    -0.205 N 
ATOM     15  S   UNL A   1      46.018  35.209  26.177  1.00  0.00    -0.030 SA
ATOM     16  C   UNL A   1      47.786  35.385  26.289  1.00  0.00     0.120 C 
ATOM     17  C   UNL A   1      49.442  35.457  28.065  1.00  0.00     0.187 C 
ATOM     18  H   UNL A   1      45.399  32.703  28.729  1.00  0.00     0.316 HD
ATOM     19  C   UNL A   1      48.517  34.089  25.979  1.00  0.00     0.156 C 
ATOM     20  S   UNL A   1      50.029  34.276  26.880  1.00  0.00     0.155 S 
ATOM     21  O   UNL A   1      44.421  33.074  25.712  1.00  0.00    -0.247 OA
ATOM     22  O   UNL A   1      50.334  33.041  27.566  1.00  0.00    -0.229 OA
ATOM     23  O   UNL A   1      50.982  34.944  26.018  1.00  0.00    -0.229 OA
BRANCH  11  24
ATOM     24  C   UNL A   1      46.631  35.225  29.922  1.00  0.00     0.242 C 
BRANCH  24  25
ATOM     25  C   UNL A   1      46.165  36.686  30.222  1.00  0.00     0.081 C 
BRANCH  25  26
ATOM     26  C   UNL A   1      44.980  37.269  29.455  1.00  0.00    -0.044 A 
ATOM     27  C   UNL A   1      42.751  38.494  28.160  1.00  0.00     0.118 A 
ATOM     28  C   UNL A   1      42.651  37.209  28.667  1.00  0.00     0.046 A 
ATOM     29  C   UNL A   1      43.990  39.129  28.207  1.00  0.00     0.046 A 
ATOM     30  C   UNL A   1      43.763  36.598  29.277  1.00  0.00     0.007 A 
ATOM     31  C   UNL A   1      45.091  38.528  28.840  1.00  0.00     0.007 A 
BRANCH  27  32
ATOM     32  O   UNL A   1      41.733  39.254  27.669  1.00  0.00    -0.497 OA
ATOM     33  C   UNL A   1      41.437  39.180  26.278  1.00  0.00     0.278 C 
ENDBRANCH  27  32
ENDBRANCH  25  26
ENDBRANCH  24  25
ENDBRANCH  11  24
ENDBRANCH   9  10
ENDBRANCH   8   9
ENDBRANCH   6   8
ENDBRANCH   5   6
ENDBRANCH   4   5
ENDBRANCH   3   4
ENDBRANCH   2   3
ENDBRANCH   1   2
BRANCH   1  34
ATOM     34  C   UNL A   1      46.307  23.179  25.945  1.00  0.00     0.188 C 
BRANCH  34  35
ATOM     35  O   UNL A   1      45.200  22.407  26.377  1.00  0.00    -0.377 OA
BRANCH  35  36
ATOM     36  C   UNL A   1      44.224  22.029  25.434  1.00  0.00     0.188 C 
BRANCH  36  37
ATOM     37  C   UNL A   1      44.267  20.542  25.051  1.00  0.00     0.188 C 
BRANCH  37  38
ATOM     38  O   UNL A   1      43.090  19.759  25.115  1.00  0.00    -0.376 OA
BRANCH  38  39
ATOM     39  C   UNL A   1      42.357  19.606  26.317  1.00  0.00     0.202 C 
BRANCH  39  40
ATOM     40  C   UNL A   1      40.937  20.161  26.553  1.00  0.00     0.261 C 
BRANCH  40  41
ATOM     41  O   UNL A   1      40.779  21.518  26.969  1.00  0.00    -0.460 OA
BRANCH  41  42
ATOM     42  C   UNL A   1      39.777  22.208  26.397  1.00  0.00     0.338 C 
ATOM     43  O   UNL A   1      38.873  21.771  25.695  1.00  0.00    -0.246 OA
BRANCH  42  44
ATOM     44  C   UNL A   1      39.869  23.604  26.863  1.00  0.00     0.060 A 
ATOM     45  C   UNL A   1      40.993  24.357  26.526  1.00  0.00     0.016 A 
ATOM     46  C   UNL A   1      38.871  24.151  27.677  1.00  0.00     0.016 A 
ATOM     47  C   UNL A   1      41.127  25.649  27.033  1.00  0.00     0.010 A 
ATOM     48  C   UNL A   1      39.026  25.441  28.202  1.00  0.00     0.010 A 
ATOM     49  C   UNL A   1      40.172  26.190  27.904  1.00  0.00    -0.014 A 
BRANCH  49  50
ATOM     50  C   UNL A   1      40.504  27.434  28.649  1.00  0.00     0.031 A 
ATOM     51  C   UNL A   1      41.937  27.691  28.995  1.00  0.00     0.074 A 
ATOM     52  C   UNL A   1      39.576  28.353  28.970  1.00  0.00     0.049 A 
ATOM     53  N   UNL A   1      42.451  28.692  29.662  1.00  0.00    -0.248 NA
ATOM     54  C   UNL A   1      42.911  26.672  28.577  1.00  0.00     0.031 C 
ATOM     55  C   UNL A   1      38.161  28.226  28.673  1.00  0.00     0.029 A 
ATOM     56  N   UNL A   1      39.684  29.596  29.555  1.00  0.00    -0.354 N 
ATOM     57  C   UNL A   1      43.792  28.375  29.821  1.00  0.00     0.074 A 
ATOM     58  C   UNL A   1      44.023  27.125  29.133  1.00  0.00     0.031 C 
ATOM     59  C   UNL A   1      37.555  29.390  28.961  1.00  0.00     0.029 A 
ATOM     60  C   UNL A   1      38.517  30.326  29.518  1.00  0.00     0.049 A 
ATOM     61  H   UNL A   1      40.515  29.930  29.961  1.00  0.00     0.167 HD
ATOM     62  C   UNL A   1      44.724  29.043  30.536  1.00  0.00     0.031 A 
ATOM     63  C   UNL A   1      38.251  31.603  29.869  1.00  0.00     0.031 A 
ATOM     64  C   UNL A   1      44.482  30.286  31.215  1.00  0.00     0.049 A 
ATOM     65  C   UNL A   1      39.333  32.372  30.574  1.00  0.00     0.074 A 
ATOM     66  C   UNL A   1      45.350  31.013  32.011  1.00  0.00     0.029 A 
ATOM     67  N   UNL A   1      43.289  30.990  31.172  1.00  0.00    -0.354 N 
ATOM     68  N   UNL A   1      40.588  32.043  30.756  1.00  0.00    -0.248 NA
ATOM     69  C   UNL A   1      38.953  33.661  31.175  1.00  0.00     0.031 C 
ATOM     70  C   UNL A   1      44.666  32.133  32.488  1.00  0.00     0.029 A 
ATOM     71  C   UNL A   1      43.398  32.143  31.928  1.00  0.00     0.049 A 
ATOM     72  H   UNL A   1      42.486  30.712  30.676  1.00  0.00     0.167 HD
ATOM     73  C   UNL A   1      41.135  33.061  31.525  1.00  0.00     0.074 A 
ATOM     74  C   UNL A   1      40.102  34.061  31.699  1.00  0.00     0.031 C 
ATOM     75  C   UNL A   1      42.367  33.135  32.077  1.00  0.00     0.031 A 
BRANCH  62  76
ATOM     76  C   UNL A   1      46.054  28.375  30.718  1.00  0.00    -0.014 A 
ATOM     77  C   UNL A   1      46.299  27.472  31.761  1.00  0.00     0.009 A 
ATOM     78  C   UNL A   1      47.080  28.655  29.800  1.00  0.00     0.009 A 
ATOM     79  C   UNL A   1      47.557  26.879  31.893  1.00  0.00     0.001 A 
ATOM     80  C   UNL A   1      48.323  28.036  29.914  1.00  0.00     0.001 A 
ATOM     81  C   UNL A   1      48.563  27.155  30.965  1.00  0.00     0.000 A 
ENDBRANCH  62  76
BRANCH  63  82
ATOM     82  C   UNL A   1      36.931  32.254  29.591  1.00  0.00    -0.014 A 
ATOM     83  C   UNL A   1      36.750  33.004  28.412  1.00  0.00     0.009 A 
ATOM     84  C   UNL A   1      35.863  32.189  30.499  1.00  0.00     0.009 A 
ATOM     85  C   UNL A   1      35.555  33.689  28.169  1.00  0.00     0.001 A 
ATOM     86  C   UNL A   1      34.649  32.829  30.228  1.00  0.00     0.001 A 
ATOM     87  C   UNL A   1      34.501  33.592  29.072  1.00  0.00     0.000 A 
ENDBRANCH  63  82
BRANCH  75  88
ATOM     88  C   UNL A   1      42.681  34.342  32.915  1.00  0.00    -0.014 A 
ATOM     89  C   UNL A   1      42.497  34.326  34.306  1.00  0.00     0.009 A 
ATOM     90  C   UNL A   1      43.250  35.474  32.313  1.00  0.00     0.009 A 
ATOM     91  C   UNL A   1      42.860  35.433  35.076  1.00  0.00     0.001 A 
ATOM     92  C   UNL A   1      43.640  36.566  33.088  1.00  0.00     0.001 A 
ATOM     93  C   UNL A   1      43.439  36.547  34.468  1.00  0.00     0.000 A 
ENDBRANCH  75  88
ENDBRANCH  49  50
ENDBRANCH  42  44
ENDBRANCH  41  42
ENDBRANCH  40  41
ENDBRANCH  39  40
ENDBRANCH  38  39
ENDBRANCH  37  38
ENDBRANCH  36  37
ENDBRANCH  35  36
ENDBRANCH  34  35
ENDBRANCH   1  34
TORSDOF 26
ENDMDL
MODEL 3
REMARK VINA RESULT:      -7.8      7.747     12.607
REMARK SMILES COc1ccc(CCN2/C(=[NH+]/C(=O)CCC(=O)OCCOCCOCCOCCOC(=O)c3ccc(-c4c5nc(c(-c6ccccc6)c6ccc([nH]6)c(-c6ccccc6)c6nc(c(-c7ccccc7)c7ccc4[nH]7)C=C6)C=C5)cc3)S[C@@H]3CS(=O)(=O)C[C@@H]32)cc1
REMARK SMILES IDX 22 1 21 2 20 3 19 4 18 5 16 6 17 7 15 8 14 9 12 10 9 11
REMARK SMILES IDX 10 12 88 13 11 14 81 15 82 16 87 17 83 19 84 20 13 21 85 22
REMARK SMILES IDX 86 23 8 24 7 25 6 26 3 27 4 28 90 29 5 30 89 31 2 32 1 33
REMARK SMILES IDX 23 34 24 35 25 36 26 37 27 38 28 39 29 40 30 41 31 42 32 43
REMARK SMILES IDX 33 44 34 45 80 46 35 47 79 48 36 49 37 50 38 51 73 52 39 53
REMARK SMILES IDX 78 54 72 55 74 56 40 57 77 58 71 59 70 60 41 62 63 63 48 64
REMARK SMILES IDX 62 65 49 66 52 67 61 68 75 69 50 70 51 71 60 73 76 74 53 75
REMARK SMILES IDX 42 76 43 77 47 78 44 79 46 80 45 81 64 82 65 83 69 84 66 85
REMARK SMILES IDX 68 86 67 87 54 88 55 89 59 90 56 91 58 92 57 93
REMARK H PARENT 11 18 74 61 52 72
REMARK Flexibility Score: inf
ROOT
ATOM      1  C   UNL A   1      46.855  24.341  24.630  1.00  0.00     0.188 C 
ENDROOT
BRANCH   1   2
ATOM      2  O   UNL A   1      47.284  25.629  25.004  1.00  0.00    -0.376 OA
BRANCH   2   3
ATOM      3  C   UNL A   1      46.472  26.783  24.871  1.00  0.00     0.202 C 
BRANCH   3   4
ATOM      4  C   UNL A   1      47.028  28.206  24.915  1.00  0.00     0.261 C 
BRANCH   4   5
ATOM      5  O   UNL A   1      46.035  29.219  25.095  1.00  0.00    -0.463 OA
BRANCH   5   6
ATOM      6  C   UNL A   1      45.663  29.411  26.379  1.00  0.00     0.306 C 
ATOM      7  O   UNL A   1      46.441  29.421  27.329  1.00  0.00    -0.252 OA
BRANCH   6   8
ATOM      8  C   UNL A   1      44.208  29.728  26.589  1.00  0.00     0.135 C 
BRANCH   8   9
ATOM      9  C   UNL A   1      43.512  29.687  27.934  1.00  0.00     0.139 C 
BRANCH   9  10
ATOM     10  C   UNL A   1      42.131  29.096  28.134  1.00  0.00     0.308 C 
ATOM     11  N   UNL A   1      39.271  29.395  30.454  1.00  0.00    -0.251 N 
ATOM     12  C   UNL A   1      40.210  28.982  29.471  1.00  0.00     0.314 C 
ATOM     13  C   UNL A   1      37.874  29.173  30.012  1.00  0.00     0.206 C 
ATOM     14  N   UNL A   1      41.415  29.422  29.281  1.00  0.00    -0.205 N 
ATOM     15  S   UNL A   1      39.358  27.872  28.369  1.00  0.00    -0.030 SA
ATOM     16  C   UNL A   1      37.898  28.880  28.507  1.00  0.00     0.120 C 
ATOM     17  C   UNL A   1      36.913  30.336  30.183  1.00  0.00     0.187 C 
ATOM     18  H   UNL A   1      41.832  29.997  29.962  1.00  0.00     0.316 HD
ATOM     19  C   UNL A   1      38.039  30.205  27.777  1.00  0.00     0.156 C 
ATOM     20  S   UNL A   1      36.926  31.255  28.667  1.00  0.00     0.155 S 
ATOM     21  O   UNL A   1      41.783  28.311  27.250  1.00  0.00    -0.247 OA
ATOM     22  O   UNL A   1      37.558  32.534  28.903  1.00  0.00    -0.229 OA
ATOM     23  O   UNL A   1      35.617  31.135  28.059  1.00  0.00    -0.229 OA
BRANCH  11  24
ATOM     24  C   UNL A   1      39.604  29.238  31.901  1.00  0.00     0.242 C 
BRANCH  24  25
ATOM     25  C   UNL A   1      41.087  29.023  32.345  1.00  0.00     0.081 C 
BRANCH  25  26
ATOM     26  C   UNL A   1      41.381  28.467  33.737  1.00  0.00    -0.044 A 
ATOM     27  C   UNL A   1      41.802  27.286  36.300  1.00  0.00     0.118 A 
ATOM     28  C   UNL A   1      41.228  28.541  36.191  1.00  0.00     0.046 A 
ATOM     29  C   UNL A   1      42.258  26.663  35.141  1.00  0.00     0.046 A 
ATOM     30  C   UNL A   1      41.052  29.132  34.925  1.00  0.00     0.007 A 
ATOM     31  C   UNL A   1      42.057  27.243  33.877  1.00  0.00     0.007 A 
BRANCH  27  32
ATOM     32  O   UNL A   1      41.912  26.540  37.436  1.00  0.00    -0.497 OA
ATOM     33  C   UNL A   1      40.918  25.559  37.705  1.00  0.00     0.278 C 
ENDBRANCH  27  32
ENDBRANCH  25  26
ENDBRANCH  24  25
ENDBRANCH  11  24
ENDBRANCH   9  10
ENDBRANCH   8   9
ENDBRANCH   6   8
ENDBRANCH   5   6
ENDBRANCH   4   5
ENDBRANCH   3   4
ENDBRANCH   2   3
ENDBRANCH   1   2
BRANCH   1  34
ATOM     34  C   UNL A   1      45.859  23.625  25.563  1.00  0.00     0.188 C 
BRANCH  34  35
ATOM     35  O   UNL A   1      44.471  23.899  25.644  1.00  0.00    -0.377 OA
BRANCH  35  36
ATOM     36  C   UNL A   1      43.564  23.004  25.043  1.00  0.00     0.188 C 
BRANCH  36  37
ATOM     37  C   UNL A   1      43.757  21.540  25.466  1.00  0.00     0.188 C 
BRANCH  37  38
ATOM     38  O   UNL A   1      42.658  20.649  25.455  1.00  0.00    -0.376 OA
BRANCH  38  39
ATOM     39  C   UNL A   1      41.672  20.662  26.470  1.00  0.00     0.202 C 
BRANCH  39  40
ATOM     40  C   UNL A   1      40.519  21.683  26.557  1.00  0.00     0.261 C 
BRANCH  40  41
ATOM     41  O   UNL A   1      40.465  22.583  27.664  1.00  0.00    -0.460 OA
BRANCH  41  42
ATOM     42  C   UNL A   1      40.942  23.823  27.454  1.00  0.00     0.338 C 
ATOM     43  O   UNL A   1      40.546  24.649  26.642  1.00  0.00    -0.246 OA
BRANCH  42  44
ATOM     44  C   UNL A   1      41.975  24.085  28.472  1.00  0.00     0.060 A 
ATOM     45  C   UNL A   1      42.271  25.405  28.813  1.00  0.00     0.016 A 
ATOM     46  C   UNL A   1      42.689  23.030  29.052  1.00  0.00     0.016 A 
ATOM     47  C   UNL A   1      43.304  25.664  29.711  1.00  0.00     0.010 A 
ATOM     48  C   UNL A   1      43.742  23.301  29.935  1.00  0.00     0.010 A 
ATOM     49  C   UNL A   1      44.075  24.625  30.251  1.00  0.00    -0.014 A 
BRANCH  49  50
ATOM     50  C   UNL A   1      45.341  24.963  30.955  1.00  0.00     0.031 A 
ATOM     51  C   UNL A   1      46.482  25.493  30.146  1.00  0.00     0.074 A 
ATOM     52  C   UNL A   1      45.474  24.860  32.290  1.00  0.00     0.049 A 
ATOM     53  N   UNL A   1      47.684  25.824  30.544  1.00  0.00    -0.248 NA
ATOM     54  C   UNL A   1      46.260  25.625  28.698  1.00  0.00     0.031 C 
ATOM     55  C   UNL A   1      44.436  24.379  33.182  1.00  0.00     0.029 A 
ATOM     56  N   UNL A   1      46.504  25.211  33.136  1.00  0.00    -0.354 N 
ATOM     57  C   UNL A   1      48.385  26.116  29.384  1.00  0.00     0.074 A 
ATOM     58  C   UNL A   1      47.464  25.981  28.278  1.00  0.00     0.031 C 
ATOM     59  C   UNL A   1      44.831  24.580  34.450  1.00  0.00     0.029 A 
ATOM     60  C   UNL A   1      46.169  25.146  34.469  1.00  0.00     0.049 A 
ATOM     61  H   UNL A   1      47.395  25.482  32.817  1.00  0.00     0.167 HD
ATOM     62  C   UNL A   1      49.699  26.407  29.258  1.00  0.00     0.031 A 
ATOM     63  C   UNL A   1      46.844  25.516  35.579  1.00  0.00     0.031 A 
ATOM     64  C   UNL A   1      50.605  26.540  30.366  1.00  0.00     0.049 A 
ATOM     65  C   UNL A   1      48.278  25.936  35.415  1.00  0.00     0.074 A 
ATOM     66  C   UNL A   1      51.967  26.779  30.336  1.00  0.00     0.029 A 
ATOM     67  N   UNL A   1      50.239  26.453  31.700  1.00  0.00    -0.354 N 
ATOM     68  N   UNL A   1      48.944  26.168  34.311  1.00  0.00    -0.248 NA
ATOM     69  C   UNL A   1      49.073  26.089  36.643  1.00  0.00     0.031 C 
ATOM     70  C   UNL A   1      52.434  26.790  31.653  1.00  0.00     0.029 A 
ATOM     71  C   UNL A   1      51.351  26.633  32.503  1.00  0.00     0.049 A 
ATOM     72  H   UNL A   1      49.325  26.289  32.026  1.00  0.00     0.167 HD
ATOM     73  C   UNL A   1      50.242  26.453  34.709  1.00  0.00     0.074 A 
ATOM     74  C   UNL A   1      50.251  26.453  36.156  1.00  0.00     0.031 C 
ATOM     75  C   UNL A   1      51.339  26.648  33.941  1.00  0.00     0.031 A 
BRANCH  62  76
ATOM     76  C   UNL A   1      50.254  26.478  27.868  1.00  0.00    -0.014 A 
ATOM     77  C   UNL A   1      50.782  25.355  27.217  1.00  0.00     0.009 A 
ATOM     78  C   UNL A   1      50.226  27.710  27.193  1.00  0.00     0.009 A 
ATOM     79  C   UNL A   1      51.293  25.471  25.922  1.00  0.00     0.001 A 
ATOM     80  C   UNL A   1      50.706  27.816  25.889  1.00  0.00     0.001 A 
ATOM     81  C   UNL A   1      51.246  26.698  25.258  1.00  0.00     0.000 A 
ENDBRANCH  62  76
BRANCH  63  82
ATOM     82  C   UNL A   1      46.219  25.507  36.940  1.00  0.00    -0.014 A 
ATOM     83  C   UNL A   1      45.499  26.631  37.392  1.00  0.00     0.009 A 
ATOM     84  C   UNL A   1      46.367  24.423  37.820  1.00  0.00     0.009 A 
ATOM     85  C   UNL A   1      44.977  26.679  38.689  1.00  0.00     0.001 A 
ATOM     86  C   UNL A   1      45.796  24.451  39.097  1.00  0.00     0.001 A 
ATOM     87  C   UNL A   1      45.116  25.585  39.537  1.00  0.00     0.000 A 
ENDBRANCH  63  82
BRANCH  75  88
ATOM     88  C   UNL A   1      52.644  26.891  34.643  1.00  0.00    -0.014 A 
ATOM     89  C   UNL A   1      53.554  25.847  34.866  1.00  0.00     0.009 A 
ATOM     90  C   UNL A   1      53.001  28.199  35.007  1.00  0.00     0.009 A 
ATOM     91  C   UNL A   1      54.791  26.105  35.458  1.00  0.00     0.001 A 
ATOM     92  C   UNL A   1      54.251  28.458  35.570  1.00  0.00     0.001 A 
ATOM     93  C   UNL A   1      55.142  27.411  35.801  1.00  0.00     0.000 A 
ENDBRANCH  75  88
ENDBRANCH  49  50
ENDBRANCH  42  44
ENDBRANCH  41  42
ENDBRANCH  40  41
ENDBRANCH  39  40
ENDBRANCH  38  39
ENDBRANCH  37  38
ENDBRANCH  36  37
ENDBRANCH  35  36
ENDBRANCH  34  35
ENDBRANCH   1  34
TORSDOF 26
ENDMDL
