MODEL 1
REMARK VINA RESULT:      -8.0      0.000      0.000
REMARK SMILES CNc1nccc(-c2cc(C(=O)OCCOCCOCCOCCOC(=O)c3ccc(-c4c5nc(c(-c6ccccc6)c6ccc([nH]6)c(-c6ccccc6)c6nc(c(-c7ccccc7)c7ccc4[nH]7)C=C6)C=C5)cc3)ccn2)n1
REMARK SMILES IDX 19 1 18 2 17 3 16 4 15 5 14 6 13 7 11 8 12 9 10 10 8 11 9 12
REMARK SMILES IDX 78 13 77 14 76 15 7 16 3 17 4 18 79 19 5 20 6 21 2 22 1 23
REMARK SMILES IDX 20 25 21 26 22 27 23 28 24 29 25 30 26 31 27 32 28 33 29 34
REMARK SMILES IDX 75 35 30 36 74 37 31 38 32 39 33 40 68 41 34 42 73 43 67 44
REMARK SMILES IDX 69 45 35 46 72 47 66 48 65 49 36 51 58 52 43 53 57 54 44 55
REMARK SMILES IDX 47 56 56 57 70 58 45 59 46 60 55 62 71 63 48 64 37 65 38 66
REMARK SMILES IDX 42 67 39 68 41 69 40 70 59 71 60 72 64 73 61 74 63 75 62 76
REMARK SMILES IDX 49 77 50 78 54 79 51 80 53 81 52 82
REMARK H PARENT 2 24 69 50 47 61
REMARK Flexibility Score: inf
ROOT
ATOM      1  O   UNL A   1      46.712  22.985  25.134  1.00  0.00    -0.377 OA
ENDROOT
BRANCH   1   2
ATOM      2  C   UNL A   1      46.630  24.185  24.380  1.00  0.00     0.188 C 
BRANCH   2   3
ATOM      3  C   UNL A   1      47.459  25.353  24.952  1.00  0.00     0.188 C 
BRANCH   3   4
ATOM      4  O   UNL A   1      47.671  26.393  24.015  1.00  0.00    -0.376 OA
BRANCH   4   5
ATOM      5  C   UNL A   1      46.853  27.548  24.021  1.00  0.00     0.202 C 
BRANCH   5   6
ATOM      6  C   UNL A   1      46.343  28.205  25.317  1.00  0.00     0.261 C 
BRANCH   6   7
ATOM      7  O   UNL A   1      46.244  29.630  25.342  1.00  0.00    -0.460 OA
BRANCH   7   8
ATOM      8  C   UNL A   1      45.446  30.194  26.274  1.00  0.00     0.338 C 
ATOM      9  O   UNL A   1      44.590  29.647  26.934  1.00  0.00    -0.246 OA
BRANCH   8  10
ATOM     10  C   UNL A   1      45.954  31.570  26.501  1.00  0.00     0.063 A 
ATOM     11  C   UNL A   1      45.672  33.952  26.497  1.00  0.00     0.090 A 
ATOM     12  C   UNL A   1      45.138  32.682  26.292  1.00  0.00     0.046 A 
ATOM     13  N   UNL A   1      46.983  34.126  26.814  1.00  0.00    -0.255 NA
ATOM     14  C   UNL A   1      47.757  33.030  26.974  1.00  0.00     0.112 A 
ATOM     15  C   UNL A   1      47.287  31.737  26.861  1.00  0.00     0.036 A 
BRANCH  11  16
ATOM     16  C   UNL A   1      44.804  35.146  26.568  1.00  0.00     0.094 A 
ATOM     17  C   UNL A   1      44.533  37.378  27.065  1.00  0.00     0.222 A 
ATOM     18  N   UNL A   1      43.204  37.315  26.906  1.00  0.00    -0.222 NA
ATOM     19  N   UNL A   1      45.362  36.335  26.905  1.00  0.00    -0.211 NA
ATOM     20  C   UNL A   1      42.686  36.137  26.536  1.00  0.00     0.117 A 
ATOM     21  C   UNL A   1      43.443  35.015  26.346  1.00  0.00     0.051 A 
BRANCH  17  22
ATOM     22  N   UNL A   1      44.997  38.629  27.362  1.00  0.00    -0.357 N 
ATOM     23  C   UNL A   1      45.030  39.679  26.388  1.00  0.00     0.143 C 
ATOM     24  H   UNL A   1      45.317  38.814  28.274  1.00  0.00     0.163 HD
ENDBRANCH  17  22
ENDBRANCH  11  16
ENDBRANCH   8  10
ENDBRANCH   7   8
ENDBRANCH   6   7
ENDBRANCH   5   6
ENDBRANCH   4   5
ENDBRANCH   3   4
ENDBRANCH   2   3
ENDBRANCH   1   2
BRANCH   1  25
ATOM     25  C   UNL A   1      46.111  21.800  24.607  1.00  0.00     0.188 C 
BRANCH  25  26
ATOM     26  C   UNL A   1      45.786  20.554  25.472  1.00  0.00     0.188 C 
BRANCH  26  27
ATOM     27  O   UNL A   1      44.980  19.578  24.833  1.00  0.00    -0.376 OA
BRANCH  27  28
ATOM     28  C   UNL A   1      44.541  18.462  25.583  1.00  0.00     0.202 C 
BRANCH  28  29
ATOM     29  C   UNL A   1      43.063  18.456  25.992  1.00  0.00     0.261 C 
BRANCH  29  30
ATOM     30  O   UNL A   1      42.211  19.352  25.266  1.00  0.00    -0.460 OA
BRANCH  30  31
ATOM     31  C   UNL A   1      41.226  19.962  25.965  1.00  0.00     0.338 C 
ATOM     32  O   UNL A   1      40.140  19.512  26.255  1.00  0.00    -0.246 OA
BRANCH  31  33
ATOM     33  C   UNL A   1      41.776  21.235  26.480  1.00  0.00     0.060 A 
ATOM     34  C   UNL A   1      41.688  21.508  27.851  1.00  0.00     0.016 A 
ATOM     35  C   UNL A   1      42.377  22.147  25.610  1.00  0.00     0.016 A 
ATOM     36  C   UNL A   1      42.163  22.722  28.349  1.00  0.00     0.010 A 
ATOM     37  C   UNL A   1      42.835  23.368  26.108  1.00  0.00     0.010 A 
ATOM     38  C   UNL A   1      42.693  23.676  27.472  1.00  0.00    -0.014 A 
BRANCH  38  39
ATOM     39  C   UNL A   1      42.901  25.069  27.936  1.00  0.00     0.031 A 
ATOM     40  C   UNL A   1      44.307  25.514  28.235  1.00  0.00     0.074 A 
ATOM     41  C   UNL A   1      41.876  25.927  28.074  1.00  0.00     0.049 A 
ATOM     42  N   UNL A   1      44.737  26.658  28.699  1.00  0.00    -0.248 NA
ATOM     43  C   UNL A   1      45.372  24.529  27.977  1.00  0.00     0.031 C 
ATOM     44  C   UNL A   1      40.477  25.636  27.770  1.00  0.00     0.029 A 
ATOM     45  N   UNL A   1      41.863  27.227  28.518  1.00  0.00    -0.354 N 
ATOM     46  C   UNL A   1      46.116  26.527  28.801  1.00  0.00     0.074 A 
ATOM     47  C   UNL A   1      46.450  25.184  28.381  1.00  0.00     0.031 C 
ATOM     48  C   UNL A   1      39.738  26.726  28.043  1.00  0.00     0.029 A 
ATOM     49  C   UNL A   1      40.605  27.774  28.578  1.00  0.00     0.049 A 
ATOM     50  H   UNL A   1      42.679  27.718  28.770  1.00  0.00     0.167 HD
ATOM     51  C   UNL A   1      47.028  27.444  29.202  1.00  0.00     0.031 A 
ATOM     52  C   UNL A   1      40.202  28.977  29.035  1.00  0.00     0.031 A 
ATOM     53  C   UNL A   1      46.695  28.773  29.637  1.00  0.00     0.049 A 
ATOM     54  C   UNL A   1      41.227  29.949  29.562  1.00  0.00     0.074 A 
ATOM     55  C   UNL A   1      47.546  29.781  30.054  1.00  0.00     0.029 A 
ATOM     56  N   UNL A   1      45.406  29.275  29.721  1.00  0.00    -0.354 N 
ATOM     57  N   UNL A   1      42.530  29.825  29.630  1.00  0.00    -0.248 NA
ATOM     58  C   UNL A   1      40.721  31.233  30.069  1.00  0.00     0.031 C 
ATOM     59  C   UNL A   1      46.767  30.871  30.454  1.00  0.00     0.029 A 
ATOM     60  C   UNL A   1      45.437  30.569  30.213  1.00  0.00     0.049 A 
ATOM     61  H   UNL A   1      44.591  28.784  29.470  1.00  0.00     0.167 HD
ATOM     62  C   UNL A   1      43.001  31.025  30.150  1.00  0.00     0.074 A 
ATOM     63  C   UNL A   1      41.844  31.869  30.367  1.00  0.00     0.031 C 
ATOM     64  C   UNL A   1      44.277  31.399  30.420  1.00  0.00     0.031 A 
BRANCH  51  65
ATOM     65  C   UNL A   1      48.470  27.018  29.230  1.00  0.00    -0.014 A 
ATOM     66  C   UNL A   1      49.289  27.122  28.093  1.00  0.00     0.009 A 
ATOM     67  C   UNL A   1      49.027  26.531  30.422  1.00  0.00     0.009 A 
ATOM     68  C   UNL A   1      50.622  26.710  28.141  1.00  0.00     0.001 A 
ATOM     69  C   UNL A   1      50.368  26.151  30.477  1.00  0.00     0.001 A 
ATOM     70  C   UNL A   1      51.162  26.231  29.334  1.00  0.00     0.000 A 
ENDBRANCH  51  65
BRANCH  52  71
ATOM     71  C   UNL A   1      38.757  29.330  29.039  1.00  0.00    -0.014 A 
ATOM     72  C   UNL A   1      37.956  29.063  30.161  1.00  0.00     0.009 A 
ATOM     73  C   UNL A   1      38.161  29.906  27.906  1.00  0.00     0.009 A 
ATOM     74  C   UNL A   1      36.586  29.336  30.135  1.00  0.00     0.001 A 
ATOM     75  C   UNL A   1      36.798  30.209  27.895  1.00  0.00     0.001 A 
ATOM     76  C   UNL A   1      36.010  29.913  29.004  1.00  0.00     0.000 A 
ENDBRANCH  52  71
BRANCH  64  77
ATOM     77  C   UNL A   1      44.499  32.798  30.928  1.00  0.00    -0.014 A 
ATOM     78  C   UNL A   1      44.580  33.080  32.300  1.00  0.00     0.009 A 
ATOM     79  C   UNL A   1      44.679  33.845  30.009  1.00  0.00     0.009 A 
ATOM     80  C   UNL A   1      44.796  34.388  32.740  1.00  0.00     0.001 A 
ATOM     81  C   UNL A   1      44.931  35.144  30.451  1.00  0.00     0.001 A 
ATOM     82  C   UNL A   1      44.978  35.417  31.816  1.00  0.00     0.000 A 
ENDBRANCH  64  77
ENDBRANCH  38  39
ENDBRANCH  31  33
ENDBRANCH  30  31
ENDBRANCH  29  30
ENDBRANCH  28  29
ENDBRANCH  27  28
ENDBRANCH  26  27
ENDBRANCH  25  26
ENDBRANCH   1  25
TORSDOF 22
ENDMDL
MODEL 2
REMARK VINA RESULT:      -7.6      5.505     10.248
REMARK SMILES CNc1nccc(-c2cc(C(=O)OCCOCCOCCOCCOC(=O)c3ccc(-c4c5nc(c(-c6ccccc6)c6ccc([nH]6)c(-c6ccccc6)c6nc(c(-c7ccccc7)c7ccc4[nH]7)C=C6)C=C5)cc3)ccn2)n1
REMARK SMILES IDX 19 1 18 2 17 3 16 4 15 5 14 6 13 7 11 8 12 9 10 10 8 11 9 12
REMARK SMILES IDX 78 13 77 14 76 15 7 16 3 17 4 18 79 19 5 20 6 21 2 22 1 23
REMARK SMILES IDX 20 25 21 26 22 27 23 28 24 29 25 30 26 31 27 32 28 33 29 34
REMARK SMILES IDX 75 35 30 36 74 37 31 38 32 39 33 40 68 41 34 42 73 43 67 44
REMARK SMILES IDX 69 45 35 46 72 47 66 48 65 49 36 51 58 52 43 53 57 54 44 55
REMARK SMILES IDX 47 56 56 57 70 58 45 59 46 60 55 62 71 63 48 64 37 65 38 66
REMARK SMILES IDX 42 67 39 68 41 69 40 70 59 71 60 72 64 73 61 74 63 75 62 76
REMARK SMILES IDX 49 77 50 78 54 79 51 80 53 81 52 82
REMARK H PARENT 2 24 69 50 47 61
REMARK Flexibility Score: inf
ROOT
ATOM      1  O   UNL A   1      35.016  23.467  26.442  1.00  0.00    -0.377 OA
ENDROOT
BRANCH   1   2
ATOM      2  C   UNL A   1      34.136  24.352  25.766  1.00  0.00     0.188 C 
BRANCH   2   3
ATOM      3  C   UNL A   1      34.754  25.046  24.535  1.00  0.00     0.188 C 
BRANCH   3   4
ATOM      4  O   UNL A   1      34.039  24.791  23.339  1.00  0.00    -0.376 OA
BRANCH   4   5
ATOM      5  C   UNL A   1      33.662  25.853  22.483  1.00  0.00     0.202 C 
BRANCH   5   6
ATOM      6  C   UNL A   1      32.299  26.564  22.582  1.00  0.00     0.261 C 
BRANCH   6   7
ATOM      7  O   UNL A   1      31.127  25.747  22.606  1.00  0.00    -0.460 OA
BRANCH   7   8
ATOM      8  C   UNL A   1      30.270  25.898  23.638  1.00  0.00     0.338 C 
ATOM      9  O   UNL A   1      29.342  26.673  23.713  1.00  0.00    -0.246 OA
BRANCH   8  10
ATOM     10  C   UNL A   1      30.537  24.788  24.586  1.00  0.00     0.063 A 
ATOM     11  C   UNL A   1      31.133  22.512  25.058  1.00  0.00     0.090 A 
ATOM     12  C   UNL A   1      30.919  23.526  24.127  1.00  0.00     0.046 A 
ATOM     13  N   UNL A   1      30.900  22.708  26.383  1.00  0.00    -0.255 NA
ATOM     14  C   UNL A   1      30.496  23.930  26.793  1.00  0.00     0.112 A 
ATOM     15  C   UNL A   1      30.331  25.006  25.944  1.00  0.00     0.036 A 
BRANCH  11  16
ATOM     16  C   UNL A   1      31.800  21.250  24.677  1.00  0.00     0.094 A 
ATOM     17  C   UNL A   1      32.711  19.223  25.280  1.00  0.00     0.222 A 
ATOM     18  N   UNL A   1      33.205  19.010  24.053  1.00  0.00    -0.222 NA
ATOM     19  N   UNL A   1      32.009  20.311  25.632  1.00  0.00    -0.211 NA
ATOM     20  C   UNL A   1      32.950  19.936  23.121  1.00  0.00     0.117 A 
ATOM     21  C   UNL A   1      32.245  21.079  23.376  1.00  0.00     0.051 A 
BRANCH  17  22
ATOM     22  N   UNL A   1      32.940  18.198  26.155  1.00  0.00    -0.357 N 
ATOM     23  C   UNL A   1      32.569  16.847  25.858  1.00  0.00     0.143 C 
ATOM     24  H   UNL A   1      33.374  18.395  27.016  1.00  0.00     0.163 HD
ENDBRANCH  17  22
ENDBRANCH  11  16
ENDBRANCH   8  10
ENDBRANCH   7   8
ENDBRANCH   6   7
ENDBRANCH   5   6
ENDBRANCH   4   5
ENDBRANCH   3   4
ENDBRANCH   2   3
ENDBRANCH   1   2
BRANCH   1  25
ATOM     25  C   UNL A   1      35.112  22.115  25.992  1.00  0.00     0.188 C 
BRANCH  25  26
ATOM     26  C   UNL A   1      35.782  21.710  24.652  1.00  0.00     0.188 C 
BRANCH  26  27
ATOM     27  O   UNL A   1      37.112  21.232  24.771  1.00  0.00    -0.376 OA
BRANCH  27  28
ATOM     28  C   UNL A   1      37.319  19.857  25.034  1.00  0.00     0.202 C 
BRANCH  28  29
ATOM     29  C   UNL A   1      38.737  19.451  25.454  1.00  0.00     0.261 C 
BRANCH  29  30
ATOM     30  O   UNL A   1      39.671  20.526  25.617  1.00  0.00    -0.460 OA
BRANCH  30  31
ATOM     31  C   UNL A   1      40.462  20.491  26.715  1.00  0.00     0.338 C 
ATOM     32  O   UNL A   1      41.029  19.529  27.184  1.00  0.00    -0.246 OA
BRANCH  31  33
ATOM     33  C   UNL A   1      40.666  21.888  27.155  1.00  0.00     0.060 A 
ATOM     34  C   UNL A   1      39.889  22.902  26.581  1.00  0.00     0.016 A 
ATOM     35  C   UNL A   1      41.618  22.187  28.131  1.00  0.00     0.016 A 
ATOM     36  C   UNL A   1      40.097  24.231  26.953  1.00  0.00     0.010 A 
ATOM     37  C   UNL A   1      41.837  23.519  28.488  1.00  0.00     0.010 A 
ATOM     38  C   UNL A   1      41.105  24.549  27.871  1.00  0.00    -0.014 A 
BRANCH  38  39
ATOM     39  C   UNL A   1      41.543  25.957  28.028  1.00  0.00     0.031 A 
ATOM     40  C   UNL A   1      42.840  26.371  27.388  1.00  0.00     0.074 A 
ATOM     41  C   UNL A   1      40.805  26.852  28.706  1.00  0.00     0.049 A 
ATOM     42  N   UNL A   1      43.456  27.524  27.427  1.00  0.00    -0.248 NA
ATOM     43  C   UNL A   1      43.537  25.341  26.599  1.00  0.00     0.031 C 
ATOM     44  C   UNL A   1      39.510  26.591  29.327  1.00  0.00     0.029 A 
ATOM     45  N   UNL A   1      41.056  28.174  28.986  1.00  0.00    -0.354 N 
ATOM     46  C   UNL A   1      44.615  27.354  26.681  1.00  0.00     0.074 A 
ATOM     47  C   UNL A   1      44.635  25.982  26.228  1.00  0.00     0.031 C 
ATOM     48  C   UNL A   1      39.080  27.717  29.926  1.00  0.00     0.029 A 
ATOM     49  C   UNL A   1      40.088  28.764  29.761  1.00  0.00     0.049 A 
ATOM     50  H   UNL A   1      41.854  28.652  28.663  1.00  0.00     0.167 HD
ATOM     51  C   UNL A   1      45.578  28.262  26.393  1.00  0.00     0.031 A 
ATOM     52  C   UNL A   1      40.035  30.001  30.294  1.00  0.00     0.031 A 
ATOM     53  C   UNL A   1      45.568  29.622  26.858  1.00  0.00     0.049 A 
ATOM     54  C   UNL A   1      41.164  30.966  30.034  1.00  0.00     0.074 A 
ATOM     55  C   UNL A   1      46.491  30.623  26.613  1.00  0.00     0.029 A 
ATOM     56  N   UNL A   1      44.590  30.169  27.674  1.00  0.00    -0.354 N 
ATOM     57  N   UNL A   1      42.243  30.804  29.307  1.00  0.00    -0.248 NA
ATOM     58  C   UNL A   1      41.060  32.290  30.664  1.00  0.00     0.031 C 
ATOM     59  C   UNL A   1      46.106  31.757  27.335  1.00  0.00     0.029 A 
ATOM     60  C   UNL A   1      44.904  31.485  27.967  1.00  0.00     0.049 A 
ATOM     61  H   UNL A   1      43.792  29.691  27.997  1.00  0.00     0.167 HD
ATOM     62  C   UNL A   1      42.925  32.015  29.361  1.00  0.00     0.074 A 
ATOM     63  C   UNL A   1      42.130  32.905  30.183  1.00  0.00     0.031 C 
ATOM     64  C   UNL A   1      44.101  32.361  28.782  1.00  0.00     0.031 A 
BRANCH  51  65
ATOM     65  C   UNL A   1      46.745  27.793  25.568  1.00  0.00    -0.014 A 
ATOM     66  C   UNL A   1      47.836  27.127  26.150  1.00  0.00     0.009 A 
ATOM     67  C   UNL A   1      46.740  27.998  24.180  1.00  0.00     0.009 A 
ATOM     68  C   UNL A   1      48.913  26.711  25.365  1.00  0.00     0.001 A 
ATOM     69  C   UNL A   1      47.802  27.552  23.392  1.00  0.00     0.001 A 
ATOM     70  C   UNL A   1      48.892  26.918  23.986  1.00  0.00     0.000 A 
ENDBRANCH  51  65
BRANCH  52  71
ATOM     71  C   UNL A   1      38.886  30.399  31.150  1.00  0.00    -0.014 A 
ATOM     72  C   UNL A   1      38.930  30.218  32.542  1.00  0.00     0.009 A 
ATOM     73  C   UNL A   1      37.721  30.932  30.576  1.00  0.00     0.009 A 
ATOM     74  C   UNL A   1      37.822  30.533  33.333  1.00  0.00     0.001 A 
ATOM     75  C   UNL A   1      36.628  31.278  31.373  1.00  0.00     0.001 A 
ATOM     76  C   UNL A   1      36.675  31.067  32.749  1.00  0.00     0.000 A 
ENDBRANCH  52  71
BRANCH  64  77
ATOM     77  C   UNL A   1      44.577  33.778  28.965  1.00  0.00    -0.014 A 
ATOM     78  C   UNL A   1      44.181  34.806  28.097  1.00  0.00     0.009 A 
ATOM     79  C   UNL A   1      45.400  34.093  30.059  1.00  0.00     0.009 A 
ATOM     80  C   UNL A   1      44.632  36.113  28.298  1.00  0.00     0.001 A 
ATOM     81  C   UNL A   1      45.820  35.405  30.277  1.00  0.00     0.001 A 
ATOM     82  C   UNL A   1      45.445  36.412  29.391  1.00  0.00     0.000 A 
ENDBRANCH  64  77
ENDBRANCH  38  39
ENDBRANCH  31  33
ENDBRANCH  30  31
ENDBRANCH  29  30
ENDBRANCH  28  29
ENDBRANCH  27  28
ENDBRANCH  26  27
ENDBRANCH  25  26
ENDBRANCH   1  25
TORSDOF 22
ENDMDL
MODEL 3
REMARK VINA RESULT:      -7.5      4.397      8.181
REMARK SMILES CNc1nccc(-c2cc(C(=O)OCCOCCOCCOCCOC(=O)c3ccc(-c4c5nc(c(-c6ccccc6)c6ccc([nH]6)c(-c6ccccc6)c6nc(c(-c7ccccc7)c7ccc4[nH]7)C=C6)C=C5)cc3)ccn2)n1
REMARK SMILES IDX 19 1 18 2 17 3 16 4 15 5 14 6 13 7 11 8 12 9 10 10 8 11 9 12
REMARK SMILES IDX 78 13 77 14 76 15 7 16 3 17 4 18 79 19 5 20 6 21 2 22 1 23
REMARK SMILES IDX 20 25 21 26 22 27 23 28 24 29 25 30 26 31 27 32 28 33 29 34
REMARK SMILES IDX 75 35 30 36 74 37 31 38 32 39 33 40 68 41 34 42 73 43 67 44
REMARK SMILES IDX 69 45 35 46 72 47 66 48 65 49 36 51 58 52 43 53 57 54 44 55
REMARK SMILES IDX 47 56 56 57 70 58 45 59 46 60 55 62 71 63 48 64 37 65 38 66
REMARK SMILES IDX 42 67 39 68 41 69 40 70 59 71 60 72 64 73 61 74 63 75 62 76
REMARK SMILES IDX 49 77 50 78 54 79 51 80 53 81 52 82
REMARK H PARENT 2 24 69 50 47 61
REMARK Flexibility Score: inf
ROOT
ATOM      1  O   UNL A   1      34.704  23.034  26.690  1.00  0.00    -0.377 OA
ENDROOT
BRANCH   1   2
ATOM      2  C   UNL A   1      33.926  24.068  26.106  1.00  0.00     0.188 C 
BRANCH   2   3
ATOM      3  C   UNL A   1      34.554  24.705  24.849  1.00  0.00     0.188 C 
BRANCH   3   4
ATOM      4  O   UNL A   1      33.923  24.299  23.649  1.00  0.00    -0.376 OA
BRANCH   4   5
ATOM      5  C   UNL A   1      33.455  25.258  22.719  1.00  0.00     0.202 C 
BRANCH   5   6
ATOM      6  C   UNL A   1      32.198  26.114  22.961  1.00  0.00     0.261 C 
BRANCH   6   7
ATOM      7  O   UNL A   1      31.085  25.489  23.603  1.00  0.00    -0.460 OA
BRANCH   7   8
ATOM      8  C   UNL A   1      30.776  25.878  24.858  1.00  0.00     0.338 C 
ATOM      9  O   UNL A   1      30.463  25.170  25.790  1.00  0.00    -0.246 OA
BRANCH   8  10
ATOM     10  C   UNL A   1      31.100  27.323  24.952  1.00  0.00     0.063 A 
ATOM     11  C   UNL A   1      32.231  29.171  25.983  1.00  0.00     0.090 A 
ATOM     12  C   UNL A   1      31.981  27.802  25.923  1.00  0.00     0.046 A 
ATOM     13  N   UNL A   1      31.576  30.046  25.175  1.00  0.00    -0.255 NA
ATOM     14  C   UNL A   1      30.701  29.556  24.269  1.00  0.00     0.112 A 
ATOM     15  C   UNL A   1      30.453  28.209  24.097  1.00  0.00     0.036 A 
BRANCH  11  16
ATOM     16  C   UNL A   1      33.348  29.712  26.787  1.00  0.00     0.094 A 
ATOM     17  C   UNL A   1      34.276  31.445  27.984  1.00  0.00     0.222 A 
ATOM     18  N   UNL A   1      35.455  30.819  28.094  1.00  0.00    -0.222 NA
ATOM     19  N   UNL A   1      33.208  30.936  27.352  1.00  0.00    -0.211 NA
ATOM     20  C   UNL A   1      35.552  29.595  27.560  1.00  0.00     0.117 A 
ATOM     21  C   UNL A   1      34.523  28.987  26.895  1.00  0.00     0.051 A 
BRANCH  17  22
ATOM     22  N   UNL A   1      34.228  32.652  28.624  1.00  0.00    -0.357 N 
ATOM     23  C   UNL A   1      33.527  33.775  28.077  1.00  0.00     0.143 C 
ATOM     24  H   UNL A   1      34.689  32.753  29.488  1.00  0.00     0.163 HD
ENDBRANCH  17  22
ENDBRANCH  11  16
ENDBRANCH   8  10
ENDBRANCH   7   8
ENDBRANCH   6   7
ENDBRANCH   5   6
ENDBRANCH   4   5
ENDBRANCH   3   4
ENDBRANCH   2   3
ENDBRANCH   1   2
BRANCH   1  25
ATOM     25  C   UNL A   1      34.401  21.677  26.361  1.00  0.00     0.188 C 
BRANCH  25  26
ATOM     26  C   UNL A   1      34.898  20.985  25.064  1.00  0.00     0.188 C 
BRANCH  26  27
ATOM     27  O   UNL A   1      36.307  20.926  24.921  1.00  0.00    -0.376 OA
BRANCH  27  28
ATOM     28  C   UNL A   1      36.941  19.661  24.938  1.00  0.00     0.202 C 
BRANCH  28  29
ATOM     29  C   UNL A   1      38.456  19.662  25.169  1.00  0.00     0.261 C 
BRANCH  29  30
ATOM     30  O   UNL A   1      39.017  20.901  25.625  1.00  0.00    -0.460 OA
BRANCH  30  31
ATOM     31  C   UNL A   1      40.059  20.822  26.484  1.00  0.00     0.338 C 
ATOM     32  O   UNL A   1      40.754  19.858  26.715  1.00  0.00    -0.246 OA
BRANCH  31  33
ATOM     33  C   UNL A   1      40.327  22.191  26.976  1.00  0.00     0.060 A 
ATOM     34  C   UNL A   1      39.585  23.259  26.454  1.00  0.00     0.016 A 
ATOM     35  C   UNL A   1      41.305  22.412  27.948  1.00  0.00     0.016 A 
ATOM     36  C   UNL A   1      39.853  24.562  26.875  1.00  0.00     0.010 A 
ATOM     37  C   UNL A   1      41.583  23.719  28.354  1.00  0.00     0.010 A 
ATOM     38  C   UNL A   1      40.886  24.801  27.789  1.00  0.00    -0.014 A 
BRANCH  38  39
ATOM     39  C   UNL A   1      41.383  26.183  27.995  1.00  0.00     0.031 A 
ATOM     40  C   UNL A   1      42.698  26.563  27.369  1.00  0.00     0.074 A 
ATOM     41  C   UNL A   1      40.684  27.086  28.703  1.00  0.00     0.049 A 
ATOM     42  N   UNL A   1      43.363  27.687  27.448  1.00  0.00    -0.248 NA
ATOM     43  C   UNL A   1      43.352  25.532  26.545  1.00  0.00     0.031 C 
ATOM     44  C   UNL A   1      39.378  26.859  29.316  1.00  0.00     0.029 A 
ATOM     45  N   UNL A   1      40.991  28.384  29.030  1.00  0.00    -0.354 N 
ATOM     46  C   UNL A   1      44.515  27.493  26.697  1.00  0.00     0.074 A 
ATOM     47  C   UNL A   1      44.476  26.137  26.197  1.00  0.00     0.031 C 
ATOM     48  C   UNL A   1      38.996  27.981  29.952  1.00  0.00     0.029 A 
ATOM     49  C   UNL A   1      40.048  28.988  29.825  1.00  0.00     0.049 A 
ATOM     50  H   UNL A   1      41.809  28.838  28.723  1.00  0.00     0.167 HD
ATOM     51  C   UNL A   1      45.517  28.367  26.440  1.00  0.00     0.031 A 
ATOM     52  C   UNL A   1      40.048  30.207  30.400  1.00  0.00     0.031 A 
ATOM     53  C   UNL A   1      45.564  29.710  26.953  1.00  0.00     0.049 A 
ATOM     54  C   UNL A   1      41.218  31.131  30.173  1.00  0.00     0.074 A 
ATOM     55  C   UNL A   1      46.530  30.678  26.742  1.00  0.00     0.029 A 
ATOM     56  N   UNL A   1      44.610  30.269  27.787  1.00  0.00    -0.354 N 
ATOM     57  N   UNL A   1      42.290  30.948  29.441  1.00  0.00    -0.248 NA
ATOM     58  C   UNL A   1      41.170  32.437  30.848  1.00  0.00     0.031 C 
ATOM     59  C   UNL A   1      46.193  31.802  27.503  1.00  0.00     0.029 A 
ATOM     60  C   UNL A   1      44.980  31.560  28.125  1.00  0.00     0.049 A 
ATOM     61  H   UNL A   1      43.791  29.816  28.093  1.00  0.00     0.167 HD
ATOM     62  C   UNL A   1      43.023  32.126  29.537  1.00  0.00     0.074 A 
ATOM     63  C   UNL A   1      42.266  33.021  30.389  1.00  0.00     0.031 C 
ATOM     64  C   UNL A   1      44.214  32.442  28.970  1.00  0.00     0.031 A 
BRANCH  51  65
ATOM     65  C   UNL A   1      46.663  27.878  25.600  1.00  0.00    -0.014 A 
ATOM     66  C   UNL A   1      47.775  27.239  26.174  1.00  0.00     0.009 A 
ATOM     67  C   UNL A   1      46.618  28.034  24.206  1.00  0.00     0.009 A 
ATOM     68  C   UNL A   1      48.833  26.803  25.373  1.00  0.00     0.001 A 
ATOM     69  C   UNL A   1      47.660  27.567  23.405  1.00  0.00     0.001 A 
ATOM     70  C   UNL A   1      48.771  26.962  23.989  1.00  0.00     0.000 A 
ENDBRANCH  51  65
BRANCH  52  71
ATOM     71  C   UNL A   1      38.915  30.625  31.270  1.00  0.00    -0.014 A 
ATOM     72  C   UNL A   1      38.944  30.381  32.651  1.00  0.00     0.009 A 
ATOM     73  C   UNL A   1      37.782  31.241  30.716  1.00  0.00     0.009 A 
ATOM     74  C   UNL A   1      37.848  30.716  33.453  1.00  0.00     0.001 A 
ATOM     75  C   UNL A   1      36.704  31.606  31.524  1.00  0.00     0.001 A 
ATOM     76  C   UNL A   1      36.733  31.332  32.889  1.00  0.00     0.000 A 
ENDBRANCH  52  71
BRANCH  64  77
ATOM     77  C   UNL A   1      44.750  33.829  29.202  1.00  0.00    -0.014 A 
ATOM     78  C   UNL A   1      45.589  34.123  30.288  1.00  0.00     0.009 A 
ATOM     79  C   UNL A   1      44.444  34.848  28.286  1.00  0.00     0.009 A 
ATOM     80  C   UNL A   1      46.078  35.418  30.471  1.00  0.00     0.001 A 
ATOM     81  C   UNL A   1      44.963  36.133  28.453  1.00  0.00     0.001 A 
ATOM     82  C   UNL A   1      45.770  36.420  29.551  1.00  0.00     0.000 A 
ENDBRANCH  64  77
ENDBRANCH  38  39
ENDBRANCH  31  33
ENDBRANCH  30  31
ENDBRANCH  29  30
ENDBRANCH  28  29
ENDBRANCH  27  28
ENDBRANCH  26  27
ENDBRANCH  25  26
ENDBRANCH   1  25
TORSDOF 22
ENDMDL
