MODEL 1
REMARK VINA RESULT:      -9.4      0.000      0.000
REMARK SMILES Cc1cccc(-c2ncc(C[NH+]3CCC4(CC3)NC(=O)C[C@H]4C(=O)OCCOCCOCCOCCOC(=O)c3ccc(-c4c5nc(c(-c6ccccc6)c6ccc([nH]6)c(-c6ccccc6)c6nc(c(-c7ccccc7)c7ccc4[nH]7)C=C6)C=C5)cc3)cn2)c1
REMARK SMILES IDX 30 1 29 2 28 3 27 4 26 5 25 6 23 7 24 8 22 9 12 10 13 11
REMARK SMILES IDX 17 12 14 14 16 15 15 16 18 17 19 18 21 20 20 21 11 22 10 23
REMARK SMILES IDX 7 24 8 25 89 26 9 27 88 28 6 29 1 30 2 31 3 32 90 33 4 34
REMARK SMILES IDX 5 35 31 36 32 37 33 38 34 39 35 40 36 41 37 42 38 43 39 44
REMARK SMILES IDX 40 45 41 46 87 47 42 48 86 49 43 50 44 51 45 52 80 53 46 54
REMARK SMILES IDX 85 55 79 56 81 57 47 58 84 59 78 60 77 61 48 63 70 64 55 65
REMARK SMILES IDX 69 66 56 67 59 68 68 69 82 70 57 71 58 72 67 74 83 75 60 76
REMARK SMILES IDX 49 77 50 78 54 79 51 80 53 81 52 82 71 83 72 84 76 85 73 86
REMARK SMILES IDX 75 87 74 88 61 89 62 90 66 91 63 92 65 93 64 94
REMARK H PARENT 12 13 18 19 81 62 59 73
REMARK Flexibility Score: inf
ROOT
ATOM      1  C   UNL A   1      33.595  32.990  28.184  1.00  0.00     0.188 C 
ENDROOT
BRANCH   1   2
ATOM      2  C   UNL A   1      33.303  31.704  27.425  1.00  0.00     0.188 C 
BRANCH   2   3
ATOM      3  O   UNL A   1      32.122  31.627  26.666  1.00  0.00    -0.376 OA
BRANCH   3   4
ATOM      4  C   UNL A   1      31.700  30.322  26.336  1.00  0.00     0.202 C 
BRANCH   4   5
ATOM      5  C   UNL A   1      32.587  29.484  25.411  1.00  0.00     0.261 C 
BRANCH   5   6
ATOM      6  O   UNL A   1      32.798  28.097  25.762  1.00  0.00    -0.463 OA
BRANCH   6   7
ATOM      7  C   UNL A   1      33.000  27.255  24.719  1.00  0.00     0.311 C 
ATOM      8  O   UNL A   1      33.757  27.503  23.785  1.00  0.00    -0.252 OA
BRANCH   7   9
ATOM      9  C   UNL A   1      32.090  26.032  24.685  1.00  0.00     0.134 C 
ATOM     10  N   UNL A   1      35.272  23.551  24.014  1.00  0.00    -0.331 N 
ATOM     11  C   UNL A   1      34.201  23.708  23.054  1.00  0.00     0.264 C 
ATOM     12  C   UNL A   1      35.107  24.457  25.120  1.00  0.00     0.264 C 
ATOM     13  H   UNL A   1      36.078  23.822  23.451  1.00  0.00     0.348 HD
ATOM     14  C   UNL A   1      32.793  23.727  23.656  1.00  0.00     0.091 C 
ATOM     15  C   UNL A   1      33.780  24.430  25.870  1.00  0.00     0.091 C 
ATOM     16  C   UNL A   1      32.585  24.579  24.942  1.00  0.00     0.064 C 
ATOM     17  N   UNL A   1      31.444  23.998  25.642  1.00  0.00    -0.349 N 
ATOM     18  C   UNL A   1      30.529  24.892  26.136  1.00  0.00     0.221 C 
ATOM     19  H   UNL A   1      31.337  23.025  25.752  1.00  0.00     0.164 HD
ATOM     20  C   UNL A   1      30.893  26.261  25.634  1.00  0.00     0.117 C 
ATOM     21  O   UNL A   1      29.597  24.604  26.839  1.00  0.00    -0.275 OA
BRANCH  10  22
ATOM     22  C   UNL A   1      35.857  22.244  24.327  1.00  0.00     0.302 C 
BRANCH  22  23
ATOM     23  C   UNL A   1      37.037  22.281  25.249  1.00  0.00     0.043 A 
ATOM     24  C   UNL A   1      39.466  22.582  26.395  1.00  0.00     0.159 A 
ATOM     25  N   UNL A   1      38.589  23.601  26.495  1.00  0.00    -0.236 NA
ATOM     26  N   UNL A   1      39.189  21.374  25.875  1.00  0.00    -0.236 NA
ATOM     27  C   UNL A   1      37.379  23.412  25.945  1.00  0.00     0.124 A 
ATOM     28  C   UNL A   1      37.965  21.259  25.322  1.00  0.00     0.124 A 
BRANCH  24  29
ATOM     29  C   UNL A   1      40.844  22.876  26.779  1.00  0.00     0.019 A 
ATOM     30  C   UNL A   1      44.381  21.831  25.749  1.00  0.00     0.044 C 
ATOM     31  C   UNL A   1      43.250  22.532  26.446  1.00  0.00    -0.050 A 
ATOM     32  C   UNL A   1      43.508  23.587  27.324  1.00  0.00     0.003 A 
ATOM     33  C   UNL A   1      41.918  22.186  26.181  1.00  0.00     0.015 A 
ATOM     34  C   UNL A   1      42.458  24.256  27.955  1.00  0.00     0.001 A 
ATOM     35  C   UNL A   1      41.135  23.896  27.692  1.00  0.00     0.012 A 
ENDBRANCH  24  29
ENDBRANCH  22  23
ENDBRANCH  10  22
ENDBRANCH   7   9
ENDBRANCH   6   7
ENDBRANCH   5   6
ENDBRANCH   4   5
ENDBRANCH   3   4
ENDBRANCH   2   3
ENDBRANCH   1   2
BRANCH   1  36
ATOM     36  O   UNL A   1      34.368  34.025  27.612  1.00  0.00    -0.377 OA
BRANCH  36  37
ATOM     37  C   UNL A   1      34.767  34.972  28.627  1.00  0.00     0.188 C 
BRANCH  37  38
ATOM     38  C   UNL A   1      33.671  35.182  29.652  1.00  0.00     0.188 C 
BRANCH  38  39
ATOM     39  O   UNL A   1      34.225  35.022  30.941  1.00  0.00    -0.376 OA
BRANCH  39  40
ATOM     40  C   UNL A   1      33.635  35.750  31.994  1.00  0.00     0.202 C 
BRANCH  40  41
ATOM     41  C   UNL A   1      34.564  36.060  33.173  1.00  0.00     0.261 C 
BRANCH  41  42
ATOM     42  O   UNL A   1      35.786  35.299  33.062  1.00  0.00    -0.460 OA
BRANCH  42  43
ATOM     43  C   UNL A   1      35.962  34.312  33.989  1.00  0.00     0.338 C 
ATOM     44  O   UNL A   1      35.151  33.995  34.845  1.00  0.00    -0.246 OA
BRANCH  43  45
ATOM     45  C   UNL A   1      37.412  33.925  34.055  1.00  0.00     0.060 A 
ATOM     46  C   UNL A   1      38.270  34.323  33.010  1.00  0.00     0.016 A 
ATOM     47  C   UNL A   1      37.821  32.910  34.914  1.00  0.00     0.016 A 
ATOM     48  C   UNL A   1      39.438  33.589  32.717  1.00  0.00     0.010 A 
ATOM     49  C   UNL A   1      38.961  32.177  34.601  1.00  0.00     0.010 A 
ATOM     50  C   UNL A   1      39.737  32.442  33.453  1.00  0.00    -0.014 A 
BRANCH  50  51
ATOM     51  C   UNL A   1      40.628  31.333  33.003  1.00  0.00     0.031 A 
ATOM     52  C   UNL A   1      42.030  31.227  33.547  1.00  0.00     0.074 A 
ATOM     53  C   UNL A   1      40.059  30.228  32.443  1.00  0.00     0.049 A 
ATOM     54  N   UNL A   1      42.858  30.260  33.312  1.00  0.00    -0.248 NA
ATOM     55  C   UNL A   1      42.632  32.243  34.414  1.00  0.00     0.031 C 
ATOM     56  C   UNL A   1      40.506  28.837  32.586  1.00  0.00     0.029 A 
ATOM     57  N   UNL A   1      38.915  30.059  31.677  1.00  0.00    -0.354 N 
ATOM     58  C   UNL A   1      43.887  30.325  34.239  1.00  0.00     0.074 A 
ATOM     59  C   UNL A   1      43.760  31.642  34.814  1.00  0.00     0.031 C 
ATOM     60  C   UNL A   1      39.748  28.015  31.847  1.00  0.00     0.029 A 
ATOM     61  C   UNL A   1      39.004  28.861  30.960  1.00  0.00     0.049 A 
ATOM     62  H   UNL A   1      38.156  30.686  31.643  1.00  0.00     0.167 HD
ATOM     63  C   UNL A   1      44.598  29.191  34.553  1.00  0.00     0.031 A 
ATOM     64  C   UNL A   1      39.161  28.839  29.603  1.00  0.00     0.031 A 
ATOM     65  C   UNL A   1      44.357  28.081  33.600  1.00  0.00     0.049 A 
ATOM     66  C   UNL A   1      40.559  28.355  29.181  1.00  0.00     0.074 A 
ATOM     67  C   UNL A   1      44.189  26.703  33.667  1.00  0.00     0.029 A 
ATOM     68  N   UNL A   1      44.128  28.397  32.263  1.00  0.00    -0.354 N 
ATOM     69  N   UNL A   1      41.525  28.072  30.031  1.00  0.00    -0.248 NA
ATOM     70  C   UNL A   1      41.005  28.137  27.809  1.00  0.00     0.031 C 
ATOM     71  C   UNL A   1      43.764  26.231  32.384  1.00  0.00     0.029 A 
ATOM     72  C   UNL A   1      43.797  27.299  31.508  1.00  0.00     0.049 A 
ATOM     73  H   UNL A   1      44.196  29.309  31.899  1.00  0.00     0.167 HD
ATOM     74  C   UNL A   1      42.675  27.700  29.386  1.00  0.00     0.074 A 
ATOM     75  C   UNL A   1      42.282  27.743  27.987  1.00  0.00     0.031 C 
ATOM     76  C   UNL A   1      43.846  27.429  30.054  1.00  0.00     0.031 A 
BRANCH  63  77
ATOM     77  C   UNL A   1      45.364  28.996  35.875  1.00  0.00    -0.014 A 
ATOM     78  C   UNL A   1      46.758  29.215  35.930  1.00  0.00     0.009 A 
ATOM     79  C   UNL A   1      44.811  28.474  37.064  1.00  0.00     0.009 A 
ATOM     80  C   UNL A   1      47.539  28.914  37.064  1.00  0.00     0.001 A 
ATOM     81  C   UNL A   1      45.576  28.217  38.220  1.00  0.00     0.001 A 
ATOM     82  C   UNL A   1      46.944  28.424  38.216  1.00  0.00     0.000 A 
ENDBRANCH  63  77
BRANCH  64  83
ATOM     83  C   UNL A   1      38.124  29.710  28.945  1.00  0.00    -0.014 A 
ATOM     84  C   UNL A   1      36.801  29.331  29.287  1.00  0.00     0.009 A 
ATOM     85  C   UNL A   1      38.376  31.088  28.781  1.00  0.00     0.009 A 
ATOM     86  C   UNL A   1      35.893  30.274  29.790  1.00  0.00     0.001 A 
ATOM     87  C   UNL A   1      37.441  32.033  29.253  1.00  0.00     0.001 A 
ATOM     88  C   UNL A   1      36.239  31.620  29.830  1.00  0.00     0.000 A 
ENDBRANCH  64  83
BRANCH  76  89
ATOM     89  C   UNL A   1      45.259  27.371  29.471  1.00  0.00    -0.014 A 
ATOM     90  C   UNL A   1      45.728  26.430  28.560  1.00  0.00     0.009 A 
ATOM     91  C   UNL A   1      46.178  28.410  29.800  1.00  0.00     0.009 A 
ATOM     92  C   UNL A   1      46.981  26.572  27.941  1.00  0.00     0.001 A 
ATOM     93  C   UNL A   1      47.417  28.570  29.180  1.00  0.00     0.001 A 
ATOM     94  C   UNL A   1      47.811  27.654  28.227  1.00  0.00     0.000 A 
ENDBRANCH  76  89
ENDBRANCH  50  51
ENDBRANCH  43  45
ENDBRANCH  42  43
ENDBRANCH  41  42
ENDBRANCH  40  41
ENDBRANCH  39  40
ENDBRANCH  38  39
ENDBRANCH  37  38
ENDBRANCH  36  37
ENDBRANCH   1  36
TORSDOF 23
ENDMDL
MODEL 2
REMARK VINA RESULT:      -8.9      7.712     13.662
REMARK SMILES Cc1cccc(-c2ncc(C[NH+]3CCC4(CC3)NC(=O)C[C@H]4C(=O)OCCOCCOCCOCCOC(=O)c3ccc(-c4c5nc(c(-c6ccccc6)c6ccc([nH]6)c(-c6ccccc6)c6nc(c(-c7ccccc7)c7ccc4[nH]7)C=C6)C=C5)cc3)cn2)c1
REMARK SMILES IDX 30 1 29 2 28 3 27 4 26 5 25 6 23 7 24 8 22 9 12 10 13 11
REMARK SMILES IDX 17 12 14 14 16 15 15 16 18 17 19 18 21 20 20 21 11 22 10 23
REMARK SMILES IDX 7 24 8 25 89 26 9 27 88 28 6 29 1 30 2 31 3 32 90 33 4 34
REMARK SMILES IDX 5 35 31 36 32 37 33 38 34 39 35 40 36 41 37 42 38 43 39 44
REMARK SMILES IDX 40 45 41 46 87 47 42 48 86 49 43 50 44 51 45 52 80 53 46 54
REMARK SMILES IDX 85 55 79 56 81 57 47 58 84 59 78 60 77 61 48 63 70 64 55 65
REMARK SMILES IDX 69 66 56 67 59 68 68 69 82 70 57 71 58 72 67 74 83 75 60 76
REMARK SMILES IDX 49 77 50 78 54 79 51 80 53 81 52 82 71 83 72 84 76 85 73 86
REMARK SMILES IDX 75 87 74 88 61 89 62 90 66 91 63 92 65 93 64 94
REMARK H PARENT 12 13 18 19 81 62 59 73
REMARK Flexibility Score: inf
ROOT
ATOM      1  C   UNL A   1      43.444  24.822  33.952  1.00  0.00     0.188 C 
ENDROOT
BRANCH   1   2
ATOM      2  C   UNL A   1      43.267  23.582  34.817  1.00  0.00     0.188 C 
BRANCH   2   3
ATOM      3  O   UNL A   1      44.270  23.267  35.750  1.00  0.00    -0.376 OA
BRANCH   3   4
ATOM      4  C   UNL A   1      45.099  22.179  35.402  1.00  0.00     0.202 C 
BRANCH   4   5
ATOM      5  C   UNL A   1      46.314  21.881  36.285  1.00  0.00     0.261 C 
BRANCH   5   6
ATOM      6  O   UNL A   1      47.569  22.506  35.928  1.00  0.00    -0.463 OA
BRANCH   6   7
ATOM      7  C   UNL A   1      48.546  21.660  35.521  1.00  0.00     0.311 C 
ATOM      8  O   UNL A   1      48.369  20.764  34.702  1.00  0.00    -0.252 OA
BRANCH   7   9
ATOM      9  C   UNL A   1      49.866  21.779  36.277  1.00  0.00     0.134 C 
ATOM     10  N   UNL A   1      48.173  20.274  39.682  1.00  0.00    -0.331 N 
ATOM     11  C   UNL A   1      48.708  21.616  39.616  1.00  0.00     0.264 C 
ATOM     12  C   UNL A   1      48.214  19.640  38.391  1.00  0.00     0.264 C 
ATOM     13  H   UNL A   1      47.208  20.464  39.953  1.00  0.00     0.348 HD
ATOM     14  C   UNL A   1      50.051  21.740  38.890  1.00  0.00     0.091 C 
ATOM     15  C   UNL A   1      49.555  19.588  37.667  1.00  0.00     0.091 C 
ATOM     16  C   UNL A   1      50.207  20.957  37.554  1.00  0.00     0.064 C 
ATOM     17  N   UNL A   1      51.636  20.720  37.379  1.00  0.00    -0.349 N 
ATOM     18  C   UNL A   1      52.128  20.943  36.118  1.00  0.00     0.221 C 
ATOM     19  H   UNL A   1      52.212  20.420  38.119  1.00  0.00     0.164 HD
ATOM     20  C   UNL A   1      51.037  21.565  35.293  1.00  0.00     0.117 C 
ATOM     21  O   UNL A   1      53.247  20.686  35.761  1.00  0.00    -0.275 OA
BRANCH  10  22
ATOM     22  C   UNL A   1      48.388  19.403  40.841  1.00  0.00     0.302 C 
BRANCH  22  23
ATOM     23  C   UNL A   1      47.183  18.633  41.289  1.00  0.00     0.043 A 
ATOM     24  C   UNL A   1      45.020  17.026  41.493  1.00  0.00     0.159 A 
ATOM     25  N   UNL A   1      46.221  16.513  41.825  1.00  0.00    -0.236 NA
ATOM     26  N   UNL A   1      44.789  18.314  41.183  1.00  0.00    -0.236 NA
ATOM     27  C   UNL A   1      47.274  17.343  41.745  1.00  0.00     0.124 A 
ATOM     28  C   UNL A   1      45.890  19.086  41.101  1.00  0.00     0.124 A 
BRANCH  24  29
ATOM     29  C   UNL A   1      43.926  16.069  41.351  1.00  0.00     0.019 A 
ATOM     30  C   UNL A   1      41.502  14.148  43.609  1.00  0.00     0.044 C 
ATOM     31  C   UNL A   1      42.186  14.681  42.383  1.00  0.00    -0.050 A 
ATOM     32  C   UNL A   1      41.668  14.412  41.114  1.00  0.00     0.003 A 
ATOM     33  C   UNL A   1      43.311  15.509  42.490  1.00  0.00     0.015 A 
ATOM     34  C   UNL A   1      42.286  14.926  39.973  1.00  0.00     0.001 A 
ATOM     35  C   UNL A   1      43.415  15.741  40.091  1.00  0.00     0.012 A 
ENDBRANCH  24  29
ENDBRANCH  22  23
ENDBRANCH  10  22
ENDBRANCH   7   9
ENDBRANCH   6   7
ENDBRANCH   5   6
ENDBRANCH   4   5
ENDBRANCH   3   4
ENDBRANCH   2   3
ENDBRANCH   1   2
BRANCH   1  36
ATOM     36  O   UNL A   1      44.648  25.561  33.961  1.00  0.00    -0.377 OA
BRANCH  36  37
ATOM     37  C   UNL A   1      45.160  25.698  32.618  1.00  0.00     0.188 C 
BRANCH  37  38
ATOM     38  C   UNL A   1      44.114  26.264  31.679  1.00  0.00     0.188 C 
BRANCH  38  39
ATOM     39  O   UNL A   1      44.539  26.049  30.350  1.00  0.00    -0.376 OA
BRANCH  39  40
ATOM     40  C   UNL A   1      43.715  26.543  29.319  1.00  0.00     0.202 C 
BRANCH  40  41
ATOM     41  C   UNL A   1      42.920  25.478  28.553  1.00  0.00     0.261 C 
BRANCH  41  42
ATOM     42  O   UNL A   1      41.509  25.611  28.828  1.00  0.00    -0.460 OA
BRANCH  42  43
ATOM     43  C   UNL A   1      40.755  26.163  27.831  1.00  0.00     0.338 C 
ATOM     44  O   UNL A   1      40.843  25.888  26.645  1.00  0.00    -0.246 OA
BRANCH  43  45
ATOM     45  C   UNL A   1      40.075  27.405  28.333  1.00  0.00     0.060 A 
ATOM     46  C   UNL A   1      40.668  28.657  28.075  1.00  0.00     0.016 A 
ATOM     47  C   UNL A   1      39.102  27.310  29.323  1.00  0.00     0.016 A 
ATOM     48  C   UNL A   1      40.424  29.758  28.922  1.00  0.00     0.010 A 
ATOM     49  C   UNL A   1      38.888  28.395  30.167  1.00  0.00     0.010 A 
ATOM     50  C   UNL A   1      39.606  29.603  30.041  1.00  0.00    -0.014 A 
BRANCH  50  51
ATOM     51  C   UNL A   1      39.613  30.481  31.247  1.00  0.00     0.031 A 
ATOM     52  C   UNL A   1      40.451  30.110  32.443  1.00  0.00     0.074 A 
ATOM     53  C   UNL A   1      39.203  31.774  31.112  1.00  0.00     0.049 A 
ATOM     54  N   UNL A   1      40.617  30.837  33.502  1.00  0.00    -0.248 NA
ATOM     55  C   UNL A   1      41.181  28.844  32.549  1.00  0.00     0.031 C 
ATOM     56  C   UNL A   1      39.740  32.948  31.811  1.00  0.00     0.029 A 
ATOM     57  N   UNL A   1      38.267  32.370  30.278  1.00  0.00    -0.354 N 
ATOM     58  C   UNL A   1      41.704  30.345  34.209  1.00  0.00     0.074 A 
ATOM     59  C   UNL A   1      41.934  29.040  33.639  1.00  0.00     0.031 C 
ATOM     60  C   UNL A   1      39.057  34.052  31.481  1.00  0.00     0.029 A 
ATOM     61  C   UNL A   1      37.868  33.595  30.823  1.00  0.00     0.049 A 
ATOM     62  H   UNL A   1      37.935  31.990  29.433  1.00  0.00     0.167 HD
ATOM     63  C   UNL A   1      42.404  31.175  35.052  1.00  0.00     0.031 A 
ATOM     64  C   UNL A   1      36.615  33.788  31.332  1.00  0.00     0.031 A 
ATOM     65  C   UNL A   1      41.690  32.445  35.329  1.00  0.00     0.049 A 
ATOM     66  C   UNL A   1      36.616  33.930  32.863  1.00  0.00     0.074 A 
ATOM     67  C   UNL A   1      42.022  33.788  35.468  1.00  0.00     0.029 A 
ATOM     68  N   UNL A   1      40.299  32.421  35.393  1.00  0.00    -0.354 N 
ATOM     69  N   UNL A   1      37.693  33.798  33.610  1.00  0.00    -0.248 NA
ATOM     70  C   UNL A   1      35.453  34.232  33.691  1.00  0.00     0.031 C 
ATOM     71  C   UNL A   1      40.815  34.556  35.513  1.00  0.00     0.029 A 
ATOM     72  C   UNL A   1      39.752  33.673  35.530  1.00  0.00     0.049 A 
ATOM     73  H   UNL A   1      39.766  31.594  35.344  1.00  0.00     0.167 HD
ATOM     74  C   UNL A   1      37.406  33.937  34.943  1.00  0.00     0.074 A 
ATOM     75  C   UNL A   1      35.981  34.226  34.932  1.00  0.00     0.031 C 
ATOM     76  C   UNL A   1      38.350  33.766  35.928  1.00  0.00     0.031 A 
BRANCH  63  77
ATOM     77  C   UNL A   1      43.868  30.941  35.468  1.00  0.00    -0.014 A 
ATOM     78  C   UNL A   1      44.924  31.429  34.668  1.00  0.00     0.009 A 
ATOM     79  C   UNL A   1      44.285  30.141  36.555  1.00  0.00     0.009 A 
ATOM     80  C   UNL A   1      46.278  31.124  34.912  1.00  0.00     0.001 A 
ATOM     81  C   UNL A   1      45.639  29.873  36.836  1.00  0.00     0.001 A 
ATOM     82  C   UNL A   1      46.637  30.352  36.006  1.00  0.00     0.000 A 
ENDBRANCH  63  77
BRANCH  64  83
ATOM     83  C   UNL A   1      35.575  33.352  30.332  1.00  0.00    -0.014 A 
ATOM     84  C   UNL A   1      35.693  34.033  29.094  1.00  0.00     0.009 A 
ATOM     85  C   UNL A   1      35.180  31.999  30.287  1.00  0.00     0.009 A 
ATOM     86  C   UNL A   1      35.773  33.320  27.889  1.00  0.00     0.001 A 
ATOM     87  C   UNL A   1      35.224  31.295  29.065  1.00  0.00     0.001 A 
ATOM     88  C   UNL A   1      35.599  31.941  27.885  1.00  0.00     0.000 A 
ENDBRANCH  64  83
BRANCH  76  89
ATOM     89  C   UNL A   1      38.108  33.525  37.418  1.00  0.00    -0.014 A 
ATOM     90  C   UNL A   1      37.371  32.480  37.968  1.00  0.00     0.009 A 
ATOM     91  C   UNL A   1      38.753  34.376  38.363  1.00  0.00     0.009 A 
ATOM     92  C   UNL A   1      37.364  32.238  39.352  1.00  0.00     0.001 A 
ATOM     93  C   UNL A   1      38.767  34.135  39.736  1.00  0.00     0.001 A 
ATOM     94  C   UNL A   1      38.083  33.044  40.231  1.00  0.00     0.000 A 
ENDBRANCH  76  89
ENDBRANCH  50  51
ENDBRANCH  43  45
ENDBRANCH  42  43
ENDBRANCH  41  42
ENDBRANCH  40  41
ENDBRANCH  39  40
ENDBRANCH  38  39
ENDBRANCH  37  38
ENDBRANCH  36  37
ENDBRANCH   1  36
TORSDOF 23
ENDMDL
MODEL 3
REMARK VINA RESULT:      -8.6      4.963     12.503
REMARK SMILES Cc1cccc(-c2ncc(C[NH+]3CCC4(CC3)NC(=O)C[C@H]4C(=O)OCCOCCOCCOCCOC(=O)c3ccc(-c4c5nc(c(-c6ccccc6)c6ccc([nH]6)c(-c6ccccc6)c6nc(c(-c7ccccc7)c7ccc4[nH]7)C=C6)C=C5)cc3)cn2)c1
REMARK SMILES IDX 30 1 29 2 28 3 27 4 26 5 25 6 23 7 24 8 22 9 12 10 13 11
REMARK SMILES IDX 17 12 14 14 16 15 15 16 18 17 19 18 21 20 20 21 11 22 10 23
REMARK SMILES IDX 7 24 8 25 89 26 9 27 88 28 6 29 1 30 2 31 3 32 90 33 4 34
REMARK SMILES IDX 5 35 31 36 32 37 33 38 34 39 35 40 36 41 37 42 38 43 39 44
REMARK SMILES IDX 40 45 41 46 87 47 42 48 86 49 43 50 44 51 45 52 80 53 46 54
REMARK SMILES IDX 85 55 79 56 81 57 47 58 84 59 78 60 77 61 48 63 70 64 55 65
REMARK SMILES IDX 69 66 56 67 59 68 68 69 82 70 57 71 58 72 67 74 83 75 60 76
REMARK SMILES IDX 49 77 50 78 54 79 51 80 53 81 52 82 71 83 72 84 76 85 73 86
REMARK SMILES IDX 75 87 74 88 61 89 62 90 66 91 63 92 65 93 64 94
REMARK H PARENT 12 13 18 19 81 62 59 73
REMARK Flexibility Score: inf
ROOT
ATOM      1  C   UNL A   1      40.742  35.641  40.588  1.00  0.00     0.188 C 
ENDROOT
BRANCH   1   2
ATOM      2  C   UNL A   1      40.236  36.568  39.492  1.00  0.00     0.188 C 
BRANCH   2   3
ATOM      3  O   UNL A   1      41.172  37.142  38.614  1.00  0.00    -0.376 OA
BRANCH   3   4
ATOM      4  C   UNL A   1      41.571  36.323  37.536  1.00  0.00     0.202 C 
BRANCH   4   5
ATOM      5  C   UNL A   1      40.815  36.450  36.210  1.00  0.00     0.261 C 
BRANCH   5   6
ATOM      6  O   UNL A   1      39.787  35.472  35.930  1.00  0.00    -0.463 OA
BRANCH   6   7
ATOM      7  C   UNL A   1      40.173  34.421  35.168  1.00  0.00     0.311 C 
ATOM      8  O   UNL A   1      41.347  34.118  34.976  1.00  0.00    -0.252 OA
BRANCH   7   9
ATOM      9  C   UNL A   1      39.051  33.721  34.409  1.00  0.00     0.134 C 
ATOM     10  N   UNL A   1      37.948  31.636  37.750  1.00  0.00    -0.331 N 
ATOM     11  C   UNL A   1      38.437  30.979  36.559  1.00  0.00     0.264 C 
ATOM     12  C   UNL A   1      38.032  33.067  37.619  1.00  0.00     0.264 C 
ATOM     13  H   UNL A   1      38.617  31.303  38.444  1.00  0.00     0.348 HD
ATOM     14  C   UNL A   1      37.880  31.530  35.243  1.00  0.00     0.091 C 
ATOM     15  C   UNL A   1      37.367  33.710  36.408  1.00  0.00     0.091 C 
ATOM     16  C   UNL A   1      37.812  33.078  35.098  1.00  0.00     0.064 C 
ATOM     17  N   UNL A   1      36.758  33.355  34.127  1.00  0.00    -0.349 N 
ATOM     18  C   UNL A   1      37.052  34.305  33.182  1.00  0.00     0.221 C 
ATOM     19  H   UNL A   1      35.891  32.890  34.149  1.00  0.00     0.164 HD
ATOM     20  C   UNL A   1      38.503  34.670  33.320  1.00  0.00     0.117 C 
ATOM     21  O   UNL A   1      36.268  34.746  32.384  1.00  0.00    -0.275 OA
BRANCH  10  22
ATOM     22  C   UNL A   1      36.810  31.120  38.518  1.00  0.00     0.302 C 
BRANCH  22  23
ATOM     23  C   UNL A   1      36.880  31.359  39.995  1.00  0.00     0.043 A 
ATOM     24  C   UNL A   1      36.982  31.150  42.688  1.00  0.00     0.159 A 
ATOM     25  N   UNL A   1      38.148  31.196  42.012  1.00  0.00    -0.236 NA
ATOM     26  N   UNL A   1      35.767  31.324  42.140  1.00  0.00    -0.236 NA
ATOM     27  C   UNL A   1      38.068  31.332  40.679  1.00  0.00     0.124 A 
ATOM     28  C   UNL A   1      35.756  31.434  40.798  1.00  0.00     0.124 A 
BRANCH  24  29
ATOM     29  C   UNL A   1      37.065  30.765  44.094  1.00  0.00     0.019 A 
ATOM     30  C   UNL A   1      39.684  29.406  46.534  1.00  0.00     0.044 C 
ATOM     31  C   UNL A   1      38.392  29.939  45.984  1.00  0.00    -0.050 A 
ATOM     32  C   UNL A   1      37.332  30.240  46.842  1.00  0.00     0.003 A 
ATOM     33  C   UNL A   1      38.249  30.206  44.616  1.00  0.00     0.015 A 
ATOM     34  C   UNL A   1      36.138  30.758  46.338  1.00  0.00     0.001 A 
ATOM     35  C   UNL A   1      36.002  31.010  44.971  1.00  0.00     0.012 A 
ENDBRANCH  24  29
ENDBRANCH  22  23
ENDBRANCH  10  22
ENDBRANCH   7   9
ENDBRANCH   6   7
ENDBRANCH   5   6
ENDBRANCH   4   5
ENDBRANCH   3   4
ENDBRANCH   2   3
ENDBRANCH   1   2
BRANCH   1  36
ATOM     36  O   UNL A   1      41.784  36.030  41.459  1.00  0.00    -0.377 OA
BRANCH  36  37
ATOM     37  C   UNL A   1      42.703  34.934  41.661  1.00  0.00     0.188 C 
BRANCH  37  38
ATOM     38  C   UNL A   1      43.664  34.794  40.498  1.00  0.00     0.188 C 
BRANCH  38  39
ATOM     39  O   UNL A   1      43.570  33.479  39.992  1.00  0.00    -0.376 OA
BRANCH  39  40
ATOM     40  C   UNL A   1      43.000  33.317  38.713  1.00  0.00     0.202 C 
BRANCH  40  41
ATOM     41  C   UNL A   1      42.311  31.968  38.473  1.00  0.00     0.261 C 
BRANCH  41  42
ATOM     42  O   UNL A   1      43.291  30.912  38.391  1.00  0.00    -0.460 OA
BRANCH  42  43
ATOM     43  C   UNL A   1      43.774  30.640  37.142  1.00  0.00     0.338 C 
ATOM     44  O   UNL A   1      44.863  30.991  36.715  1.00  0.00    -0.246 OA
BRANCH  43  45
ATOM     45  C   UNL A   1      42.656  30.181  36.251  1.00  0.00     0.060 A 
ATOM     46  C   UNL A   1      42.262  28.829  36.296  1.00  0.00     0.016 A 
ATOM     47  C   UNL A   1      42.270  30.960  35.165  1.00  0.00     0.016 A 
ATOM     48  C   UNL A   1      41.649  28.219  35.182  1.00  0.00     0.010 A 
ATOM     49  C   UNL A   1      41.690  30.343  34.062  1.00  0.00     0.010 A 
ATOM     50  C   UNL A   1      41.452  28.953  34.012  1.00  0.00    -0.014 A 
BRANCH  50  51
ATOM     51  C   UNL A   1      41.263  28.377  32.649  1.00  0.00     0.031 A 
ATOM     52  C   UNL A   1      39.919  28.469  31.974  1.00  0.00     0.074 A 
ATOM     53  C   UNL A   1      42.366  28.148  31.881  1.00  0.00     0.049 A 
ATOM     54  N   UNL A   1      39.658  28.099  30.761  1.00  0.00    -0.248 NA
ATOM     55  C   UNL A   1      38.722  28.989  32.639  1.00  0.00     0.031 C 
ATOM     56  C   UNL A   1      42.475  28.299  30.425  1.00  0.00     0.029 A 
ATOM     57  N   UNL A   1      43.668  27.796  32.207  1.00  0.00    -0.354 N 
ATOM     58  C   UNL A   1      38.443  28.650  30.383  1.00  0.00     0.074 A 
ATOM     59  C   UNL A   1      37.852  29.085  31.625  1.00  0.00     0.031 C 
ATOM     60  C   UNL A   1      43.689  27.927  29.997  1.00  0.00     0.029 A 
ATOM     61  C   UNL A   1      44.292  27.225  31.092  1.00  0.00     0.049 A 
ATOM     62  H   UNL A   1      44.089  27.929  33.087  1.00  0.00     0.167 HD
ATOM     63  C   UNL A   1      38.168  28.853  29.051  1.00  0.00     0.031 A 
ATOM     64  C   UNL A   1      44.609  25.897  31.041  1.00  0.00     0.031 A 
ATOM     65  C   UNL A   1      39.119  28.151  28.157  1.00  0.00     0.049 A 
ATOM     66  C   UNL A   1      43.732  25.121  30.045  1.00  0.00     0.074 A 
ATOM     67  C   UNL A   1      39.777  28.419  26.962  1.00  0.00     0.029 A 
ATOM     68  N   UNL A   1      39.631  26.924  28.569  1.00  0.00    -0.354 N 
ATOM     69  N   UNL A   1      42.731  25.656  29.376  1.00  0.00    -0.248 NA
ATOM     70  C   UNL A   1      43.882  23.711  29.698  1.00  0.00     0.031 C 
ATOM     71  C   UNL A   1      40.747  27.392  26.732  1.00  0.00     0.029 A 
ATOM     72  C   UNL A   1      40.591  26.435  27.717  1.00  0.00     0.049 A 
ATOM     73  H   UNL A   1      39.338  26.457  29.385  1.00  0.00     0.167 HD
ATOM     74  C   UNL A   1      42.097  24.733  28.587  1.00  0.00     0.074 A 
ATOM     75  C   UNL A   1      42.876  23.529  28.818  1.00  0.00     0.031 C 
ATOM     76  C   UNL A   1      40.974  25.032  27.851  1.00  0.00     0.031 A 
BRANCH  63  77
ATOM     77  C   UNL A   1      37.151  29.887  28.532  1.00  0.00    -0.014 A 
ATOM     78  C   UNL A   1      37.349  31.264  28.771  1.00  0.00     0.009 A 
ATOM     79  C   UNL A   1      35.918  29.574  27.920  1.00  0.00     0.009 A 
ATOM     80  C   UNL A   1      36.388  32.245  28.455  1.00  0.00     0.001 A 
ATOM     81  C   UNL A   1      34.973  30.554  27.552  1.00  0.00     0.001 A 
ATOM     82  C   UNL A   1      35.201  31.890  27.833  1.00  0.00     0.000 A 
ENDBRANCH  63  77
BRANCH  64  83
ATOM     83  C   UNL A   1      45.380  25.499  32.272  1.00  0.00    -0.014 A 
ATOM     84  C   UNL A   1      46.578  26.242  32.426  1.00  0.00     0.009 A 
ATOM     85  C   UNL A   1      44.682  25.154  33.448  1.00  0.00     0.009 A 
ATOM     86  C   UNL A   1      46.860  26.907  33.628  1.00  0.00     0.001 A 
ATOM     87  C   UNL A   1      44.995  25.797  34.664  1.00  0.00     0.001 A 
ATOM     88  C   UNL A   1      46.030  26.732  34.730  1.00  0.00     0.000 A 
ENDBRANCH  64  83
BRANCH  76  89
ATOM     89  C   UNL A   1      39.971  24.052  27.242  1.00  0.00    -0.014 A 
ATOM     90  C   UNL A   1      38.657  24.341  26.889  1.00  0.00     0.009 A 
ATOM     91  C   UNL A   1      40.414  22.737  26.911  1.00  0.00     0.009 A 
ATOM     92  C   UNL A   1      37.875  23.427  26.164  1.00  0.00     0.001 A 
ATOM     93  C   UNL A   1      39.652  21.828  26.177  1.00  0.00     0.001 A 
ATOM     94  C   UNL A   1      38.380  22.186  25.783  1.00  0.00     0.000 A 
ENDBRANCH  76  89
ENDBRANCH  50  51
ENDBRANCH  43  45
ENDBRANCH  42  43
ENDBRANCH  41  42
ENDBRANCH  40  41
ENDBRANCH  39  40
ENDBRANCH  38  39
ENDBRANCH  37  38
ENDBRANCH  36  37
ENDBRANCH   1  36
TORSDOF 23
ENDMDL
