MODEL 1
REMARK VINA RESULT:     -10.2      0.000      0.000
REMARK SMILES CC(C)CCOc1ccccc1-c1cc(C(=O)OCCOCCOCCOCCOC(=O)c2ccc(-c3c4nc(c(-c5ccccc5)c5ccc([nH]5)c(-c5ccccc5)c5nc(c(-c6ccccc6)c6ccc3[nH]6)C=C5)C=C4)cc2)no1
REMARK SMILES IDX 22 1 21 2 20 3 19 4 18 5 16 6 17 7 15 8 13 9 14 10 82 11
REMARK SMILES IDX 81 12 12 13 7 14 8 15 9 16 11 17 10 18 6 19 5 20 4 21 2 22
REMARK SMILES IDX 1 23 3 24 23 25 24 26 25 27 26 28 27 29 28 30 29 31 30 32
REMARK SMILES IDX 31 33 32 34 33 35 34 36 80 37 35 38 79 39 36 40 37 41 38 42
REMARK SMILES IDX 73 43 39 44 78 45 72 46 74 47 40 48 77 49 71 50 70 51 41 53
REMARK SMILES IDX 63 54 48 55 62 56 49 57 52 58 61 59 75 60 50 61 51 62 60 64
REMARK SMILES IDX 76 65 53 66 42 67 43 68 47 69 44 70 46 71 45 72 64 73 65 74
REMARK SMILES IDX 69 75 66 76 68 77 67 78 54 79 55 80 59 81 56 82 58 83 57 84
REMARK H PARENT 74 52 52 63
REMARK Flexibility Score: inf
ROOT
ATOM      1  C   UNL A   1      33.601  29.624  26.117  1.00  0.00     0.188 C 
ENDROOT
BRANCH   1   2
ATOM      2  O   UNL A   1      32.322  29.601  25.501  1.00  0.00    -0.376 OA
BRANCH   2   3
ATOM      3  C   UNL A   1      31.983  28.703  24.459  1.00  0.00     0.202 C 
BRANCH   3   4
ATOM      4  C   UNL A   1      30.575  28.604  23.841  1.00  0.00     0.261 C 
BRANCH   4   5
ATOM      5  O   UNL A   1      30.180  27.348  23.284  1.00  0.00    -0.458 OA
BRANCH   5   6
ATOM      6  C   UNL A   1      29.310  26.589  24.011  1.00  0.00     0.360 C 
ATOM      7  O   UNL A   1      28.094  26.634  23.907  1.00  0.00    -0.244 OA
BRANCH   6   8
ATOM      8  C   UNL A   1      30.050  25.667  24.889  1.00  0.00     0.192 A 
ATOM      9  C   UNL A   1      32.150  23.759  25.518  1.00  0.00     0.171 A 
ATOM     10  C   UNL A   1      31.379  24.536  24.265  1.00  0.00     0.090 A 
ATOM     11  O   UNL A   1      31.311  24.298  27.109  1.00  0.00    -0.355 OA
ATOM     12  N   UNL A   1      29.873  25.579  26.577  1.00  0.00    -0.072 NA
BRANCH   9  13
ATOM     13  C   UNL A   1      33.548  23.384  25.667  1.00  0.00     0.062 A 
ATOM     14  C   UNL A   1      33.886  22.018  25.501  1.00  0.00     0.130 A 
ATOM     15  C   UNL A   1      35.215  21.649  25.359  1.00  0.00     0.047 A 
ATOM     16  C   UNL A   1      36.205  22.634  25.388  1.00  0.00     0.004 A 
ATOM     17  C   UNL A   1      34.539  24.360  25.717  1.00  0.00     0.016 A 
ATOM     18  C   UNL A   1      35.872  23.979  25.585  1.00  0.00     0.001 A 
BRANCH  14  19
ATOM     19  O   UNL A   1      32.929  21.025  25.523  1.00  0.00    -0.493 OA
BRANCH  19  20
ATOM     20  C   UNL A   1      33.442  19.676  25.510  1.00  0.00     0.230 C 
BRANCH  20  21
ATOM     21  C   UNL A   1      32.410  18.678  24.937  1.00  0.00     0.044 C 
BRANCH  21  22
ATOM     22  C   UNL A   1      33.208  17.299  24.328  1.00  0.00    -0.014 C 
ATOM     23  C   UNL A   1      32.973  17.569  22.599  1.00  0.00     0.007 C 
ATOM     24  C   UNL A   1      34.931  16.065  25.098  1.00  0.00     0.007 C 
ENDBRANCH  21  22
ENDBRANCH  20  21
ENDBRANCH  19  20
ENDBRANCH  14  19
ENDBRANCH   9  13
ENDBRANCH   6   8
ENDBRANCH   5   6
ENDBRANCH   4   5
ENDBRANCH   3   4
ENDBRANCH   2   3
ENDBRANCH   1   2
BRANCH   1  25
ATOM     25  C   UNL A   1      33.820  30.370  27.450  1.00  0.00     0.188 C 
BRANCH  25  26
ATOM     26  O   UNL A   1      34.133  31.735  27.318  1.00  0.00    -0.377 OA
BRANCH  26  27
ATOM     27  C   UNL A   1      33.274  32.618  28.011  1.00  0.00     0.188 C 
BRANCH  27  28
ATOM     28  C   UNL A   1      33.558  34.142  27.947  1.00  0.00     0.188 C 
BRANCH  28  29
ATOM     29  O   UNL A   1      32.834  34.970  28.829  1.00  0.00    -0.376 OA
BRANCH  29  30
ATOM     30  C   UNL A   1      33.366  35.641  29.952  1.00  0.00     0.202 C 
BRANCH  30  31
ATOM     31  C   UNL A   1      33.987  34.938  31.170  1.00  0.00     0.261 C 
BRANCH  31  32
ATOM     32  O   UNL A   1      35.054  34.024  30.929  1.00  0.00    -0.460 OA
BRANCH  32  33
ATOM     33  C   UNL A   1      35.001  32.853  31.604  1.00  0.00     0.338 C 
ATOM     34  O   UNL A   1      34.099  32.451  32.311  1.00  0.00    -0.246 OA
BRANCH  33  35
ATOM     35  C   UNL A   1      36.169  32.051  31.186  1.00  0.00     0.060 A 
ATOM     36  C   UNL A   1      36.925  31.358  32.147  1.00  0.00     0.016 A 
ATOM     37  C   UNL A   1      36.493  31.965  29.835  1.00  0.00     0.016 A 
ATOM     38  C   UNL A   1      38.014  30.581  31.759  1.00  0.00     0.010 A 
ATOM     39  C   UNL A   1      37.611  31.228  29.452  1.00  0.00     0.010 A 
ATOM     40  C   UNL A   1      38.391  30.558  30.414  1.00  0.00    -0.014 A 
BRANCH  40  41
ATOM     41  C   UNL A   1      39.711  30.029  30.011  1.00  0.00     0.031 A 
ATOM     42  C   UNL A   1      40.866  30.989  29.974  1.00  0.00     0.074 A 
ATOM     43  C   UNL A   1      39.876  28.749  29.644  1.00  0.00     0.049 A 
ATOM     44  N   UNL A   1      42.067  30.823  29.487  1.00  0.00    -0.248 NA
ATOM     45  C   UNL A   1      40.621  32.324  30.545  1.00  0.00     0.031 C 
ATOM     46  C   UNL A   1      38.852  27.708  29.704  1.00  0.00     0.029 A 
ATOM     47  N   UNL A   1      40.973  28.116  29.115  1.00  0.00    -0.354 N 
ATOM     48  C   UNL A   1      42.711  32.039  29.668  1.00  0.00     0.074 A 
ATOM     49  C   UNL A   1      41.760  32.942  30.276  1.00  0.00     0.031 C 
ATOM     50  C   UNL A   1      39.366  26.567  29.212  1.00  0.00     0.029 A 
ATOM     51  C   UNL A   1      40.731  26.814  28.752  1.00  0.00     0.049 A 
ATOM     52  H   UNL A   1      41.848  28.554  29.007  1.00  0.00     0.167 HD
ATOM     53  C   UNL A   1      43.984  32.373  29.354  1.00  0.00     0.031 A 
ATOM     54  C   UNL A   1      41.513  25.939  28.091  1.00  0.00     0.031 A 
ATOM     55  C   UNL A   1      44.914  31.476  28.723  1.00  0.00     0.049 A 
ATOM     56  C   UNL A   1      42.888  26.369  27.642  1.00  0.00     0.074 A 
ATOM     57  C   UNL A   1      46.229  31.711  28.368  1.00  0.00     0.029 A 
ATOM     58  N   UNL A   1      44.618  30.177  28.338  1.00  0.00    -0.354 N 
ATOM     59  N   UNL A   1      43.499  27.515  27.827  1.00  0.00    -0.248 NA
ATOM     60  C   UNL A   1      43.683  25.383  26.895  1.00  0.00     0.031 C 
ATOM     61  C   UNL A   1      46.702  30.585  27.692  1.00  0.00     0.029 A 
ATOM     62  C   UNL A   1      45.716  29.611  27.717  1.00  0.00     0.049 A 
ATOM     63  H   UNL A   1      43.755  29.725  28.485  1.00  0.00     0.167 HD
ATOM     64  C   UNL A   1      44.763  27.369  27.266  1.00  0.00     0.074 A 
ATOM     65  C   UNL A   1      44.832  26.024  26.734  1.00  0.00     0.031 C 
ATOM     66  C   UNL A   1      45.778  28.265  27.207  1.00  0.00     0.031 A 
BRANCH  53  67
ATOM     67  C   UNL A   1      44.423  33.782  29.644  1.00  0.00    -0.014 A 
ATOM     68  C   UNL A   1      44.133  34.839  28.765  1.00  0.00     0.009 A 
ATOM     69  C   UNL A   1      45.124  34.060  30.827  1.00  0.00     0.009 A 
ATOM     70  C   UNL A   1      44.582  36.131  29.041  1.00  0.00     0.001 A 
ATOM     71  C   UNL A   1      45.533  35.361  31.122  1.00  0.00     0.001 A 
ATOM     72  C   UNL A   1      45.276  36.392  30.222  1.00  0.00     0.000 A 
ENDBRANCH  53  67
BRANCH  54  73
ATOM     73  C   UNL A   1      41.016  24.569  27.789  1.00  0.00    -0.014 A 
ATOM     74  C   UNL A   1      41.574  23.453  28.432  1.00  0.00     0.009 A 
ATOM     75  C   UNL A   1      40.004  24.364  26.838  1.00  0.00     0.009 A 
ATOM     76  C   UNL A   1      41.154  22.162  28.104  1.00  0.00     0.001 A 
ATOM     77  C   UNL A   1      39.558  23.074  26.540  1.00  0.00     0.001 A 
ATOM     78  C   UNL A   1      40.143  21.973  27.164  1.00  0.00     0.000 A 
ENDBRANCH  54  73
BRANCH  66  79
ATOM     79  C   UNL A   1      47.086  27.816  26.614  1.00  0.00    -0.014 A 
ATOM     80  C   UNL A   1      48.066  27.168  27.380  1.00  0.00     0.009 A 
ATOM     81  C   UNL A   1      47.294  27.961  25.230  1.00  0.00     0.009 A 
ATOM     82  C   UNL A   1      49.232  26.691  26.775  1.00  0.00     0.001 A 
ATOM     83  C   UNL A   1      48.441  27.451  24.623  1.00  0.00     0.001 A 
ATOM     84  C   UNL A   1      49.412  26.822  25.398  1.00  0.00     0.000 A 
ENDBRANCH  66  79
ENDBRANCH  40  41
ENDBRANCH  33  35
ENDBRANCH  32  33
ENDBRANCH  31  32
ENDBRANCH  30  31
ENDBRANCH  29  30
ENDBRANCH  28  29
ENDBRANCH  27  28
ENDBRANCH  26  27
ENDBRANCH  25  26
ENDBRANCH   1  25
TORSDOF 25
ENDMDL
MODEL 2
REMARK VINA RESULT:     -10.0      1.441      2.155
REMARK SMILES CC(C)CCOc1ccccc1-c1cc(C(=O)OCCOCCOCCOCCOC(=O)c2ccc(-c3c4nc(c(-c5ccccc5)c5ccc([nH]5)c(-c5ccccc5)c5nc(c(-c6ccccc6)c6ccc3[nH]6)C=C5)C=C4)cc2)no1
REMARK SMILES IDX 22 1 21 2 20 3 19 4 18 5 16 6 17 7 15 8 13 9 14 10 82 11
REMARK SMILES IDX 81 12 12 13 7 14 8 15 9 16 11 17 10 18 6 19 5 20 4 21 2 22
REMARK SMILES IDX 1 23 3 24 23 25 24 26 25 27 26 28 27 29 28 30 29 31 30 32
REMARK SMILES IDX 31 33 32 34 33 35 34 36 80 37 35 38 79 39 36 40 37 41 38 42
REMARK SMILES IDX 73 43 39 44 78 45 72 46 74 47 40 48 77 49 71 50 70 51 41 53
REMARK SMILES IDX 63 54 48 55 62 56 49 57 52 58 61 59 75 60 50 61 51 62 60 64
REMARK SMILES IDX 76 65 53 66 42 67 43 68 47 69 44 70 46 71 45 72 64 73 65 74
REMARK SMILES IDX 69 75 66 76 68 77 67 78 54 79 55 80 59 81 56 82 58 83 57 84
REMARK H PARENT 74 52 52 63
REMARK Flexibility Score: inf
ROOT
ATOM      1  C   UNL A   1      34.650  31.670  27.658  1.00  0.00     0.188 C 
ENDROOT
BRANCH   1   2
ATOM      2  O   UNL A   1      34.176  30.507  26.996  1.00  0.00    -0.376 OA
BRANCH   2   3
ATOM      3  C   UNL A   1      32.939  29.891  27.308  1.00  0.00     0.202 C 
BRANCH   3   4
ATOM      4  C   UNL A   1      31.694  29.970  26.403  1.00  0.00     0.261 C 
BRANCH   4   5
ATOM      5  O   UNL A   1      31.894  29.900  24.989  1.00  0.00    -0.458 OA
BRANCH   5   6
ATOM      6  C   UNL A   1      30.922  29.290  24.252  1.00  0.00     0.360 C 
ATOM      7  O   UNL A   1      30.055  29.877  23.622  1.00  0.00    -0.244 OA
BRANCH   6   8
ATOM      8  C   UNL A   1      31.109  27.830  24.271  1.00  0.00     0.192 A 
ATOM      9  C   UNL A   1      32.587  25.366  23.829  1.00  0.00     0.171 A 
ATOM     10  C   UNL A   1      32.561  26.992  23.479  1.00  0.00     0.090 A 
ATOM     11  O   UNL A   1      31.064  24.994  24.864  1.00  0.00    -0.355 OA
ATOM     12  N   UNL A   1      30.103  26.731  25.091  1.00  0.00    -0.072 NA
BRANCH   9  13
ATOM     13  C   UNL A   1      33.714  24.479  24.070  1.00  0.00     0.062 A 
ATOM     14  C   UNL A   1      34.019  23.514  23.079  1.00  0.00     0.130 A 
ATOM     15  C   UNL A   1      35.228  22.836  23.123  1.00  0.00     0.047 A 
ATOM     16  C   UNL A   1      36.129  23.115  24.153  1.00  0.00     0.004 A 
ATOM     17  C   UNL A   1      34.606  24.737  25.107  1.00  0.00     0.016 A 
ATOM     18  C   UNL A   1      35.814  24.045  25.150  1.00  0.00     0.001 A 
BRANCH  14  19
ATOM     19  O   UNL A   1      33.120  23.187  22.085  1.00  0.00    -0.493 OA
BRANCH  19  20
ATOM     20  C   UNL A   1      32.524  21.877  22.202  1.00  0.00     0.230 C 
BRANCH  20  21
ATOM     21  C   UNL A   1      32.312  21.476  23.680  1.00  0.00     0.044 C 
BRANCH  21  22
ATOM     22  C   UNL A   1      32.833  19.872  23.930  1.00  0.00    -0.014 C 
ATOM     23  C   UNL A   1      32.914  19.867  25.695  1.00  0.00     0.007 C 
ATOM     24  C   UNL A   1      32.529  17.965  22.766  1.00  0.00     0.007 C 
ENDBRANCH  21  22
ENDBRANCH  20  21
ENDBRANCH  19  20
ENDBRANCH  14  19
ENDBRANCH   9  13
ENDBRANCH   6   8
ENDBRANCH   5   6
ENDBRANCH   4   5
ENDBRANCH   3   4
ENDBRANCH   2   3
ENDBRANCH   1   2
BRANCH   1  25
ATOM     25  C   UNL A   1      33.681  32.807  28.044  1.00  0.00     0.188 C 
BRANCH  25  26
ATOM     26  O   UNL A   1      34.243  33.815  28.848  1.00  0.00    -0.377 OA
BRANCH  26  27
ATOM     27  C   UNL A   1      33.590  35.067  28.787  1.00  0.00     0.188 C 
BRANCH  27  28
ATOM     28  C   UNL A   1      33.175  35.760  30.110  1.00  0.00     0.188 C 
BRANCH  28  29
ATOM     29  O   UNL A   1      33.266  34.999  31.293  1.00  0.00    -0.376 OA
BRANCH  29  30
ATOM     30  C   UNL A   1      34.167  35.232  32.355  1.00  0.00     0.202 C 
BRANCH  30  31
ATOM     31  C   UNL A   1      35.596  34.670  32.421  1.00  0.00     0.261 C 
BRANCH  31  32
ATOM     32  O   UNL A   1      35.757  33.332  32.888  1.00  0.00    -0.460 OA
BRANCH  32  33
ATOM     33  C   UNL A   1      35.546  32.353  31.979  1.00  0.00     0.338 C 
ATOM     34  O   UNL A   1      34.477  31.955  31.559  1.00  0.00    -0.246 OA
BRANCH  33  35
ATOM     35  C   UNL A   1      36.864  31.963  31.439  1.00  0.00     0.060 A 
ATOM     36  C   UNL A   1      37.208  32.296  30.118  1.00  0.00     0.016 A 
ATOM     37  C   UNL A   1      37.769  31.294  32.258  1.00  0.00     0.016 A 
ATOM     38  C   UNL A   1      38.458  31.952  29.608  1.00  0.00     0.010 A 
ATOM     39  C   UNL A   1      39.000  30.907  31.734  1.00  0.00     0.010 A 
ATOM     40  C   UNL A   1      39.336  31.209  30.400  1.00  0.00    -0.014 A 
BRANCH  40  41
ATOM     41  C   UNL A   1      40.514  30.546  29.800  1.00  0.00     0.031 A 
ATOM     42  C   UNL A   1      41.759  31.366  29.616  1.00  0.00     0.074 A 
ATOM     43  C   UNL A   1      40.470  29.270  29.386  1.00  0.00     0.049 A 
ATOM     44  N   UNL A   1      42.850  31.080  28.958  1.00  0.00    -0.248 NA
ATOM     45  C   UNL A   1      41.758  32.698  30.245  1.00  0.00     0.031 C 
ATOM     46  C   UNL A   1      39.348  28.353  29.572  1.00  0.00     0.029 A 
ATOM     47  N   UNL A   1      41.398  28.534  28.692  1.00  0.00    -0.354 N 
ATOM     48  C   UNL A   1      43.655  32.206  29.070  1.00  0.00     0.074 A 
ATOM     49  C   UNL A   1      42.914  33.190  29.827  1.00  0.00     0.031 C 
ATOM     50  C   UNL A   1      39.646  27.180  28.987  1.00  0.00     0.029 A 
ATOM     51  C   UNL A   1      40.953  27.284  28.341  1.00  0.00     0.049 A 
ATOM     52  H   UNL A   1      42.295  28.872  28.468  1.00  0.00     0.167 HD
ATOM     53  C   UNL A   1      44.902  32.402  28.582  1.00  0.00     0.031 A 
ATOM     54  C   UNL A   1      41.524  26.349  27.556  1.00  0.00     0.031 A 
ATOM     55  C   UNL A   1      45.619  31.428  27.806  1.00  0.00     0.049 A 
ATOM     56  C   UNL A   1      42.863  26.634  26.923  1.00  0.00     0.074 A 
ATOM     57  C   UNL A   1      46.890  31.522  27.269  1.00  0.00     0.029 A 
ATOM     58  N   UNL A   1      45.118  30.187  27.440  1.00  0.00    -0.354 N 
ATOM     59  N   UNL A   1      43.627  27.694  27.041  1.00  0.00    -0.248 NA
ATOM     60  C   UNL A   1      43.421  25.591  26.048  1.00  0.00     0.031 C 
ATOM     61  C   UNL A   1      47.125  30.375  26.509  1.00  0.00     0.029 A 
ATOM     62  C   UNL A   1      46.042  29.521  26.655  1.00  0.00     0.049 A 
ATOM     63  H   UNL A   1      44.237  29.833  27.701  1.00  0.00     0.167 HD
ATOM     64  C   UNL A   1      44.773  27.423  26.300  1.00  0.00     0.074 A 
ATOM     65  C   UNL A   1      44.604  26.101  25.736  1.00  0.00     0.031 C 
ATOM     66  C   UNL A   1      45.870  28.197  26.114  1.00  0.00     0.031 A 
BRANCH  53  67
ATOM     67  C   UNL A   1      45.543  33.739  28.835  1.00  0.00    -0.014 A 
ATOM     68  C   UNL A   1      45.422  34.798  27.920  1.00  0.00     0.009 A 
ATOM     69  C   UNL A   1      46.266  33.948  30.019  1.00  0.00     0.009 A 
ATOM     70  C   UNL A   1      46.056  36.018  28.163  1.00  0.00     0.001 A 
ATOM     71  C   UNL A   1      46.862  35.183  30.280  1.00  0.00     0.001 A 
ATOM     72  C   UNL A   1      46.770  36.210  29.344  1.00  0.00     0.000 A 
ENDBRANCH  53  67
BRANCH  54  73
ATOM     73  C   UNL A   1      40.828  25.058  27.300  1.00  0.00    -0.014 A 
ATOM     74  C   UNL A   1      39.659  25.024  26.526  1.00  0.00     0.009 A 
ATOM     75  C   UNL A   1      41.312  23.860  27.848  1.00  0.00     0.009 A 
ATOM     76  C   UNL A   1      38.968  23.824  26.337  1.00  0.00     0.001 A 
ATOM     77  C   UNL A   1      40.641  22.655  27.625  1.00  0.00     0.001 A 
ATOM     78  C   UNL A   1      39.463  22.640  26.881  1.00  0.00     0.000 A 
ENDBRANCH  54  73
BRANCH  66  79
ATOM     79  C   UNL A   1      47.018  27.623  25.330  1.00  0.00    -0.014 A 
ATOM     80  C   UNL A   1      47.150  27.826  23.948  1.00  0.00     0.009 A 
ATOM     81  C   UNL A   1      48.042  26.945  26.016  1.00  0.00     0.009 A 
ATOM     82  C   UNL A   1      48.274  27.348  23.270  1.00  0.00     0.001 A 
ATOM     83  C   UNL A   1      49.180  26.503  25.343  1.00  0.00     0.001 A 
ATOM     84  C   UNL A   1      49.292  26.699  23.969  1.00  0.00     0.000 A 
ENDBRANCH  66  79
ENDBRANCH  40  41
ENDBRANCH  33  35
ENDBRANCH  32  33
ENDBRANCH  31  32
ENDBRANCH  30  31
ENDBRANCH  29  30
ENDBRANCH  28  29
ENDBRANCH  27  28
ENDBRANCH  26  27
ENDBRANCH  25  26
ENDBRANCH   1  25
TORSDOF 25
ENDMDL
MODEL 3
REMARK VINA RESULT:      -8.9      2.646      4.026
REMARK SMILES CC(C)CCOc1ccccc1-c1cc(C(=O)OCCOCCOCCOCCOC(=O)c2ccc(-c3c4nc(c(-c5ccccc5)c5ccc([nH]5)c(-c5ccccc5)c5nc(c(-c6ccccc6)c6ccc3[nH]6)C=C5)C=C4)cc2)no1
REMARK SMILES IDX 22 1 21 2 20 3 19 4 18 5 16 6 17 7 15 8 13 9 14 10 82 11
REMARK SMILES IDX 81 12 12 13 7 14 8 15 9 16 11 17 10 18 6 19 5 20 4 21 2 22
REMARK SMILES IDX 1 23 3 24 23 25 24 26 25 27 26 28 27 29 28 30 29 31 30 32
REMARK SMILES IDX 31 33 32 34 33 35 34 36 80 37 35 38 79 39 36 40 37 41 38 42
REMARK SMILES IDX 73 43 39 44 78 45 72 46 74 47 40 48 77 49 71 50 70 51 41 53
REMARK SMILES IDX 63 54 48 55 62 56 49 57 52 58 61 59 75 60 50 61 51 62 60 64
REMARK SMILES IDX 76 65 53 66 42 67 43 68 47 69 44 70 46 71 45 72 64 73 65 74
REMARK SMILES IDX 69 75 66 76 68 77 67 78 54 79 55 80 59 81 56 82 58 83 57 84
REMARK H PARENT 74 52 52 63
REMARK Flexibility Score: inf
ROOT
ATOM      1  C   UNL A   1      29.605  25.735  24.916  1.00  0.00     0.188 C 
ENDROOT
BRANCH   1   2
ATOM      2  O   UNL A   1      29.192  26.507  23.798  1.00  0.00    -0.376 OA
BRANCH   2   3
ATOM      3  C   UNL A   1      29.536  27.872  23.634  1.00  0.00     0.202 C 
BRANCH   3   4
ATOM      4  C   UNL A   1      30.987  28.377  23.507  1.00  0.00     0.261 C 
BRANCH   4   5
ATOM      5  O   UNL A   1      32.011  27.407  23.272  1.00  0.00    -0.458 OA
BRANCH   5   6
ATOM      6  C   UNL A   1      31.870  26.605  22.178  1.00  0.00     0.360 C 
ATOM      7  O   UNL A   1      31.027  26.757  21.307  1.00  0.00    -0.244 OA
BRANCH   6   8
ATOM      8  C   UNL A   1      32.918  25.571  22.166  1.00  0.00     0.192 A 
ATOM      9  C   UNL A   1      35.124  24.056  23.301  1.00  0.00     0.171 A 
ATOM     10  C   UNL A   1      34.201  25.426  23.497  1.00  0.00     0.090 A 
ATOM     11  O   UNL A   1      34.531  23.203  21.737  1.00  0.00    -0.355 OA
ATOM     12  N   UNL A   1      33.042  24.325  21.017  1.00  0.00    -0.072 NA
BRANCH   9  13
ATOM     13  C   UNL A   1      35.696  23.164  24.298  1.00  0.00     0.062 A 
ATOM     14  C   UNL A   1      34.881  22.116  24.792  1.00  0.00     0.130 A 
ATOM     15  C   UNL A   1      35.450  21.086  25.525  1.00  0.00     0.047 A 
ATOM     16  C   UNL A   1      36.825  21.100  25.768  1.00  0.00     0.004 A 
ATOM     17  C   UNL A   1      37.063  23.186  24.563  1.00  0.00     0.016 A 
ATOM     18  C   UNL A   1      37.625  22.152  25.308  1.00  0.00     0.001 A 
BRANCH  14  19
ATOM     19  O   UNL A   1      33.514  22.112  24.608  1.00  0.00    -0.493 OA
BRANCH  19  20
ATOM     20  C   UNL A   1      32.845  20.894  25.001  1.00  0.00     0.230 C 
BRANCH  20  21
ATOM     21  C   UNL A   1      32.179  20.193  23.794  1.00  0.00     0.044 C 
BRANCH  21  22
ATOM     22  C   UNL A   1      32.853  18.642  23.576  1.00  0.00    -0.014 C 
ATOM     23  C   UNL A   1      32.350  18.341  21.910  1.00  0.00     0.007 C 
ATOM     24  C   UNL A   1      34.660  17.622  24.458  1.00  0.00     0.007 C 
ENDBRANCH  21  22
ENDBRANCH  20  21
ENDBRANCH  19  20
ENDBRANCH  14  19
ENDBRANCH   9  13
ENDBRANCH   6   8
ENDBRANCH   5   6
ENDBRANCH   4   5
ENDBRANCH   3   4
ENDBRANCH   2   3
ENDBRANCH   1   2
BRANCH   1  25
ATOM     25  C   UNL A   1      30.556  24.534  24.735  1.00  0.00     0.188 C 
BRANCH  25  26
ATOM     26  O   UNL A   1      30.831  23.815  25.913  1.00  0.00    -0.377 OA
BRANCH  26  27
ATOM     27  C   UNL A   1      31.852  24.360  26.725  1.00  0.00     0.188 C 
BRANCH  27  28
ATOM     28  C   UNL A   1      32.364  25.792  26.423  1.00  0.00     0.188 C 
BRANCH  28  29
ATOM     29  O   UNL A   1      32.025  26.806  27.342  1.00  0.00    -0.376 OA
BRANCH  29  30
ATOM     30  C   UNL A   1      31.841  28.171  27.032  1.00  0.00     0.202 C 
BRANCH  30  31
ATOM     31  C   UNL A   1      32.983  29.157  26.740  1.00  0.00     0.261 C 
BRANCH  31  32
ATOM     32  O   UNL A   1      34.124  29.115  27.596  1.00  0.00    -0.460 OA
BRANCH  32  33
ATOM     33  C   UNL A   1      34.760  30.291  27.801  1.00  0.00     0.338 C 
ATOM     34  O   UNL A   1      34.275  31.405  27.780  1.00  0.00    -0.246 OA
BRANCH  33  35
ATOM     35  C   UNL A   1      36.135  29.977  28.238  1.00  0.00     0.060 A 
ATOM     36  C   UNL A   1      37.214  30.173  27.359  1.00  0.00     0.016 A 
ATOM     37  C   UNL A   1      36.353  29.517  29.534  1.00  0.00     0.016 A 
ATOM     38  C   UNL A   1      38.516  29.900  27.771  1.00  0.00     0.010 A 
ATOM     39  C   UNL A   1      37.650  29.198  29.930  1.00  0.00     0.010 A 
ATOM     40  C   UNL A   1      38.730  29.361  29.042  1.00  0.00    -0.014 A 
BRANCH  40  41
ATOM     41  C   UNL A   1      40.033  28.755  29.393  1.00  0.00     0.031 A 
ATOM     42  C   UNL A   1      41.016  29.602  30.148  1.00  0.00     0.074 A 
ATOM     43  C   UNL A   1      40.354  27.508  29.015  1.00  0.00     0.049 A 
ATOM     44  N   UNL A   1      42.275  29.376  30.412  1.00  0.00    -0.248 NA
ATOM     45  C   UNL A   1      40.512  30.891  30.652  1.00  0.00     0.031 C 
ATOM     46  C   UNL A   1      39.463  26.565  28.343  1.00  0.00     0.029 A 
ATOM     47  N   UNL A   1      41.544  26.832  29.124  1.00  0.00    -0.354 N 
ATOM     48  C   UNL A   1      42.721  30.504  31.088  1.00  0.00     0.074 A 
ATOM     49  C   UNL A   1      41.610  31.426  31.163  1.00  0.00     0.031 C 
ATOM     50  C   UNL A   1      40.145  25.437  28.082  1.00  0.00     0.029 A 
ATOM     51  C   UNL A   1      41.531  25.601  28.517  1.00  0.00     0.049 A 
ATOM     52  H   UNL A   1      42.330  27.196  29.592  1.00  0.00     0.167 HD
ATOM     53  C   UNL A   1      43.949  30.748  31.601  1.00  0.00     0.031 A 
ATOM     54  C   UNL A   1      42.535  24.728  28.306  1.00  0.00     0.031 A 
ATOM     55  C   UNL A   1      45.055  29.836  31.495  1.00  0.00     0.049 A 
ATOM     56  C   UNL A   1      43.925  25.072  28.779  1.00  0.00     0.074 A 
ATOM     57  C   UNL A   1      46.340  29.983  31.985  1.00  0.00     0.029 A 
ATOM     58  N   UNL A   1      45.011  28.615  30.840  1.00  0.00    -0.354 N 
ATOM     59  N   UNL A   1      44.340  26.132  29.431  1.00  0.00    -0.248 NA
ATOM     60  C   UNL A   1      44.987  24.096  28.491  1.00  0.00     0.031 C 
ATOM     61  C   UNL A   1      47.095  28.891  31.553  1.00  0.00     0.029 A 
ATOM     62  C   UNL A   1      46.256  28.014  30.882  1.00  0.00     0.049 A 
ATOM     63  H   UNL A   1      44.212  28.233  30.408  1.00  0.00     0.167 HD
ATOM     64  C   UNL A   1      45.694  25.926  29.673  1.00  0.00     0.074 A 
ATOM     65  C   UNL A   1      46.032  24.641  29.099  1.00  0.00     0.031 C 
ATOM     66  C   UNL A   1      46.575  26.726  30.322  1.00  0.00     0.031 A 
BRANCH  53  67
ATOM     67  C   UNL A   1      44.167  32.075  32.274  1.00  0.00    -0.014 A 
ATOM     68  C   UNL A   1      43.819  32.284  33.619  1.00  0.00     0.009 A 
ATOM     69  C   UNL A   1      44.749  33.130  31.555  1.00  0.00     0.009 A 
ATOM     70  C   UNL A   1      44.000  33.536  34.210  1.00  0.00     0.001 A 
ATOM     71  C   UNL A   1      44.970  34.367  32.161  1.00  0.00     0.001 A 
ATOM     72  C   UNL A   1      44.580  34.574  33.482  1.00  0.00     0.000 A 
ENDBRANCH  53  67
BRANCH  54  73
ATOM     73  C   UNL A   1      42.277  23.446  27.593  1.00  0.00    -0.014 A 
ATOM     74  C   UNL A   1      42.371  23.380  26.195  1.00  0.00     0.009 A 
ATOM     75  C   UNL A   1      41.910  22.291  28.301  1.00  0.00     0.009 A 
ATOM     76  C   UNL A   1      42.068  22.196  25.519  1.00  0.00     0.001 A 
ATOM     77  C   UNL A   1      41.645  21.097  27.626  1.00  0.00     0.001 A 
ATOM     78  C   UNL A   1      41.711  21.055  26.234  1.00  0.00     0.000 A 
ENDBRANCH  54  73
BRANCH  66  79
ATOM     79  C   UNL A   1      47.978  26.220  30.522  1.00  0.00    -0.014 A 
ATOM     80  C   UNL A   1      48.974  26.384  29.548  1.00  0.00     0.009 A 
ATOM     81  C   UNL A   1      48.328  25.653  31.761  1.00  0.00     0.009 A 
ATOM     82  C   UNL A   1      50.285  25.975  29.806  1.00  0.00     0.001 A 
ATOM     83  C   UNL A   1      49.645  25.282  32.029  1.00  0.00     0.001 A 
ATOM     84  C   UNL A   1      50.621  25.437  31.048  1.00  0.00     0.000 A 
ENDBRANCH  66  79
ENDBRANCH  40  41
ENDBRANCH  33  35
ENDBRANCH  32  33
ENDBRANCH  31  32
ENDBRANCH  30  31
ENDBRANCH  29  30
ENDBRANCH  28  29
ENDBRANCH  27  28
ENDBRANCH  26  27
ENDBRANCH  25  26
ENDBRANCH   1  25
TORSDOF 25
ENDMDL
