MODEL 1
REMARK VINA RESULT:     -10.6      0.000      0.000
REMARK SMILES C[C@@H](C(=O)OCCOCCOCCOCCOC(=O)c1ccc(-c2c3nc(c(-c4ccccc4)c4ccc([nH]4)c(-c4ccccc4)c4nc(c(-c5ccccc5)c5ccc2[nH]5)C=C4)C=C3)cc1)c1ccc(C[C@H]2CCCC2=O)c(-c2ccccc2)c1
REMARK SMILES IDX 10 1 9 2 8 3 7 4 6 5 5 6 3 7 4 8 2 9 1 10 68 11 69 12 86 13
REMARK SMILES IDX 70 14 79 15 71 16 80 17 81 18 85 19 82 20 84 21 83 22 72 23
REMARK SMILES IDX 73 24 74 25 77 26 75 27 76 28 78 29 11 30 12 31 13 32 14 33
REMARK SMILES IDX 15 34 16 35 17 36 18 37 19 38 20 39 21 40 67 41 22 42 66 43
REMARK SMILES IDX 23 44 24 45 25 46 60 47 26 48 65 49 59 50 61 51 27 52 64 53
REMARK SMILES IDX 58 54 57 55 28 57 50 58 35 59 49 60 36 61 39 62 48 63 62 64
REMARK SMILES IDX 37 65 38 66 47 68 63 69 40 70 29 71 30 72 34 73 31 74 33 75
REMARK SMILES IDX 32 76 51 77 52 78 56 79 53 80 55 81 54 82 41 83 42 84 46 85
REMARK SMILES IDX 43 86 45 87 44 88
REMARK H PARENT 61 56 39 67
REMARK Flexibility Score: inf
ROOT
ATOM      1  C   UNL A   1      42.103  18.843  26.056  1.00  0.00     0.188 C 
ENDROOT
BRANCH   1   2
ATOM      2  C   UNL A   1      42.042  19.618  27.382  1.00  0.00     0.188 C 
BRANCH   2   3
ATOM      3  O   UNL A   1      41.551  20.941  27.322  1.00  0.00    -0.376 OA
BRANCH   3   4
ATOM      4  C   UNL A   1      40.177  21.205  27.077  1.00  0.00     0.202 C 
BRANCH   4   5
ATOM      5  C   UNL A   1      39.589  21.890  25.824  1.00  0.00     0.261 C 
BRANCH   5   6
ATOM      6  O   UNL A   1      38.428  21.290  25.244  1.00  0.00    -0.463 OA
BRANCH   6   7
ATOM      7  C   UNL A   1      37.219  21.836  25.520  1.00  0.00     0.313 C 
ATOM      8  O   UNL A   1      36.266  21.206  25.966  1.00  0.00    -0.252 OA
BRANCH   7   9
ATOM      9  C   UNL A   1      37.199  23.357  25.303  1.00  0.00     0.126 C 
ATOM     10  C   UNL A   1      37.778  24.119  26.513  1.00  0.00     0.025 C 
BRANCH   9  11
ATOM     11  C   UNL A   1      35.872  23.890  24.739  1.00  0.00    -0.033 A 
ATOM     12  C   UNL A   1      35.299  23.389  23.565  1.00  0.00     0.005 A 
ATOM     13  C   UNL A   1      35.121  24.851  25.445  1.00  0.00     0.013 A 
ATOM     14  C   UNL A   1      34.039  23.826  23.128  1.00  0.00     0.004 A 
ATOM     15  C   UNL A   1      33.863  25.334  25.011  1.00  0.00    -0.015 A 
ATOM     16  C   UNL A   1      33.300  24.793  23.836  1.00  0.00    -0.039 A 
BRANCH  15  17
ATOM     17  C   UNL A   1      33.209  26.373  25.829  1.00  0.00    -0.018 A 
ATOM     18  C   UNL A   1      31.911  26.198  26.333  1.00  0.00     0.009 A 
ATOM     19  C   UNL A   1      33.887  27.563  26.144  1.00  0.00     0.009 A 
ATOM     20  C   UNL A   1      31.289  27.200  27.081  1.00  0.00     0.001 A 
ATOM     21  C   UNL A   1      33.272  28.559  26.908  1.00  0.00     0.001 A 
ATOM     22  C   UNL A   1      31.969  28.382  27.366  1.00  0.00     0.000 A 
ENDBRANCH  15  17
BRANCH  16  23
ATOM     23  C   UNL A   1      31.899  25.135  23.350  1.00  0.00     0.047 C 
BRANCH  23  24
ATOM     24  C   UNL A   1      31.696  26.345  22.436  1.00  0.00     0.060 C 
ATOM     25  C   UNL A   1      30.822  27.480  22.965  1.00  0.00     0.012 C 
ATOM     26  C   UNL A   1      32.986  27.051  22.111  1.00  0.00     0.136 C 
ATOM     27  C   UNL A   1      31.778  28.540  23.494  1.00  0.00     0.009 C 
ATOM     28  C   UNL A   1      33.007  28.473  22.598  1.00  0.00     0.076 C 
ATOM     29  O   UNL A   1      33.915  26.531  21.501  1.00  0.00    -0.299 OA
ENDBRANCH  23  24
ENDBRANCH  16  23
ENDBRANCH   9  11
ENDBRANCH   7   9
ENDBRANCH   6   7
ENDBRANCH   5   6
ENDBRANCH   4   5
ENDBRANCH   3   4
ENDBRANCH   2   3
ENDBRANCH   1   2
BRANCH   1  30
ATOM     30  O   UNL A   1      43.016  19.348  25.098  1.00  0.00    -0.377 OA
BRANCH  30  31
ATOM     31  C   UNL A   1      44.284  18.718  24.958  1.00  0.00     0.188 C 
BRANCH  31  32
ATOM     32  C   UNL A   1      45.447  19.398  24.201  1.00  0.00     0.188 C 
BRANCH  32  33
ATOM     33  O   UNL A   1      45.317  20.800  24.033  1.00  0.00    -0.376 OA
BRANCH  33  34
ATOM     34  C   UNL A   1      46.076  21.658  24.870  1.00  0.00     0.202 C 
BRANCH  34  35
ATOM     35  C   UNL A   1      45.348  22.323  26.049  1.00  0.00     0.261 C 
BRANCH  35  36
ATOM     36  O   UNL A   1      44.734  23.594  25.781  1.00  0.00    -0.460 OA
BRANCH  36  37
ATOM     37  C   UNL A   1      43.411  23.616  25.523  1.00  0.00     0.338 C 
ATOM     38  O   UNL A   1      42.779  22.830  24.835  1.00  0.00    -0.246 OA
BRANCH  37  39
ATOM     39  C   UNL A   1      42.801  24.654  26.377  1.00  0.00     0.060 A 
ATOM     40  C   UNL A   1      43.097  26.000  26.128  1.00  0.00     0.016 A 
ATOM     41  C   UNL A   1      41.940  24.300  27.418  1.00  0.00     0.016 A 
ATOM     42  C   UNL A   1      42.567  26.996  26.949  1.00  0.00     0.010 A 
ATOM     43  C   UNL A   1      41.426  25.296  28.252  1.00  0.00     0.010 A 
ATOM     44  C   UNL A   1      41.768  26.645  28.044  1.00  0.00    -0.014 A 
BRANCH  44  45
ATOM     45  C   UNL A   1      41.462  27.656  29.085  1.00  0.00     0.031 A 
ATOM     46  C   UNL A   1      42.324  27.691  30.319  1.00  0.00     0.074 A 
ATOM     47  C   UNL A   1      40.461  28.541  28.938  1.00  0.00     0.049 A 
ATOM     48  N   UNL A   1      42.223  28.445  31.383  1.00  0.00    -0.248 NA
ATOM     49  C   UNL A   1      43.451  26.744  30.355  1.00  0.00     0.031 C 
ATOM     50  C   UNL A   1      39.588  28.648  27.771  1.00  0.00     0.029 A 
ATOM     51  N   UNL A   1      40.009  29.517  29.790  1.00  0.00    -0.354 N 
ATOM     52  C   UNL A   1      43.266  28.058  32.216  1.00  0.00     0.074 A 
ATOM     53  C   UNL A   1      43.964  26.980  31.552  1.00  0.00     0.031 C 
ATOM     54  C   UNL A   1      38.696  29.631  27.986  1.00  0.00     0.029 A 
ATOM     55  C   UNL A   1      38.911  30.194  29.319  1.00  0.00     0.049 A 
ATOM     56  H   UNL A   1      40.433  29.715  30.658  1.00  0.00     0.167 HD
ATOM     57  C   UNL A   1      43.616  28.557  33.426  1.00  0.00     0.031 A 
ATOM     58  C   UNL A   1      38.151  31.138  29.907  1.00  0.00     0.031 A 
ATOM     59  C   UNL A   1      42.908  29.613  34.098  1.00  0.00     0.049 A 
ATOM     60  C   UNL A   1      38.501  31.613  31.295  1.00  0.00     0.074 A 
ATOM     61  C   UNL A   1      43.185  30.192  35.324  1.00  0.00     0.029 A 
ATOM     62  N   UNL A   1      41.774  30.240  33.606  1.00  0.00    -0.354 N 
ATOM     63  N   UNL A   1      39.500  31.254  32.066  1.00  0.00    -0.248 NA
ATOM     64  C   UNL A   1      37.621  32.630  31.890  1.00  0.00     0.031 C 
ATOM     65  C   UNL A   1      42.181  31.124  35.603  1.00  0.00     0.029 A 
ATOM     66  C   UNL A   1      41.322  31.180  34.517  1.00  0.00     0.049 A 
ATOM     67  H   UNL A   1      41.354  30.047  32.737  1.00  0.00     0.167 HD
ATOM     68  C   UNL A   1      39.387  32.023  33.219  1.00  0.00     0.074 A 
ATOM     69  C   UNL A   1      38.232  32.879  33.039  1.00  0.00     0.031 C 
ATOM     70  C   UNL A   1      40.170  32.025  34.326  1.00  0.00     0.031 A 
BRANCH  57  71
ATOM     71  C   UNL A   1      44.796  27.930  34.115  1.00  0.00    -0.014 A 
ATOM     72  C   UNL A   1      46.102  28.405  33.913  1.00  0.00     0.009 A 
ATOM     73  C   UNL A   1      44.596  26.857  34.998  1.00  0.00     0.009 A 
ATOM     74  C   UNL A   1      47.185  27.795  34.551  1.00  0.00     0.001 A 
ATOM     75  C   UNL A   1      45.675  26.270  35.660  1.00  0.00     0.001 A 
ATOM     76  C   UNL A   1      46.969  26.732  35.427  1.00  0.00     0.000 A 
ENDBRANCH  57  71
BRANCH  58  77
ATOM     77  C   UNL A   1      36.959  31.684  29.202  1.00  0.00    -0.014 A 
ATOM     78  C   UNL A   1      37.010  32.930  28.559  1.00  0.00     0.009 A 
ATOM     79  C   UNL A   1      35.751  30.968  29.193  1.00  0.00     0.009 A 
ATOM     80  C   UNL A   1      35.872  33.458  27.946  1.00  0.00     0.001 A 
ATOM     81  C   UNL A   1      34.625  31.483  28.550  1.00  0.00     0.001 A 
ATOM     82  C   UNL A   1      34.682  32.732  27.937  1.00  0.00     0.000 A 
ENDBRANCH  58  77
BRANCH  70  83
ATOM     83  C   UNL A   1      39.836  33.010  35.414  1.00  0.00    -0.014 A 
ATOM     84  C   UNL A   1      39.926  34.395  35.205  1.00  0.00     0.009 A 
ATOM     85  C   UNL A   1      39.379  32.540  36.657  1.00  0.00     0.009 A 
ATOM     86  C   UNL A   1      39.601  35.287  36.230  1.00  0.00     0.001 A 
ATOM     87  C   UNL A   1      39.021  33.434  37.667  1.00  0.00     0.001 A 
ATOM     88  C   UNL A   1      39.142  34.806  37.457  1.00  0.00     0.000 A 
ENDBRANCH  70  83
ENDBRANCH  44  45
ENDBRANCH  37  39
ENDBRANCH  36  37
ENDBRANCH  35  36
ENDBRANCH  34  35
ENDBRANCH  33  34
ENDBRANCH  32  33
ENDBRANCH  31  32
ENDBRANCH  30  31
ENDBRANCH   1  30
TORSDOF 24
ENDMDL
MODEL 2
REMARK VINA RESULT:     -10.2      1.441      2.847
REMARK SMILES C[C@@H](C(=O)OCCOCCOCCOCCOC(=O)c1ccc(-c2c3nc(c(-c4ccccc4)c4ccc([nH]4)c(-c4ccccc4)c4nc(c(-c5ccccc5)c5ccc2[nH]5)C=C4)C=C3)cc1)c1ccc(C[C@H]2CCCC2=O)c(-c2ccccc2)c1
REMARK SMILES IDX 10 1 9 2 8 3 7 4 6 5 5 6 3 7 4 8 2 9 1 10 68 11 69 12 86 13
REMARK SMILES IDX 70 14 79 15 71 16 80 17 81 18 85 19 82 20 84 21 83 22 72 23
REMARK SMILES IDX 73 24 74 25 77 26 75 27 76 28 78 29 11 30 12 31 13 32 14 33
REMARK SMILES IDX 15 34 16 35 17 36 18 37 19 38 20 39 21 40 67 41 22 42 66 43
REMARK SMILES IDX 23 44 24 45 25 46 60 47 26 48 65 49 59 50 61 51 27 52 64 53
REMARK SMILES IDX 58 54 57 55 28 57 50 58 35 59 49 60 36 61 39 62 48 63 62 64
REMARK SMILES IDX 37 65 38 66 47 68 63 69 40 70 29 71 30 72 34 73 31 74 33 75
REMARK SMILES IDX 32 76 51 77 52 78 56 79 53 80 55 81 54 82 41 83 42 84 46 85
REMARK SMILES IDX 43 86 45 87 44 88
REMARK H PARENT 61 56 39 67
REMARK Flexibility Score: inf
ROOT
ATOM      1  C   UNL A   1      40.295  22.449  26.943  1.00  0.00     0.188 C 
ENDROOT
BRANCH   1   2
ATOM      2  C   UNL A   1      38.851  22.324  26.433  1.00  0.00     0.188 C 
BRANCH   2   3
ATOM      3  O   UNL A   1      38.544  21.178  25.667  1.00  0.00    -0.376 OA
BRANCH   3   4
ATOM      4  C   UNL A   1      37.385  21.130  24.848  1.00  0.00     0.202 C 
BRANCH   4   5
ATOM      5  C   UNL A   1      36.181  22.096  24.912  1.00  0.00     0.261 C 
BRANCH   5   6
ATOM      6  O   UNL A   1      34.985  21.683  24.247  1.00  0.00    -0.463 OA
BRANCH   6   7
ATOM      7  C   UNL A   1      34.328  22.592  23.487  1.00  0.00     0.313 C 
ATOM      8  O   UNL A   1      34.872  23.320  22.664  1.00  0.00    -0.252 OA
BRANCH   7   9
ATOM      9  C   UNL A   1      32.807  22.545  23.698  1.00  0.00     0.126 C 
ATOM     10  C   UNL A   1      32.056  22.193  22.398  1.00  0.00     0.025 C 
BRANCH   9  11
ATOM     11  C   UNL A   1      32.251  23.732  24.503  1.00  0.00    -0.033 A 
ATOM     12  C   UNL A   1      32.370  23.818  25.894  1.00  0.00     0.005 A 
ATOM     13  C   UNL A   1      31.678  24.841  23.850  1.00  0.00     0.013 A 
ATOM     14  C   UNL A   1      31.942  24.959  26.590  1.00  0.00     0.004 A 
ATOM     15  C   UNL A   1      31.206  25.990  24.529  1.00  0.00    -0.015 A 
ATOM     16  C   UNL A   1      31.362  26.059  25.930  1.00  0.00    -0.039 A 
BRANCH  15  17
ATOM     17  C   UNL A   1      30.589  27.058  23.721  1.00  0.00    -0.018 A 
ATOM     18  C   UNL A   1      31.340  27.807  22.801  1.00  0.00     0.009 A 
ATOM     19  C   UNL A   1      29.216  27.337  23.838  1.00  0.00     0.009 A 
ATOM     20  C   UNL A   1      30.752  28.836  22.062  1.00  0.00     0.001 A 
ATOM     21  C   UNL A   1      28.624  28.355  23.086  1.00  0.00     0.001 A 
ATOM     22  C   UNL A   1      29.395  29.112  22.207  1.00  0.00     0.000 A 
ENDBRANCH  15  17
BRANCH  16  23
ATOM     23  C   UNL A   1      31.019  27.297  26.746  1.00  0.00     0.047 C 
BRANCH  23  24
ATOM     24  C   UNL A   1      32.086  28.372  26.965  1.00  0.00     0.060 C 
ATOM     25  C   UNL A   1      33.546  27.933  26.879  1.00  0.00     0.012 C 
ATOM     26  C   UNL A   1      32.016  29.476  25.942  1.00  0.00     0.136 C 
ATOM     27  C   UNL A   1      34.020  28.309  25.481  1.00  0.00     0.009 C 
ATOM     28  C   UNL A   1      33.269  29.582  25.118  1.00  0.00     0.076 C 
ATOM     29  O   UNL A   1      31.051  30.219  25.804  1.00  0.00    -0.299 OA
ENDBRANCH  23  24
ENDBRANCH  16  23
ENDBRANCH   9  11
ENDBRANCH   7   9
ENDBRANCH   6   7
ENDBRANCH   5   6
ENDBRANCH   4   5
ENDBRANCH   3   4
ENDBRANCH   2   3
ENDBRANCH   1   2
BRANCH   1  30
ATOM     30  O   UNL A   1      41.042  21.245  26.954  1.00  0.00    -0.377 OA
BRANCH  30  31
ATOM     31  C   UNL A   1      42.094  21.080  26.010  1.00  0.00     0.188 C 
BRANCH  31  32
ATOM     32  C   UNL A   1      42.773  19.711  25.786  1.00  0.00     0.188 C 
BRANCH  32  33
ATOM     33  O   UNL A   1      44.180  19.758  25.610  1.00  0.00    -0.376 OA
BRANCH  33  34
ATOM     34  C   UNL A   1      44.726  20.762  24.770  1.00  0.00     0.202 C 
BRANCH  34  35
ATOM     35  C   UNL A   1      45.612  21.831  25.428  1.00  0.00     0.261 C 
BRANCH  35  36
ATOM     36  O   UNL A   1      44.927  22.871  26.145  1.00  0.00    -0.460 OA
BRANCH  36  37
ATOM     37  C   UNL A   1      44.894  24.102  25.596  1.00  0.00     0.338 C 
ATOM     38  O   UNL A   1      45.318  24.434  24.500  1.00  0.00    -0.246 OA
BRANCH  37  39
ATOM     39  C   UNL A   1      44.073  24.964  26.469  1.00  0.00     0.060 A 
ATOM     40  C   UNL A   1      44.274  26.350  26.438  1.00  0.00     0.016 A 
ATOM     41  C   UNL A   1      43.109  24.408  27.313  1.00  0.00     0.016 A 
ATOM     42  C   UNL A   1      43.541  27.182  27.284  1.00  0.00     0.010 A 
ATOM     43  C   UNL A   1      42.390  25.239  28.175  1.00  0.00     0.010 A 
ATOM     44  C   UNL A   1      42.630  26.626  28.191  1.00  0.00    -0.014 A 
BRANCH  44  45
ATOM     45  C   UNL A   1      42.085  27.459  29.291  1.00  0.00     0.031 A 
ATOM     46  C   UNL A   1      42.762  27.397  30.634  1.00  0.00     0.074 A 
ATOM     47  C   UNL A   1      41.030  28.271  29.106  1.00  0.00     0.049 A 
ATOM     48  N   UNL A   1      42.442  27.991  31.755  1.00  0.00    -0.248 NA
ATOM     49  C   UNL A   1      43.963  26.549  30.721  1.00  0.00     0.031 C 
ATOM     50  C   UNL A   1      40.318  28.463  27.844  1.00  0.00     0.029 A 
ATOM     51  N   UNL A   1      40.371  29.083  29.994  1.00  0.00    -0.354 N 
ATOM     52  C   UNL A   1      43.395  27.581  32.680  1.00  0.00     0.074 A 
ATOM     53  C   UNL A   1      44.282  26.664  32.000  1.00  0.00     0.031 C 
ATOM     54  C   UNL A   1      39.311  29.331  28.042  1.00  0.00     0.029 A 
ATOM     55  C   UNL A   1      39.285  29.725  29.450  1.00  0.00     0.049 A 
ATOM     56  H   UNL A   1      40.650  29.196  30.932  1.00  0.00     0.167 HD
ATOM     57  C   UNL A   1      43.525  27.940  33.980  1.00  0.00     0.031 A 
ATOM     58  C   UNL A   1      38.361  30.516  30.029  1.00  0.00     0.031 A 
ATOM     59  C   UNL A   1      42.629  28.834  34.663  1.00  0.00     0.049 A 
ATOM     60  C   UNL A   1      38.469  30.827  31.501  1.00  0.00     0.074 A 
ATOM     61  C   UNL A   1      42.677  29.264  35.977  1.00  0.00     0.029 A 
ATOM     62  N   UNL A   1      41.517  29.428  34.088  1.00  0.00    -0.354 N 
ATOM     63  N   UNL A   1      39.384  30.450  32.363  1.00  0.00    -0.248 NA
ATOM     64  C   UNL A   1      37.419  31.679  32.078  1.00  0.00     0.031 C 
ATOM     65  C   UNL A   1      41.556  30.065  36.216  1.00  0.00     0.029 A 
ATOM     66  C   UNL A   1      40.852  30.196  35.029  1.00  0.00     0.049 A 
ATOM     67  H   UNL A   1      41.240  29.320  33.149  1.00  0.00     0.167 HD
ATOM     68  C   UNL A   1      39.038  31.045  33.570  1.00  0.00     0.074 A 
ATOM     69  C   UNL A   1      37.839  31.820  33.327  1.00  0.00     0.031 C 
ATOM     70  C   UNL A   1      39.658  30.962  34.774  1.00  0.00     0.031 A 
BRANCH  57  71
ATOM     71  C   UNL A   1      44.657  27.325  34.756  1.00  0.00    -0.014 A 
ATOM     72  C   UNL A   1      45.893  27.976  34.891  1.00  0.00     0.009 A 
ATOM     73  C   UNL A   1      44.476  26.080  35.378  1.00  0.00     0.009 A 
ATOM     74  C   UNL A   1      46.936  27.376  35.601  1.00  0.00     0.001 A 
ATOM     75  C   UNL A   1      45.508  25.497  36.115  1.00  0.00     0.001 A 
ATOM     76  C   UNL A   1      46.741  26.141  36.217  1.00  0.00     0.000 A 
ENDBRANCH  57  71
BRANCH  58  77
ATOM     77  C   UNL A   1      37.228  31.053  29.227  1.00  0.00    -0.014 A 
ATOM     78  C   UNL A   1      36.124  30.247  28.910  1.00  0.00     0.009 A 
ATOM     79  C   UNL A   1      37.260  32.374  28.752  1.00  0.00     0.009 A 
ATOM     80  C   UNL A   1      35.090  30.744  28.112  1.00  0.00     0.001 A 
ATOM     81  C   UNL A   1      36.209  32.878  27.983  1.00  0.00     0.001 A 
ATOM     82  C   UNL A   1      35.131  32.060  27.654  1.00  0.00     0.000 A 
ENDBRANCH  58  77
BRANCH  70  83
ATOM     83  C   UNL A   1      39.082  31.761  35.911  1.00  0.00    -0.014 A 
ATOM     84  C   UNL A   1      39.397  33.117  36.092  1.00  0.00     0.009 A 
ATOM     85  C   UNL A   1      38.171  31.154  36.792  1.00  0.00     0.009 A 
ATOM     86  C   UNL A   1      38.839  33.837  37.152  1.00  0.00     0.001 A 
ATOM     87  C   UNL A   1      37.588  31.885  37.828  1.00  0.00     0.001 A 
ATOM     88  C   UNL A   1      37.931  33.222  38.014  1.00  0.00     0.000 A 
ENDBRANCH  70  83
ENDBRANCH  44  45
ENDBRANCH  37  39
ENDBRANCH  36  37
ENDBRANCH  35  36
ENDBRANCH  34  35
ENDBRANCH  33  34
ENDBRANCH  32  33
ENDBRANCH  31  32
ENDBRANCH  30  31
ENDBRANCH   1  30
TORSDOF 24
ENDMDL
MODEL 3
REMARK VINA RESULT:     -10.1      1.594      3.433
REMARK SMILES C[C@@H](C(=O)OCCOCCOCCOCCOC(=O)c1ccc(-c2c3nc(c(-c4ccccc4)c4ccc([nH]4)c(-c4ccccc4)c4nc(c(-c5ccccc5)c5ccc2[nH]5)C=C4)C=C3)cc1)c1ccc(C[C@H]2CCCC2=O)c(-c2ccccc2)c1
REMARK SMILES IDX 10 1 9 2 8 3 7 4 6 5 5 6 3 7 4 8 2 9 1 10 68 11 69 12 86 13
REMARK SMILES IDX 70 14 79 15 71 16 80 17 81 18 85 19 82 20 84 21 83 22 72 23
REMARK SMILES IDX 73 24 74 25 77 26 75 27 76 28 78 29 11 30 12 31 13 32 14 33
REMARK SMILES IDX 15 34 16 35 17 36 18 37 19 38 20 39 21 40 67 41 22 42 66 43
REMARK SMILES IDX 23 44 24 45 25 46 60 47 26 48 65 49 59 50 61 51 27 52 64 53
REMARK SMILES IDX 58 54 57 55 28 57 50 58 35 59 49 60 36 61 39 62 48 63 62 64
REMARK SMILES IDX 37 65 38 66 47 68 63 69 40 70 29 71 30 72 34 73 31 74 33 75
REMARK SMILES IDX 32 76 51 77 52 78 56 79 53 80 55 81 54 82 41 83 42 84 46 85
REMARK SMILES IDX 43 86 45 87 44 88
REMARK H PARENT 61 56 39 67
REMARK Flexibility Score: inf
ROOT
ATOM      1  C   UNL A   1      36.227  22.777  23.331  1.00  0.00     0.188 C 
ENDROOT
BRANCH   1   2
ATOM      2  C   UNL A   1      35.172  23.769  23.844  1.00  0.00     0.188 C 
BRANCH   2   3
ATOM      3  O   UNL A   1      35.372  24.298  25.138  1.00  0.00    -0.376 OA
BRANCH   3   4
ATOM      4  C   UNL A   1      34.609  23.841  26.246  1.00  0.00     0.202 C 
BRANCH   4   5
ATOM      5  C   UNL A   1      34.187  22.381  26.524  1.00  0.00     0.261 C 
BRANCH   5   6
ATOM      6  O   UNL A   1      32.951  22.186  27.215  1.00  0.00    -0.463 OA
BRANCH   6   7
ATOM      7  C   UNL A   1      31.807  22.174  26.489  1.00  0.00     0.313 C 
ATOM      8  O   UNL A   1      31.552  21.345  25.622  1.00  0.00    -0.252 OA
BRANCH   7   9
ATOM      9  C   UNL A   1      30.814  23.258  26.937  1.00  0.00     0.126 C 
ATOM     10  C   UNL A   1      29.415  22.676  27.222  1.00  0.00     0.025 C 
BRANCH   9  11
ATOM     11  C   UNL A   1      30.857  24.535  26.082  1.00  0.00    -0.033 A 
ATOM     12  C   UNL A   1      30.101  24.684  24.915  1.00  0.00     0.005 A 
ATOM     13  C   UNL A   1      31.597  25.659  26.501  1.00  0.00     0.013 A 
ATOM     14  C   UNL A   1      30.086  25.897  24.210  1.00  0.00     0.004 A 
ATOM     15  C   UNL A   1      31.627  26.884  25.792  1.00  0.00    -0.015 A 
ATOM     16  C   UNL A   1      30.835  27.012  24.631  1.00  0.00    -0.039 A 
BRANCH  15  17
ATOM     17  C   UNL A   1      32.480  27.963  26.324  1.00  0.00    -0.018 A 
ATOM     18  C   UNL A   1      33.869  27.804  26.449  1.00  0.00     0.009 A 
ATOM     19  C   UNL A   1      31.919  29.196  26.699  1.00  0.00     0.009 A 
ATOM     20  C   UNL A   1      34.664  28.820  26.982  1.00  0.00     0.001 A 
ATOM     21  C   UNL A   1      32.716  30.221  27.216  1.00  0.00     0.001 A 
ATOM     22  C   UNL A   1      34.087  30.027  27.368  1.00  0.00     0.000 A 
ENDBRANCH  15  17
BRANCH  16  23
ATOM     23  C   UNL A   1      30.682  28.320  23.868  1.00  0.00     0.047 C 
BRANCH  23  24
ATOM     24  C   UNL A   1      31.606  28.613  22.685  1.00  0.00     0.060 C 
ATOM     25  C   UNL A   1      32.931  29.308  22.989  1.00  0.00     0.012 C 
ATOM     26  C   UNL A   1      32.050  27.361  21.972  1.00  0.00     0.136 C 
ATOM     27  C   UNL A   1      33.986  28.210  23.032  1.00  0.00     0.009 C 
ATOM     28  C   UNL A   1      33.540  27.169  22.015  1.00  0.00     0.076 C 
ATOM     29  O   UNL A   1      31.285  26.590  21.404  1.00  0.00    -0.299 OA
ENDBRANCH  23  24
ENDBRANCH  16  23
ENDBRANCH   9  11
ENDBRANCH   7   9
ENDBRANCH   6   7
ENDBRANCH   5   6
ENDBRANCH   4   5
ENDBRANCH   3   4
ENDBRANCH   2   3
ENDBRANCH   1   2
BRANCH   1  30
ATOM     30  O   UNL A   1      36.485  21.671  24.178  1.00  0.00    -0.377 OA
BRANCH  30  31
ATOM     31  C   UNL A   1      37.752  21.577  24.820  1.00  0.00     0.188 C 
BRANCH  31  32
ATOM     32  C   UNL A   1      38.060  22.351  26.121  1.00  0.00     0.188 C 
BRANCH  32  33
ATOM     33  O   UNL A   1      39.439  22.512  26.413  1.00  0.00    -0.376 OA
BRANCH  33  34
ATOM     34  C   UNL A   1      40.306  21.405  26.232  1.00  0.00     0.202 C 
BRANCH  34  35
ATOM     35  C   UNL A   1      41.804  21.700  26.055  1.00  0.00     0.261 C 
BRANCH  35  36
ATOM     36  O   UNL A   1      42.314  22.843  26.759  1.00  0.00    -0.460 OA
BRANCH  36  37
ATOM     37  C   UNL A   1      42.555  23.965  26.052  1.00  0.00     0.338 C 
ATOM     38  O   UNL A   1      42.949  24.042  24.899  1.00  0.00    -0.246 OA
BRANCH  37  39
ATOM     39  C   UNL A   1      42.074  25.112  26.847  1.00  0.00     0.060 A 
ATOM     40  C   UNL A   1      42.671  26.366  26.661  1.00  0.00     0.016 A 
ATOM     41  C   UNL A   1      41.040  24.951  27.772  1.00  0.00     0.016 A 
ATOM     42  C   UNL A   1      42.263  27.455  27.432  1.00  0.00     0.010 A 
ATOM     43  C   UNL A   1      40.647  26.038  28.557  1.00  0.00     0.010 A 
ATOM     44  C   UNL A   1      41.282  27.285  28.417  1.00  0.00    -0.014 A 
BRANCH  44  45
ATOM     45  C   UNL A   1      41.069  28.343  29.433  1.00  0.00     0.031 A 
ATOM     46  C   UNL A   1      42.019  28.413  30.599  1.00  0.00     0.074 A 
ATOM     47  C   UNL A   1      40.074  29.240  29.321  1.00  0.00     0.049 A 
ATOM     48  N   UNL A   1      42.008  29.213  31.635  1.00  0.00    -0.248 NA
ATOM     49  C   UNL A   1      43.131  27.448  30.595  1.00  0.00     0.031 C 
ATOM     50  C   UNL A   1      39.120  29.315  28.217  1.00  0.00     0.029 A 
ATOM     51  N   UNL A   1      39.701  30.259  30.161  1.00  0.00    -0.354 N 
ATOM     52  C   UNL A   1      43.102  28.841  32.406  1.00  0.00     0.074 A 
ATOM     53  C   UNL A   1      43.733  27.724  31.740  1.00  0.00     0.031 C 
ATOM     54  C   UNL A   1      38.261  30.322  28.454  1.00  0.00     0.029 A 
ATOM     55  C   UNL A   1      38.582  30.936  29.742  1.00  0.00     0.049 A 
ATOM     56  H   UNL A   1      40.189  30.485  30.987  1.00  0.00     0.167 HD
ATOM     57  C   UNL A   1      43.547  29.383  33.565  1.00  0.00     0.031 A 
ATOM     58  C   UNL A   1      37.882  31.918  30.343  1.00  0.00     0.031 A 
ATOM     59  C   UNL A   1      42.906  30.479  34.241  1.00  0.00     0.049 A 
ATOM     60  C   UNL A   1      38.339  32.443  31.680  1.00  0.00     0.074 A 
ATOM     61  C   UNL A   1      43.281  31.103  35.418  1.00  0.00     0.029 A 
ATOM     62  N   UNL A   1      41.750  31.106  33.806  1.00  0.00    -0.354 N 
ATOM     63  N   UNL A   1      39.386  32.098  32.392  1.00  0.00    -0.248 NA
ATOM     64  C   UNL A   1      37.521  33.500  32.293  1.00  0.00     0.031 C 
ATOM     65  C   UNL A   1      42.315  32.064  35.729  1.00  0.00     0.029 A 
ATOM     66  C   UNL A   1      41.380  32.091  34.706  1.00  0.00     0.049 A 
ATOM     67  H   UNL A   1      41.265  30.886  32.978  1.00  0.00     0.167 HD
ATOM     68  C   UNL A   1      39.369  32.916  33.516  1.00  0.00     0.074 A 
ATOM     69  C   UNL A   1      38.218  33.785  33.383  1.00  0.00     0.031 C 
ATOM     70  C   UNL A   1      40.231  32.949  34.563  1.00  0.00     0.031 A 
BRANCH  57  71
ATOM     71  C   UNL A   1      44.765  28.764  34.194  1.00  0.00    -0.014 A 
ATOM     72  C   UNL A   1      44.695  27.538  34.876  1.00  0.00     0.009 A 
ATOM     73  C   UNL A   1      46.007  29.409  34.086  1.00  0.00     0.009 A 
ATOM     74  C   UNL A   1      45.836  26.991  35.468  1.00  0.00     0.001 A 
ATOM     75  C   UNL A   1      47.152  28.844  34.650  1.00  0.00     0.001 A 
ATOM     76  C   UNL A   1      47.064  27.642  35.349  1.00  0.00     0.000 A 
ENDBRANCH  57  71
BRANCH  58  77
ATOM     77  C   UNL A   1      36.650  32.456  29.703  1.00  0.00    -0.014 A 
ATOM     78  C   UNL A   1      36.729  33.298  28.583  1.00  0.00     0.009 A 
ATOM     79  C   UNL A   1      35.385  32.149  30.230  1.00  0.00     0.009 A 
ATOM     80  C   UNL A   1      35.571  33.841  28.022  1.00  0.00     0.001 A 
ATOM     81  C   UNL A   1      34.227  32.667  29.646  1.00  0.00     0.001 A 
ATOM     82  C   UNL A   1      34.321  33.521  28.550  1.00  0.00     0.000 A 
ENDBRANCH  58  77
BRANCH  70  83
ATOM     83  C   UNL A   1      39.992  33.985  35.629  1.00  0.00    -0.014 A 
ATOM     84  C   UNL A   1      39.226  33.703  36.770  1.00  0.00     0.009 A 
ATOM     85  C   UNL A   1      40.586  35.252  35.506  1.00  0.00     0.009 A 
ATOM     86  C   UNL A   1      39.029  34.682  37.748  1.00  0.00     0.001 A 
ATOM     87  C   UNL A   1      40.417  36.215  36.502  1.00  0.00     0.001 A 
ATOM     88  C   UNL A   1      39.630  35.934  37.616  1.00  0.00     0.000 A 
ENDBRANCH  70  83
ENDBRANCH  44  45
ENDBRANCH  37  39
ENDBRANCH  36  37
ENDBRANCH  35  36
ENDBRANCH  34  35
ENDBRANCH  33  34
ENDBRANCH  32  33
ENDBRANCH  31  32
ENDBRANCH  30  31
ENDBRANCH   1  30
TORSDOF 24
ENDMDL
