MODEL 1
REMARK VINA RESULT:      -9.3      0.000      0.000
REMARK SMILES O=C(CC1CCN(S(=O)(=O)c2cc[nH]c2)CC1)OCCOCCOCCOCCOC(=O)c1ccc(-c2c3nc(c(-c4ccccc4)c4ccc([nH]4)c(-c4ccccc4)c4nc(c(-c5ccccc5)c5ccc2[nH]5)C=C4)C=C3)cc1
REMARK SMILES IDX 23 1 22 2 21 3 20 4 19 5 18 6 2 7 1 8 3 9 4 10 5 11 17 12
REMARK SMILES IDX 6 13 16 14 7 15 8 16 9 17 10 18 11 19 12 20 15 21 13 22
REMARK SMILES IDX 14 23 24 25 25 26 26 27 27 28 28 29 29 30 30 31 31 32 32 33
REMARK SMILES IDX 33 34 34 35 80 36 35 37 79 38 36 39 37 40 38 41 73 42 39 43
REMARK SMILES IDX 78 44 72 45 74 46 40 47 77 48 71 49 70 50 41 52 63 53 48 54
REMARK SMILES IDX 62 55 49 56 52 57 61 58 75 59 50 60 51 61 60 63 76 64 53 65
REMARK SMILES IDX 42 66 43 67 47 68 44 69 46 70 45 71 64 72 65 73 69 74 66 75
REMARK SMILES IDX 68 76 67 77 54 78 55 79 59 80 56 81 58 82 57 83
REMARK H PARENT 14 24 74 51 52 62
REMARK Flexibility Score: inf
ROOT
ATOM      1  C   UNL A   1      46.410  18.386  38.805  1.00  0.00     0.188 C 
ENDROOT
BRANCH   1   2
ATOM      2  C   UNL A   1      45.673  17.411  39.711  1.00  0.00     0.188 C 
BRANCH   2   3
ATOM      3  O   UNL A   1      45.212  16.152  39.249  1.00  0.00    -0.376 OA
BRANCH   3   4
ATOM      4  C   UNL A   1      43.889  15.840  38.868  1.00  0.00     0.202 C 
BRANCH   4   5
ATOM      5  C   UNL A   1      42.816  15.475  39.889  1.00  0.00     0.261 C 
BRANCH   5   6
ATOM      6  O   UNL A   1      41.994  14.342  39.609  1.00  0.00    -0.463 OA
BRANCH   6   7
ATOM      7  C   UNL A   1      41.767  13.306  40.441  1.00  0.00     0.306 C 
ATOM      8  O   UNL A   1      40.936  12.457  40.123  1.00  0.00    -0.252 OA
BRANCH   7   9
ATOM      9  C   UNL A   1      42.355  13.305  41.836  1.00  0.00     0.126 C 
BRANCH   9  10
ATOM     10  C   UNL A   1      41.452  12.938  43.009  1.00  0.00     0.003 C 
ATOM     11  C   UNL A   1      41.639  13.870  44.199  1.00  0.00     0.021 C 
ATOM     12  C   UNL A   1      41.693  11.484  43.424  1.00  0.00     0.021 C 
ATOM     13  C   UNL A   1      43.002  13.684  44.847  1.00  0.00     0.103 C 
ATOM     14  C   UNL A   1      43.050  11.309  44.084  1.00  0.00     0.103 C 
ATOM     15  N   UNL A   1      43.195  12.257  45.224  1.00  0.00    -0.198 NA
BRANCH  15  16
ATOM     16  S   UNL A   1      44.643  12.041  46.117  1.00  0.00     0.244 S 
ATOM     17  O   UNL A   1      44.824  10.610  46.326  1.00  0.00    -0.207 OA
ATOM     18  O   UNL A   1      45.665  12.862  45.536  1.00  0.00    -0.207 OA
BRANCH  16  19
ATOM     19  C   UNL A   1      44.379  12.686  47.698  1.00  0.00     0.100 A 
ATOM     20  C   UNL A   1      43.122  13.014  48.268  1.00  0.00     0.041 A 
ATOM     21  C   UNL A   1      45.353  13.028  48.615  1.00  0.00     0.104 A 
ATOM     22  C   UNL A   1      43.370  13.576  49.500  1.00  0.00     0.083 A 
ATOM     23  N   UNL A   1      44.725  13.557  49.712  1.00  0.00    -0.366 N 
ATOM     24  H   UNL A   1      45.177  13.874  50.527  1.00  0.00     0.165 HD
ENDBRANCH  16  19
ENDBRANCH  15  16
ENDBRANCH   9  10
ENDBRANCH   7   9
ENDBRANCH   6   7
ENDBRANCH   5   6
ENDBRANCH   4   5
ENDBRANCH   3   4
ENDBRANCH   2   3
ENDBRANCH   1   2
BRANCH   1  25
ATOM     25  O   UNL A   1      45.623  19.097  37.873  1.00  0.00    -0.377 OA
BRANCH  25  26
ATOM     26  C   UNL A   1      45.440  18.443  36.637  1.00  0.00     0.188 C 
BRANCH  26  27
ATOM     27  C   UNL A   1      45.357  19.387  35.424  1.00  0.00     0.188 C 
BRANCH  27  28
ATOM     28  O   UNL A   1      46.499  19.864  34.734  1.00  0.00    -0.376 OA
BRANCH  28  29
ATOM     29  C   UNL A   1      47.416  20.852  35.173  1.00  0.00     0.202 C 
BRANCH  29  30
ATOM     30  C   UNL A   1      47.329  22.362  34.952  1.00  0.00     0.261 C 
BRANCH  30  31
ATOM     31  O   UNL A   1      46.134  22.832  34.391  1.00  0.00    -0.460 OA
BRANCH  31  32
ATOM     32  C   UNL A   1      45.660  23.894  35.052  1.00  0.00     0.338 C 
ATOM     33  O   UNL A   1      45.280  23.967  36.207  1.00  0.00    -0.246 OA
BRANCH  32  34
ATOM     34  C   UNL A   1      45.564  24.988  34.105  1.00  0.00     0.060 A 
ATOM     35  C   UNL A   1      44.273  25.300  33.684  1.00  0.00     0.016 A 
ATOM     36  C   UNL A   1      46.718  25.225  33.350  1.00  0.00     0.016 A 
ATOM     37  C   UNL A   1      44.113  25.615  32.364  1.00  0.00     0.010 A 
ATOM     38  C   UNL A   1      46.551  25.456  32.015  1.00  0.00     0.010 A 
ATOM     39  C   UNL A   1      45.247  25.598  31.538  1.00  0.00    -0.014 A 
BRANCH  39  40
ATOM     40  C   UNL A   1      45.036  25.911  30.137  1.00  0.00     0.031 A 
ATOM     41  C   UNL A   1      44.539  24.656  29.431  1.00  0.00     0.074 A 
ATOM     42  C   UNL A   1      45.436  27.163  29.758  1.00  0.00     0.049 A 
ATOM     43  N   UNL A   1      44.767  24.271  28.221  1.00  0.00    -0.248 NA
ATOM     44  C   UNL A   1      43.770  23.620  30.187  1.00  0.00     0.031 C 
ATOM     45  C   UNL A   1      45.862  28.247  30.683  1.00  0.00     0.029 A 
ATOM     46  N   UNL A   1      45.592  27.780  28.540  1.00  0.00    -0.354 N 
ATOM     47  C   UNL A   1      44.050  23.080  28.014  1.00  0.00     0.074 A 
ATOM     48  C   UNL A   1      43.550  22.664  29.285  1.00  0.00     0.031 C 
ATOM     49  C   UNL A   1      46.299  29.328  29.996  1.00  0.00     0.029 A 
ATOM     50  C   UNL A   1      46.198  29.063  28.575  1.00  0.00     0.049 A 
ATOM     51  H   UNL A   1      45.303  27.359  27.699  1.00  0.00     0.167 HD
ATOM     52  C   UNL A   1      43.794  22.601  26.768  1.00  0.00     0.031 A 
ATOM     53  C   UNL A   1      46.637  29.825  27.526  1.00  0.00     0.031 A 
ATOM     54  C   UNL A   1      44.467  23.398  25.799  1.00  0.00     0.049 A 
ATOM     55  C   UNL A   1      46.228  29.095  26.318  1.00  0.00     0.074 A 
ATOM     56  C   UNL A   1      45.799  23.539  25.503  1.00  0.00     0.029 A 
ATOM     57  N   UNL A   1      43.778  24.495  25.339  1.00  0.00    -0.354 N 
ATOM     58  N   UNL A   1      45.012  29.015  25.871  1.00  0.00    -0.248 NA
ATOM     59  C   UNL A   1      47.235  28.301  25.600  1.00  0.00     0.031 C 
ATOM     60  C   UNL A   1      45.939  24.931  25.322  1.00  0.00     0.029 A 
ATOM     61  C   UNL A   1      44.675  25.530  25.260  1.00  0.00     0.049 A 
ATOM     62  H   UNL A   1      42.821  24.532  25.112  1.00  0.00     0.167 HD
ATOM     63  C   UNL A   1      45.063  27.876  25.106  1.00  0.00     0.074 A 
ATOM     64  C   UNL A   1      46.445  27.713  24.705  1.00  0.00     0.031 C 
ATOM     65  C   UNL A   1      44.168  26.879  25.327  1.00  0.00     0.031 A 
BRANCH  52  66
ATOM     66  C   UNL A   1      42.755  21.637  26.296  1.00  0.00    -0.014 A 
ATOM     67  C   UNL A   1      41.409  21.971  26.564  1.00  0.00     0.009 A 
ATOM     68  C   UNL A   1      43.036  20.316  25.931  1.00  0.00     0.009 A 
ATOM     69  C   UNL A   1      40.410  21.001  26.609  1.00  0.00     0.001 A 
ATOM     70  C   UNL A   1      42.023  19.348  25.934  1.00  0.00     0.001 A 
ATOM     71  C   UNL A   1      40.724  19.682  26.314  1.00  0.00     0.000 A 
ENDBRANCH  52  66
BRANCH  53  72
ATOM     72  C   UNL A   1      47.447  31.074  27.286  1.00  0.00    -0.014 A 
ATOM     73  C   UNL A   1      47.027  32.219  26.607  1.00  0.00     0.009 A 
ATOM     74  C   UNL A   1      48.770  31.130  27.810  1.00  0.00     0.009 A 
ATOM     75  C   UNL A   1      47.855  33.366  26.535  1.00  0.00     0.001 A 
ATOM     76  C   UNL A   1      49.576  32.269  27.780  1.00  0.00     0.001 A 
ATOM     77  C   UNL A   1      49.110  33.401  27.146  1.00  0.00     0.000 A 
ENDBRANCH  53  72
BRANCH  65  78
ATOM     78  C   UNL A   1      42.876  27.308  26.010  1.00  0.00    -0.014 A 
ATOM     79  C   UNL A   1      42.208  28.461  25.569  1.00  0.00     0.009 A 
ATOM     80  C   UNL A   1      42.369  26.681  27.163  1.00  0.00     0.009 A 
ATOM     81  C   UNL A   1      41.105  28.979  26.261  1.00  0.00     0.001 A 
ATOM     82  C   UNL A   1      41.267  27.199  27.864  1.00  0.00     0.001 A 
ATOM     83  C   UNL A   1      40.637  28.354  27.412  1.00  0.00     0.000 A 
ENDBRANCH  65  78
ENDBRANCH  39  40
ENDBRANCH  32  34
ENDBRANCH  31  32
ENDBRANCH  30  31
ENDBRANCH  29  30
ENDBRANCH  28  29
ENDBRANCH  27  28
ENDBRANCH  26  27
ENDBRANCH  25  26
ENDBRANCH   1  25
TORSDOF 23
ENDMDL
MODEL 2
REMARK VINA RESULT:      -9.3     10.256     15.682
REMARK SMILES O=C(CC1CCN(S(=O)(=O)c2cc[nH]c2)CC1)OCCOCCOCCOCCOC(=O)c1ccc(-c2c3nc(c(-c4ccccc4)c4ccc([nH]4)c(-c4ccccc4)c4nc(c(-c5ccccc5)c5ccc2[nH]5)C=C4)C=C3)cc1
REMARK SMILES IDX 23 1 22 2 21 3 20 4 19 5 18 6 2 7 1 8 3 9 4 10 5 11 17 12
REMARK SMILES IDX 6 13 16 14 7 15 8 16 9 17 10 18 11 19 12 20 15 21 13 22
REMARK SMILES IDX 14 23 24 25 25 26 26 27 27 28 28 29 29 30 30 31 31 32 32 33
REMARK SMILES IDX 33 34 34 35 80 36 35 37 79 38 36 39 37 40 38 41 73 42 39 43
REMARK SMILES IDX 78 44 72 45 74 46 40 47 77 48 71 49 70 50 41 52 63 53 48 54
REMARK SMILES IDX 62 55 49 56 52 57 61 58 75 59 50 60 51 61 60 63 76 64 53 65
REMARK SMILES IDX 42 66 43 67 47 68 44 69 46 70 45 71 64 72 65 73 69 74 66 75
REMARK SMILES IDX 68 76 67 77 54 78 55 79 59 80 56 81 58 82 57 83
REMARK H PARENT 14 24 74 51 52 62
REMARK Flexibility Score: inf
ROOT
ATOM      1  C   UNL A   1      38.612  21.904  25.951  1.00  0.00     0.188 C 
ENDROOT
BRANCH   1   2
ATOM      2  C   UNL A   1      37.921  20.978  24.960  1.00  0.00     0.188 C 
BRANCH   2   3
ATOM      3  O   UNL A   1      36.765  21.372  24.239  1.00  0.00    -0.376 OA
BRANCH   3   4
ATOM      4  C   UNL A   1      35.447  21.417  24.742  1.00  0.00     0.202 C 
BRANCH   4   5
ATOM      5  C   UNL A   1      34.633  20.152  24.993  1.00  0.00     0.261 C 
BRANCH   5   6
ATOM      6  O   UNL A   1      33.213  20.246  24.882  1.00  0.00    -0.463 OA
BRANCH   6   7
ATOM      7  C   UNL A   1      32.533  21.227  24.256  1.00  0.00     0.306 C 
ATOM      8  O   UNL A   1      32.198  21.066  23.083  1.00  0.00    -0.252 OA
BRANCH   7   9
ATOM      9  C   UNL A   1      32.381  22.584  24.907  1.00  0.00     0.126 C 
BRANCH   9  10
ATOM     10  C   UNL A   1      31.016  23.265  24.868  1.00  0.00     0.003 C 
ATOM     11  C   UNL A   1      30.640  23.731  23.469  1.00  0.00     0.021 C 
ATOM     12  C   UNL A   1      30.984  24.438  25.852  1.00  0.00     0.021 C 
ATOM     13  C   UNL A   1      31.521  24.881  23.007  1.00  0.00     0.103 C 
ATOM     14  C   UNL A   1      31.855  25.589  25.375  1.00  0.00     0.103 C 
ATOM     15  N   UNL A   1      31.466  25.993  23.995  1.00  0.00    -0.198 NA
BRANCH  15  16
ATOM     16  S   UNL A   1      32.304  27.375  23.423  1.00  0.00     0.244 S 
ATOM     17  O   UNL A   1      33.271  27.761  24.444  1.00  0.00    -0.207 OA
ATOM     18  O   UNL A   1      32.686  27.146  22.059  1.00  0.00    -0.207 OA
BRANCH  16  19
ATOM     19  C   UNL A   1      31.176  28.682  23.371  1.00  0.00     0.100 A 
ATOM     20  C   UNL A   1      30.423  29.093  22.240  1.00  0.00     0.041 A 
ATOM     21  C   UNL A   1      30.882  29.551  24.402  1.00  0.00     0.104 A 
ATOM     22  C   UNL A   1      29.721  30.218  22.608  1.00  0.00     0.083 A 
ATOM     23  N   UNL A   1      29.987  30.473  23.929  1.00  0.00    -0.366 N 
ATOM     24  H   UNL A   1      29.594  31.206  24.456  1.00  0.00     0.165 HD
ENDBRANCH  16  19
ENDBRANCH  15  16
ENDBRANCH   9  10
ENDBRANCH   7   9
ENDBRANCH   6   7
ENDBRANCH   5   6
ENDBRANCH   4   5
ENDBRANCH   3   4
ENDBRANCH   2   3
ENDBRANCH   1   2
BRANCH   1  25
ATOM     25  O   UNL A   1      40.008  21.744  26.094  1.00  0.00    -0.377 OA
BRANCH  25  26
ATOM     26  C   UNL A   1      40.399  20.580  26.789  1.00  0.00     0.188 C 
BRANCH  26  27
ATOM     27  C   UNL A   1      41.244  19.599  25.958  1.00  0.00     0.188 C 
BRANCH  27  28
ATOM     28  O   UNL A   1      42.568  19.231  26.306  1.00  0.00    -0.376 OA
BRANCH  28  29
ATOM     29  C   UNL A   1      43.698  19.185  25.451  1.00  0.00     0.202 C 
BRANCH  29  30
ATOM     30  C   UNL A   1      44.579  20.356  25.016  1.00  0.00     0.261 C 
BRANCH  30  31
ATOM     31  O   UNL A   1      44.302  21.590  25.618  1.00  0.00    -0.460 OA
BRANCH  31  32
ATOM     32  C   UNL A   1      44.462  22.606  24.763  1.00  0.00     0.338 C 
ATOM     33  O   UNL A   1      45.226  22.697  23.819  1.00  0.00    -0.246 OA
BRANCH  32  34
ATOM     34  C   UNL A   1      43.610  23.690  25.213  1.00  0.00     0.060 A 
ATOM     35  C   UNL A   1      44.060  24.971  24.903  1.00  0.00     0.016 A 
ATOM     36  C   UNL A   1      42.786  23.387  26.304  1.00  0.00     0.016 A 
ATOM     37  C   UNL A   1      43.898  25.932  25.861  1.00  0.00     0.010 A 
ATOM     38  C   UNL A   1      42.698  24.321  27.294  1.00  0.00     0.010 A 
ATOM     39  C   UNL A   1      43.300  25.561  27.074  1.00  0.00    -0.014 A 
BRANCH  39  40
ATOM     40  C   UNL A   1      43.168  26.601  28.079  1.00  0.00     0.031 A 
ATOM     41  C   UNL A   1      44.193  26.345  29.175  1.00  0.00     0.074 A 
ATOM     42  C   UNL A   1      42.117  27.456  27.891  1.00  0.00     0.049 A 
ATOM     43  N   UNL A   1      44.094  26.579  30.440  1.00  0.00    -0.248 NA
ATOM     44  C   UNL A   1      45.472  25.634  28.861  1.00  0.00     0.031 C 
ATOM     45  C   UNL A   1      41.265  27.518  26.673  1.00  0.00     0.029 A 
ATOM     46  N   UNL A   1      41.533  28.425  28.671  1.00  0.00    -0.354 N 
ATOM     47  C   UNL A   1      45.318  26.226  31.034  1.00  0.00     0.074 A 
ATOM     48  C   UNL A   1      46.085  25.545  30.042  1.00  0.00     0.031 C 
ATOM     49  C   UNL A   1      40.247  28.393  26.838  1.00  0.00     0.029 A 
ATOM     50  C   UNL A   1      40.334  28.986  28.158  1.00  0.00     0.049 A 
ATOM     51  H   UNL A   1      41.919  28.710  29.530  1.00  0.00     0.167 HD
ATOM     52  C   UNL A   1      45.668  26.660  32.273  1.00  0.00     0.031 A 
ATOM     53  C   UNL A   1      39.452  29.825  28.783  1.00  0.00     0.031 A 
ATOM     54  C   UNL A   1      44.579  27.362  32.863  1.00  0.00     0.049 A 
ATOM     55  C   UNL A   1      40.070  30.143  30.078  1.00  0.00     0.074 A 
ATOM     56  C   UNL A   1      43.362  26.931  33.327  1.00  0.00     0.029 A 
ATOM     57  N   UNL A   1      44.513  28.708  32.590  1.00  0.00    -0.354 N 
ATOM     58  N   UNL A   1      41.084  30.936  30.244  1.00  0.00    -0.248 NA
ATOM     59  C   UNL A   1      39.590  29.446  31.278  1.00  0.00     0.031 C 
ATOM     60  C   UNL A   1      42.473  27.916  32.848  1.00  0.00     0.029 A 
ATOM     61  C   UNL A   1      43.196  29.007  32.353  1.00  0.00     0.049 A 
ATOM     62  H   UNL A   1      45.270  29.338  32.568  1.00  0.00     0.167 HD
ATOM     63  C   UNL A   1      41.583  30.512  31.449  1.00  0.00     0.074 A 
ATOM     64  C   UNL A   1      40.480  29.898  32.158  1.00  0.00     0.031 C 
ATOM     65  C   UNL A   1      42.893  30.166  31.549  1.00  0.00     0.031 A 
BRANCH  52  66
ATOM     66  C   UNL A   1      47.012  26.764  32.918  1.00  0.00    -0.014 A 
ATOM     67  C   UNL A   1      47.725  27.965  32.712  1.00  0.00     0.009 A 
ATOM     68  C   UNL A   1      47.724  25.660  33.402  1.00  0.00     0.009 A 
ATOM     69  C   UNL A   1      49.111  28.024  32.842  1.00  0.00     0.001 A 
ATOM     70  C   UNL A   1      49.112  25.732  33.574  1.00  0.00     0.001 A 
ATOM     71  C   UNL A   1      49.808  26.897  33.254  1.00  0.00     0.000 A 
ENDBRANCH  52  66
BRANCH  53  72
ATOM     72  C   UNL A   1      38.075  30.398  28.563  1.00  0.00    -0.014 A 
ATOM     73  C   UNL A   1      36.970  29.728  28.035  1.00  0.00     0.009 A 
ATOM     74  C   UNL A   1      37.841  31.752  28.939  1.00  0.00     0.009 A 
ATOM     75  C   UNL A   1      35.702  30.355  27.970  1.00  0.00     0.001 A 
ATOM     76  C   UNL A   1      36.587  32.364  28.917  1.00  0.00     0.001 A 
ATOM     77  C   UNL A   1      35.505  31.656  28.439  1.00  0.00     0.000 A 
ENDBRANCH  53  72
BRANCH  65  78
ATOM     78  C   UNL A   1      43.805  30.774  30.492  1.00  0.00    -0.014 A 
ATOM     79  C   UNL A   1      44.057  32.155  30.503  1.00  0.00     0.009 A 
ATOM     80  C   UNL A   1      44.319  30.044  29.404  1.00  0.00     0.009 A 
ATOM     81  C   UNL A   1      44.762  32.781  29.467  1.00  0.00     0.001 A 
ATOM     82  C   UNL A   1      45.021  30.667  28.359  1.00  0.00     0.001 A 
ATOM     83  C   UNL A   1      45.239  32.041  28.390  1.00  0.00     0.000 A 
ENDBRANCH  65  78
ENDBRANCH  39  40
ENDBRANCH  32  34
ENDBRANCH  31  32
ENDBRANCH  30  31
ENDBRANCH  29  30
ENDBRANCH  28  29
ENDBRANCH  27  28
ENDBRANCH  26  27
ENDBRANCH  25  26
ENDBRANCH   1  25
TORSDOF 23
ENDMDL
MODEL 3
REMARK VINA RESULT:      -9.2     11.785     17.019
REMARK SMILES O=C(CC1CCN(S(=O)(=O)c2cc[nH]c2)CC1)OCCOCCOCCOCCOC(=O)c1ccc(-c2c3nc(c(-c4ccccc4)c4ccc([nH]4)c(-c4ccccc4)c4nc(c(-c5ccccc5)c5ccc2[nH]5)C=C4)C=C3)cc1
REMARK SMILES IDX 23 1 22 2 21 3 20 4 19 5 18 6 2 7 1 8 3 9 4 10 5 11 17 12
REMARK SMILES IDX 6 13 16 14 7 15 8 16 9 17 10 18 11 19 12 20 15 21 13 22
REMARK SMILES IDX 14 23 24 25 25 26 26 27 27 28 28 29 29 30 30 31 31 32 32 33
REMARK SMILES IDX 33 34 34 35 80 36 35 37 79 38 36 39 37 40 38 41 73 42 39 43
REMARK SMILES IDX 78 44 72 45 74 46 40 47 77 48 71 49 70 50 41 52 63 53 48 54
REMARK SMILES IDX 62 55 49 56 52 57 61 58 75 59 50 60 51 61 60 63 76 64 53 65
REMARK SMILES IDX 42 66 43 67 47 68 44 69 46 70 45 71 64 72 65 73 69 74 66 75
REMARK SMILES IDX 68 76 67 77 54 78 55 79 59 80 56 81 58 82 57 83
REMARK H PARENT 14 24 74 51 52 62
REMARK Flexibility Score: inf
ROOT
ATOM      1  C   UNL A   1      35.766  32.763  27.820  1.00  0.00     0.188 C 
ENDROOT
BRANCH   1   2
ATOM      2  C   UNL A   1      35.141  31.517  28.431  1.00  0.00     0.188 C 
BRANCH   2   3
ATOM      3  O   UNL A   1      35.041  30.295  27.718  1.00  0.00    -0.376 OA
BRANCH   3   4
ATOM      4  C   UNL A   1      33.992  29.923  26.850  1.00  0.00     0.202 C 
BRANCH   4   5
ATOM      5  C   UNL A   1      34.020  28.620  26.057  1.00  0.00     0.261 C 
BRANCH   5   6
ATOM      6  O   UNL A   1      33.333  28.591  24.806  1.00  0.00    -0.463 OA
BRANCH   6   7
ATOM      7  C   UNL A   1      33.770  27.997  23.679  1.00  0.00     0.306 C 
ATOM      8  O   UNL A   1      34.226  28.695  22.775  1.00  0.00    -0.252 OA
BRANCH   7   9
ATOM      9  C   UNL A   1      33.499  26.527  23.438  1.00  0.00     0.126 C 
BRANCH   9  10
ATOM     10  C   UNL A   1      32.099  26.103  23.006  1.00  0.00     0.003 C 
ATOM     11  C   UNL A   1      31.054  26.375  24.079  1.00  0.00     0.021 C 
ATOM     12  C   UNL A   1      32.094  24.623  22.615  1.00  0.00     0.021 C 
ATOM     13  C   UNL A   1      31.243  25.470  25.286  1.00  0.00     0.103 C 
ATOM     14  C   UNL A   1      32.268  23.725  23.828  1.00  0.00     0.103 C 
ATOM     15  N   UNL A   1      31.241  24.044  24.858  1.00  0.00    -0.198 NA
BRANCH  15  16
ATOM     16  S   UNL A   1      31.273  22.990  26.210  1.00  0.00     0.244 S 
ATOM     17  O   UNL A   1      31.243  23.812  27.413  1.00  0.00    -0.207 OA
ATOM     18  O   UNL A   1      30.331  21.931  25.987  1.00  0.00    -0.207 OA
BRANCH  16  19
ATOM     19  C   UNL A   1      32.822  22.227  26.238  1.00  0.00     0.100 A 
ATOM     20  C   UNL A   1      34.047  22.834  26.619  1.00  0.00     0.041 A 
ATOM     21  C   UNL A   1      33.106  20.935  25.842  1.00  0.00     0.104 A 
ATOM     22  C   UNL A   1      35.041  21.906  26.412  1.00  0.00     0.083 A 
ATOM     23  N   UNL A   1      34.457  20.748  25.964  1.00  0.00    -0.366 N 
ATOM     24  H   UNL A   1      34.936  19.911  25.763  1.00  0.00     0.165 HD
ENDBRANCH  16  19
ENDBRANCH  15  16
ENDBRANCH   9  10
ENDBRANCH   7   9
ENDBRANCH   6   7
ENDBRANCH   5   6
ENDBRANCH   4   5
ENDBRANCH   3   4
ENDBRANCH   2   3
ENDBRANCH   1   2
BRANCH   1  25
ATOM     25  O   UNL A   1      35.000  33.948  27.887  1.00  0.00    -0.377 OA
BRANCH  25  26
ATOM     26  C   UNL A   1      33.703  33.781  28.415  1.00  0.00     0.188 C 
BRANCH  26  27
ATOM     27  C   UNL A   1      33.008  35.093  28.820  1.00  0.00     0.188 C 
BRANCH  27  28
ATOM     28  O   UNL A   1      33.430  35.888  29.914  1.00  0.00    -0.376 OA
BRANCH  28  29
ATOM     29  C   UNL A   1      32.724  36.132  31.120  1.00  0.00     0.202 C 
BRANCH  29  30
ATOM     30  C   UNL A   1      33.074  35.621  32.518  1.00  0.00     0.261 C 
BRANCH  30  31
ATOM     31  O   UNL A   1      33.518  34.295  32.594  1.00  0.00    -0.460 OA
BRANCH  31  32
ATOM     32  C   UNL A   1      34.651  34.190  33.297  1.00  0.00     0.338 C 
ATOM     33  O   UNL A   1      35.053  34.893  34.207  1.00  0.00    -0.246 OA
BRANCH  32  34
ATOM     34  C   UNL A   1      35.425  33.111  32.715  1.00  0.00     0.060 A 
ATOM     35  C   UNL A   1      36.010  32.236  33.627  1.00  0.00     0.016 A 
ATOM     36  C   UNL A   1      35.927  33.362  31.432  1.00  0.00     0.016 A 
ATOM     37  C   UNL A   1      37.275  31.803  33.346  1.00  0.00     0.010 A 
ATOM     38  C   UNL A   1      37.220  33.000  31.188  1.00  0.00     0.010 A 
ATOM     39  C   UNL A   1      37.887  32.269  32.173  1.00  0.00    -0.014 A 
BRANCH  39  40
ATOM     40  C   UNL A   1      39.240  31.810  31.919  1.00  0.00     0.031 A 
ATOM     41  C   UNL A   1      40.197  32.968  32.169  1.00  0.00     0.074 A 
ATOM     42  C   UNL A   1      39.335  30.544  31.410  1.00  0.00     0.049 A 
ATOM     43  N   UNL A   1      41.304  33.240  31.566  1.00  0.00    -0.248 NA
ATOM     44  C   UNL A   1      39.842  34.042  33.147  1.00  0.00     0.031 C 
ATOM     45  C   UNL A   1      38.212  29.574  31.299  1.00  0.00     0.029 A 
ATOM     46  N   UNL A   1      40.366  29.816  30.866  1.00  0.00    -0.354 N 
ATOM     47  C   UNL A   1      41.856  34.375  32.185  1.00  0.00     0.074 A 
ATOM     48  C   UNL A   1      40.864  34.894  33.070  1.00  0.00     0.031 C 
ATOM     49  C   UNL A   1      38.604  28.450  30.658  1.00  0.00     0.029 A 
ATOM     50  C   UNL A   1      40.002  28.568  30.296  1.00  0.00     0.049 A 
ATOM     51  H   UNL A   1      41.295  30.139  30.871  1.00  0.00     0.167 HD
ATOM     52  C   UNL A   1      43.162  34.717  32.028  1.00  0.00     0.031 A 
ATOM     53  C   UNL A   1      40.768  27.724  29.538  1.00  0.00     0.031 A 
ATOM     54  C   UNL A   1      43.774  33.856  31.073  1.00  0.00     0.049 A 
ATOM     55  C   UNL A   1      42.114  28.314  29.539  1.00  0.00     0.074 A 
ATOM     56  C   UNL A   1      43.611  33.740  29.716  1.00  0.00     0.029 A 
ATOM     57  N   UNL A   1      44.310  32.692  31.571  1.00  0.00    -0.354 N 
ATOM     58  N   UNL A   1      42.932  28.301  30.547  1.00  0.00    -0.248 NA
ATOM     59  C   UNL A   1      42.552  29.072  28.360  1.00  0.00     0.031 C 
ATOM     60  C   UNL A   1      43.589  32.344  29.517  1.00  0.00     0.029 A 
ATOM     61  C   UNL A   1      43.987  31.691  30.690  1.00  0.00     0.049 A 
ATOM     62  H   UNL A   1      44.827  32.595  32.404  1.00  0.00     0.167 HD
ATOM     63  C   UNL A   1      43.757  29.359  30.258  1.00  0.00     0.074 A 
ATOM     64  C   UNL A   1      43.710  29.537  28.823  1.00  0.00     0.031 C 
ATOM     65  C   UNL A   1      43.943  30.336  31.183  1.00  0.00     0.031 A 
BRANCH  52  66
ATOM     66  C   UNL A   1      44.042  35.587  32.865  1.00  0.00    -0.014 A 
ATOM     67  C   UNL A   1      43.423  36.672  33.523  1.00  0.00     0.009 A 
ATOM     68  C   UNL A   1      45.438  35.601  32.762  1.00  0.00     0.009 A 
ATOM     69  C   UNL A   1      44.147  37.790  33.931  1.00  0.00     0.001 A 
ATOM     70  C   UNL A   1      46.172  36.706  33.212  1.00  0.00     0.001 A 
ATOM     71  C   UNL A   1      45.524  37.814  33.756  1.00  0.00     0.000 A 
ENDBRANCH  52  66
BRANCH  53  72
ATOM     72  C   UNL A   1      40.601  26.491  28.686  1.00  0.00    -0.014 A 
ATOM     73  C   UNL A   1      41.552  25.491  28.477  1.00  0.00     0.009 A 
ATOM     74  C   UNL A   1      39.352  26.288  28.032  1.00  0.00     0.009 A 
ATOM     75  C   UNL A   1      41.234  24.331  27.729  1.00  0.00     0.001 A 
ATOM     76  C   UNL A   1      39.016  25.130  27.329  1.00  0.00     0.001 A 
ATOM     77  C   UNL A   1      39.963  24.137  27.185  1.00  0.00     0.000 A 
ENDBRANCH  53  72
BRANCH  65  78
ATOM     78  C   UNL A   1      43.667  29.926  32.623  1.00  0.00    -0.014 A 
ATOM     79  C   UNL A   1      44.615  29.160  33.320  1.00  0.00     0.009 A 
ATOM     80  C   UNL A   1      42.440  30.161  33.271  1.00  0.00     0.009 A 
ATOM     81  C   UNL A   1      44.342  28.631  34.589  1.00  0.00     0.001 A 
ATOM     82  C   UNL A   1      42.159  29.628  34.540  1.00  0.00     0.001 A 
ATOM     83  C   UNL A   1      43.112  28.858  35.198  1.00  0.00     0.000 A 
ENDBRANCH  65  78
ENDBRANCH  39  40
ENDBRANCH  32  34
ENDBRANCH  31  32
ENDBRANCH  30  31
ENDBRANCH  29  30
ENDBRANCH  28  29
ENDBRANCH  27  28
ENDBRANCH  26  27
ENDBRANCH  25  26
ENDBRANCH   1  25
TORSDOF 23
ENDMDL
