MODEL 1
REMARK VINA RESULT:      -8.8      0.000      0.000
REMARK SMILES CCC(CC)(NC(=O)Nc1cc(Cl)cc(Cl)c1)C(=O)OCCOCCOCCOCCOC(=O)c1ccc(-c2c3nc(c(-c4ccccc4)c4ccc([nH]4)c(-c4ccccc4)c4nc(c(-c5ccccc5)c5ccc2[nH]5)C=C4)C=C3)cc1
REMARK SMILES IDX 26 1 25 2 24 3 23 4 22 5 21 6 20 7 18 8 19 9 3 10 2 11 1 12
REMARK SMILES IDX 4 13 5 14 6 15 7 16 8 18 9 19 10 21 11 22 17 23 12 24 15 25
REMARK SMILES IDX 13 26 14 27 16 28 27 29 28 30 29 31 30 32 31 33 32 34 33 35
REMARK SMILES IDX 34 36 35 37 36 38 82 39 37 40 81 41 38 42 39 43 40 44 75 45
REMARK SMILES IDX 41 46 80 47 74 48 76 49 42 50 79 51 73 52 72 53 43 55 65 56
REMARK SMILES IDX 50 57 64 58 51 59 54 60 63 61 77 62 52 63 53 64 62 66 78 67
REMARK SMILES IDX 55 68 44 69 45 70 49 71 46 72 48 73 47 74 66 75 67 76 71 77
REMARK SMILES IDX 68 78 70 79 69 80 56 81 57 82 61 83 58 84 60 85 59 86
REMARK H PARENT 6 17 9 20 76 54 54 65
REMARK Flexibility Score: inf
ROOT
ATOM      1  O   UNL A   1      42.096  20.900  25.899  1.00  0.00    -0.377 OA
ENDROOT
BRANCH   1   2
ATOM      2  C   UNL A   1      41.201  21.948  26.252  1.00  0.00     0.188 C 
BRANCH   2   3
ATOM      3  C   UNL A   1      39.709  21.572  26.512  1.00  0.00     0.188 C 
BRANCH   3   4
ATOM      4  O   UNL A   1      38.841  22.084  25.470  1.00  0.00    -0.376 OA
BRANCH   4   5
ATOM      5  C   UNL A   1      37.416  22.204  25.210  1.00  0.00     0.202 C 
BRANCH   5   6
ATOM      6  C   UNL A   1      36.586  23.669  25.149  1.00  0.00     0.261 C 
BRANCH   6   7
ATOM      7  O   UNL A   1      35.074  24.079  24.812  1.00  0.00    -0.461 OA
BRANCH   7   8
ATOM      8  C   UNL A   1      33.950  24.814  25.266  1.00  0.00     0.331 C 
ATOM      9  O   UNL A   1      34.086  25.757  26.048  1.00  0.00    -0.249 OA
BRANCH   8  10
ATOM     10  C   UNL A   1      32.432  24.234  24.888  1.00  0.00     0.139 C 
BRANCH  10  11
ATOM     11  C   UNL A   1      31.020  24.928  24.639  1.00  0.00     0.037 C 
ATOM     12  C   UNL A   1      30.043  25.241  25.738  1.00  0.00     0.007 C 
ENDBRANCH  10  11
BRANCH  10  13
ATOM     13  C   UNL A   1      32.227  23.045  25.859  1.00  0.00     0.037 C 
ATOM     14  C   UNL A   1      31.504  21.805  25.340  1.00  0.00     0.007 C 
ENDBRANCH  10  13
BRANCH  10  15
ATOM     15  N   UNL A   1      32.767  23.873  23.566  1.00  0.00    -0.322 N 
ATOM     16  C   UNL A   1      32.829  24.869  22.673  1.00  0.00     0.320 C 
ATOM     17  H   UNL A   1      32.945  22.937  23.314  1.00  0.00     0.166 HD
ATOM     18  O   UNL A   1      33.361  24.576  21.604  1.00  0.00    -0.248 OA
ATOM     19  N   UNL A   1      32.383  26.158  22.941  1.00  0.00    -0.308 N 
ATOM     20  H   UNL A   1      32.041  26.483  22.076  1.00  0.00     0.171 HD
BRANCH  19  21
ATOM     21  C   UNL A   1      32.165  27.283  23.864  1.00  0.00     0.045 A 
ATOM     22  C   UNL A   1      33.091  27.912  24.717  1.00  0.00     0.046 A 
ATOM     23  C   UNL A   1      31.012  28.061  23.652  1.00  0.00     0.046 A 
ATOM     24  C   UNL A   1      32.845  29.104  25.422  1.00  0.00     0.044 A 
ATOM     25  C   UNL A   1      30.827  29.335  24.229  1.00  0.00     0.044 A 
ATOM     26  Cl  UNL A   1      34.028  29.707  26.520  1.00  0.00    -0.084 Cl
ATOM     27  C   UNL A   1      31.716  29.841  25.159  1.00  0.00     0.041 A 
ATOM     28  Cl  UNL A   1      29.517  30.320  23.705  1.00  0.00    -0.084 Cl
ENDBRANCH  19  21
ENDBRANCH  10  15
ENDBRANCH   8  10
ENDBRANCH   7   8
ENDBRANCH   6   7
ENDBRANCH   5   6
ENDBRANCH   4   5
ENDBRANCH   3   4
ENDBRANCH   2   3
ENDBRANCH   1   2
BRANCH   1  29
ATOM     29  C   UNL A   1      41.975  19.662  26.590  1.00  0.00     0.188 C 
BRANCH  29  30
ATOM     30  C   UNL A   1      42.570  18.468  25.823  1.00  0.00     0.188 C 
BRANCH  30  31
ATOM     31  O   UNL A   1      43.890  18.037  26.142  1.00  0.00    -0.376 OA
BRANCH  31  32
ATOM     32  C   UNL A   1      44.993  18.681  25.517  1.00  0.00     0.202 C 
BRANCH  32  33
ATOM     33  C   UNL A   1      44.719  19.244  24.106  1.00  0.00     0.261 C 
BRANCH  33  34
ATOM     34  O   UNL A   1      44.611  20.674  24.004  1.00  0.00    -0.460 OA
BRANCH  34  35
ATOM     35  C   UNL A   1      45.594  21.398  24.601  1.00  0.00     0.338 C 
ATOM     36  O   UNL A   1      46.786  21.239  24.505  1.00  0.00    -0.246 OA
BRANCH  35  37
ATOM     37  C   UNL A   1      44.971  22.554  25.304  1.00  0.00     0.060 A 
ATOM     38  C   UNL A   1      44.509  23.634  24.537  1.00  0.00     0.016 A 
ATOM     39  C   UNL A   1      44.881  22.596  26.697  1.00  0.00     0.016 A 
ATOM     40  C   UNL A   1      44.064  24.798  25.156  1.00  0.00     0.010 A 
ATOM     41  C   UNL A   1      44.491  23.785  27.323  1.00  0.00     0.010 A 
ATOM     42  C   UNL A   1      44.170  24.914  26.546  1.00  0.00    -0.014 A 
BRANCH  42  43
ATOM     43  C   UNL A   1      44.375  26.279  27.093  1.00  0.00     0.031 A 
ATOM     44  C   UNL A   1      43.144  27.014  27.571  1.00  0.00     0.074 A 
ATOM     45  C   UNL A   1      45.596  26.807  27.282  1.00  0.00     0.049 A 
ATOM     46  N   UNL A   1      43.038  28.190  28.135  1.00  0.00    -0.248 NA
ATOM     47  C   UNL A   1      41.856  26.321  27.392  1.00  0.00     0.031 C 
ATOM     48  C   UNL A   1      46.863  26.162  26.948  1.00  0.00     0.029 A 
ATOM     49  N   UNL A   1      45.960  28.013  27.826  1.00  0.00    -0.354 N 
ATOM     50  C   UNL A   1      41.678  28.376  28.358  1.00  0.00     0.074 A 
ATOM     51  C   UNL A   1      40.994  27.216  27.842  1.00  0.00     0.031 C 
ATOM     52  C   UNL A   1      47.871  26.982  27.301  1.00  0.00     0.029 A 
ATOM     53  C   UNL A   1      47.316  28.216  27.855  1.00  0.00     0.049 A 
ATOM     54  H   UNL A   1      45.309  28.670  28.161  1.00  0.00     0.167 HD
ATOM     55  C   UNL A   1      41.046  29.418  28.947  1.00  0.00     0.031 A 
ATOM     56  C   UNL A   1      48.023  29.284  28.275  1.00  0.00     0.031 A 
ATOM     57  C   UNL A   1      41.723  30.576  29.458  1.00  0.00     0.049 A 
ATOM     58  C   UNL A   1      47.292  30.473  28.847  1.00  0.00     0.074 A 
ATOM     59  C   UNL A   1      41.181  31.689  30.075  1.00  0.00     0.029 A 
ATOM     60  N   UNL A   1      43.093  30.771  29.402  1.00  0.00    -0.354 N 
ATOM     61  N   UNL A   1      46.007  30.637  29.055  1.00  0.00    -0.248 NA
ATOM     62  C   UNL A   1      48.117  31.618  29.255  1.00  0.00     0.031 C 
ATOM     63  C   UNL A   1      42.220  32.589  30.332  1.00  0.00     0.029 A 
ATOM     64  C   UNL A   1      43.415  32.000  29.951  1.00  0.00     0.049 A 
ATOM     65  H   UNL A   1      43.742  30.131  29.029  1.00  0.00     0.167 HD
ATOM     66  C   UNL A   1      45.876  31.883  29.661  1.00  0.00     0.074 A 
ATOM     67  C   UNL A   1      47.212  32.424  29.793  1.00  0.00     0.031 C 
ATOM     68  C   UNL A   1      44.752  32.519  30.079  1.00  0.00     0.031 A 
BRANCH  55  69
ATOM     69  C   UNL A   1      39.542  29.368  29.009  1.00  0.00    -0.014 A 
ATOM     70  C   UNL A   1      38.742  29.728  27.912  1.00  0.00     0.009 A 
ATOM     71  C   UNL A   1      38.919  28.951  30.195  1.00  0.00     0.009 A 
ATOM     72  C   UNL A   1      37.349  29.709  28.017  1.00  0.00     0.001 A 
ATOM     73  C   UNL A   1      37.527  28.899  30.286  1.00  0.00     0.001 A 
ATOM     74  C   UNL A   1      36.743  29.289  29.202  1.00  0.00     0.000 A 
ENDBRANCH  55  69
BRANCH  56  75
ATOM     75  C   UNL A   1      49.507  29.293  28.167  1.00  0.00    -0.014 A 
ATOM     76  C   UNL A   1      50.142  29.759  27.004  1.00  0.00     0.009 A 
ATOM     77  C   UNL A   1      50.299  28.800  29.216  1.00  0.00     0.009 A 
ATOM     78  C   UNL A   1      51.533  29.700  26.883  1.00  0.00     0.001 A 
ATOM     79  C   UNL A   1      51.690  28.774  29.106  1.00  0.00     0.001 A 
ATOM     80  C   UNL A   1      52.307  29.213  27.935  1.00  0.00     0.000 A 
ENDBRANCH  56  75
BRANCH  68  81
ATOM     81  C   UNL A   1      44.926  33.838  30.782  1.00  0.00    -0.014 A 
ATOM     82  C   UNL A   1      44.889  35.059  30.092  1.00  0.00     0.009 A 
ATOM     83  C   UNL A   1      45.101  33.853  32.178  1.00  0.00     0.009 A 
ATOM     84  C   UNL A   1      45.076  36.263  30.776  1.00  0.00     0.001 A 
ATOM     85  C   UNL A   1      45.249  35.058  32.862  1.00  0.00     0.001 A 
ATOM     86  C   UNL A   1      45.252  36.261  32.160  1.00  0.00     0.000 A 
ENDBRANCH  68  81
ENDBRANCH  42  43
ENDBRANCH  35  37
ENDBRANCH  34  35
ENDBRANCH  33  34
ENDBRANCH  32  33
ENDBRANCH  31  32
ENDBRANCH  30  31
ENDBRANCH  29  30
ENDBRANCH   1  29
TORSDOF 24
ENDMDL
MODEL 2
REMARK VINA RESULT:      -8.7      4.043      7.444
REMARK SMILES CCC(CC)(NC(=O)Nc1cc(Cl)cc(Cl)c1)C(=O)OCCOCCOCCOCCOC(=O)c1ccc(-c2c3nc(c(-c4ccccc4)c4ccc([nH]4)c(-c4ccccc4)c4nc(c(-c5ccccc5)c5ccc2[nH]5)C=C4)C=C3)cc1
REMARK SMILES IDX 26 1 25 2 24 3 23 4 22 5 21 6 20 7 18 8 19 9 3 10 2 11 1 12
REMARK SMILES IDX 4 13 5 14 6 15 7 16 8 18 9 19 10 21 11 22 17 23 12 24 15 25
REMARK SMILES IDX 13 26 14 27 16 28 27 29 28 30 29 31 30 32 31 33 32 34 33 35
REMARK SMILES IDX 34 36 35 37 36 38 82 39 37 40 81 41 38 42 39 43 40 44 75 45
REMARK SMILES IDX 41 46 80 47 74 48 76 49 42 50 79 51 73 52 72 53 43 55 65 56
REMARK SMILES IDX 50 57 64 58 51 59 54 60 63 61 77 62 52 63 53 64 62 66 78 67
REMARK SMILES IDX 55 68 44 69 45 70 49 71 46 72 48 73 47 74 66 75 67 76 71 77
REMARK SMILES IDX 68 78 70 79 69 80 56 81 57 82 61 83 58 84 60 85 59 86
REMARK H PARENT 6 17 9 20 76 54 54 65
REMARK Flexibility Score: inf
ROOT
ATOM      1  O   UNL A   1      39.839  22.372  26.103  1.00  0.00    -0.377 OA
ENDROOT
BRANCH   1   2
ATOM      2  C   UNL A   1      38.530  22.817  26.438  1.00  0.00     0.188 C 
BRANCH   2   3
ATOM      3  C   UNL A   1      37.423  22.706  25.345  1.00  0.00     0.188 C 
BRANCH   3   4
ATOM      4  O   UNL A   1      36.441  23.766  25.471  1.00  0.00    -0.376 OA
BRANCH   4   5
ATOM      5  C   UNL A   1      35.198  24.169  24.838  1.00  0.00     0.202 C 
BRANCH   5   6
ATOM      6  C   UNL A   1      33.810  24.623  25.680  1.00  0.00     0.261 C 
BRANCH   6   7
ATOM      7  O   UNL A   1      32.451  25.365  25.270  1.00  0.00    -0.461 OA
BRANCH   7   8
ATOM      8  C   UNL A   1      31.812  26.626  25.163  1.00  0.00     0.331 C 
ATOM      9  O   UNL A   1      30.586  26.722  25.241  1.00  0.00    -0.249 OA
BRANCH   8  10
ATOM     10  C   UNL A   1      32.742  27.937  24.712  1.00  0.00     0.139 C 
BRANCH  10  11
ATOM     11  C   UNL A   1      33.965  28.701  25.387  1.00  0.00     0.037 C 
ATOM     12  C   UNL A   1      34.300  28.604  26.850  1.00  0.00     0.007 C 
ENDBRANCH  10  11
BRANCH  10  13
ATOM     13  C   UNL A   1      31.708  28.990  24.240  1.00  0.00     0.037 C 
ATOM     14  C   UNL A   1      31.366  30.140  25.184  1.00  0.00     0.007 C 
ENDBRANCH  10  13
BRANCH  10  15
ATOM     15  N   UNL A   1      33.415  27.257  23.676  1.00  0.00    -0.322 N 
ATOM     16  C   UNL A   1      32.818  27.254  22.478  1.00  0.00     0.320 C 
ATOM     17  H   UNL A   1      34.279  26.807  23.827  1.00  0.00     0.166 HD
ATOM     18  O   UNL A   1      33.526  26.882  21.545  1.00  0.00    -0.248 OA
ATOM     19  N   UNL A   1      31.513  27.691  22.278  1.00  0.00    -0.308 N 
ATOM     20  H   UNL A   1      31.172  27.118  21.554  1.00  0.00     0.171 HD
BRANCH  19  21
ATOM     21  C   UNL A   1      30.385  28.579  22.603  1.00  0.00     0.045 A 
ATOM     22  C   UNL A   1      30.128  29.881  22.134  1.00  0.00     0.046 A 
ATOM     23  C   UNL A   1      29.247  27.974  23.168  1.00  0.00     0.046 A 
ATOM     24  C   UNL A   1      28.928  30.581  22.345  1.00  0.00     0.044 A 
ATOM     25  C   UNL A   1      27.991  28.614  23.238  1.00  0.00     0.044 A 
ATOM     26  Cl  UNL A   1      28.787  32.214  21.811  1.00  0.00    -0.084 Cl
ATOM     27  C   UNL A   1      27.836  29.939  22.877  1.00  0.00     0.041 A 
ATOM     28  Cl  UNL A   1      26.604  27.706  23.700  1.00  0.00    -0.084 Cl
ENDBRANCH  19  21
ENDBRANCH  10  15
ENDBRANCH   8  10
ENDBRANCH   7   8
ENDBRANCH   6   7
ENDBRANCH   5   6
ENDBRANCH   4   5
ENDBRANCH   3   4
ENDBRANCH   2   3
ENDBRANCH   1   2
BRANCH   1  29
ATOM     29  C   UNL A   1      40.350  21.235  26.787  1.00  0.00     0.188 C 
BRANCH  29  30
ATOM     30  C   UNL A   1      41.672  20.707  26.203  1.00  0.00     0.188 C 
BRANCH  30  31
ATOM     31  O   UNL A   1      42.890  21.010  26.877  1.00  0.00    -0.376 OA
BRANCH  31  32
ATOM     32  C   UNL A   1      43.513  22.265  26.638  1.00  0.00     0.202 C 
BRANCH  32  33
ATOM     33  C   UNL A   1      43.651  22.665  25.153  1.00  0.00     0.261 C 
BRANCH  33  34
ATOM     34  O   UNL A   1      42.966  23.865  24.755  1.00  0.00    -0.460 OA
BRANCH  34  35
ATOM     35  C   UNL A   1      43.571  25.040  25.071  1.00  0.00     0.338 C 
ATOM     36  O   UNL A   1      44.699  25.379  24.810  1.00  0.00    -0.246 OA
BRANCH  35  37
ATOM     37  C   UNL A   1      42.560  25.945  25.684  1.00  0.00     0.060 A 
ATOM     38  C   UNL A   1      42.868  27.308  25.806  1.00  0.00     0.016 A 
ATOM     39  C   UNL A   1      41.346  25.456  26.170  1.00  0.00     0.016 A 
ATOM     40  C   UNL A   1      42.024  28.162  26.509  1.00  0.00     0.010 A 
ATOM     41  C   UNL A   1      40.523  26.296  26.928  1.00  0.00     0.010 A 
ATOM     42  C   UNL A   1      40.914  27.627  27.172  1.00  0.00    -0.014 A 
BRANCH  42  43
ATOM     43  C   UNL A   1      40.469  28.321  28.406  1.00  0.00     0.031 A 
ATOM     44  C   UNL A   1      41.311  28.117  29.645  1.00  0.00     0.074 A 
ATOM     45  C   UNL A   1      39.445  29.190  28.419  1.00  0.00     0.049 A 
ATOM     46  N   UNL A   1      41.185  28.639  30.838  1.00  0.00    -0.248 NA
ATOM     47  C   UNL A   1      42.460  27.203  29.513  1.00  0.00     0.031 C 
ATOM     48  C   UNL A   1      38.613  29.542  27.271  1.00  0.00     0.029 A 
ATOM     49  N   UNL A   1      38.949  29.953  29.446  1.00  0.00    -0.354 N 
ATOM     50  C   UNL A   1      42.223  28.102  31.592  1.00  0.00     0.074 A 
ATOM     51  C   UNL A   1      42.949  27.193  30.740  1.00  0.00     0.031 C 
ATOM     52  C   UNL A   1      37.707  30.460  27.659  1.00  0.00     0.029 A 
ATOM     53  C   UNL A   1      37.880  30.734  29.085  1.00  0.00     0.049 A 
ATOM     54  H   UNL A   1      39.324  29.939  30.356  1.00  0.00     0.167 HD
ATOM     55  C   UNL A   1      42.553  28.346  32.882  1.00  0.00     0.031 A 
ATOM     56  C   UNL A   1      37.126  31.567  29.829  1.00  0.00     0.031 A 
ATOM     57  C   UNL A   1      41.830  29.246  33.734  1.00  0.00     0.049 A 
ATOM     58  C   UNL A   1      37.457  31.755  31.288  1.00  0.00     0.074 A 
ATOM     59  C   UNL A   1      42.078  29.568  35.056  1.00  0.00     0.029 A 
ATOM     60  N   UNL A   1      40.710  29.963  33.346  1.00  0.00    -0.354 N 
ATOM     61  N   UNL A   1      38.442  31.246  31.990  1.00  0.00    -0.248 NA
ATOM     62  C   UNL A   1      36.576  32.651  32.052  1.00  0.00     0.031 C 
ATOM     63  C   UNL A   1      41.065  30.431  35.488  1.00  0.00     0.029 A 
ATOM     64  C   UNL A   1      40.237  30.709  34.412  1.00  0.00     0.049 A 
ATOM     65  H   UNL A   1      40.310  29.946  32.447  1.00  0.00     0.167 HD
ATOM     66  C   UNL A   1      38.325  31.795  33.264  1.00  0.00     0.074 A 
ATOM     67  C   UNL A   1      37.181  32.681  33.232  1.00  0.00     0.031 C 
ATOM     68  C   UNL A   1      39.100  31.591  34.359  1.00  0.00     0.031 A 
BRANCH  55  69
ATOM     69  C   UNL A   1      43.712  27.575  33.456  1.00  0.00    -0.014 A 
ATOM     70  C   UNL A   1      45.042  27.990  33.273  1.00  0.00     0.009 A 
ATOM     71  C   UNL A   1      43.462  26.410  34.196  1.00  0.00     0.009 A 
ATOM     72  C   UNL A   1      46.096  27.230  33.786  1.00  0.00     0.001 A 
ATOM     73  C   UNL A   1      44.515  25.672  34.738  1.00  0.00     0.001 A 
ATOM     74  C   UNL A   1      45.832  26.075  34.522  1.00  0.00     0.000 A 
ENDBRANCH  55  69
BRANCH  56  75
ATOM     75  C   UNL A   1      35.974  32.284  29.219  1.00  0.00    -0.014 A 
ATOM     76  C   UNL A   1      34.795  31.600  28.882  1.00  0.00     0.009 A 
ATOM     77  C   UNL A   1      36.061  33.656  28.936  1.00  0.00     0.009 A 
ATOM     78  C   UNL A   1      33.743  32.266  28.247  1.00  0.00     0.001 A 
ATOM     79  C   UNL A   1      34.996  34.328  28.332  1.00  0.00     0.001 A 
ATOM     80  C   UNL A   1      33.843  33.630  27.977  1.00  0.00     0.000 A 
ENDBRANCH  56  75
BRANCH  68  81
ATOM     81  C   UNL A   1      38.779  32.394  35.591  1.00  0.00    -0.014 A 
ATOM     82  C   UNL A   1      38.007  31.870  36.639  1.00  0.00     0.009 A 
ATOM     83  C   UNL A   1      39.293  33.697  35.712  1.00  0.00     0.009 A 
ATOM     84  C   UNL A   1      37.712  32.653  37.757  1.00  0.00     0.001 A 
ATOM     85  C   UNL A   1      39.028  34.462  36.847  1.00  0.00     0.001 A 
ATOM     86  C   UNL A   1      38.226  33.946  37.862  1.00  0.00     0.000 A 
ENDBRANCH  68  81
ENDBRANCH  42  43
ENDBRANCH  35  37
ENDBRANCH  34  35
ENDBRANCH  33  34
ENDBRANCH  32  33
ENDBRANCH  31  32
ENDBRANCH  30  31
ENDBRANCH  29  30
ENDBRANCH   1  29
TORSDOF 24
ENDMDL
MODEL 3
REMARK VINA RESULT:      -8.2      4.040      9.483
REMARK SMILES CCC(CC)(NC(=O)Nc1cc(Cl)cc(Cl)c1)C(=O)OCCOCCOCCOCCOC(=O)c1ccc(-c2c3nc(c(-c4ccccc4)c4ccc([nH]4)c(-c4ccccc4)c4nc(c(-c5ccccc5)c5ccc2[nH]5)C=C4)C=C3)cc1
REMARK SMILES IDX 26 1 25 2 24 3 23 4 22 5 21 6 20 7 18 8 19 9 3 10 2 11 1 12
REMARK SMILES IDX 4 13 5 14 6 15 7 16 8 18 9 19 10 21 11 22 17 23 12 24 15 25
REMARK SMILES IDX 13 26 14 27 16 28 27 29 28 30 29 31 30 32 31 33 32 34 33 35
REMARK SMILES IDX 34 36 35 37 36 38 82 39 37 40 81 41 38 42 39 43 40 44 75 45
REMARK SMILES IDX 41 46 80 47 74 48 76 49 42 50 79 51 73 52 72 53 43 55 65 56
REMARK SMILES IDX 50 57 64 58 51 59 54 60 63 61 77 62 52 63 53 64 62 66 78 67
REMARK SMILES IDX 55 68 44 69 45 70 49 71 46 72 48 73 47 74 66 75 67 76 71 77
REMARK SMILES IDX 68 78 70 79 69 80 56 81 57 82 61 83 58 84 60 85 59 86
REMARK H PARENT 6 17 9 20 76 54 54 65
REMARK Flexibility Score: inf
ROOT
ATOM      1  O   UNL A   1      33.409  30.400  27.142  1.00  0.00    -0.377 OA
ENDROOT
BRANCH   1   2
ATOM      2  C   UNL A   1      32.742  30.344  25.887  1.00  0.00     0.188 C 
BRANCH   2   3
ATOM      3  C   UNL A   1      31.847  29.100  25.596  1.00  0.00     0.188 C 
BRANCH   3   4
ATOM      4  O   UNL A   1      31.139  29.234  24.338  1.00  0.00    -0.376 OA
BRANCH   4   5
ATOM      5  C   UNL A   1      30.409  28.387  23.411  1.00  0.00     0.202 C 
BRANCH   5   6
ATOM      6  C   UNL A   1      29.592  26.981  23.856  1.00  0.00     0.261 C 
BRANCH   6   7
ATOM      7  O   UNL A   1      30.047  25.473  24.147  1.00  0.00    -0.461 OA
BRANCH   7   8
ATOM      8  C   UNL A   1      30.934  24.440  23.753  1.00  0.00     0.331 C 
ATOM      9  O   UNL A   1      30.666  23.707  22.798  1.00  0.00    -0.249 OA
BRANCH   8  10
ATOM     10  C   UNL A   1      32.235  24.106  24.744  1.00  0.00     0.139 C 
BRANCH  10  11
ATOM     11  C   UNL A   1      33.357  25.006  25.425  1.00  0.00     0.037 C 
ATOM     12  C   UNL A   1      33.994  26.191  24.751  1.00  0.00     0.007 C 
ENDBRANCH  10  11
BRANCH  10  13
ATOM     13  C   UNL A   1      32.922  22.892  24.071  1.00  0.00     0.037 C 
ATOM     14  C   UNL A   1      33.703  23.128  22.781  1.00  0.00     0.007 C 
ENDBRANCH  10  13
BRANCH  10  15
ATOM     15  N   UNL A   1      31.448  23.795  25.873  1.00  0.00    -0.322 N 
ATOM     16  C   UNL A   1      32.040  23.071  26.831  1.00  0.00     0.320 C 
ATOM     17  H   UNL A   1      30.513  24.095  25.952  1.00  0.00     0.166 HD
ATOM     18  O   UNL A   1      31.433  23.026  27.899  1.00  0.00    -0.248 OA
ATOM     19  N   UNL A   1      33.277  22.457  26.665  1.00  0.00    -0.308 N 
ATOM     20  H   UNL A   1      33.215  21.633  27.201  1.00  0.00     0.171 HD
BRANCH  19  21
ATOM     21  C   UNL A   1      34.632  22.418  26.092  1.00  0.00     0.045 A 
ATOM     22  C   UNL A   1      35.704  23.303  26.309  1.00  0.00     0.046 A 
ATOM     23  C   UNL A   1      35.047  21.194  25.534  1.00  0.00     0.046 A 
ATOM     24  C   UNL A   1      37.022  23.081  25.873  1.00  0.00     0.044 A 
ATOM     25  C   UNL A   1      36.395  20.901  25.241  1.00  0.00     0.044 A 
ATOM     26  Cl  UNL A   1      38.216  24.301  26.109  1.00  0.00    -0.084 Cl
ATOM     27  C   UNL A   1      37.383  21.860  25.358  1.00  0.00     0.041 A 
ATOM     28  Cl  UNL A   1      36.838  19.294  24.812  1.00  0.00    -0.084 Cl
ENDBRANCH  19  21
ENDBRANCH  10  15
ENDBRANCH   8  10
ENDBRANCH   7   8
ENDBRANCH   6   7
ENDBRANCH   5   6
ENDBRANCH   4   5
ENDBRANCH   3   4
ENDBRANCH   2   3
ENDBRANCH   1   2
BRANCH   1  29
ATOM     29  C   UNL A   1      33.266  31.584  27.918  1.00  0.00     0.188 C 
BRANCH  29  30
ATOM     30  C   UNL A   1      34.562  32.018  28.625  1.00  0.00     0.188 C 
BRANCH  30  31
ATOM     31  O   UNL A   1      34.581  33.261  29.321  1.00  0.00    -0.376 OA
BRANCH  31  32
ATOM     32  C   UNL A   1      35.385  33.383  30.487  1.00  0.00     0.202 C 
BRANCH  32  33
ATOM     33  C   UNL A   1      35.042  32.406  31.634  1.00  0.00     0.261 C 
BRANCH  33  34
ATOM     34  O   UNL A   1      36.149  31.693  32.210  1.00  0.00    -0.460 OA
BRANCH  34  35
ATOM     35  C   UNL A   1      36.545  30.565  31.561  1.00  0.00     0.338 C 
ATOM     36  O   UNL A   1      35.868  29.610  31.268  1.00  0.00    -0.246 OA
BRANCH  35  37
ATOM     37  C   UNL A   1      37.955  30.743  31.116  1.00  0.00     0.060 A 
ATOM     38  C   UNL A   1      38.199  31.026  29.764  1.00  0.00     0.016 A 
ATOM     39  C   UNL A   1      39.022  30.592  32.003  1.00  0.00     0.016 A 
ATOM     40  C   UNL A   1      39.500  31.047  29.272  1.00  0.00     0.010 A 
ATOM     41  C   UNL A   1      40.328  30.553  31.503  1.00  0.00     0.010 A 
ATOM     42  C   UNL A   1      40.555  30.690  30.120  1.00  0.00    -0.014 A 
BRANCH  42  43
ATOM     43  C   UNL A   1      41.737  30.052  29.490  1.00  0.00     0.031 A 
ATOM     44  C   UNL A   1      42.984  30.897  29.365  1.00  0.00     0.074 A 
ATOM     45  C   UNL A   1      41.764  28.751  29.155  1.00  0.00     0.049 A 
ATOM     46  N   UNL A   1      44.167  30.581  28.905  1.00  0.00    -0.248 NA
ATOM     47  C   UNL A   1      42.879  32.292  29.831  1.00  0.00     0.031 C 
ATOM     48  C   UNL A   1      40.659  27.808  29.310  1.00  0.00     0.029 A 
ATOM     49  N   UNL A   1      42.783  27.998  28.627  1.00  0.00    -0.354 N 
ATOM     50  C   UNL A   1      44.931  31.738  29.013  1.00  0.00     0.074 A 
ATOM     51  C   UNL A   1      44.077  32.770  29.547  1.00  0.00     0.031 C 
ATOM     52  C   UNL A   1      41.064  26.595  28.889  1.00  0.00     0.029 A 
ATOM     53  C   UNL A   1      42.442  26.687  28.409  1.00  0.00     0.049 A 
ATOM     54  H   UNL A   1      43.673  28.365  28.423  1.00  0.00     0.167 HD
ATOM     55  C   UNL A   1      46.234  31.930  28.702  1.00  0.00     0.031 A 
ATOM     56  C   UNL A   1      43.164  25.682  27.875  1.00  0.00     0.031 A 
ATOM     57  C   UNL A   1      47.085  30.907  28.165  1.00  0.00     0.049 A 
ATOM     58  C   UNL A   1      44.588  25.942  27.452  1.00  0.00     0.074 A 
ATOM     59  C   UNL A   1      48.421  30.992  27.816  1.00  0.00     0.029 A 
ATOM     60  N   UNL A   1      46.679  29.610  27.894  1.00  0.00    -0.354 N 
ATOM     61  N   UNL A   1      45.301  27.037  27.561  1.00  0.00    -0.248 NA
ATOM     62  C   UNL A   1      45.310  24.814  26.845  1.00  0.00     0.031 C 
ATOM     63  C   UNL A   1      48.804  29.763  27.269  1.00  0.00     0.029 A 
ATOM     64  C   UNL A   1      47.730  28.891  27.356  1.00  0.00     0.049 A 
ATOM     65  H   UNL A   1      45.776  29.254  28.061  1.00  0.00     0.167 HD
ATOM     66  C   UNL A   1      46.567  26.718  27.079  1.00  0.00     0.074 A 
ATOM     67  C   UNL A   1      46.523  25.324  26.688  1.00  0.00     0.031 C 
ATOM     68  C   UNL A   1      47.670  27.502  26.978  1.00  0.00     0.031 A 
BRANCH  55  69
ATOM     69  C   UNL A   1      46.790  33.318  28.880  1.00  0.00    -0.014 A 
ATOM     70  C   UNL A   1      46.570  34.333  27.934  1.00  0.00     0.009 A 
ATOM     71  C   UNL A   1      47.549  33.611  30.023  1.00  0.00     0.009 A 
ATOM     72  C   UNL A   1      47.134  35.599  28.111  1.00  0.00     0.001 A 
ATOM     73  C   UNL A   1      48.082  34.886  30.216  1.00  0.00     0.001 A 
ATOM     74  C   UNL A   1      47.885  35.876  29.255  1.00  0.00     0.000 A 
ENDBRANCH  55  69
BRANCH  56  75
ATOM     75  C   UNL A   1      42.558  24.335  27.695  1.00  0.00    -0.014 A 
ATOM     76  C   UNL A   1      42.615  23.377  28.720  1.00  0.00     0.009 A 
ATOM     77  C   UNL A   1      41.949  23.986  26.480  1.00  0.00     0.009 A 
ATOM     78  C   UNL A   1      42.105  22.091  28.519  1.00  0.00     0.001 A 
ATOM     79  C   UNL A   1      41.410  22.712  26.292  1.00  0.00     0.001 A 
ATOM     80  C   UNL A   1      41.498  21.761  27.308  1.00  0.00     0.000 A 
ENDBRANCH  56  75
BRANCH  68  81
ATOM     81  C   UNL A   1      48.937  26.853  26.490  1.00  0.00    -0.014 A 
ATOM     82  C   UNL A   1      49.346  26.936  25.151  1.00  0.00     0.009 A 
ATOM     83  C   UNL A   1      49.754  26.170  27.408  1.00  0.00     0.009 A 
ATOM     84  C   UNL A   1      50.518  26.302  24.731  1.00  0.00     0.001 A 
ATOM     85  C   UNL A   1      50.943  25.571  26.993  1.00  0.00     0.001 A 
ATOM     86  C   UNL A   1      51.316  25.625  25.652  1.00  0.00     0.000 A 
ENDBRANCH  68  81
ENDBRANCH  42  43
ENDBRANCH  35  37
ENDBRANCH  34  35
ENDBRANCH  33  34
ENDBRANCH  32  33
ENDBRANCH  31  32
ENDBRANCH  30  31
ENDBRANCH  29  30
ENDBRANCH   1  29
TORSDOF 24
ENDMDL
