MODEL 1
REMARK VINA RESULT:     -10.3      0.000      0.000
REMARK SMILES CCn1c(N2CCC(C(=O)OCCOCCOCCOCCOC(=O)c3ccc(-c4c5nc(c(-c6ccccc6)c6ccc([nH]6)c(-c6ccccc6)c6nc(c(-c7ccccc7)c7ccc4[nH]7)C=C6)C=C5)cc3)CC2)nc2cc(C)ccc21
REMARK SMILES IDX 17 1 16 2 15 3 14 4 13 5 12 6 11 7 9 8 10 9 8 10 5 11 6 12
REMARK SMILES IDX 75 13 7 14 74 15 4 16 3 17 83 18 76 19 77 20 82 21 78 22
REMARK SMILES IDX 81 23 79 24 80 25 2 26 1 27 18 28 19 29 20 30 21 31 22 32
REMARK SMILES IDX 23 33 24 34 25 35 26 36 27 37 73 38 28 39 72 40 29 41 30 42
REMARK SMILES IDX 31 43 66 44 32 45 71 46 65 47 67 48 33 49 70 50 64 51 63 52
REMARK SMILES IDX 34 54 56 55 41 56 55 57 42 58 45 59 54 60 68 61 43 62 44 63
REMARK SMILES IDX 53 65 69 66 46 67 35 68 36 69 40 70 37 71 39 72 38 73 57 74
REMARK SMILES IDX 58 75 62 76 59 77 61 78 60 79 47 80 48 81 52 82 49 83 51 84
REMARK SMILES IDX 50 85
REMARK H PARENT 67 53 45 64
REMARK Flexibility Score: inf
ROOT
ATOM      1  O   UNL A   1      32.949  28.745  24.342  1.00  0.00    -0.377 OA
ENDROOT
BRANCH   1   2
ATOM      2  C   UNL A   1      33.533  27.621  23.732  1.00  0.00     0.188 C 
BRANCH   2   3
ATOM      3  C   UNL A   1      32.918  27.283  22.373  1.00  0.00     0.188 C 
BRANCH   3   4
ATOM      4  O   UNL A   1      31.571  26.858  22.241  1.00  0.00    -0.376 OA
BRANCH   4   5
ATOM      5  C   UNL A   1      30.467  27.555  22.803  1.00  0.00     0.202 C 
BRANCH   5   6
ATOM      6  C   UNL A   1      29.814  27.226  24.152  1.00  0.00     0.261 C 
BRANCH   6   7
ATOM      7  O   UNL A   1      29.497  25.850  24.362  1.00  0.00    -0.463 OA
BRANCH   7   8
ATOM      8  C   UNL A   1      29.885  25.363  25.555  1.00  0.00     0.309 C 
ATOM      9  O   UNL A   1      29.262  25.502  26.604  1.00  0.00    -0.252 OA
BRANCH   8  10
ATOM     10  C   UNL A   1      31.194  24.621  25.523  1.00  0.00     0.103 C 
ATOM     11  N   UNL A   1      33.094  22.551  25.119  1.00  0.00    -0.342 N 
ATOM     12  C   UNL A   1      32.957  23.142  26.443  1.00  0.00     0.120 C 
ATOM     13  C   UNL A   1      32.643  23.320  23.965  1.00  0.00     0.120 C 
ATOM     14  C   UNL A   1      31.534  23.642  26.649  1.00  0.00     0.037 C 
ATOM     15  C   UNL A   1      31.247  23.871  24.196  1.00  0.00     0.037 C 
BRANCH  11  16
ATOM     16  C   UNL A   1      33.241  21.212  25.044  1.00  0.00     0.206 A 
ATOM     17  N   UNL A   1      34.450  20.627  24.730  1.00  0.00    -0.310 N 
ATOM     18  C   UNL A   1      34.277  19.261  24.771  1.00  0.00     0.070 A 
ATOM     19  N   UNL A   1      32.348  20.309  25.373  1.00  0.00    -0.213 NA
ATOM     20  C   UNL A   1      32.955  19.100  25.176  1.00  0.00     0.091 A 
ATOM     21  C   UNL A   1      35.118  18.173  24.516  1.00  0.00     0.029 A 
ATOM     22  C   UNL A   1      32.427  17.810  25.336  1.00  0.00     0.034 A 
ATOM     23  C   UNL A   1      34.573  16.892  24.672  1.00  0.00     0.006 A 
ATOM     24  C   UNL A   1      33.245  16.699  25.074  1.00  0.00    -0.049 A 
ATOM     25  C   UNL A   1      32.680  15.317  25.227  1.00  0.00     0.044 C 
BRANCH  17  26
ATOM     26  C   UNL A   1      35.698  21.320  24.468  1.00  0.00     0.122 C 
ATOM     27  C   UNL A   1      36.593  21.487  25.689  1.00  0.00     0.028 C 
ENDBRANCH  17  26
ENDBRANCH  11  16
ENDBRANCH   8  10
ENDBRANCH   7   8
ENDBRANCH   6   7
ENDBRANCH   5   6
ENDBRANCH   4   5
ENDBRANCH   3   4
ENDBRANCH   2   3
ENDBRANCH   1   2
BRANCH   1  28
ATOM     28  C   UNL A   1      32.937  28.827  25.756  1.00  0.00     0.188 C 
BRANCH  28  29
ATOM     29  C   UNL A   1      34.259  28.628  26.516  1.00  0.00     0.188 C 
BRANCH  29  30
ATOM     30  O   UNL A   1      34.404  29.521  27.612  1.00  0.00    -0.376 OA
BRANCH  30  31
ATOM     31  C   UNL A   1      33.602  30.695  27.629  1.00  0.00     0.202 C 
BRANCH  31  32
ATOM     32  C   UNL A   1      34.321  32.049  27.747  1.00  0.00     0.261 C 
BRANCH  32  33
ATOM     33  O   UNL A   1      35.615  31.970  28.371  1.00  0.00    -0.460 OA
BRANCH  33  34
ATOM     34  C   UNL A   1      35.695  32.055  29.722  1.00  0.00     0.338 C 
ATOM     35  O   UNL A   1      34.834  32.420  30.480  1.00  0.00    -0.246 OA
BRANCH  34  36
ATOM     36  C   UNL A   1      36.885  31.231  30.087  1.00  0.00     0.060 A 
ATOM     37  C   UNL A   1      38.190  31.726  29.984  1.00  0.00     0.016 A 
ATOM     38  C   UNL A   1      36.659  29.853  30.217  1.00  0.00     0.016 A 
ATOM     39  C   UNL A   1      39.255  30.828  29.900  1.00  0.00     0.010 A 
ATOM     40  C   UNL A   1      37.720  28.959  30.092  1.00  0.00     0.010 A 
ATOM     41  C   UNL A   1      39.016  29.442  29.896  1.00  0.00    -0.014 A 
BRANCH  41  42
ATOM     42  C   UNL A   1      40.177  28.539  29.900  1.00  0.00     0.031 A 
ATOM     43  C   UNL A   1      40.787  28.370  31.250  1.00  0.00     0.074 A 
ATOM     44  C   UNL A   1      40.589  27.741  28.892  1.00  0.00     0.049 A 
ATOM     45  N   UNL A   1      42.014  28.538  31.619  1.00  0.00    -0.248 NA
ATOM     46  C   UNL A   1      39.863  28.036  32.348  1.00  0.00     0.031 C 
ATOM     47  C   UNL A   1      39.907  27.463  27.629  1.00  0.00     0.029 A 
ATOM     48  N   UNL A   1      41.677  26.907  28.844  1.00  0.00    -0.354 N 
ATOM     49  C   UNL A   1      42.051  28.214  32.975  1.00  0.00     0.074 A 
ATOM     50  C   UNL A   1      40.686  28.027  33.393  1.00  0.00     0.031 C 
ATOM     51  C   UNL A   1      40.481  26.391  27.035  1.00  0.00     0.029 A 
ATOM     52  C   UNL A   1      41.622  25.959  27.827  1.00  0.00     0.049 A 
ATOM     53  H   UNL A   1      42.431  26.973  29.473  1.00  0.00     0.167 HD
ATOM     54  C   UNL A   1      43.206  27.958  33.646  1.00  0.00     0.031 A 
ATOM     55  C   UNL A   1      42.383  24.842  27.700  1.00  0.00     0.031 A 
ATOM     56  C   UNL A   1      44.359  28.477  32.967  1.00  0.00     0.049 A 
ATOM     57  C   UNL A   1      43.576  24.988  28.565  1.00  0.00     0.074 A 
ATOM     58  C   UNL A   1      44.772  29.740  32.593  1.00  0.00     0.029 A 
ATOM     59  N   UNL A   1      45.155  27.601  32.272  1.00  0.00    -0.354 N 
ATOM     60  N   UNL A   1      44.547  25.825  28.347  1.00  0.00    -0.248 NA
ATOM     61  C   UNL A   1      43.498  24.454  29.915  1.00  0.00     0.031 C 
ATOM     62  C   UNL A   1      45.437  29.555  31.348  1.00  0.00     0.029 A 
ATOM     63  C   UNL A   1      45.426  28.188  31.063  1.00  0.00     0.049 A 
ATOM     64  H   UNL A   1      45.470  26.722  32.580  1.00  0.00     0.167 HD
ATOM     65  C   UNL A   1      44.942  26.245  29.608  1.00  0.00     0.074 A 
ATOM     66  C   UNL A   1      44.321  25.300  30.534  1.00  0.00     0.031 C 
ATOM     67  C   UNL A   1      45.504  27.473  29.808  1.00  0.00     0.031 A 
BRANCH  54  68
ATOM     68  C   UNL A   1      43.303  26.970  34.780  1.00  0.00    -0.014 A 
ATOM     69  C   UNL A   1      44.212  27.106  35.848  1.00  0.00     0.009 A 
ATOM     70  C   UNL A   1      42.295  26.002  34.932  1.00  0.00     0.009 A 
ATOM     71  C   UNL A   1      44.127  26.325  37.003  1.00  0.00     0.001 A 
ATOM     72  C   UNL A   1      42.177  25.250  36.107  1.00  0.00     0.001 A 
ATOM     73  C   UNL A   1      43.093  25.413  37.143  1.00  0.00     0.000 A 
ENDBRANCH  54  68
BRANCH  55  74
ATOM     74  C   UNL A   1      41.977  23.516  27.169  1.00  0.00    -0.014 A 
ATOM     75  C   UNL A   1      40.879  22.835  27.729  1.00  0.00     0.009 A 
ATOM     76  C   UNL A   1      42.818  22.787  26.310  1.00  0.00     0.009 A 
ATOM     77  C   UNL A   1      40.646  21.480  27.471  1.00  0.00     0.001 A 
ATOM     78  C   UNL A   1      42.589  21.425  26.057  1.00  0.00     0.001 A 
ATOM     79  C   UNL A   1      41.511  20.770  26.649  1.00  0.00     0.000 A 
ENDBRANCH  55  74
BRANCH  67  80
ATOM     80  C   UNL A   1      45.949  28.283  28.613  1.00  0.00    -0.014 A 
ATOM     81  C   UNL A   1      44.958  28.862  27.803  1.00  0.00     0.009 A 
ATOM     82  C   UNL A   1      47.278  28.310  28.157  1.00  0.00     0.009 A 
ATOM     83  C   UNL A   1      45.277  29.425  26.566  1.00  0.00     0.001 A 
ATOM     84  C   UNL A   1      47.602  28.901  26.929  1.00  0.00     0.001 A 
ATOM     85  C   UNL A   1      46.599  29.443  26.129  1.00  0.00     0.000 A 
ENDBRANCH  67  80
ENDBRANCH  41  42
ENDBRANCH  34  36
ENDBRANCH  33  34
ENDBRANCH  32  33
ENDBRANCH  31  32
ENDBRANCH  30  31
ENDBRANCH  29  30
ENDBRANCH  28  29
ENDBRANCH   1  28
TORSDOF 22
ENDMDL
MODEL 2
REMARK VINA RESULT:     -10.2      1.934      4.522
REMARK SMILES CCn1c(N2CCC(C(=O)OCCOCCOCCOCCOC(=O)c3ccc(-c4c5nc(c(-c6ccccc6)c6ccc([nH]6)c(-c6ccccc6)c6nc(c(-c7ccccc7)c7ccc4[nH]7)C=C6)C=C5)cc3)CC2)nc2cc(C)ccc21
REMARK SMILES IDX 17 1 16 2 15 3 14 4 13 5 12 6 11 7 9 8 10 9 8 10 5 11 6 12
REMARK SMILES IDX 75 13 7 14 74 15 4 16 3 17 83 18 76 19 77 20 82 21 78 22
REMARK SMILES IDX 81 23 79 24 80 25 2 26 1 27 18 28 19 29 20 30 21 31 22 32
REMARK SMILES IDX 23 33 24 34 25 35 26 36 27 37 73 38 28 39 72 40 29 41 30 42
REMARK SMILES IDX 31 43 66 44 32 45 71 46 65 47 67 48 33 49 70 50 64 51 63 52
REMARK SMILES IDX 34 54 56 55 41 56 55 57 42 58 45 59 54 60 68 61 43 62 44 63
REMARK SMILES IDX 53 65 69 66 46 67 35 68 36 69 40 70 37 71 39 72 38 73 57 74
REMARK SMILES IDX 58 75 62 76 59 77 61 78 60 79 47 80 48 81 52 82 49 83 51 84
REMARK SMILES IDX 50 85
REMARK H PARENT 67 53 45 64
REMARK Flexibility Score: inf
ROOT
ATOM      1  O   UNL A   1      31.657  26.735  27.199  1.00  0.00    -0.377 OA
ENDROOT
BRANCH   1   2
ATOM      2  C   UNL A   1      30.711  25.896  26.583  1.00  0.00     0.188 C 
BRANCH   2   3
ATOM      3  C   UNL A   1      31.177  24.444  26.468  1.00  0.00     0.188 C 
BRANCH   3   4
ATOM      4  O   UNL A   1      32.044  23.852  27.423  1.00  0.00    -0.376 OA
BRANCH   4   5
ATOM      5  C   UNL A   1      32.338  22.462  27.462  1.00  0.00     0.202 C 
BRANCH   5   6
ATOM      6  C   UNL A   1      33.748  21.864  27.560  1.00  0.00     0.261 C 
BRANCH   6   7
ATOM      7  O   UNL A   1      34.693  22.358  26.609  1.00  0.00    -0.463 OA
BRANCH   7   8
ATOM      8  C   UNL A   1      34.578  21.824  25.379  1.00  0.00     0.309 C 
ATOM      9  O   UNL A   1      34.722  20.633  25.118  1.00  0.00    -0.252 OA
BRANCH   8  10
ATOM     10  C   UNL A   1      34.263  22.822  24.298  1.00  0.00     0.103 C 
ATOM     11  N   UNL A   1      33.212  25.106  22.980  1.00  0.00    -0.342 N 
ATOM     12  C   UNL A   1      32.914  23.781  22.454  1.00  0.00     0.120 C 
ATOM     13  C   UNL A   1      34.387  25.268  23.828  1.00  0.00     0.120 C 
ATOM     14  C   UNL A   1      32.914  22.757  23.581  1.00  0.00     0.037 C 
ATOM     15  C   UNL A   1      34.419  24.208  24.916  1.00  0.00     0.037 C 
BRANCH  11  16
ATOM     16  C   UNL A   1      32.209  26.008  23.006  1.00  0.00     0.206 A 
ATOM     17  N   UNL A   1      32.400  27.323  22.637  1.00  0.00    -0.310 N 
ATOM     18  C   UNL A   1      31.186  27.967  22.738  1.00  0.00     0.070 A 
ATOM     19  N   UNL A   1      30.941  25.760  23.239  1.00  0.00    -0.213 NA
ATOM     20  C   UNL A   1      30.301  26.961  23.115  1.00  0.00     0.091 A 
ATOM     21  C   UNL A   1      30.775  29.287  22.534  1.00  0.00     0.029 A 
ATOM     22  C   UNL A   1      28.945  27.263  23.306  1.00  0.00     0.034 A 
ATOM     23  C   UNL A   1      29.418  29.574  22.737  1.00  0.00     0.006 A 
ATOM     24  C   UNL A   1      28.505  28.584  23.120  1.00  0.00    -0.049 A 
ATOM     25  C   UNL A   1      27.058  28.915  23.340  1.00  0.00     0.044 C 
BRANCH  17  26
ATOM     26  C   UNL A   1      33.639  27.911  22.163  1.00  0.00     0.122 C 
ATOM     27  C   UNL A   1      34.276  28.901  23.129  1.00  0.00     0.028 C 
ENDBRANCH  17  26
ENDBRANCH  11  16
ENDBRANCH   8  10
ENDBRANCH   7   8
ENDBRANCH   6   7
ENDBRANCH   5   6
ENDBRANCH   4   5
ENDBRANCH   3   4
ENDBRANCH   2   3
ENDBRANCH   1   2
BRANCH   1  28
ATOM     28  C   UNL A   1      32.379  27.655  26.400  1.00  0.00     0.188 C 
BRANCH  28  29
ATOM     29  C   UNL A   1      33.299  28.671  27.097  1.00  0.00     0.188 C 
BRANCH  29  30
ATOM     30  O   UNL A   1      33.259  29.956  26.492  1.00  0.00    -0.376 OA
BRANCH  30  31
ATOM     31  C   UNL A   1      33.055  31.085  27.334  1.00  0.00     0.202 C 
BRANCH  31  32
ATOM     32  C   UNL A   1      34.267  31.984  27.626  1.00  0.00     0.261 C 
BRANCH  32  33
ATOM     33  O   UNL A   1      35.334  31.318  28.325  1.00  0.00    -0.460 OA
BRANCH  33  34
ATOM     34  C   UNL A   1      35.628  31.708  29.591  1.00  0.00     0.338 C 
ATOM     35  O   UNL A   1      34.908  32.297  30.356  1.00  0.00    -0.246 OA
BRANCH  34  36
ATOM     36  C   UNL A   1      36.832  30.911  29.966  1.00  0.00     0.060 A 
ATOM     37  C   UNL A   1      38.128  31.429  29.854  1.00  0.00     0.016 A 
ATOM     38  C   UNL A   1      36.632  29.532  30.117  1.00  0.00     0.016 A 
ATOM     39  C   UNL A   1      39.209  30.548  29.781  1.00  0.00     0.010 A 
ATOM     40  C   UNL A   1      37.709  28.655  30.003  1.00  0.00     0.010 A 
ATOM     41  C   UNL A   1      38.996  29.158  29.798  1.00  0.00    -0.014 A 
BRANCH  41  42
ATOM     42  C   UNL A   1      40.172  28.277  29.813  1.00  0.00     0.031 A 
ATOM     43  C   UNL A   1      40.805  28.162  31.159  1.00  0.00     0.074 A 
ATOM     44  C   UNL A   1      40.585  27.455  28.824  1.00  0.00     0.049 A 
ATOM     45  N   UNL A   1      42.034  28.364  31.503  1.00  0.00    -0.248 NA
ATOM     46  C   UNL A   1      39.904  27.847  32.280  1.00  0.00     0.031 C 
ATOM     47  C   UNL A   1      39.889  27.124  27.581  1.00  0.00     0.029 A 
ATOM     48  N   UNL A   1      41.687  26.639  28.786  1.00  0.00    -0.354 N 
ATOM     49  C   UNL A   1      42.096  28.084  32.868  1.00  0.00     0.074 A 
ATOM     50  C   UNL A   1      40.742  27.886  33.312  1.00  0.00     0.031 C 
ATOM     51  C   UNL A   1      40.475  26.044  27.013  1.00  0.00     0.029 A 
ATOM     52  C   UNL A   1      41.634  25.658  27.801  1.00  0.00     0.049 A 
ATOM     53  H   UNL A   1      42.448  26.738  29.402  1.00  0.00     0.167 HD
ATOM     54  C   UNL A   1      43.265  27.870  33.529  1.00  0.00     0.031 A 
ATOM     55  C   UNL A   1      42.414  24.551  27.698  1.00  0.00     0.031 A 
ATOM     56  C   UNL A   1      44.399  28.387  32.817  1.00  0.00     0.049 A 
ATOM     57  C   UNL A   1      43.615  24.746  28.541  1.00  0.00     0.074 A 
ATOM     58  C   UNL A   1      44.783  29.644  32.397  1.00  0.00     0.029 A 
ATOM     59  N   UNL A   1      45.200  27.504  32.138  1.00  0.00    -0.354 N 
ATOM     60  N   UNL A   1      44.568  25.592  28.281  1.00  0.00    -0.248 NA
ATOM     61  C   UNL A   1      43.567  24.254  29.907  1.00  0.00     0.031 C 
ATOM     62  C   UNL A   1      45.434  29.432  31.149  1.00  0.00     0.029 A 
ATOM     63  C   UNL A   1      45.443  28.056  30.908  1.00  0.00     0.049 A 
ATOM     64  H   UNL A   1      45.536  26.640  32.470  1.00  0.00     0.167 HD
ATOM     65  C   UNL A   1      44.973  26.059  29.522  1.00  0.00     0.074 A 
ATOM     66  C   UNL A   1      44.384  25.134  30.487  1.00  0.00     0.031 C 
ATOM     67  C   UNL A   1      45.516  27.303  29.675  1.00  0.00     0.031 A 
BRANCH  54  68
ATOM     68  C   UNL A   1      43.397  26.921  34.693  1.00  0.00    -0.014 A 
ATOM     69  C   UNL A   1      43.432  25.520  34.548  1.00  0.00     0.009 A 
ATOM     70  C   UNL A   1      43.748  27.431  35.955  1.00  0.00     0.009 A 
ATOM     71  C   UNL A   1      43.794  24.671  35.596  1.00  0.00     0.001 A 
ATOM     72  C   UNL A   1      44.158  26.587  36.994  1.00  0.00     0.001 A 
ATOM     73  C   UNL A   1      44.182  25.207  36.814  1.00  0.00     0.000 A 
ENDBRANCH  54  68
BRANCH  55  74
ATOM     74  C   UNL A   1      42.024  23.202  27.215  1.00  0.00    -0.014 A 
ATOM     75  C   UNL A   1      40.980  22.499  27.846  1.00  0.00     0.009 A 
ATOM     76  C   UNL A   1      42.842  22.482  26.328  1.00  0.00     0.009 A 
ATOM     77  C   UNL A   1      40.778  21.132  27.628  1.00  0.00     0.001 A 
ATOM     78  C   UNL A   1      42.646  21.108  26.115  1.00  0.00     0.001 A 
ATOM     79  C   UNL A   1      41.622  20.432  26.775  1.00  0.00     0.000 A 
ENDBRANCH  55  74
BRANCH  67  80
ATOM     80  C   UNL A   1      45.929  28.082  28.448  1.00  0.00    -0.014 A 
ATOM     81  C   UNL A   1      47.301  28.184  28.163  1.00  0.00     0.009 A 
ATOM     82  C   UNL A   1      45.036  28.875  27.707  1.00  0.00     0.009 A 
ATOM     83  C   UNL A   1      47.770  29.069  27.190  1.00  0.00     0.001 A 
ATOM     84  C   UNL A   1      45.505  29.741  26.711  1.00  0.00     0.001 A 
ATOM     85  C   UNL A   1      46.871  29.848  26.465  1.00  0.00     0.000 A 
ENDBRANCH  67  80
ENDBRANCH  41  42
ENDBRANCH  34  36
ENDBRANCH  33  34
ENDBRANCH  32  33
ENDBRANCH  31  32
ENDBRANCH  30  31
ENDBRANCH  29  30
ENDBRANCH  28  29
ENDBRANCH   1  28
TORSDOF 22
ENDMDL
MODEL 3
REMARK VINA RESULT:      -9.6      2.186      3.811
REMARK SMILES CCn1c(N2CCC(C(=O)OCCOCCOCCOCCOC(=O)c3ccc(-c4c5nc(c(-c6ccccc6)c6ccc([nH]6)c(-c6ccccc6)c6nc(c(-c7ccccc7)c7ccc4[nH]7)C=C6)C=C5)cc3)CC2)nc2cc(C)ccc21
REMARK SMILES IDX 17 1 16 2 15 3 14 4 13 5 12 6 11 7 9 8 10 9 8 10 5 11 6 12
REMARK SMILES IDX 75 13 7 14 74 15 4 16 3 17 83 18 76 19 77 20 82 21 78 22
REMARK SMILES IDX 81 23 79 24 80 25 2 26 1 27 18 28 19 29 20 30 21 31 22 32
REMARK SMILES IDX 23 33 24 34 25 35 26 36 27 37 73 38 28 39 72 40 29 41 30 42
REMARK SMILES IDX 31 43 66 44 32 45 71 46 65 47 67 48 33 49 70 50 64 51 63 52
REMARK SMILES IDX 34 54 56 55 41 56 55 57 42 58 45 59 54 60 68 61 43 62 44 63
REMARK SMILES IDX 53 65 69 66 46 67 35 68 36 69 40 70 37 71 39 72 38 73 57 74
REMARK SMILES IDX 58 75 62 76 59 77 61 78 60 79 47 80 48 81 52 82 49 83 51 84
REMARK SMILES IDX 50 85
REMARK H PARENT 67 53 45 64
REMARK Flexibility Score: inf
ROOT
ATOM      1  O   UNL A   1      30.946  26.836  25.727  1.00  0.00    -0.377 OA
ENDROOT
BRANCH   1   2
ATOM      2  C   UNL A   1      30.039  26.552  24.690  1.00  0.00     0.188 C 
BRANCH   2   3
ATOM      3  C   UNL A   1      30.677  25.803  23.519  1.00  0.00     0.188 C 
BRANCH   3   4
ATOM      4  O   UNL A   1      31.355  26.479  22.472  1.00  0.00    -0.376 OA
BRANCH   4   5
ATOM      5  C   UNL A   1      32.545  25.994  21.864  1.00  0.00     0.202 C 
BRANCH   5   6
ATOM      6  C   UNL A   1      32.791  24.535  21.454  1.00  0.00     0.261 C 
BRANCH   6   7
ATOM      7  O   UNL A   1      33.945  23.921  22.029  1.00  0.00    -0.463 OA
BRANCH   7   8
ATOM      8  C   UNL A   1      33.678  22.886  22.846  1.00  0.00     0.309 C 
ATOM      9  O   UNL A   1      32.827  22.027  22.632  1.00  0.00    -0.252 OA
BRANCH   8  10
ATOM     10  C   UNL A   1      34.512  22.856  24.098  1.00  0.00     0.103 C 
ATOM     11  N   UNL A   1      36.760  22.653  25.819  1.00  0.00    -0.342 N 
ATOM     12  C   UNL A   1      35.621  21.770  26.029  1.00  0.00     0.120 C 
ATOM     13  C   UNL A   1      36.548  23.898  25.092  1.00  0.00     0.120 C 
ATOM     14  C   UNL A   1      34.908  21.511  24.709  1.00  0.00     0.037 C 
ATOM     15  C   UNL A   1      35.782  23.649  23.805  1.00  0.00     0.037 C 
BRANCH  11  16
ATOM     16  C   UNL A   1      37.994  22.119  25.934  1.00  0.00     0.206 A 
ATOM     17  N   UNL A   1      39.034  22.806  26.525  1.00  0.00    -0.310 N 
ATOM     18  C   UNL A   1      40.138  21.981  26.518  1.00  0.00     0.070 A 
ATOM     19  N   UNL A   1      38.343  20.888  25.644  1.00  0.00    -0.213 NA
ATOM     20  C   UNL A   1      39.669  20.794  25.962  1.00  0.00     0.091 A 
ATOM     21  C   UNL A   1      41.462  22.137  26.939  1.00  0.00     0.029 A 
ATOM     22  C   UNL A   1      40.541  19.706  25.806  1.00  0.00     0.034 A 
ATOM     23  C   UNL A   1      42.321  21.044  26.769  1.00  0.00     0.006 A 
ATOM     24  C   UNL A   1      41.879  19.839  26.209  1.00  0.00    -0.049 A 
ATOM     25  C   UNL A   1      42.820  18.683  26.029  1.00  0.00     0.044 C 
BRANCH  17  26
ATOM     26  C   UNL A   1      38.966  24.132  27.111  1.00  0.00     0.122 C 
ATOM     27  C   UNL A   1      40.080  25.072  26.671  1.00  0.00     0.028 C 
ENDBRANCH  17  26
ENDBRANCH  11  16
ENDBRANCH   8  10
ENDBRANCH   7   8
ENDBRANCH   6   7
ENDBRANCH   5   6
ENDBRANCH   4   5
ENDBRANCH   3   4
ENDBRANCH   2   3
ENDBRANCH   1   2
BRANCH   1  28
ATOM     28  C   UNL A   1      31.898  27.868  25.540  1.00  0.00     0.188 C 
BRANCH  28  29
ATOM     29  C   UNL A   1      31.420  29.215  24.973  1.00  0.00     0.188 C 
BRANCH  29  30
ATOM     30  O   UNL A   1      32.177  30.316  25.458  1.00  0.00    -0.376 OA
BRANCH  30  31
ATOM     31  C   UNL A   1      32.859  30.165  26.697  1.00  0.00     0.202 C 
BRANCH  31  32
ATOM     32  C   UNL A   1      33.442  31.429  27.349  1.00  0.00     0.261 C 
BRANCH  32  33
ATOM     33  O   UNL A   1      34.875  31.414  27.473  1.00  0.00    -0.460 OA
BRANCH  33  34
ATOM     34  C   UNL A   1      35.432  31.767  28.659  1.00  0.00     0.338 C 
ATOM     35  O   UNL A   1      34.856  32.133  29.651  1.00  0.00    -0.246 OA
BRANCH  34  36
ATOM     36  C   UNL A   1      36.819  31.220  28.608  1.00  0.00     0.060 A 
ATOM     37  C   UNL A   1      37.098  29.953  28.082  1.00  0.00     0.016 A 
ATOM     38  C   UNL A   1      37.769  31.882  29.399  1.00  0.00     0.016 A 
ATOM     39  C   UNL A   1      38.282  29.310  28.445  1.00  0.00     0.010 A 
ATOM     40  C   UNL A   1      38.931  31.221  29.791  1.00  0.00     0.010 A 
ATOM     41  C   UNL A   1      39.174  29.919  29.347  1.00  0.00    -0.014 A 
BRANCH  41  42
ATOM     42  C   UNL A   1      40.449  29.243  29.623  1.00  0.00     0.031 A 
ATOM     43  C   UNL A   1      40.628  28.888  31.061  1.00  0.00     0.074 A 
ATOM     44  C   UNL A   1      41.328  28.763  28.717  1.00  0.00     0.049 A 
ATOM     45  N   UNL A   1      41.605  29.173  31.858  1.00  0.00    -0.248 NA
ATOM     46  C   UNL A   1      39.510  28.175  31.702  1.00  0.00     0.031 C 
ATOM     47  C   UNL A   1      41.158  28.657  27.269  1.00  0.00     0.029 A 
ATOM     48  N   UNL A   1      42.538  28.152  28.931  1.00  0.00    -0.354 N 
ATOM     49  C   UNL A   1      41.289  28.573  33.076  1.00  0.00     0.074 A 
ATOM     50  C   UNL A   1      39.944  28.076  32.956  1.00  0.00     0.031 C 
ATOM     51  C   UNL A   1      42.120  27.850  26.763  1.00  0.00     0.029 A 
ATOM     52  C   UNL A   1      43.022  27.452  27.831  1.00  0.00     0.049 A 
ATOM     53  H   UNL A   1      43.020  28.204  29.787  1.00  0.00     0.167 HD
ATOM     54  C   UNL A   1      42.202  28.373  34.063  1.00  0.00     0.031 A 
ATOM     55  C   UNL A   1      44.020  26.531  27.814  1.00  0.00     0.031 A 
ATOM     56  C   UNL A   1      43.358  29.210  33.917  1.00  0.00     0.049 A 
ATOM     57  C   UNL A   1      44.815  26.682  29.055  1.00  0.00     0.074 A 
ATOM     58  C   UNL A   1      43.566  30.575  33.903  1.00  0.00     0.029 A 
ATOM     59  N   UNL A   1      44.510  28.651  33.424  1.00  0.00    -0.354 N 
ATOM     60  N   UNL A   1      45.586  27.695  29.318  1.00  0.00    -0.248 NA
ATOM     61  C   UNL A   1      44.444  25.861  30.196  1.00  0.00     0.031 C 
ATOM     62  C   UNL A   1      44.611  30.778  32.959  1.00  0.00     0.029 A 
ATOM     63  C   UNL A   1      45.004  29.523  32.488  1.00  0.00     0.049 A 
ATOM     64  H   UNL A   1      44.906  27.790  33.689  1.00  0.00     0.167 HD
ATOM     65  C   UNL A   1      45.459  27.890  30.684  1.00  0.00     0.074 A 
ATOM     66  C   UNL A   1      44.815  26.677  31.183  1.00  0.00     0.031 C 
ATOM     67  C   UNL A   1      45.633  29.121  31.249  1.00  0.00     0.031 A 
BRANCH  54  68
ATOM     68  C   UNL A   1      42.164  27.192  34.999  1.00  0.00    -0.014 A 
ATOM     69  C   UNL A   1      42.250  25.855  34.563  1.00  0.00     0.009 A 
ATOM     70  C   UNL A   1      42.298  27.411  36.382  1.00  0.00     0.009 A 
ATOM     71  C   UNL A   1      42.456  24.794  35.447  1.00  0.00     0.001 A 
ATOM     72  C   UNL A   1      42.552  26.356  37.266  1.00  0.00     0.001 A 
ATOM     73  C   UNL A   1      42.632  25.048  36.798  1.00  0.00     0.000 A 
ENDBRANCH  54  68
BRANCH  55  74
ATOM     74  C   UNL A   1      44.116  25.304  26.984  1.00  0.00    -0.014 A 
ATOM     75  C   UNL A   1      44.918  24.226  27.404  1.00  0.00     0.009 A 
ATOM     76  C   UNL A   1      43.656  25.286  25.656  1.00  0.00     0.009 A 
ATOM     77  C   UNL A   1      45.273  23.191  26.532  1.00  0.00     0.001 A 
ATOM     78  C   UNL A   1      44.018  24.251  24.778  1.00  0.00     0.001 A 
ATOM     79  C   UNL A   1      44.837  23.212  25.213  1.00  0.00     0.000 A 
ENDBRANCH  55  74
BRANCH  67  80
ATOM     80  C   UNL A   1      46.231  30.234  30.421  1.00  0.00    -0.014 A 
ATOM     81  C   UNL A   1      45.369  30.980  29.599  1.00  0.00     0.009 A 
ATOM     82  C   UNL A   1      47.616  30.421  30.272  1.00  0.00     0.009 A 
ATOM     83  C   UNL A   1      45.873  31.862  28.641  1.00  0.00     0.001 A 
ATOM     84  C   UNL A   1      48.120  31.327  29.332  1.00  0.00     0.001 A 
ATOM     85  C   UNL A   1      47.248  32.035  28.507  1.00  0.00     0.000 A 
ENDBRANCH  67  80
ENDBRANCH  41  42
ENDBRANCH  34  36
ENDBRANCH  33  34
ENDBRANCH  32  33
ENDBRANCH  31  32
ENDBRANCH  30  31
ENDBRANCH  29  30
ENDBRANCH  28  29
ENDBRANCH   1  28
TORSDOF 22
ENDMDL
