MODEL 1
REMARK VINA RESULT:      -9.3      0.000      0.000
REMARK SMILES CC[C@H]1CCC[C@H](O[C@@H]2CC[C@]([NH2+]C(C)C)(C(=O)OCCOCCOCCOCCOC(=O)c3ccc(-c4c5nc(c(-c6ccccc6)c6ccc([nH]6)c(-c6ccccc6)c6nc(c(-c7ccccc7)c7ccc4[nH]7)C=C6)C=C5)cc3)C2)C1
REMARK SMILES IDX 24 1 23 2 22 3 21 4 20 5 19 6 17 7 18 8 12 9 9 10 10 11
REMARK SMILES IDX 82 12 11 13 8 14 7 15 3 16 4 17 83 18 5 19 6 20 2 21 1 22
REMARK SMILES IDX 13 23 14 26 15 27 16 28 25 29 26 30 27 31 28 32 29 33 30 34
REMARK SMILES IDX 31 35 32 36 33 37 34 38 35 39 81 40 36 41 80 42 37 43 38 44
REMARK SMILES IDX 39 45 74 46 40 47 79 48 73 49 75 50 41 51 78 52 72 53 71 54
REMARK SMILES IDX 42 56 64 57 49 58 63 59 50 60 53 61 62 62 76 63 51 64 52 65
REMARK SMILES IDX 61 67 77 68 54 69 43 70 44 71 48 72 45 73 47 74 46 75 65 76
REMARK SMILES IDX 66 77 70 78 67 79 69 80 68 81 55 82 56 83 60 84 57 85 59 86
REMARK SMILES IDX 58 87
REMARK H PARENT 13 24 13 25 75 55 53 66
REMARK Flexibility Score: inf
ROOT
ATOM      1  C   UNL A   1      35.704  33.043  27.836  1.00  0.00     0.188 C 
ENDROOT
BRANCH   1   2
ATOM      2  C   UNL A   1      35.258  31.569  27.938  1.00  0.00     0.188 C 
BRANCH   2   3
ATOM      3  O   UNL A   1      33.881  31.327  28.127  1.00  0.00    -0.376 OA
BRANCH   3   4
ATOM      4  C   UNL A   1      33.142  30.589  27.168  1.00  0.00     0.202 C 
BRANCH   4   5
ATOM      5  C   UNL A   1      33.716  29.946  25.884  1.00  0.00     0.261 C 
BRANCH   5   6
ATOM      6  O   UNL A   1      33.968  28.536  25.831  1.00  0.00    -0.459 OA
BRANCH   6   7
ATOM      7  C   UNL A   1      32.927  27.660  25.829  1.00  0.00     0.368 C 
ATOM      8  O   UNL A   1      32.335  27.324  26.847  1.00  0.00    -0.245 OA
BRANCH   7   9
ATOM      9  C   UNL A   1      32.579  27.195  24.356  1.00  0.00     0.197 C 
ATOM     10  C   UNL A   1      32.948  25.552  22.605  1.00  0.00     0.125 C 
ATOM     11  C   UNL A   1      33.653  26.819  22.122  1.00  0.00     0.039 C 
ATOM     12  C   UNL A   1      32.927  25.719  24.111  1.00  0.00     0.113 C 
ATOM     13  C   UNL A   1      33.431  27.868  23.238  1.00  0.00     0.084 C 
BRANCH  10  14
ATOM     14  O   UNL A   1      33.373  24.313  22.062  1.00  0.00    -0.375 OA
BRANCH  14  15
ATOM     15  C   UNL A   1      33.590  23.108  22.802  1.00  0.00     0.118 C 
ATOM     16  C   UNL A   1      32.604  21.333  24.434  1.00  0.00    -0.009 C 
ATOM     17  C   UNL A   1      33.912  21.477  25.232  1.00  0.00     0.004 C 
ATOM     18  C   UNL A   1      32.357  22.565  23.547  1.00  0.00     0.035 C 
ATOM     19  C   UNL A   1      35.108  21.821  24.353  1.00  0.00     0.003 C 
ATOM     20  C   UNL A   1      34.869  23.141  23.632  1.00  0.00     0.032 C 
BRANCH  16  21
ATOM     21  C   UNL A   1      32.537  19.999  23.675  1.00  0.00     0.000 C 
ATOM     22  C   UNL A   1      32.650  18.786  24.593  1.00  0.00     0.004 C 
ENDBRANCH  16  21
ENDBRANCH  14  15
ENDBRANCH  10  14
BRANCH   9  23
ATOM     23  N   UNL A   1      31.172  27.538  24.074  1.00  0.00    -0.330 N 
ATOM     24  H   UNL A   1      30.677  27.572  24.965  1.00  0.00     0.347 HD
ATOM     25  H   UNL A   1      30.841  26.818  23.432  1.00  0.00     0.347 HD
BRANCH  23  26
ATOM     26  C   UNL A   1      30.936  28.805  23.388  1.00  0.00     0.176 C 
ATOM     27  C   UNL A   1      29.782  28.575  22.417  1.00  0.00     0.075 C 
ATOM     28  C   UNL A   1      30.572  29.899  24.393  1.00  0.00     0.075 C 
ENDBRANCH  23  26
ENDBRANCH   9  23
ENDBRANCH   7   9
ENDBRANCH   6   7
ENDBRANCH   5   6
ENDBRANCH   4   5
ENDBRANCH   3   4
ENDBRANCH   2   3
ENDBRANCH   1   2
BRANCH   1  29
ATOM     29  O   UNL A   1      34.609  33.937  27.687  1.00  0.00    -0.377 OA
BRANCH  29  30
ATOM     30  C   UNL A   1      34.528  34.924  28.710  1.00  0.00     0.188 C 
BRANCH  30  31
ATOM     31  C   UNL A   1      33.577  34.610  29.884  1.00  0.00     0.188 C 
BRANCH  31  32
ATOM     32  O   UNL A   1      33.761  35.472  30.997  1.00  0.00    -0.376 OA
BRANCH  32  33
ATOM     33  C   UNL A   1      33.883  35.003  32.323  1.00  0.00     0.202 C 
BRANCH  33  34
ATOM     34  C   UNL A   1      35.231  34.489  32.848  1.00  0.00     0.261 C 
BRANCH  34  35
ATOM     35  O   UNL A   1      35.675  33.216  32.370  1.00  0.00    -0.460 OA
BRANCH  35  36
ATOM     36  C   UNL A   1      36.523  32.515  33.147  1.00  0.00     0.338 C 
ATOM     37  O   UNL A   1      36.423  32.296  34.341  1.00  0.00    -0.246 OA
BRANCH  36  38
ATOM     38  C   UNL A   1      37.492  31.864  32.239  1.00  0.00     0.060 A 
ATOM     39  C   UNL A   1      38.398  30.934  32.766  1.00  0.00     0.016 A 
ATOM     40  C   UNL A   1      37.470  32.135  30.868  1.00  0.00     0.016 A 
ATOM     41  C   UNL A   1      39.302  30.288  31.927  1.00  0.00     0.010 A 
ATOM     42  C   UNL A   1      38.400  31.516  30.032  1.00  0.00     0.010 A 
ATOM     43  C   UNL A   1      39.341  30.618  30.567  1.00  0.00    -0.014 A 
BRANCH  43  44
ATOM     44  C   UNL A   1      40.513  30.214  29.761  1.00  0.00     0.031 A 
ATOM     45  C   UNL A   1      40.475  28.864  29.099  1.00  0.00     0.074 A 
ATOM     46  C   UNL A   1      41.568  31.029  29.594  1.00  0.00     0.049 A 
ATOM     47  N   UNL A   1      41.382  28.270  28.371  1.00  0.00    -0.248 NA
ATOM     48  C   UNL A   1      39.241  28.081  29.286  1.00  0.00     0.031 C 
ATOM     49  C   UNL A   1      41.692  32.382  30.131  1.00  0.00     0.029 A 
ATOM     50  N   UNL A   1      42.742  30.824  28.915  1.00  0.00    -0.354 N 
ATOM     51  C   UNL A   1      40.837  27.039  28.029  1.00  0.00     0.074 A 
ATOM     52  C   UNL A   1      39.533  26.961  28.646  1.00  0.00     0.031 C 
ATOM     53  C   UNL A   1      42.882  32.888  29.759  1.00  0.00     0.029 A 
ATOM     54  C   UNL A   1      43.615  31.880  28.997  1.00  0.00     0.049 A 
ATOM     55  H   UNL A   1      42.940  29.998  28.417  1.00  0.00     0.167 HD
ATOM     56  C   UNL A   1      41.376  26.059  27.267  1.00  0.00     0.031 A 
ATOM     57  C   UNL A   1      44.870  32.004  28.523  1.00  0.00     0.031 A 
ATOM     58  C   UNL A   1      42.680  26.134  26.668  1.00  0.00     0.049 A 
ATOM     59  C   UNL A   1      45.485  30.858  27.759  1.00  0.00     0.074 A 
ATOM     60  C   UNL A   1      43.312  25.204  25.863  1.00  0.00     0.029 A 
ATOM     61  N   UNL A   1      43.557  27.196  26.823  1.00  0.00    -0.354 N 
ATOM     62  N   UNL A   1      44.953  29.709  27.417  1.00  0.00    -0.248 NA
ATOM     63  C   UNL A   1      46.875  31.033  27.314  1.00  0.00     0.031 C 
ATOM     64  C   UNL A   1      44.601  25.672  25.591  1.00  0.00     0.029 A 
ATOM     65  C   UNL A   1      44.742  26.928  26.161  1.00  0.00     0.049 A 
ATOM     66  H   UNL A   1      43.365  28.019  27.329  1.00  0.00     0.167 HD
ATOM     67  C   UNL A   1      45.928  29.041  26.686  1.00  0.00     0.074 A 
ATOM     68  C   UNL A   1      47.080  29.919  26.625  1.00  0.00     0.031 C 
ATOM     69  C   UNL A   1      45.876  27.814  26.111  1.00  0.00     0.031 A 
BRANCH  56  70
ATOM     70  C   UNL A   1      40.572  24.800  27.092  1.00  0.00    -0.014 A 
ATOM     71  C   UNL A   1      39.353  24.793  26.394  1.00  0.00     0.009 A 
ATOM     72  C   UNL A   1      41.057  23.595  27.623  1.00  0.00     0.009 A 
ATOM     73  C   UNL A   1      38.619  23.612  26.267  1.00  0.00     0.001 A 
ATOM     74  C   UNL A   1      40.337  22.410  27.466  1.00  0.00     0.001 A 
ATOM     75  C   UNL A   1      39.115  22.421  26.798  1.00  0.00     0.000 A 
ENDBRANCH  56  70
BRANCH  57  76
ATOM     76  C   UNL A   1      45.645  33.250  28.767  1.00  0.00    -0.014 A 
ATOM     77  C   UNL A   1      46.422  33.394  29.927  1.00  0.00     0.009 A 
ATOM     78  C   UNL A   1      45.588  34.316  27.854  1.00  0.00     0.009 A 
ATOM     79  C   UNL A   1      47.102  34.588  30.181  1.00  0.00     0.001 A 
ATOM     80  C   UNL A   1      46.294  35.496  28.096  1.00  0.00     0.001 A 
ATOM     81  C   UNL A   1      47.041  35.636  29.264  1.00  0.00     0.000 A 
ENDBRANCH  57  76
BRANCH  69  82
ATOM     82  C   UNL A   1      47.079  27.365  25.326  1.00  0.00    -0.014 A 
ATOM     83  C   UNL A   1      47.258  27.728  23.982  1.00  0.00     0.009 A 
ATOM     84  C   UNL A   1      48.075  26.606  25.962  1.00  0.00     0.009 A 
ATOM     85  C   UNL A   1      48.392  27.306  23.282  1.00  0.00     0.001 A 
ATOM     86  C   UNL A   1      49.223  26.218  25.271  1.00  0.00     0.001 A 
ATOM     87  C   UNL A   1      49.375  26.558  23.929  1.00  0.00     0.000 A 
ENDBRANCH  69  82
ENDBRANCH  43  44
ENDBRANCH  36  38
ENDBRANCH  35  36
ENDBRANCH  34  35
ENDBRANCH  33  34
ENDBRANCH  32  33
ENDBRANCH  31  32
ENDBRANCH  30  31
ENDBRANCH  29  30
ENDBRANCH   1  29
TORSDOF 25
ENDMDL
MODEL 2
REMARK VINA RESULT:      -8.0      6.895     10.941
REMARK SMILES CC[C@H]1CCC[C@H](O[C@@H]2CC[C@]([NH2+]C(C)C)(C(=O)OCCOCCOCCOCCOC(=O)c3ccc(-c4c5nc(c(-c6ccccc6)c6ccc([nH]6)c(-c6ccccc6)c6nc(c(-c7ccccc7)c7ccc4[nH]7)C=C6)C=C5)cc3)C2)C1
REMARK SMILES IDX 24 1 23 2 22 3 21 4 20 5 19 6 17 7 18 8 12 9 9 10 10 11
REMARK SMILES IDX 82 12 11 13 8 14 7 15 3 16 4 17 83 18 5 19 6 20 2 21 1 22
REMARK SMILES IDX 13 23 14 26 15 27 16 28 25 29 26 30 27 31 28 32 29 33 30 34
REMARK SMILES IDX 31 35 32 36 33 37 34 38 35 39 81 40 36 41 80 42 37 43 38 44
REMARK SMILES IDX 39 45 74 46 40 47 79 48 73 49 75 50 41 51 78 52 72 53 71 54
REMARK SMILES IDX 42 56 64 57 49 58 63 59 50 60 53 61 62 62 76 63 51 64 52 65
REMARK SMILES IDX 61 67 77 68 54 69 43 70 44 71 48 72 45 73 47 74 46 75 65 76
REMARK SMILES IDX 66 77 70 78 67 79 69 80 68 81 55 82 56 83 60 84 57 85 59 86
REMARK SMILES IDX 58 87
REMARK H PARENT 13 24 13 25 75 55 53 66
REMARK Flexibility Score: inf
ROOT
ATOM      1  C   UNL A   1      33.828  31.141  27.189  1.00  0.00     0.188 C 
ENDROOT
BRANCH   1   2
ATOM      2  C   UNL A   1      32.583  30.359  26.720  1.00  0.00     0.188 C 
BRANCH   2   3
ATOM      3  O   UNL A   1      32.481  29.012  27.124  1.00  0.00    -0.376 OA
BRANCH   3   4
ATOM      4  C   UNL A   1      31.288  28.280  26.897  1.00  0.00     0.202 C 
BRANCH   4   5
ATOM      5  C   UNL A   1      31.118  26.753  27.066  1.00  0.00     0.261 C 
BRANCH   5   6
ATOM      6  O   UNL A   1      32.140  25.856  26.612  1.00  0.00    -0.459 OA
BRANCH   6   7
ATOM      7  C   UNL A   1      31.871  24.529  26.484  1.00  0.00     0.368 C 
ATOM      8  O   UNL A   1      31.038  23.947  27.166  1.00  0.00    -0.245 OA
BRANCH   7   9
ATOM      9  C   UNL A   1      32.735  23.884  25.324  1.00  0.00     0.197 C 
ATOM     10  C   UNL A   1      34.176  22.050  24.644  1.00  0.00     0.125 C 
ATOM     11  C   UNL A   1      35.099  23.263  24.764  1.00  0.00     0.039 C 
ATOM     12  C   UNL A   1      33.026  22.396  25.568  1.00  0.00     0.113 C 
ATOM     13  C   UNL A   1      34.189  24.433  25.207  1.00  0.00     0.084 C 
BRANCH  10  14
ATOM     14  O   UNL A   1      34.763  20.763  24.737  1.00  0.00    -0.375 OA
BRANCH  14  15
ATOM     15  C   UNL A   1      34.069  19.518  24.610  1.00  0.00     0.118 C 
ATOM     16  C   UNL A   1      34.240  16.935  24.329  1.00  0.00    -0.009 C 
ATOM     17  C   UNL A   1      33.175  17.077  23.228  1.00  0.00     0.004 C 
ATOM     18  C   UNL A   1      34.966  18.267  24.576  1.00  0.00     0.035 C 
ATOM     19  C   UNL A   1      32.216  18.234  23.478  1.00  0.00     0.003 C 
ATOM     20  C   UNL A   1      32.982  19.549  23.541  1.00  0.00     0.032 C 
BRANCH  16  21
ATOM     21  C   UNL A   1      33.669  16.294  25.603  1.00  0.00     0.000 C 
ATOM     22  C   UNL A   1      32.935  14.985  25.333  1.00  0.00     0.004 C 
ENDBRANCH  16  21
ENDBRANCH  14  15
ENDBRANCH  10  14
BRANCH   9  23
ATOM     23  N   UNL A   1      32.076  24.166  24.034  1.00  0.00    -0.330 N 
ATOM     24  H   UNL A   1      31.092  24.356  24.224  1.00  0.00     0.347 HD
ATOM     25  H   UNL A   1      32.245  23.342  23.458  1.00  0.00     0.347 HD
BRANCH  23  26
ATOM     26  C   UNL A   1      32.604  25.290  23.266  1.00  0.00     0.176 C 
ATOM     27  C   UNL A   1      32.906  24.766  21.865  1.00  0.00     0.075 C 
ATOM     28  C   UNL A   1      31.577  26.422  23.197  1.00  0.00     0.075 C 
ENDBRANCH  23  26
ENDBRANCH   9  23
ENDBRANCH   7   9
ENDBRANCH   6   7
ENDBRANCH   5   6
ENDBRANCH   4   5
ENDBRANCH   3   4
ENDBRANCH   2   3
ENDBRANCH   1   2
BRANCH   1  29
ATOM     29  O   UNL A   1      34.983  30.319  27.293  1.00  0.00    -0.377 OA
BRANCH  29  30
ATOM     30  C   UNL A   1      35.678  30.455  28.529  1.00  0.00     0.188 C 
BRANCH  30  31
ATOM     31  C   UNL A   1      37.149  30.908  28.436  1.00  0.00     0.188 C 
BRANCH  31  32
ATOM     32  O   UNL A   1      37.346  32.252  28.851  1.00  0.00    -0.376 OA
BRANCH  32  33
ATOM     33  C   UNL A   1      36.330  33.231  28.797  1.00  0.00     0.202 C 
BRANCH  33  34
ATOM     34  C   UNL A   1      35.532  33.598  30.056  1.00  0.00     0.261 C 
BRANCH  34  35
ATOM     35  O   UNL A   1      36.097  33.233  31.317  1.00  0.00    -0.460 OA
BRANCH  35  36
ATOM     36  C   UNL A   1      35.891  34.059  32.361  1.00  0.00     0.338 C 
ATOM     37  O   UNL A   1      34.956  34.821  32.527  1.00  0.00    -0.246 OA
BRANCH  36  38
ATOM     38  C   UNL A   1      36.900  33.710  33.384  1.00  0.00     0.060 A 
ATOM     39  C   UNL A   1      37.140  32.359  33.668  1.00  0.00     0.016 A 
ATOM     40  C   UNL A   1      37.637  34.712  34.022  1.00  0.00     0.016 A 
ATOM     41  C   UNL A   1      38.105  32.005  34.609  1.00  0.00     0.010 A 
ATOM     42  C   UNL A   1      38.577  34.359  34.992  1.00  0.00     0.010 A 
ATOM     43  C   UNL A   1      38.786  33.005  35.311  1.00  0.00    -0.014 A 
BRANCH  43  44
ATOM     44  C   UNL A   1      39.528  32.646  36.539  1.00  0.00     0.031 A 
ATOM     45  C   UNL A   1      38.757  32.580  37.828  1.00  0.00     0.074 A 
ATOM     46  C   UNL A   1      40.840  32.355  36.510  1.00  0.00     0.049 A 
ATOM     47  N   UNL A   1      39.179  32.321  39.037  1.00  0.00    -0.248 NA
ATOM     48  C   UNL A   1      37.310  32.844  37.736  1.00  0.00     0.031 C 
ATOM     49  C   UNL A   1      41.678  32.321  35.313  1.00  0.00     0.029 A 
ATOM     50  N   UNL A   1      41.694  32.032  37.533  1.00  0.00    -0.354 N 
ATOM     51  C   UNL A   1      38.056  32.408  39.850  1.00  0.00     0.074 A 
ATOM     52  C   UNL A   1      36.941  32.765  39.004  1.00  0.00     0.031 C 
ATOM     53  C   UNL A   1      42.933  31.994  35.673  1.00  0.00     0.029 A 
ATOM     54  C   UNL A   1      42.990  31.837  37.125  1.00  0.00     0.049 A 
ATOM     55  H   UNL A   1      41.405  31.947  38.470  1.00  0.00     0.167 HD
ATOM     56  C   UNL A   1      37.962  32.206  41.184  1.00  0.00     0.031 A 
ATOM     57  C   UNL A   1      44.096  31.582  37.850  1.00  0.00     0.031 A 
ATOM     58  C   UNL A   1      39.078  31.865  42.025  1.00  0.00     0.049 A 
ATOM     59  C   UNL A   1      43.981  31.458  39.348  1.00  0.00     0.074 A 
ATOM     60  C   UNL A   1      39.087  31.622  43.386  1.00  0.00     0.029 A 
ATOM     61  N   UNL A   1      40.385  31.736  41.582  1.00  0.00    -0.354 N 
ATOM     62  N   UNL A   1      42.913  31.514  40.106  1.00  0.00    -0.248 NA
ATOM     63  C   UNL A   1      45.231  31.231  40.089  1.00  0.00     0.031 C 
ATOM     64  C   UNL A   1      40.412  31.417  43.780  1.00  0.00     0.029 A 
ATOM     65  C   UNL A   1      41.217  31.454  42.652  1.00  0.00     0.049 A 
ATOM     66  H   UNL A   1      40.678  31.830  40.647  1.00  0.00     0.167 HD
ATOM     67  C   UNL A   1      43.355  31.293  41.405  1.00  0.00     0.074 A 
ATOM     68  C   UNL A   1      44.787  31.091  41.331  1.00  0.00     0.031 C 
ATOM     69  C   UNL A   1      42.640  31.255  42.558  1.00  0.00     0.031 A 
BRANCH  56  70
ATOM     70  C   UNL A   1      36.615  32.409  41.820  1.00  0.00    -0.014 A 
ATOM     71  C   UNL A   1      35.779  31.327  42.141  1.00  0.00     0.009 A 
ATOM     72  C   UNL A   1      36.184  33.711  42.118  1.00  0.00     0.009 A 
ATOM     73  C   UNL A   1      34.524  31.549  42.711  1.00  0.00     0.001 A 
ATOM     74  C   UNL A   1      34.943  33.928  42.718  1.00  0.00     0.001 A 
ATOM     75  C   UNL A   1      34.110  32.848  43.004  1.00  0.00     0.000 A 
ENDBRANCH  56  70
BRANCH  57  76
ATOM     76  C   UNL A   1      45.417  31.440  37.180  1.00  0.00    -0.014 A 
ATOM     77  C   UNL A   1      46.251  32.555  37.002  1.00  0.00     0.009 A 
ATOM     78  C   UNL A   1      45.838  30.194  36.688  1.00  0.00     0.009 A 
ATOM     79  C   UNL A   1      47.465  32.430  36.321  1.00  0.00     0.001 A 
ATOM     80  C   UNL A   1      47.066  30.067  36.035  1.00  0.00     0.001 A 
ATOM     81  C   UNL A   1      47.873  31.186  35.843  1.00  0.00     0.000 A 
ENDBRANCH  57  76
BRANCH  69  82
ATOM     82  C   UNL A   1      43.387  30.938  43.825  1.00  0.00    -0.014 A 
ATOM     83  C   UNL A   1      43.819  31.949  44.697  1.00  0.00     0.009 A 
ATOM     84  C   UNL A   1      43.615  29.596  44.174  1.00  0.00     0.009 A 
ATOM     85  C   UNL A   1      44.499  31.622  45.874  1.00  0.00     0.001 A 
ATOM     86  C   UNL A   1      44.262  29.273  45.367  1.00  0.00     0.001 A 
ATOM     87  C   UNL A   1      44.713  30.286  46.210  1.00  0.00     0.000 A 
ENDBRANCH  69  82
ENDBRANCH  43  44
ENDBRANCH  36  38
ENDBRANCH  35  36
ENDBRANCH  34  35
ENDBRANCH  33  34
ENDBRANCH  32  33
ENDBRANCH  31  32
ENDBRANCH  30  31
ENDBRANCH  29  30
ENDBRANCH   1  29
TORSDOF 25
ENDMDL
MODEL 3
REMARK VINA RESULT:      -7.6      4.478     11.041
REMARK SMILES CC[C@H]1CCC[C@H](O[C@@H]2CC[C@]([NH2+]C(C)C)(C(=O)OCCOCCOCCOCCOC(=O)c3ccc(-c4c5nc(c(-c6ccccc6)c6ccc([nH]6)c(-c6ccccc6)c6nc(c(-c7ccccc7)c7ccc4[nH]7)C=C6)C=C5)cc3)C2)C1
REMARK SMILES IDX 24 1 23 2 22 3 21 4 20 5 19 6 17 7 18 8 12 9 9 10 10 11
REMARK SMILES IDX 82 12 11 13 8 14 7 15 3 16 4 17 83 18 5 19 6 20 2 21 1 22
REMARK SMILES IDX 13 23 14 26 15 27 16 28 25 29 26 30 27 31 28 32 29 33 30 34
REMARK SMILES IDX 31 35 32 36 33 37 34 38 35 39 81 40 36 41 80 42 37 43 38 44
REMARK SMILES IDX 39 45 74 46 40 47 79 48 73 49 75 50 41 51 78 52 72 53 71 54
REMARK SMILES IDX 42 56 64 57 49 58 63 59 50 60 53 61 62 62 76 63 51 64 52 65
REMARK SMILES IDX 61 67 77 68 54 69 43 70 44 71 48 72 45 73 47 74 46 75 65 76
REMARK SMILES IDX 66 77 70 78 67 79 69 80 68 81 55 82 56 83 60 84 57 85 59 86
REMARK SMILES IDX 58 87
REMARK H PARENT 13 24 13 25 75 55 53 66
REMARK Flexibility Score: inf
ROOT
ATOM      1  C   UNL A   1      40.092  27.673  29.549  1.00  0.00     0.188 C 
ENDROOT
BRANCH   1   2
ATOM      2  C   UNL A   1      39.376  29.036  29.436  1.00  0.00     0.188 C 
BRANCH   2   3
ATOM      3  O   UNL A   1      39.183  29.553  28.138  1.00  0.00    -0.376 OA
BRANCH   3   4
ATOM      4  C   UNL A   1      37.914  30.044  27.740  1.00  0.00     0.202 C 
BRANCH   4   5
ATOM      5  C   UNL A   1      36.598  29.897  28.538  1.00  0.00     0.261 C 
BRANCH   5   6
ATOM      6  O   UNL A   1      36.200  30.909  29.472  1.00  0.00    -0.459 OA
BRANCH   6   7
ATOM      7  C   UNL A   1      35.833  32.140  29.024  1.00  0.00     0.368 C 
ATOM      8  O   UNL A   1      35.598  32.379  27.847  1.00  0.00    -0.245 OA
BRANCH   7   9
ATOM      9  C   UNL A   1      35.712  33.167  30.223  1.00  0.00     0.197 C 
ATOM     10  C   UNL A   1      36.676  33.993  32.294  1.00  0.00     0.125 C 
ATOM     11  C   UNL A   1      35.414  33.239  32.711  1.00  0.00     0.039 C 
ATOM     12  C   UNL A   1      37.041  33.354  30.970  1.00  0.00     0.113 C 
ATOM     13  C   UNL A   1      34.800  32.700  31.397  1.00  0.00     0.084 C 
BRANCH  10  14
ATOM     14  O   UNL A   1      37.690  34.171  33.269  1.00  0.00    -0.375 OA
BRANCH  14  15
ATOM     15  C   UNL A   1      37.819  33.428  34.484  1.00  0.00     0.118 C 
ATOM     16  C   UNL A   1      38.492  33.444  37.000  1.00  0.00    -0.009 C 
ATOM     17  C   UNL A   1      39.272  32.151  36.704  1.00  0.00     0.004 C 
ATOM     18  C   UNL A   1      38.244  34.250  35.715  1.00  0.00     0.035 C 
ATOM     19  C   UNL A   1      38.638  31.317  35.598  1.00  0.00     0.003 C 
ATOM     20  C   UNL A   1      38.578  32.117  34.303  1.00  0.00     0.032 C 
BRANCH  16  21
ATOM     21  C   UNL A   1      37.220  33.174  37.818  1.00  0.00     0.000 C 
ATOM     22  C   UNL A   1      37.514  32.711  39.241  1.00  0.00     0.004 C 
ENDBRANCH  16  21
ENDBRANCH  14  15
ENDBRANCH  10  14
BRANCH   9  23
ATOM     23  N   UNL A   1      35.126  34.421  29.711  1.00  0.00    -0.330 N 
ATOM     24  H   UNL A   1      35.369  34.496  28.723  1.00  0.00     0.347 HD
ATOM     25  H   UNL A   1      35.512  35.160  30.299  1.00  0.00     0.347 HD
BRANCH  23  26
ATOM     26  C   UNL A   1      33.677  34.555  29.822  1.00  0.00     0.176 C 
ATOM     27  C   UNL A   1      33.408  35.865  30.558  1.00  0.00     0.075 C 
ATOM     28  C   UNL A   1      33.033  34.586  28.434  1.00  0.00     0.075 C 
ENDBRANCH  23  26
ENDBRANCH   9  23
ENDBRANCH   7   9
ENDBRANCH   6   7
ENDBRANCH   5   6
ENDBRANCH   4   5
ENDBRANCH   3   4
ENDBRANCH   2   3
ENDBRANCH   1   2
BRANCH   1  29
ATOM     29  O   UNL A   1      40.334  27.075  28.282  1.00  0.00    -0.377 OA
BRANCH  29  30
ATOM     30  C   UNL A   1      41.064  25.855  28.351  1.00  0.00     0.188 C 
BRANCH  30  31
ATOM     31  C   UNL A   1      40.271  24.569  28.038  1.00  0.00     0.188 C 
BRANCH  31  32
ATOM     32  O   UNL A   1      41.056  23.569  27.407  1.00  0.00    -0.376 OA
BRANCH  32  33
ATOM     33  C   UNL A   1      42.099  23.866  26.503  1.00  0.00     0.202 C 
BRANCH  33  34
ATOM     34  C   UNL A   1      43.086  22.775  26.064  1.00  0.00     0.261 C 
BRANCH  34  35
ATOM     35  O   UNL A   1      44.214  22.537  26.910  1.00  0.00    -0.460 OA
BRANCH  35  36
ATOM     36  C   UNL A   1      45.441  22.614  26.358  1.00  0.00     0.338 C 
ATOM     37  O   UNL A   1      46.056  21.725  25.797  1.00  0.00    -0.246 OA
BRANCH  36  38
ATOM     38  C   UNL A   1      45.820  24.043  26.361  1.00  0.00     0.060 A 
ATOM     39  C   UNL A   1      45.760  24.763  25.161  1.00  0.00     0.016 A 
ATOM     40  C   UNL A   1      46.183  24.677  27.553  1.00  0.00     0.016 A 
ATOM     41  C   UNL A   1      46.086  26.117  25.144  1.00  0.00     0.010 A 
ATOM     42  C   UNL A   1      46.546  26.024  27.529  1.00  0.00     0.010 A 
ATOM     43  C   UNL A   1      46.532  26.737  26.317  1.00  0.00    -0.014 A 
BRANCH  43  44
ATOM     44  C   UNL A   1      47.211  28.048  26.226  1.00  0.00     0.031 A 
ATOM     45  C   UNL A   1      48.692  28.051  25.968  1.00  0.00     0.074 A 
ATOM     46  C   UNL A   1      46.533  29.202  26.339  1.00  0.00     0.049 A 
ATOM     47  N   UNL A   1      49.518  29.059  25.877  1.00  0.00    -0.248 NA
ATOM     48  C   UNL A   1      49.326  26.733  25.786  1.00  0.00     0.031 C 
ATOM     49  C   UNL A   1      45.089  29.326  26.525  1.00  0.00     0.029 A 
ATOM     50  N   UNL A   1      46.985  30.496  26.311  1.00  0.00    -0.354 N 
ATOM     51  C   UNL A   1      50.768  28.497  25.646  1.00  0.00     0.074 A 
ATOM     52  C   UNL A   1      50.597  27.063  25.634  1.00  0.00     0.031 C 
ATOM     53  C   UNL A   1      44.773  30.632  26.596  1.00  0.00     0.029 A 
ATOM     54  C   UNL A   1      45.995  31.428  26.500  1.00  0.00     0.049 A 
ATOM     55  H   UNL A   1      47.930  30.735  26.168  1.00  0.00     0.167 HD
ATOM     56  C   UNL A   1      51.953  29.123  25.461  1.00  0.00     0.031 A 
ATOM     57  C   UNL A   1      46.076  32.769  26.605  1.00  0.00     0.031 A 
ATOM     58  C   UNL A   1      52.121  30.550  25.490  1.00  0.00     0.049 A 
ATOM     59  C   UNL A   1      47.425  33.435  26.492  1.00  0.00     0.074 A 
ATOM     60  C   UNL A   1      53.276  31.285  25.296  1.00  0.00     0.029 A 
ATOM     61  N   UNL A   1      51.103  31.456  25.744  1.00  0.00    -0.354 N 
ATOM     62  N   UNL A   1      48.597  32.899  26.247  1.00  0.00    -0.248 NA
ATOM     63  C   UNL A   1      47.456  34.894  26.666  1.00  0.00     0.031 C 
ATOM     64  C   UNL A   1      52.971  32.633  25.504  1.00  0.00     0.029 A 
ATOM     65  C   UNL A   1      51.612  32.743  25.750  1.00  0.00     0.049 A 
ATOM     66  H   UNL A   1      50.160  31.220  25.896  1.00  0.00     0.167 HD
ATOM     67  C   UNL A   1      49.496  33.958  26.201  1.00  0.00     0.074 A 
ATOM     68  C   UNL A   1      48.732  35.167  26.432  1.00  0.00     0.031 C 
ATOM     69  C   UNL A   1      50.835  33.934  25.982  1.00  0.00     0.031 A 
BRANCH  56  70
ATOM     70  C   UNL A   1      53.167  28.257  25.270  1.00  0.00    -0.014 A 
ATOM     71  C   UNL A   1      53.928  27.802  26.359  1.00  0.00     0.009 A 
ATOM     72  C   UNL A   1      53.545  27.877  23.972  1.00  0.00     0.009 A 
ATOM     73  C   UNL A   1      55.063  27.016  26.148  1.00  0.00     0.001 A 
ATOM     74  C   UNL A   1      54.661  27.065  23.767  1.00  0.00     0.001 A 
ATOM     75  C   UNL A   1      55.425  26.644  24.854  1.00  0.00     0.000 A 
ENDBRANCH  56  70
BRANCH  57  76
ATOM     76  C   UNL A   1      44.853  33.579  26.846  1.00  0.00    -0.014 A 
ATOM     77  C   UNL A   1      44.148  34.147  25.773  1.00  0.00     0.009 A 
ATOM     78  C   UNL A   1      44.399  33.814  28.154  1.00  0.00     0.009 A 
ATOM     79  C   UNL A   1      43.033  34.956  26.007  1.00  0.00     0.001 A 
ATOM     80  C   UNL A   1      43.266  34.598  28.382  1.00  0.00     0.001 A 
ATOM     81  C   UNL A   1      42.590  35.176  27.310  1.00  0.00     0.000 A 
ENDBRANCH  57  76
BRANCH  69  82
ATOM     82  C   UNL A   1      51.553  35.256  25.934  1.00  0.00    -0.014 A 
ATOM     83  C   UNL A   1      51.685  35.979  24.738  1.00  0.00     0.009 A 
ATOM     84  C   UNL A   1      52.061  35.809  27.121  1.00  0.00     0.009 A 
ATOM     85  C   UNL A   1      52.346  37.210  24.727  1.00  0.00     0.001 A 
ATOM     86  C   UNL A   1      52.687  37.056  27.113  1.00  0.00     0.001 A 
ATOM     87  C   UNL A   1      52.839  37.749  25.914  1.00  0.00     0.000 A 
ENDBRANCH  69  82
ENDBRANCH  43  44
ENDBRANCH  36  38
ENDBRANCH  35  36
ENDBRANCH  34  35
ENDBRANCH  33  34
ENDBRANCH  32  33
ENDBRANCH  31  32
ENDBRANCH  30  31
ENDBRANCH  29  30
ENDBRANCH   1  29
TORSDOF 25
ENDMDL
