MODEL 1
REMARK VINA RESULT:      -7.4      0.000      0.000
REMARK SMILES CC(C)Oc1ccc(/C=C(\NC(=O)c2ccccc2)C(=O)OCCOCCOCCOCCOC(=O)c2ccc(-c3c4nc(c(-c5ccccc5)c5ccc([nH]5)c(-c5ccccc5)c5nc(c(-c6ccccc6)c6ccc3[nH]6)C=C5)C=C4)cc2)cc1
REMARK SMILES IDX 27 1 26 2 25 3 24 4 23 5 22 6 20 7 21 8 10 9 9 10 8 11 5 12
REMARK SMILES IDX 6 13 86 14 7 15 85 16 4 17 2 18 1 19 3 20 11 21 12 22 13 24
REMARK SMILES IDX 14 25 15 26 19 27 16 28 18 29 17 30 28 31 29 32 30 33 31 34
REMARK SMILES IDX 32 35 33 36 34 37 35 38 36 39 37 40 38 41 84 42 39 43 83 44
REMARK SMILES IDX 40 45 41 46 42 47 77 48 43 49 82 50 76 51 78 52 44 53 81 54
REMARK SMILES IDX 75 55 74 56 45 58 67 59 52 60 66 61 53 62 56 63 65 64 79 65
REMARK SMILES IDX 54 66 55 67 64 69 80 70 57 71 46 72 47 73 51 74 48 75 50 76
REMARK SMILES IDX 49 77 68 78 69 79 73 80 70 81 72 82 71 83 58 84 59 85 63 86
REMARK SMILES IDX 60 87 62 88 61 89
REMARK H PARENT 11 23 78 57 56 68
REMARK Flexibility Score: inf
ROOT
ATOM      1  C   UNL A   1      45.770  40.540  31.329  1.00  0.00     0.188 C 
ENDROOT
BRANCH   1   2
ATOM      2  C   UNL A   1      46.086  41.686  30.343  1.00  0.00     0.188 C 
BRANCH   2   3
ATOM      3  O   UNL A   1      45.685  43.020  30.653  1.00  0.00    -0.376 OA
BRANCH   3   4
ATOM      4  C   UNL A   1      45.366  43.914  29.583  1.00  0.00     0.202 C 
BRANCH   4   5
ATOM      5  C   UNL A   1      44.865  43.295  28.278  1.00  0.00     0.261 C 
BRANCH   5   6
ATOM      6  O   UNL A   1      44.811  44.287  27.242  1.00  0.00    -0.459 OA
BRANCH   6   7
ATOM      7  C   UNL A   1      45.885  44.360  26.430  1.00  0.00     0.354 C 
ATOM      8  O   UNL A   1      46.977  44.822  26.727  1.00  0.00    -0.244 OA
BRANCH   7   9
ATOM      9  C   UNL A   1      45.613  43.607  25.165  1.00  0.00     0.128 C 
ATOM     10  C   UNL A   1      44.991  44.378  24.242  1.00  0.00     0.042 C 
BRANCH  10  11
ATOM     11  C   UNL A   1      44.506  44.084  22.874  1.00  0.00    -0.023 A 
ATOM     12  C   UNL A   1      43.580  43.917  20.194  1.00  0.00     0.119 A 
ATOM     13  C   UNL A   1      42.762  43.555  21.266  1.00  0.00     0.047 A 
ATOM     14  C   UNL A   1      44.874  44.342  20.460  1.00  0.00     0.047 A 
ATOM     15  C   UNL A   1      43.210  43.650  22.589  1.00  0.00     0.012 A 
ATOM     16  C   UNL A   1      45.333  44.418  21.788  1.00  0.00     0.012 A 
BRANCH  12  17
ATOM     17  O   UNL A   1      42.951  43.942  18.988  1.00  0.00    -0.491 OA
BRANCH  17  18
ATOM     18  C   UNL A   1      42.105  45.017  18.568  1.00  0.00     0.167 C 
ATOM     19  C   UNL A   1      42.832  46.178  17.900  1.00  0.00     0.052 C 
ATOM     20  C   UNL A   1      40.873  44.545  17.806  1.00  0.00     0.052 C 
ENDBRANCH  17  18
ENDBRANCH  12  17
ENDBRANCH  10  11
BRANCH   9  21
ATOM     21  N   UNL A   1      45.997  42.310  24.913  1.00  0.00    -0.316 N 
ATOM     22  C   UNL A   1      45.452  41.058  25.046  1.00  0.00     0.255 C 
ATOM     23  H   UNL A   1      46.907  42.269  24.539  1.00  0.00     0.170 HD
ATOM     24  O   UNL A   1      46.142  40.098  24.691  1.00  0.00    -0.269 OA
BRANCH  22  25
ATOM     25  C   UNL A   1      44.134  40.763  25.635  1.00  0.00     0.040 A 
ATOM     26  C   UNL A   1      44.083  39.718  26.569  1.00  0.00     0.014 A 
ATOM     27  C   UNL A   1      42.958  41.410  25.252  1.00  0.00     0.014 A 
ATOM     28  C   UNL A   1      42.880  39.380  27.183  1.00  0.00     0.001 A 
ATOM     29  C   UNL A   1      41.755  41.077  25.882  1.00  0.00     0.001 A 
ATOM     30  C   UNL A   1      41.718  40.072  26.851  1.00  0.00     0.000 A 
ENDBRANCH  22  25
ENDBRANCH   9  21
ENDBRANCH   7   9
ENDBRANCH   6   7
ENDBRANCH   5   6
ENDBRANCH   4   5
ENDBRANCH   3   4
ENDBRANCH   2   3
ENDBRANCH   1   2
BRANCH   1  31
ATOM     31  O   UNL A   1      45.797  39.244  30.749  1.00  0.00    -0.377 OA
BRANCH  31  32
ATOM     32  C   UNL A   1      45.976  39.227  29.335  1.00  0.00     0.188 C 
BRANCH  32  33
ATOM     33  C   UNL A   1      46.722  38.001  28.782  1.00  0.00     0.188 C 
BRANCH  33  34
ATOM     34  O   UNL A   1      47.668  38.351  27.773  1.00  0.00    -0.376 OA
BRANCH  34  35
ATOM     35  C   UNL A   1      47.662  37.552  26.596  1.00  0.00     0.202 C 
BRANCH  35  36
ATOM     36  C   UNL A   1      46.401  36.694  26.414  1.00  0.00     0.261 C 
BRANCH  36  37
ATOM     37  O   UNL A   1      46.583  35.464  25.688  1.00  0.00    -0.460 OA
BRANCH  37  38
ATOM     38  C   UNL A   1      45.481  34.748  25.385  1.00  0.00     0.338 C 
ATOM     39  O   UNL A   1      45.261  34.129  24.358  1.00  0.00    -0.246 OA
BRANCH  38  40
ATOM     40  C   UNL A   1      44.632  34.675  26.591  1.00  0.00     0.060 A 
ATOM     41  C   UNL A   1      43.715  35.705  26.834  1.00  0.00     0.016 A 
ATOM     42  C   UNL A   1      44.763  33.618  27.495  1.00  0.00     0.016 A 
ATOM     43  C   UNL A   1      42.963  35.707  28.010  1.00  0.00     0.010 A 
ATOM     44  C   UNL A   1      44.024  33.629  28.680  1.00  0.00     0.010 A 
ATOM     45  C   UNL A   1      43.152  34.696  28.961  1.00  0.00    -0.014 A 
BRANCH  45  46
ATOM     46  C   UNL A   1      42.610  34.861  30.332  1.00  0.00     0.031 A 
ATOM     47  C   UNL A   1      43.525  35.398  31.399  1.00  0.00     0.074 A 
ATOM     48  C   UNL A   1      41.333  34.563  30.628  1.00  0.00     0.049 A 
ATOM     49  N   UNL A   1      43.294  35.594  32.671  1.00  0.00    -0.248 NA
ATOM     50  C   UNL A   1      44.887  35.762  30.969  1.00  0.00     0.031 C 
ATOM     51  C   UNL A   1      40.334  34.078  29.680  1.00  0.00     0.029 A 
ATOM     52  N   UNL A   1      40.662  34.622  31.825  1.00  0.00    -0.354 N 
ATOM     53  C   UNL A   1      44.477  36.102  33.193  1.00  0.00     0.074 A 
ATOM     54  C   UNL A   1      45.433  36.156  32.108  1.00  0.00     0.031 C 
ATOM     55  C   UNL A   1      39.174  33.884  30.331  1.00  0.00     0.029 A 
ATOM     56  C   UNL A   1      39.359  34.194  31.747  1.00  0.00     0.049 A 
ATOM     57  H   UNL A   1      41.076  34.942  32.659  1.00  0.00     0.167 HD
ATOM     58  C   UNL A   1      44.746  36.493  34.460  1.00  0.00     0.031 A 
ATOM     59  C   UNL A   1      38.434  34.049  32.716  1.00  0.00     0.031 A 
ATOM     60  C   UNL A   1      43.811  36.413  35.548  1.00  0.00     0.049 A 
ATOM     61  C   UNL A   1      38.790  34.399  34.139  1.00  0.00     0.074 A 
ATOM     62  C   UNL A   1      43.993  36.776  36.871  1.00  0.00     0.029 A 
ATOM     63  N   UNL A   1      42.518  35.928  35.438  1.00  0.00    -0.354 N 
ATOM     64  N   UNL A   1      39.906  34.893  34.617  1.00  0.00    -0.248 NA
ATOM     65  C   UNL A   1      37.751  34.169  35.155  1.00  0.00     0.031 C 
ATOM     66  C   UNL A   1      42.823  36.465  37.572  1.00  0.00     0.029 A 
ATOM     67  C   UNL A   1      41.896  35.961  36.674  1.00  0.00     0.049 A 
ATOM     68  H   UNL A   1      42.102  35.607  34.605  1.00  0.00     0.167 HD
ATOM     69  C   UNL A   1      39.694  35.060  35.980  1.00  0.00     0.074 A 
ATOM     70  C   UNL A   1      38.339  34.628  36.251  1.00  0.00     0.031 C 
ATOM     71  C   UNL A   1      40.544  35.533  36.925  1.00  0.00     0.031 A 
BRANCH  58  72
ATOM     72  C   UNL A   1      46.129  37.011  34.737  1.00  0.00    -0.014 A 
ATOM     73  C   UNL A   1      47.161  36.147  35.134  1.00  0.00     0.009 A 
ATOM     74  C   UNL A   1      46.406  38.377  34.583  1.00  0.00     0.009 A 
ATOM     75  C   UNL A   1      48.436  36.648  35.405  1.00  0.00     0.001 A 
ATOM     76  C   UNL A   1      47.688  38.872  34.829  1.00  0.00     0.001 A 
ATOM     77  C   UNL A   1      48.699  38.008  35.248  1.00  0.00     0.000 A 
ENDBRANCH  58  72
BRANCH  59  78
ATOM     78  C   UNL A   1      37.080  33.527  32.390  1.00  0.00    -0.014 A 
ATOM     79  C   UNL A   1      36.839  32.145  32.341  1.00  0.00     0.009 A 
ATOM     80  C   UNL A   1      36.032  34.409  32.086  1.00  0.00     0.009 A 
ATOM     81  C   UNL A   1      35.583  31.658  31.967  1.00  0.00     0.001 A 
ATOM     82  C   UNL A   1      34.770  33.920  31.740  1.00  0.00     0.001 A 
ATOM     83  C   UNL A   1      34.550  32.546  31.671  1.00  0.00     0.000 A 
ENDBRANCH  59  78
BRANCH  71  84
ATOM     84  C   UNL A   1      40.023  35.651  38.329  1.00  0.00    -0.014 A 
ATOM     85  C   UNL A   1      39.432  36.836  38.792  1.00  0.00     0.009 A 
ATOM     86  C   UNL A   1      40.084  34.541  39.187  1.00  0.00     0.009 A 
ATOM     87  C   UNL A   1      38.940  36.916  40.098  1.00  0.00     0.001 A 
ATOM     88  C   UNL A   1      39.567  34.615  40.481  1.00  0.00     0.001 A 
ATOM     89  C   UNL A   1      39.004  35.804  40.938  1.00  0.00     0.000 A 
ENDBRANCH  71  84
ENDBRANCH  45  46
ENDBRANCH  38  40
ENDBRANCH  37  38
ENDBRANCH  36  37
ENDBRANCH  35  36
ENDBRANCH  34  35
ENDBRANCH  33  34
ENDBRANCH  32  33
ENDBRANCH  31  32
ENDBRANCH   1  31
TORSDOF 25
ENDMDL
MODEL 2
REMARK VINA RESULT:      -7.1      7.706     13.746
REMARK SMILES CC(C)Oc1ccc(/C=C(\NC(=O)c2ccccc2)C(=O)OCCOCCOCCOCCOC(=O)c2ccc(-c3c4nc(c(-c5ccccc5)c5ccc([nH]5)c(-c5ccccc5)c5nc(c(-c6ccccc6)c6ccc3[nH]6)C=C5)C=C4)cc2)cc1
REMARK SMILES IDX 27 1 26 2 25 3 24 4 23 5 22 6 20 7 21 8 10 9 9 10 8 11 5 12
REMARK SMILES IDX 6 13 86 14 7 15 85 16 4 17 2 18 1 19 3 20 11 21 12 22 13 24
REMARK SMILES IDX 14 25 15 26 19 27 16 28 18 29 17 30 28 31 29 32 30 33 31 34
REMARK SMILES IDX 32 35 33 36 34 37 35 38 36 39 37 40 38 41 84 42 39 43 83 44
REMARK SMILES IDX 40 45 41 46 42 47 77 48 43 49 82 50 76 51 78 52 44 53 81 54
REMARK SMILES IDX 75 55 74 56 45 58 67 59 52 60 66 61 53 62 56 63 65 64 79 65
REMARK SMILES IDX 54 66 55 67 64 69 80 70 57 71 46 72 47 73 51 74 48 75 50 76
REMARK SMILES IDX 49 77 68 78 69 79 73 80 70 81 72 82 71 83 58 84 59 85 63 86
REMARK SMILES IDX 60 87 62 88 61 89
REMARK H PARENT 11 23 78 57 56 68
REMARK Flexibility Score: inf
ROOT
ATOM      1  C   UNL A   1      46.788  24.378  26.029  1.00  0.00     0.188 C 
ENDROOT
BRANCH   1   2
ATOM      2  C   UNL A   1      46.071  23.222  25.297  1.00  0.00     0.188 C 
BRANCH   2   3
ATOM      3  O   UNL A   1      45.707  22.044  26.016  1.00  0.00    -0.376 OA
BRANCH   3   4
ATOM      4  C   UNL A   1      44.676  21.203  25.491  1.00  0.00     0.202 C 
BRANCH   4   5
ATOM      5  C   UNL A   1      43.233  21.687  25.639  1.00  0.00     0.261 C 
BRANCH   5   6
ATOM      6  O   UNL A   1      42.818  21.608  27.011  1.00  0.00    -0.459 OA
BRANCH   6   7
ATOM      7  C   UNL A   1      42.286  22.729  27.538  1.00  0.00     0.354 C 
ATOM      8  O   UNL A   1      42.721  23.343  28.501  1.00  0.00    -0.244 OA
BRANCH   7   9
ATOM      9  C   UNL A   1      41.193  23.236  26.649  1.00  0.00     0.128 C 
ATOM     10  C   UNL A   1      40.078  22.474  26.735  1.00  0.00     0.042 C 
BRANCH  10  11
ATOM     11  C   UNL A   1      38.769  22.558  26.047  1.00  0.00    -0.023 A 
ATOM     12  C   UNL A   1      36.096  22.709  25.096  1.00  0.00     0.119 A 
ATOM     13  C   UNL A   1      36.890  21.587  24.850  1.00  0.00     0.047 A 
ATOM     14  C   UNL A   1      36.648  23.770  25.800  1.00  0.00     0.047 A 
ATOM     15  C   UNL A   1      38.203  21.502  25.329  1.00  0.00     0.012 A 
ATOM     16  C   UNL A   1      37.973  23.696  26.265  1.00  0.00     0.012 A 
BRANCH  12  17
ATOM     17  O   UNL A   1      34.795  22.572  24.725  1.00  0.00    -0.491 OA
BRANCH  17  18
ATOM     18  C   UNL A   1      33.707  23.143  25.457  1.00  0.00     0.167 C 
ATOM     19  C   UNL A   1      32.458  23.424  24.629  1.00  0.00     0.052 C 
ATOM     20  C   UNL A   1      33.424  22.419  26.768  1.00  0.00     0.052 C 
ENDBRANCH  17  18
ENDBRANCH  12  17
ENDBRANCH  10  11
BRANCH   9  21
ATOM     21  N   UNL A   1      41.259  24.374  25.878  1.00  0.00    -0.316 N 
ATOM     22  C   UNL A   1      41.019  25.715  26.045  1.00  0.00     0.255 C 
ATOM     23  H   UNL A   1      41.556  24.173  24.961  1.00  0.00     0.170 HD
ATOM     24  O   UNL A   1      41.204  26.450  25.071  1.00  0.00    -0.269 OA
BRANCH  22  25
ATOM     25  C   UNL A   1      40.499  26.338  27.275  1.00  0.00     0.040 A 
ATOM     26  C   UNL A   1      40.791  27.697  27.462  1.00  0.00     0.014 A 
ATOM     27  C   UNL A   1      39.819  25.631  28.267  1.00  0.00     0.014 A 
ATOM     28  C   UNL A   1      40.329  28.368  28.592  1.00  0.00     0.001 A 
ATOM     29  C   UNL A   1      39.345  26.312  29.393  1.00  0.00     0.001 A 
ATOM     30  C   UNL A   1      39.591  27.678  29.550  1.00  0.00     0.000 A 
ENDBRANCH  22  25
ENDBRANCH   9  21
ENDBRANCH   7   9
ENDBRANCH   6   7
ENDBRANCH   5   6
ENDBRANCH   4   5
ENDBRANCH   3   4
ENDBRANCH   2   3
ENDBRANCH   1   2
BRANCH   1  31
ATOM     31  O   UNL A   1      47.782  25.034  25.256  1.00  0.00    -0.377 OA
BRANCH  31  32
ATOM     32  C   UNL A   1      48.002  26.399  25.601  1.00  0.00     0.188 C 
BRANCH  32  33
ATOM     33  C   UNL A   1      48.869  27.195  24.612  1.00  0.00     0.188 C 
BRANCH  33  34
ATOM     34  O   UNL A   1      50.201  27.386  25.088  1.00  0.00    -0.376 OA
BRANCH  34  35
ATOM     35  C   UNL A   1      50.654  28.731  25.180  1.00  0.00     0.202 C 
BRANCH  35  36
ATOM     36  C   UNL A   1      51.578  29.012  26.375  1.00  0.00     0.261 C 
BRANCH  36  37
ATOM     37  O   UNL A   1      50.917  29.355  27.607  1.00  0.00    -0.460 OA
BRANCH  37  38
ATOM     38  C   UNL A   1      50.656  28.357  28.476  1.00  0.00     0.338 C 
ATOM     39  O   UNL A   1      51.363  27.401  28.738  1.00  0.00    -0.246 OA
BRANCH  38  40
ATOM     40  C   UNL A   1      49.427  28.704  29.218  1.00  0.00     0.060 A 
ATOM     41  C   UNL A   1      48.248  28.003  28.936  1.00  0.00     0.016 A 
ATOM     42  C   UNL A   1      49.428  29.735  30.161  1.00  0.00     0.016 A 
ATOM     43  C   UNL A   1      47.053  28.367  29.558  1.00  0.00     0.010 A 
ATOM     44  C   UNL A   1      48.228  30.112  30.770  1.00  0.00     0.010 A 
ATOM     45  C   UNL A   1      47.029  29.457  30.440  1.00  0.00    -0.014 A 
BRANCH  45  46
ATOM     46  C   UNL A   1      45.731  30.049  30.846  1.00  0.00     0.031 A 
ATOM     47  C   UNL A   1      44.944  29.363  31.930  1.00  0.00     0.074 A 
ATOM     48  C   UNL A   1      45.262  31.177  30.285  1.00  0.00     0.049 A 
ATOM     49  N   UNL A   1      43.774  29.668  32.427  1.00  0.00    -0.248 NA
ATOM     50  C   UNL A   1      45.567  28.172  32.535  1.00  0.00     0.031 C 
ATOM     51  C   UNL A   1      45.945  31.960  29.259  1.00  0.00     0.029 A 
ATOM     52  N   UNL A   1      44.089  31.856  30.503  1.00  0.00    -0.354 N 
ATOM     53  C   UNL A   1      43.518  28.708  33.398  1.00  0.00     0.074 A 
ATOM     54  C   UNL A   1      44.641  27.795  33.403  1.00  0.00     0.031 C 
ATOM     55  C   UNL A   1      45.177  33.016  28.935  1.00  0.00     0.029 A 
ATOM     56  C   UNL A   1      43.936  32.962  29.703  1.00  0.00     0.049 A 
ATOM     57  H   UNL A   1      43.421  31.576  31.171  1.00  0.00     0.167 HD
ATOM     58  C   UNL A   1      42.448  28.597  34.219  1.00  0.00     0.031 A 
ATOM     59  C   UNL A   1      42.900  33.815  29.591  1.00  0.00     0.031 A 
ATOM     60  C   UNL A   1      41.317  29.483  34.200  1.00  0.00     0.049 A 
ATOM     61  C   UNL A   1      41.675  33.611  30.448  1.00  0.00     0.074 A 
ATOM     62  C   UNL A   1      40.179  29.446  34.986  1.00  0.00     0.029 A 
ATOM     63  N   UNL A   1      41.178  30.561  33.341  1.00  0.00    -0.354 N 
ATOM     64  N   UNL A   1      41.452  32.710  31.374  1.00  0.00    -0.248 NA
ATOM     65  C   UNL A   1      40.559  34.548  30.240  1.00  0.00     0.031 C 
ATOM     66  C   UNL A   1      39.329  30.476  34.570  1.00  0.00     0.029 A 
ATOM     67  C   UNL A   1      39.963  31.186  33.563  1.00  0.00     0.049 A 
ATOM     68  H   UNL A   1      41.844  30.842  32.673  1.00  0.00     0.167 HD
ATOM     69  C   UNL A   1      40.187  32.990  31.878  1.00  0.00     0.074 A 
ATOM     70  C   UNL A   1      39.697  34.150  31.165  1.00  0.00     0.031 C 
ATOM     71  C   UNL A   1      39.494  32.344  32.848  1.00  0.00     0.031 A 
BRANCH  58  72
ATOM     72  C   UNL A   1      42.444  27.447  35.185  1.00  0.00    -0.014 A 
ATOM     73  C   UNL A   1      42.968  27.583  36.480  1.00  0.00     0.009 A 
ATOM     74  C   UNL A   1      41.893  26.215  34.801  1.00  0.00     0.009 A 
ATOM     75  C   UNL A   1      42.972  26.499  37.359  1.00  0.00     0.001 A 
ATOM     76  C   UNL A   1      41.875  25.139  35.690  1.00  0.00     0.001 A 
ATOM     77  C   UNL A   1      42.422  25.280  36.965  1.00  0.00     0.000 A 
ENDBRANCH  58  72
BRANCH  59  78
ATOM     78  C   UNL A   1      42.950  34.936  28.615  1.00  0.00    -0.014 A 
ATOM     79  C   UNL A   1      43.145  36.256  29.051  1.00  0.00     0.009 A 
ATOM     80  C   UNL A   1      42.762  34.696  27.245  1.00  0.00     0.009 A 
ATOM     81  C   UNL A   1      43.124  37.314  28.138  1.00  0.00     0.001 A 
ATOM     82  C   UNL A   1      42.769  35.753  26.331  1.00  0.00     0.001 A 
ATOM     83  C   UNL A   1      42.939  37.061  26.780  1.00  0.00     0.000 A 
ENDBRANCH  59  78
BRANCH  71  84
ATOM     84  C   UNL A   1      38.151  32.903  33.227  1.00  0.00    -0.014 A 
ATOM     85  C   UNL A   1      36.979  32.501  32.568  1.00  0.00     0.009 A 
ATOM     86  C   UNL A   1      38.055  33.811  34.293  1.00  0.00     0.009 A 
ATOM     87  C   UNL A   1      35.741  33.024  32.950  1.00  0.00     0.001 A 
ATOM     88  C   UNL A   1      36.813  34.310  34.691  1.00  0.00     0.001 A 
ATOM     89  C   UNL A   1      35.659  33.923  34.013  1.00  0.00     0.000 A 
ENDBRANCH  71  84
ENDBRANCH  45  46
ENDBRANCH  38  40
ENDBRANCH  37  38
ENDBRANCH  36  37
ENDBRANCH  35  36
ENDBRANCH  34  35
ENDBRANCH  33  34
ENDBRANCH  32  33
ENDBRANCH  31  32
ENDBRANCH   1  31
TORSDOF 25
ENDMDL
MODEL 3
REMARK VINA RESULT:      -7.0      1.661      6.026
REMARK SMILES CC(C)Oc1ccc(/C=C(\NC(=O)c2ccccc2)C(=O)OCCOCCOCCOCCOC(=O)c2ccc(-c3c4nc(c(-c5ccccc5)c5ccc([nH]5)c(-c5ccccc5)c5nc(c(-c6ccccc6)c6ccc3[nH]6)C=C5)C=C4)cc2)cc1
REMARK SMILES IDX 27 1 26 2 25 3 24 4 23 5 22 6 20 7 21 8 10 9 9 10 8 11 5 12
REMARK SMILES IDX 6 13 86 14 7 15 85 16 4 17 2 18 1 19 3 20 11 21 12 22 13 24
REMARK SMILES IDX 14 25 15 26 19 27 16 28 18 29 17 30 28 31 29 32 30 33 31 34
REMARK SMILES IDX 32 35 33 36 34 37 35 38 36 39 37 40 38 41 84 42 39 43 83 44
REMARK SMILES IDX 40 45 41 46 42 47 77 48 43 49 82 50 76 51 78 52 44 53 81 54
REMARK SMILES IDX 75 55 74 56 45 58 67 59 52 60 66 61 53 62 56 63 65 64 79 65
REMARK SMILES IDX 54 66 55 67 64 69 80 70 57 71 46 72 47 73 51 74 48 75 50 76
REMARK SMILES IDX 49 77 68 78 69 79 73 80 70 81 72 82 71 83 58 84 59 85 63 86
REMARK SMILES IDX 60 87 62 88 61 89
REMARK H PARENT 11 23 78 57 56 68
REMARK Flexibility Score: inf
ROOT
ATOM      1  C   UNL A   1      50.070  40.285  28.775  1.00  0.00     0.188 C 
ENDROOT
BRANCH   1   2
ATOM      2  C   UNL A   1      50.400  41.729  29.211  1.00  0.00     0.188 C 
BRANCH   2   3
ATOM      3  O   UNL A   1      49.749  42.829  28.575  1.00  0.00    -0.376 OA
BRANCH   3   4
ATOM      4  C   UNL A   1      48.321  42.837  28.496  1.00  0.00     0.202 C 
BRANCH   4   5
ATOM      5  C   UNL A   1      47.693  43.354  27.202  1.00  0.00     0.261 C 
BRANCH   5   6
ATOM      6  O   UNL A   1      46.266  43.423  27.331  1.00  0.00    -0.459 OA
BRANCH   6   7
ATOM      7  C   UNL A   1      45.630  44.256  26.483  1.00  0.00     0.354 C 
ATOM      8  O   UNL A   1      45.414  45.444  26.673  1.00  0.00    -0.244 OA
BRANCH   7   9
ATOM      9  C   UNL A   1      45.400  43.565  25.174  1.00  0.00     0.128 C 
ATOM     10  C   UNL A   1      44.910  44.410  24.237  1.00  0.00     0.042 C 
BRANCH  10  11
ATOM     11  C   UNL A   1      44.510  44.196  22.827  1.00  0.00    -0.023 A 
ATOM     12  C   UNL A   1      43.650  44.177  20.120  1.00  0.00     0.119 A 
ATOM     13  C   UNL A   1      42.947  43.485  21.107  1.00  0.00     0.047 A 
ATOM     14  C   UNL A   1      44.801  44.862  20.482  1.00  0.00     0.047 A 
ATOM     15  C   UNL A   1      43.359  43.504  22.445  1.00  0.00     0.012 A 
ATOM     16  C   UNL A   1      45.229  44.866  21.821  1.00  0.00     0.012 A 
BRANCH  12  17
ATOM     17  O   UNL A   1      43.032  44.213  18.908  1.00  0.00    -0.491 OA
BRANCH  17  18
ATOM     18  C   UNL A   1      42.586  45.424  18.292  1.00  0.00     0.167 C 
ATOM     19  C   UNL A   1      43.560  46.023  17.283  1.00  0.00     0.052 C 
ATOM     20  C   UNL A   1      41.151  45.345  17.786  1.00  0.00     0.052 C 
ENDBRANCH  17  18
ENDBRANCH  12  17
ENDBRANCH  10  11
BRANCH   9  21
ATOM     21  N   UNL A   1      45.702  42.250  24.905  1.00  0.00    -0.316 N 
ATOM     22  C   UNL A   1      46.499  41.563  24.023  1.00  0.00     0.255 C 
ATOM     23  H   UNL A   1      45.217  41.638  25.504  1.00  0.00     0.170 HD
ATOM     24  O   UNL A   1      46.500  40.332  24.101  1.00  0.00    -0.269 OA
BRANCH  22  25
ATOM     25  C   UNL A   1      47.303  42.175  22.951  1.00  0.00     0.040 A 
ATOM     26  C   UNL A   1      47.235  41.567  21.689  1.00  0.00     0.014 A 
ATOM     27  C   UNL A   1      48.166  43.253  23.157  1.00  0.00     0.014 A 
ATOM     28  C   UNL A   1      47.955  42.088  20.617  1.00  0.00     0.001 A 
ATOM     29  C   UNL A   1      48.876  43.780  22.074  1.00  0.00     0.001 A 
ATOM     30  C   UNL A   1      48.763  43.205  20.806  1.00  0.00     0.000 A 
ENDBRANCH  22  25
ENDBRANCH   9  21
ENDBRANCH   7   9
ENDBRANCH   6   7
ENDBRANCH   5   6
ENDBRANCH   4   5
ENDBRANCH   3   4
ENDBRANCH   2   3
ENDBRANCH   1   2
BRANCH   1  31
ATOM     31  O   UNL A   1      51.084  39.661  28.001  1.00  0.00    -0.377 OA
BRANCH  31  32
ATOM     32  C   UNL A   1      51.011  38.238  27.958  1.00  0.00     0.188 C 
BRANCH  32  33
ATOM     33  C   UNL A   1      49.639  37.639  28.312  1.00  0.00     0.188 C 
BRANCH  33  34
ATOM     34  O   UNL A   1      48.892  37.273  27.153  1.00  0.00    -0.376 OA
BRANCH  34  35
ATOM     35  C   UNL A   1      49.273  36.063  26.510  1.00  0.00     0.202 C 
BRANCH  35  36
ATOM     36  C   UNL A   1      48.107  35.112  26.198  1.00  0.00     0.261 C 
BRANCH  36  37
ATOM     37  O   UNL A   1      46.855  35.746  25.876  1.00  0.00    -0.460 OA
BRANCH  37  38
ATOM     38  C   UNL A   1      45.797  34.948  25.625  1.00  0.00     0.338 C 
ATOM     39  O   UNL A   1      45.613  34.252  24.642  1.00  0.00    -0.246 OA
BRANCH  38  40
ATOM     40  C   UNL A   1      44.954  34.908  26.837  1.00  0.00     0.060 A 
ATOM     41  C   UNL A   1      44.300  36.078  27.244  1.00  0.00     0.016 A 
ATOM     42  C   UNL A   1      44.835  33.734  27.585  1.00  0.00     0.016 A 
ATOM     43  C   UNL A   1      43.568  36.091  28.432  1.00  0.00     0.010 A 
ATOM     44  C   UNL A   1      44.117  33.753  28.784  1.00  0.00     0.010 A 
ATOM     45  C   UNL A   1      43.517  34.942  29.233  1.00  0.00    -0.014 A 
BRANCH  45  46
ATOM     46  C   UNL A   1      43.027  35.037  30.630  1.00  0.00     0.031 A 
ATOM     47  C   UNL A   1      41.625  34.578  30.925  1.00  0.00     0.074 A 
ATOM     48  C   UNL A   1      43.806  35.501  31.622  1.00  0.00     0.049 A 
ATOM     49  N   UNL A   1      40.964  34.597  32.054  1.00  0.00    -0.248 NA
ATOM     50  C   UNL A   1      40.867  34.021  29.791  1.00  0.00     0.031 C 
ATOM     51  C   UNL A   1      45.193  35.936  31.477  1.00  0.00     0.029 A 
ATOM     52  N   UNL A   1      43.531  35.688  32.954  1.00  0.00    -0.354 N 
ATOM     53  C   UNL A   1      39.717  34.059  31.767  1.00  0.00     0.074 A 
ATOM     54  C   UNL A   1      39.700  33.749  30.354  1.00  0.00     0.031 C 
ATOM     55  C   UNL A   1      45.650  36.340  32.676  1.00  0.00     0.029 A 
ATOM     56  C   UNL A   1      44.577  36.227  33.662  1.00  0.00     0.049 A 
ATOM     57  H   UNL A   1      42.665  35.457  33.362  1.00  0.00     0.167 HD
ATOM     58  C   UNL A   1      38.676  33.836  32.603  1.00  0.00     0.031 A 
ATOM     59  C   UNL A   1      44.648  36.606  34.953  1.00  0.00     0.031 A 
ATOM     60  C   UNL A   1      38.675  34.170  34.001  1.00  0.00     0.049 A 
ATOM     61  C   UNL A   1      43.441  36.440  35.842  1.00  0.00     0.074 A 
ATOM     62  C   UNL A   1      37.664  33.992  34.929  1.00  0.00     0.029 A 
ATOM     63  N   UNL A   1      39.736  34.759  34.669  1.00  0.00    -0.354 N 
ATOM     64  N   UNL A   1      42.272  35.914  35.563  1.00  0.00    -0.248 NA
ATOM     65  C   UNL A   1      43.568  36.920  37.226  1.00  0.00     0.031 C 
ATOM     66  C   UNL A   1      38.098  34.519  36.150  1.00  0.00     0.029 A 
ATOM     67  C   UNL A   1      39.398  34.973  35.994  1.00  0.00     0.049 A 
ATOM     68  H   UNL A   1      40.602  34.991  34.262  1.00  0.00     0.167 HD
ATOM     69  C   UNL A   1      41.538  35.974  36.742  1.00  0.00     0.074 A 
ATOM     70  C   UNL A   1      42.396  36.574  37.741  1.00  0.00     0.031 C 
ATOM     71  C   UNL A   1      40.267  35.566  36.977  1.00  0.00     0.031 A 
BRANCH  58  72
ATOM     72  C   UNL A   1      37.437  33.231  32.007  1.00  0.00    -0.014 A 
ATOM     73  C   UNL A   1      37.243  31.842  31.992  1.00  0.00     0.009 A 
ATOM     74  C   UNL A   1      36.444  34.064  31.469  1.00  0.00     0.009 A 
ATOM     75  C   UNL A   1      36.093  31.296  31.419  1.00  0.00     0.001 A 
ATOM     76  C   UNL A   1      35.283  33.516  30.920  1.00  0.00     0.001 A 
ATOM     77  C   UNL A   1      35.112  32.133  30.887  1.00  0.00     0.000 A 
ENDBRANCH  58  72
BRANCH  59  78
ATOM     78  C   UNL A   1      45.897  37.205  35.494  1.00  0.00    -0.014 A 
ATOM     79  C   UNL A   1      46.877  36.399  36.093  1.00  0.00     0.009 A 
ATOM     80  C   UNL A   1      46.096  38.594  35.451  1.00  0.00     0.009 A 
ATOM     81  C   UNL A   1      48.017  36.973  36.661  1.00  0.00     0.001 A 
ATOM     82  C   UNL A   1      47.250  39.163  35.995  1.00  0.00     0.001 A 
ATOM     83  C   UNL A   1      48.204  38.353  36.608  1.00  0.00     0.000 A 
ENDBRANCH  59  78
BRANCH  71  84
ATOM     84  C   UNL A   1      39.741  35.711  38.377  1.00  0.00    -0.014 A 
ATOM     85  C   UNL A   1      39.627  34.605  39.234  1.00  0.00     0.009 A 
ATOM     86  C   UNL A   1      39.398  36.984  38.860  1.00  0.00     0.009 A 
ATOM     87  C   UNL A   1      39.150  34.769  40.536  1.00  0.00     0.001 A 
ATOM     88  C   UNL A   1      38.948  37.148  40.171  1.00  0.00     0.001 A 
ATOM     89  C   UNL A   1      38.816  36.040  41.005  1.00  0.00     0.000 A 
ENDBRANCH  71  84
ENDBRANCH  45  46
ENDBRANCH  38  40
ENDBRANCH  37  38
ENDBRANCH  36  37
ENDBRANCH  35  36
ENDBRANCH  34  35
ENDBRANCH  33  34
ENDBRANCH  32  33
ENDBRANCH  31  32
ENDBRANCH   1  31
TORSDOF 25
ENDMDL
