MODEL 1
REMARK VINA RESULT:      -9.8      0.000      0.000
REMARK SMILES Cc1cc(Cl)cc2c1O[C@H](C(F)(F)F)C(C(=O)OCCOCCOCCOCCOC(=O)c1ccc(-c3c4nc(c(-c5ccccc5)c5ccc([nH]5)c(-c5ccccc5)c5nc(c(-c6ccccc6)c6ccc3[nH]6)C=C5)C=C4)cc1)=C2
REMARK SMILES IDX 25 1 24 2 23 3 22 4 21 5 20 6 19 7 18 8 16 9 17 10 15 11
REMARK SMILES IDX 1 12 2 13 3 14 8 15 4 16 7 17 9 18 5 19 6 20 81 21 10 22
REMARK SMILES IDX 11 23 12 24 13 25 14 26 26 27 27 28 28 29 29 30 30 31 31 32
REMARK SMILES IDX 32 33 33 34 34 35 80 36 35 37 79 38 36 39 37 40 38 41 73 42
REMARK SMILES IDX 39 43 78 44 72 45 74 46 40 47 77 48 71 49 70 50 41 52 63 53
REMARK SMILES IDX 48 54 62 55 49 56 52 57 61 58 75 59 50 60 51 61 60 63 76 64
REMARK SMILES IDX 53 65 42 66 43 67 47 68 44 69 46 70 45 71 64 72 65 73 69 74
REMARK SMILES IDX 66 75 68 76 67 77 54 78 55 79 59 80 56 81 58 82 57 83
REMARK H PARENT 74 51 52 62
REMARK Flexibility Score: inf
ROOT
ATOM      1  C   UNL A   1      39.099  20.990  26.154  1.00  0.00     0.188 C 
ENDROOT
BRANCH   1   2
ATOM      2  O   UNL A   1      38.572  19.948  25.332  1.00  0.00    -0.377 OA
BRANCH   2   3
ATOM      3  C   UNL A   1      37.379  20.225  24.614  1.00  0.00     0.188 C 
BRANCH   3   4
ATOM      4  C   UNL A   1      37.003  21.719  24.615  1.00  0.00     0.188 C 
BRANCH   4   5
ATOM      5  O   UNL A   1      35.708  22.030  24.142  1.00  0.00    -0.376 OA
BRANCH   5   6
ATOM      6  C   UNL A   1      34.523  21.508  24.719  1.00  0.00     0.202 C 
BRANCH   6   7
ATOM      7  C   UNL A   1      33.126  21.444  24.071  1.00  0.00     0.261 C 
BRANCH   7   8
ATOM      8  O   UNL A   1      32.356  22.640  24.013  1.00  0.00    -0.460 OA
BRANCH   8   9
ATOM      9  C   UNL A   1      32.733  23.564  23.111  1.00  0.00     0.338 C 
ATOM     10  O   UNL A   1      33.220  23.361  22.014  1.00  0.00    -0.246 OA
BRANCH   9  11
ATOM     11  C   UNL A   1      32.290  24.883  23.611  1.00  0.00     0.087 C 
ATOM     12  C   UNL A   1      31.699  29.258  26.203  1.00  0.00     0.048 C 
ATOM     13  C   UNL A   1      31.263  28.726  24.867  1.00  0.00    -0.007 A 
ATOM     14  C   UNL A   1      30.573  29.567  23.980  1.00  0.00     0.027 A 
ATOM     15  C   UNL A   1      31.518  27.398  24.489  1.00  0.00     0.131 A 
ATOM     16  C   UNL A   1      30.159  29.091  22.737  1.00  0.00     0.042 A 
ATOM     17  C   UNL A   1      31.151  26.945  23.217  1.00  0.00     0.019 A 
ATOM     18  O   UNL A   1      32.143  26.605  25.410  1.00  0.00    -0.475 OA
ATOM     19  Cl  UNL A   1      29.324  30.136  21.655  1.00  0.00    -0.084 Cl
ATOM     20  C   UNL A   1      30.443  27.784  22.352  1.00  0.00     0.032 A 
ATOM     21  C   UNL A   1      31.576  25.633  22.765  1.00  0.00     0.027 C 
ATOM     22  C   UNL A   1      32.589  25.276  25.033  1.00  0.00     0.316 C 
BRANCH  22  23
ATOM     23  C   UNL A   1      34.083  25.167  25.364  1.00  0.00     0.430 C 
ATOM     24  F   UNL A   1      34.822  24.964  24.246  1.00  0.00    -0.167 F 
ATOM     25  F   UNL A   1      34.561  26.293  25.942  1.00  0.00    -0.167 F 
ATOM     26  F   UNL A   1      34.335  24.141  26.208  1.00  0.00    -0.167 F 
ENDBRANCH  22  23
ENDBRANCH   9  11
ENDBRANCH   8   9
ENDBRANCH   7   8
ENDBRANCH   6   7
ENDBRANCH   5   6
ENDBRANCH   4   5
ENDBRANCH   3   4
ENDBRANCH   2   3
ENDBRANCH   1   2
BRANCH   1  27
ATOM     27  C   UNL A   1      40.538  21.518  25.945  1.00  0.00     0.188 C 
BRANCH  27  28
ATOM     28  O   UNL A   1      41.515  20.880  26.756  1.00  0.00    -0.376 OA
BRANCH  28  29
ATOM     29  C   UNL A   1      42.656  20.306  26.144  1.00  0.00     0.202 C 
BRANCH  29  30
ATOM     30  C   UNL A   1      43.702  21.281  25.588  1.00  0.00     0.261 C 
BRANCH  30  31
ATOM     31  O   UNL A   1      43.899  22.481  26.348  1.00  0.00    -0.460 OA
BRANCH  31  32
ATOM     32  C   UNL A   1      43.926  23.643  25.666  1.00  0.00     0.338 C 
ATOM     33  O   UNL A   1      44.309  23.821  24.520  1.00  0.00    -0.246 OA
BRANCH  32  34
ATOM     34  C   UNL A   1      43.239  24.659  26.484  1.00  0.00     0.060 A 
ATOM     35  C   UNL A   1      43.621  26.002  26.367  1.00  0.00     0.016 A 
ATOM     36  C   UNL A   1      42.226  24.279  27.366  1.00  0.00     0.016 A 
ATOM     37  C   UNL A   1      43.018  26.967  27.172  1.00  0.00     0.010 A 
ATOM     38  C   UNL A   1      41.640  25.241  28.187  1.00  0.00     0.010 A 
ATOM     39  C   UNL A   1      42.062  26.581  28.119  1.00  0.00    -0.014 A 
BRANCH  39  40
ATOM     40  C   UNL A   1      41.641  27.523  29.180  1.00  0.00     0.031 A 
ATOM     41  C   UNL A   1      42.406  27.522  30.474  1.00  0.00     0.074 A 
ATOM     42  C   UNL A   1      40.601  28.354  29.004  1.00  0.00     0.049 A 
ATOM     43  N   UNL A   1      42.158  28.164  31.585  1.00  0.00    -0.248 NA
ATOM     44  C   UNL A   1      43.616  26.683  30.517  1.00  0.00     0.031 C 
ATOM     45  C   UNL A   1      39.831  28.500  27.769  1.00  0.00     0.029 A 
ATOM     46  N   UNL A   1      40.009  29.228  29.879  1.00  0.00    -0.354 N 
ATOM     47  C   UNL A   1      43.174  27.800  32.461  1.00  0.00     0.074 A 
ATOM     48  C   UNL A   1      44.026  26.864  31.764  1.00  0.00     0.031 C 
ATOM     49  C   UNL A   1      38.858  29.405  27.971  1.00  0.00     0.029 A 
ATOM     50  C   UNL A   1      38.909  29.862  29.359  1.00  0.00     0.049 A 
ATOM     51  H   UNL A   1      40.342  29.386  30.792  1.00  0.00     0.167 HD
ATOM     52  C   UNL A   1      43.377  28.214  33.732  1.00  0.00     0.031 A 
ATOM     53  C   UNL A   1      38.027  30.694  29.947  1.00  0.00     0.031 A 
ATOM     54  C   UNL A   1      42.510  29.126  34.429  1.00  0.00     0.049 A 
ATOM     55  C   UNL A   1      38.210  31.053  31.399  1.00  0.00     0.074 A 
ATOM     56  C   UNL A   1      42.616  29.594  35.727  1.00  0.00     0.029 A 
ATOM     57  N   UNL A   1      41.374  29.706  33.885  1.00  0.00    -0.354 N 
ATOM     58  N   UNL A   1      39.159  30.689  32.229  1.00  0.00    -0.248 NA
ATOM     59  C   UNL A   1      37.203  31.944  31.991  1.00  0.00     0.031 C 
ATOM     60  C   UNL A   1      41.511  30.409  35.987  1.00  0.00     0.029 A 
ATOM     61  C   UNL A   1      40.759  30.512  34.828  1.00  0.00     0.049 A 
ATOM     62  H   UNL A   1      41.051  29.565  32.965  1.00  0.00     0.167 HD
ATOM     63  C   UNL A   1      38.885  31.336  33.428  1.00  0.00     0.074 A 
ATOM     64  C   UNL A   1      37.687  32.122  33.213  1.00  0.00     0.031 C 
ATOM     65  C   UNL A   1      39.567  31.290  34.599  1.00  0.00     0.031 A 
BRANCH  52  66
ATOM     66  C   UNL A   1      44.564  27.658  34.467  1.00  0.00    -0.014 A 
ATOM     67  C   UNL A   1      44.494  26.427  35.140  1.00  0.00     0.009 A 
ATOM     68  C   UNL A   1      45.789  28.344  34.435  1.00  0.00     0.009 A 
ATOM     69  C   UNL A   1      45.621  25.906  35.781  1.00  0.00     0.001 A 
ATOM     70  C   UNL A   1      46.920  27.806  35.050  1.00  0.00     0.001 A 
ATOM     71  C   UNL A   1      46.834  26.591  35.727  1.00  0.00     0.000 A 
ENDBRANCH  52  66
BRANCH  53  72
ATOM     72  C   UNL A   1      36.887  31.240  29.165  1.00  0.00    -0.014 A 
ATOM     73  C   UNL A   1      35.760  30.447  28.901  1.00  0.00     0.009 A 
ATOM     74  C   UNL A   1      36.914  32.560  28.685  1.00  0.00     0.009 A 
ATOM     75  C   UNL A   1      34.690  30.959  28.163  1.00  0.00     0.001 A 
ATOM     76  C   UNL A   1      35.830  33.079  27.974  1.00  0.00     0.001 A 
ATOM     77  C   UNL A   1      34.722  32.277  27.708  1.00  0.00     0.000 A 
ENDBRANCH  53  72
BRANCH  65  78
ATOM     78  C   UNL A   1      39.071  32.153  35.728  1.00  0.00    -0.014 A 
ATOM     79  C   UNL A   1      38.199  31.655  36.708  1.00  0.00     0.009 A 
ATOM     80  C   UNL A   1      39.528  33.476  35.836  1.00  0.00     0.009 A 
ATOM     81  C   UNL A   1      37.765  32.477  37.750  1.00  0.00     0.001 A 
ATOM     82  C   UNL A   1      39.122  34.285  36.899  1.00  0.00     0.001 A 
ATOM     83  C   UNL A   1      38.231  33.788  37.848  1.00  0.00     0.000 A 
ENDBRANCH  65  78
ENDBRANCH  39  40
ENDBRANCH  32  34
ENDBRANCH  31  32
ENDBRANCH  30  31
ENDBRANCH  29  30
ENDBRANCH  28  29
ENDBRANCH  27  28
ENDBRANCH   1  27
TORSDOF 21
ENDMDL
MODEL 2
REMARK VINA RESULT:      -9.8      1.597      2.076
REMARK SMILES Cc1cc(Cl)cc2c1O[C@H](C(F)(F)F)C(C(=O)OCCOCCOCCOCCOC(=O)c1ccc(-c3c4nc(c(-c5ccccc5)c5ccc([nH]5)c(-c5ccccc5)c5nc(c(-c6ccccc6)c6ccc3[nH]6)C=C5)C=C4)cc1)=C2
REMARK SMILES IDX 25 1 24 2 23 3 22 4 21 5 20 6 19 7 18 8 16 9 17 10 15 11
REMARK SMILES IDX 1 12 2 13 3 14 8 15 4 16 7 17 9 18 5 19 6 20 81 21 10 22
REMARK SMILES IDX 11 23 12 24 13 25 14 26 26 27 27 28 28 29 29 30 30 31 31 32
REMARK SMILES IDX 32 33 33 34 34 35 80 36 35 37 79 38 36 39 37 40 38 41 73 42
REMARK SMILES IDX 39 43 78 44 72 45 74 46 40 47 77 48 71 49 70 50 41 52 63 53
REMARK SMILES IDX 48 54 62 55 49 56 52 57 61 58 75 59 50 60 51 61 60 63 76 64
REMARK SMILES IDX 53 65 42 66 43 67 47 68 44 69 46 70 45 71 64 72 65 73 69 74
REMARK SMILES IDX 66 75 68 76 67 77 54 78 55 79 59 80 56 81 58 82 57 83
REMARK H PARENT 74 51 52 62
REMARK Flexibility Score: inf
ROOT
ATOM      1  C   UNL A   1      38.789  21.755  26.129  1.00  0.00     0.188 C 
ENDROOT
BRANCH   1   2
ATOM      2  O   UNL A   1      37.809  21.435  25.142  1.00  0.00    -0.377 OA
BRANCH   2   3
ATOM      3  C   UNL A   1      37.079  22.512  24.574  1.00  0.00     0.188 C 
BRANCH   3   4
ATOM      4  C   UNL A   1      36.564  23.515  25.624  1.00  0.00     0.188 C 
BRANCH   4   5
ATOM      5  O   UNL A   1      35.554  23.037  26.491  1.00  0.00    -0.376 OA
BRANCH   5   6
ATOM      6  C   UNL A   1      34.864  21.816  26.282  1.00  0.00     0.202 C 
BRANCH   6   7
ATOM      7  C   UNL A   1      33.338  21.603  26.280  1.00  0.00     0.261 C 
BRANCH   7   8
ATOM      8  O   UNL A   1      32.518  22.603  26.875  1.00  0.00    -0.460 OA
BRANCH   8   9
ATOM      9  C   UNL A   1      31.546  23.129  26.107  1.00  0.00     0.338 C 
ATOM     10  O   UNL A   1      30.413  22.707  25.967  1.00  0.00    -0.246 OA
BRANCH   9  11
ATOM     11  C   UNL A   1      32.040  24.423  25.589  1.00  0.00     0.087 C 
ATOM     12  C   UNL A   1      33.843  28.241  22.695  1.00  0.00     0.048 C 
ATOM     13  C   UNL A   1      33.156  28.126  24.026  1.00  0.00    -0.007 A 
ATOM     14  C   UNL A   1      32.796  29.291  24.721  1.00  0.00     0.027 A 
ATOM     15  C   UNL A   1      32.875  26.876  24.599  1.00  0.00     0.131 A 
ATOM     16  C   UNL A   1      32.160  29.205  25.958  1.00  0.00     0.042 A 
ATOM     17  C   UNL A   1      32.184  26.797  25.813  1.00  0.00     0.019 A 
ATOM     18  O   UNL A   1      33.296  25.774  23.910  1.00  0.00    -0.475 OA
ATOM     19  Cl  UNL A   1      31.715  30.641  26.794  1.00  0.00    -0.084 Cl
ATOM     20  C   UNL A   1      31.853  27.964  26.508  1.00  0.00     0.032 A 
ATOM     21  C   UNL A   1      31.738  25.509  26.311  1.00  0.00     0.027 C 
ATOM     22  C   UNL A   1      32.897  24.449  24.352  1.00  0.00     0.316 C 
BRANCH  22  23
ATOM     23  C   UNL A   1      32.231  23.736  23.169  1.00  0.00     0.430 C 
ATOM     24  F   UNL A   1      30.882  23.864  23.211  1.00  0.00    -0.167 F 
ATOM     25  F   UNL A   1      32.630  24.241  21.979  1.00  0.00    -0.167 F 
ATOM     26  F   UNL A   1      32.513  22.413  23.161  1.00  0.00    -0.167 F 
ENDBRANCH  22  23
ENDBRANCH   9  11
ENDBRANCH   8   9
ENDBRANCH   7   8
ENDBRANCH   6   7
ENDBRANCH   5   6
ENDBRANCH   4   5
ENDBRANCH   3   4
ENDBRANCH   2   3
ENDBRANCH   1   2
BRANCH   1  27
ATOM     27  C   UNL A   1      40.296  21.528  25.859  1.00  0.00     0.188 C 
BRANCH  27  28
ATOM     28  O   UNL A   1      41.003  20.957  26.951  1.00  0.00    -0.376 OA
BRANCH  28  29
ATOM     29  C   UNL A   1      42.183  20.215  26.702  1.00  0.00     0.202 C 
BRANCH  29  30
ATOM     30  C   UNL A   1      43.204  20.847  25.748  1.00  0.00     0.261 C 
BRANCH  30  31
ATOM     31  O   UNL A   1      43.884  22.008  26.245  1.00  0.00    -0.460 OA
BRANCH  31  32
ATOM     32  C   UNL A   1      43.561  23.194  25.690  1.00  0.00     0.338 C 
ATOM     33  O   UNL A   1      43.321  23.420  24.514  1.00  0.00    -0.246 OA
BRANCH  32  34
ATOM     34  C   UNL A   1      43.368  24.163  26.783  1.00  0.00     0.060 A 
ATOM     35  C   UNL A   1      42.788  23.732  27.983  1.00  0.00     0.016 A 
ATOM     36  C   UNL A   1      43.756  25.493  26.615  1.00  0.00     0.016 A 
ATOM     37  C   UNL A   1      42.552  24.648  29.008  1.00  0.00     0.010 A 
ATOM     38  C   UNL A   1      43.497  26.412  27.630  1.00  0.00     0.010 A 
ATOM     39  C   UNL A   1      42.859  25.999  28.813  1.00  0.00    -0.014 A 
BRANCH  39  40
ATOM     40  C   UNL A   1      42.340  27.023  29.747  1.00  0.00     0.031 A 
ATOM     41  C   UNL A   1      43.068  27.235  31.044  1.00  0.00     0.074 A 
ATOM     42  C   UNL A   1      41.244  27.743  29.454  1.00  0.00     0.049 A 
ATOM     43  N   UNL A   1      42.742  27.982  32.066  1.00  0.00    -0.248 NA
ATOM     44  C   UNL A   1      44.337  26.506  31.209  1.00  0.00     0.031 C 
ATOM     45  C   UNL A   1      40.499  27.681  28.198  1.00  0.00     0.029 A 
ATOM     46  N   UNL A   1      40.564  28.665  30.208  1.00  0.00    -0.354 N 
ATOM     47  C   UNL A   1      43.759  27.806  32.997  1.00  0.00     0.074 A 
ATOM     48  C   UNL A   1      44.698  26.865  32.432  1.00  0.00     0.031 C 
ATOM     49  C   UNL A   1      39.454  28.523  28.273  1.00  0.00     0.029 A 
ATOM     50  C   UNL A   1      39.432  29.143  29.597  1.00  0.00     0.049 A 
ATOM     51  H   UNL A   1      40.860  28.955  31.102  1.00  0.00     0.167 HD
ATOM     52  C   UNL A   1      43.895  28.382  34.213  1.00  0.00     0.031 A 
ATOM     53  C   UNL A   1      38.474  29.966  30.066  1.00  0.00     0.031 A 
ATOM     54  C   UNL A   1      42.943  29.298  34.781  1.00  0.00     0.049 A 
ATOM     55  C   UNL A   1      38.590  30.508  31.467  1.00  0.00     0.074 A 
ATOM     56  C   UNL A   1      42.978  29.923  36.015  1.00  0.00     0.029 A 
ATOM     57  N   UNL A   1      41.781  29.718  34.151  1.00  0.00    -0.354 N 
ATOM     58  N   UNL A   1      39.542  30.320  32.351  1.00  0.00    -0.248 NA
ATOM     59  C   UNL A   1      37.503  31.379  31.931  1.00  0.00     0.031 C 
ATOM     60  C   UNL A   1      41.808  30.673  36.156  1.00  0.00     0.029 A 
ATOM     61  C   UNL A   1      41.081  30.578  34.980  1.00  0.00     0.049 A 
ATOM     62  H   UNL A   1      41.495  29.444  33.249  1.00  0.00     0.167 HD
ATOM     63  C   UNL A   1      39.188  31.081  33.460  1.00  0.00     0.074 A 
ATOM     64  C   UNL A   1      37.939  31.738  33.131  1.00  0.00     0.031 C 
ATOM     65  C   UNL A   1      39.840  31.227  34.639  1.00  0.00     0.031 A 
BRANCH  52  66
ATOM     66  C   UNL A   1      45.102  28.012  35.029  1.00  0.00    -0.014 A 
ATOM     67  C   UNL A   1      46.285  28.766  34.967  1.00  0.00     0.009 A 
ATOM     68  C   UNL A   1      45.036  26.928  35.920  1.00  0.00     0.009 A 
ATOM     69  C   UNL A   1      47.381  28.431  35.765  1.00  0.00     0.001 A 
ATOM     70  C   UNL A   1      46.123  26.614  36.738  1.00  0.00     0.001 A 
ATOM     71  C   UNL A   1      47.295  27.362  36.656  1.00  0.00     0.000 A 
ENDBRANCH  52  66
BRANCH  53  72
ATOM     72  C   UNL A   1      37.317  30.324  29.204  1.00  0.00    -0.014 A 
ATOM     73  C   UNL A   1      36.353  29.361  28.871  1.00  0.00     0.009 A 
ATOM     74  C   UNL A   1      37.163  31.633  28.718  1.00  0.00     0.009 A 
ATOM     75  C   UNL A   1      35.268  29.696  28.058  1.00  0.00     0.001 A 
ATOM     76  C   UNL A   1      36.060  31.974  27.932  1.00  0.00     0.001 A 
ATOM     77  C   UNL A   1      35.118  31.004  27.597  1.00  0.00     0.000 A 
ENDBRANCH  53  72
BRANCH  65  78
ATOM     78  C   UNL A   1      39.249  32.175  35.648  1.00  0.00    -0.014 A 
ATOM     79  C   UNL A   1      38.332  31.741  36.618  1.00  0.00     0.009 A 
ATOM     80  C   UNL A   1      39.659  33.518  35.655  1.00  0.00     0.009 A 
ATOM     81  C   UNL A   1      37.810  32.643  37.548  1.00  0.00     0.001 A 
ATOM     82  C   UNL A   1      39.164  34.408  36.609  1.00  0.00     0.001 A 
ATOM     83  C   UNL A   1      38.231  33.973  37.547  1.00  0.00     0.000 A 
ENDBRANCH  65  78
ENDBRANCH  39  40
ENDBRANCH  32  34
ENDBRANCH  31  32
ENDBRANCH  30  31
ENDBRANCH  29  30
ENDBRANCH  28  29
ENDBRANCH  27  28
ENDBRANCH   1  27
TORSDOF 21
ENDMDL
MODEL 3
REMARK VINA RESULT:      -9.6      1.567      2.305
REMARK SMILES Cc1cc(Cl)cc2c1O[C@H](C(F)(F)F)C(C(=O)OCCOCCOCCOCCOC(=O)c1ccc(-c3c4nc(c(-c5ccccc5)c5ccc([nH]5)c(-c5ccccc5)c5nc(c(-c6ccccc6)c6ccc3[nH]6)C=C5)C=C4)cc1)=C2
REMARK SMILES IDX 25 1 24 2 23 3 22 4 21 5 20 6 19 7 18 8 16 9 17 10 15 11
REMARK SMILES IDX 1 12 2 13 3 14 8 15 4 16 7 17 9 18 5 19 6 20 81 21 10 22
REMARK SMILES IDX 11 23 12 24 13 25 14 26 26 27 27 28 28 29 29 30 30 31 31 32
REMARK SMILES IDX 32 33 33 34 34 35 80 36 35 37 79 38 36 39 37 40 38 41 73 42
REMARK SMILES IDX 39 43 78 44 72 45 74 46 40 47 77 48 71 49 70 50 41 52 63 53
REMARK SMILES IDX 48 54 62 55 49 56 52 57 61 58 75 59 50 60 51 61 60 63 76 64
REMARK SMILES IDX 53 65 42 66 43 67 47 68 44 69 46 70 45 71 64 72 65 73 69 74
REMARK SMILES IDX 66 75 68 76 67 77 54 78 55 79 59 80 56 81 58 82 57 83
REMARK H PARENT 74 51 52 62
REMARK Flexibility Score: inf
ROOT
ATOM      1  C   UNL A   1      40.023  21.639  26.651  1.00  0.00     0.188 C 
ENDROOT
BRANCH   1   2
ATOM      2  O   UNL A   1      38.776  21.513  25.966  1.00  0.00    -0.377 OA
BRANCH   2   3
ATOM      3  C   UNL A   1      37.982  22.682  25.838  1.00  0.00     0.188 C 
BRANCH   3   4
ATOM      4  C   UNL A   1      36.726  22.471  24.969  1.00  0.00     0.188 C 
BRANCH   4   5
ATOM      5  O   UNL A   1      35.884  23.596  24.818  1.00  0.00    -0.376 OA
BRANCH   5   6
ATOM      6  C   UNL A   1      34.671  23.566  24.086  1.00  0.00     0.202 C 
BRANCH   6   7
ATOM      7  C   UNL A   1      34.149  24.641  23.112  1.00  0.00     0.261 C 
BRANCH   7   8
ATOM      8  O   UNL A   1      32.846  25.171  23.330  1.00  0.00    -0.460 OA
BRANCH   8   9
ATOM      9  C   UNL A   1      32.771  26.387  23.901  1.00  0.00     0.338 C 
ATOM     10  O   UNL A   1      33.679  27.011  24.420  1.00  0.00    -0.246 OA
BRANCH   9  11
ATOM     11  C   UNL A   1      31.418  26.922  23.634  1.00  0.00     0.087 C 
ATOM     12  C   UNL A   1      26.422  28.033  23.721  1.00  0.00     0.048 C 
ATOM     13  C   UNL A   1      27.651  28.632  23.097  1.00  0.00    -0.007 A 
ATOM     14  C   UNL A   1      27.551  29.843  22.395  1.00  0.00     0.027 A 
ATOM     15  C   UNL A   1      28.901  27.999  23.191  1.00  0.00     0.131 A 
ATOM     16  C   UNL A   1      28.680  30.412  21.809  1.00  0.00     0.042 A 
ATOM     17  C   UNL A   1      30.040  28.606  22.650  1.00  0.00     0.019 A 
ATOM     18  O   UNL A   1      28.935  26.795  23.836  1.00  0.00    -0.475 OA
ATOM     19  Cl  UNL A   1      28.544  31.902  20.960  1.00  0.00    -0.084 Cl
ATOM     20  C   UNL A   1      29.923  29.800  21.932  1.00  0.00     0.032 A 
ATOM     21  C   UNL A   1      31.352  28.041  22.904  1.00  0.00     0.027 C 
ATOM     22  C   UNL A   1      30.212  26.163  24.119  1.00  0.00     0.316 C 
BRANCH  22  23
ATOM     23  C   UNL A   1      30.273  25.872  25.623  1.00  0.00     0.430 C 
ATOM     24  F   UNL A   1      29.041  25.610  26.125  1.00  0.00    -0.167 F 
ATOM     25  F   UNL A   1      31.042  24.796  25.904  1.00  0.00    -0.167 F 
ATOM     26  F   UNL A   1      30.777  26.920  26.315  1.00  0.00    -0.167 F 
ENDBRANCH  22  23
ENDBRANCH   9  11
ENDBRANCH   8   9
ENDBRANCH   7   8
ENDBRANCH   6   7
ENDBRANCH   5   6
ENDBRANCH   4   5
ENDBRANCH   3   4
ENDBRANCH   2   3
ENDBRANCH   1   2
BRANCH   1  27
ATOM     27  C   UNL A   1      41.362  21.634  25.875  1.00  0.00     0.188 C 
BRANCH  27  28
ATOM     28  O   UNL A   1      42.345  20.765  26.418  1.00  0.00    -0.376 OA
BRANCH  28  29
ATOM     29  C   UNL A   1      43.438  20.363  25.612  1.00  0.00     0.202 C 
BRANCH  29  30
ATOM     30  C   UNL A   1      44.502  21.427  25.315  1.00  0.00     0.261 C 
BRANCH  30  31
ATOM     31  O   UNL A   1      44.550  22.530  26.231  1.00  0.00    -0.460 OA
BRANCH  31  32
ATOM     32  C   UNL A   1      44.221  23.745  25.748  1.00  0.00     0.338 C 
ATOM     33  O   UNL A   1      44.041  24.054  24.580  1.00  0.00    -0.246 OA
BRANCH  32  34
ATOM     34  C   UNL A   1      43.935  24.621  26.897  1.00  0.00     0.060 A 
ATOM     35  C   UNL A   1      43.139  24.137  27.944  1.00  0.00     0.016 A 
ATOM     36  C   UNL A   1      44.449  25.919  26.933  1.00  0.00     0.016 A 
ATOM     37  C   UNL A   1      42.816  24.972  29.013  1.00  0.00     0.010 A 
ATOM     38  C   UNL A   1      44.106  26.759  27.990  1.00  0.00     0.010 A 
ATOM     39  C   UNL A   1      43.258  26.300  29.013  1.00  0.00    -0.014 A 
BRANCH  39  40
ATOM     40  C   UNL A   1      42.680  27.277  29.963  1.00  0.00     0.031 A 
ATOM     41  C   UNL A   1      43.372  27.480  31.281  1.00  0.00     0.074 A 
ATOM     42  C   UNL A   1      41.564  27.964  29.665  1.00  0.00     0.049 A 
ATOM     43  N   UNL A   1      42.996  28.185  32.315  1.00  0.00    -0.248 NA
ATOM     44  C   UNL A   1      44.664  26.795  31.454  1.00  0.00     0.031 C 
ATOM     45  C   UNL A   1      40.849  27.909  28.391  1.00  0.00     0.029 A 
ATOM     46  N   UNL A   1      40.833  28.837  30.428  1.00  0.00    -0.354 N 
ATOM     47  C   UNL A   1      43.998  28.021  33.264  1.00  0.00     0.074 A 
ATOM     48  C   UNL A   1      44.985  27.132  32.694  1.00  0.00     0.031 C 
ATOM     49  C   UNL A   1      39.771  28.709  28.466  1.00  0.00     0.029 A 
ATOM     50  C   UNL A   1      39.698  29.290  29.806  1.00  0.00     0.049 A 
ATOM     51  H   UNL A   1      41.099  29.113  31.336  1.00  0.00     0.167 HD
ATOM     52  C   UNL A   1      44.087  28.567  34.498  1.00  0.00     0.031 A 
ATOM     53  C   UNL A   1      38.699  30.063  30.276  1.00  0.00     0.031 A 
ATOM     54  C   UNL A   1      43.088  29.430  35.069  1.00  0.00     0.049 A 
ATOM     55  C   UNL A   1      38.765  30.569  31.693  1.00  0.00     0.074 A 
ATOM     56  C   UNL A   1      43.073  30.021  36.320  1.00  0.00     0.029 A 
ATOM     57  N   UNL A   1      41.925  29.824  34.425  1.00  0.00    -0.354 N 
ATOM     58  N   UNL A   1      39.704  30.392  32.593  1.00  0.00    -0.248 NA
ATOM     59  C   UNL A   1      37.635  31.386  32.156  1.00  0.00     0.031 C 
ATOM     60  C   UNL A   1      41.873  30.722  36.456  1.00  0.00     0.029 A 
ATOM     61  C   UNL A   1      41.175  30.634  35.262  1.00  0.00     0.049 A 
ATOM     62  H   UNL A   1      41.669  29.565  33.510  1.00  0.00     0.167 HD
ATOM     63  C   UNL A   1      39.297  31.108  33.713  1.00  0.00     0.074 A 
ATOM     64  C   UNL A   1      38.032  31.727  33.375  1.00  0.00     0.031 C 
ATOM     65  C   UNL A   1      39.918  31.245  34.911  1.00  0.00     0.031 A 
BRANCH  52  66
ATOM     66  C   UNL A   1      45.289  28.219  35.331  1.00  0.00    -0.014 A 
ATOM     67  C   UNL A   1      46.353  29.123  35.489  1.00  0.00     0.009 A 
ATOM     68  C   UNL A   1      45.333  26.994  36.016  1.00  0.00     0.009 A 
ATOM     69  C   UNL A   1      47.441  28.798  36.301  1.00  0.00     0.001 A 
ATOM     70  C   UNL A   1      46.408  26.686  36.851  1.00  0.00     0.001 A 
ATOM     71  C   UNL A   1      47.463  27.585  36.988  1.00  0.00     0.000 A 
ENDBRANCH  52  66
BRANCH  53  72
ATOM     72  C   UNL A   1      37.548  30.402  29.398  1.00  0.00    -0.014 A 
ATOM     73  C   UNL A   1      37.450  31.672  28.811  1.00  0.00     0.009 A 
ATOM     74  C   UNL A   1      36.546  29.454  29.133  1.00  0.00     0.009 A 
ATOM     75  C   UNL A   1      36.366  31.991  27.989  1.00  0.00     0.001 A 
ATOM     76  C   UNL A   1      35.480  29.765  28.286  1.00  0.00     0.001 A 
ATOM     77  C   UNL A   1      35.388  31.034  27.720  1.00  0.00     0.000 A 
ENDBRANCH  53  72
BRANCH  65  78
ATOM     78  C   UNL A   1      39.270  32.141  35.931  1.00  0.00    -0.014 A 
ATOM     79  C   UNL A   1      39.576  33.508  36.013  1.00  0.00     0.009 A 
ATOM     80  C   UNL A   1      38.296  31.611  36.794  1.00  0.00     0.009 A 
ATOM     81  C   UNL A   1      38.949  34.316  36.964  1.00  0.00     0.001 A 
ATOM     82  C   UNL A   1      37.644  32.428  37.718  1.00  0.00     0.001 A 
ATOM     83  C   UNL A   1      37.980  33.777  37.811  1.00  0.00     0.000 A 
ENDBRANCH  65  78
ENDBRANCH  39  40
ENDBRANCH  32  34
ENDBRANCH  31  32
ENDBRANCH  30  31
ENDBRANCH  29  30
ENDBRANCH  28  29
ENDBRANCH  27  28
ENDBRANCH   1  27
TORSDOF 21
ENDMDL
