MODEL 1
REMARK VINA RESULT:     -11.1      0.000      0.000
REMARK SMILES O=C(OCCOCCOCCOCCOC(=O)[C@H](c1c[nH]c2ccc(Cl)cc12)[NH+]1CCN(c2cccc(Cl)c2)CC1)c1ccc(-c2c3nc(c(-c4ccccc4)c4ccc([nH]4)c(-c4ccccc4)c4nc(c(-c5ccccc5)c5ccc2[nH]5)C=C4)C=C3)cc1
REMARK SMILES IDX 9 1 8 2 7 3 6 4 5 5 4 6 3 7 2 8 1 9 42 10 43 11 89 12 44 13
REMARK SMILES IDX 88 14 45 15 46 16 47 17 82 18 48 19 87 20 81 21 83 22 49 23
REMARK SMILES IDX 86 24 80 25 79 26 50 28 72 29 57 30 71 31 58 32 61 33 70 34
REMARK SMILES IDX 84 35 59 36 60 37 69 39 85 40 62 41 51 42 52 43 56 44 53 45
REMARK SMILES IDX 55 46 54 47 73 48 74 49 78 50 75 51 77 52 76 53 63 54 64 55
REMARK SMILES IDX 68 56 65 57 67 58 66 59 10 60 11 61 12 62 13 63 14 64 15 65
REMARK SMILES IDX 16 66 17 67 18 68 29 69 30 70 41 71 31 73 40 74 32 75 33 76
REMARK SMILES IDX 34 77 39 78 35 79 37 80 36 81 38 82 19 83 20 84 28 85 21 86
REMARK SMILES IDX 22 87 27 88 23 90 25 91 24 92 26 93
REMARK H PARENT 83 27 61 38 29 72 21 89
REMARK Flexibility Score: inf
ROOT
ATOM      1  O   UNL A   1      40.699  20.637  27.716  1.00  0.00    -0.377 OA
ENDROOT
BRANCH   1   2
ATOM      2  C   UNL A   1      42.071  20.370  27.422  1.00  0.00     0.188 C 
BRANCH   2   3
ATOM      3  C   UNL A   1      42.269  19.399  26.255  1.00  0.00     0.188 C 
BRANCH   3   4
ATOM      4  O   UNL A   1      42.958  20.073  25.201  1.00  0.00    -0.376 OA
BRANCH   4   5
ATOM      5  C   UNL A   1      44.373  19.880  25.162  1.00  0.00     0.202 C 
BRANCH   5   6
ATOM      6  C   UNL A   1      45.134  21.192  25.030  1.00  0.00     0.261 C 
BRANCH   6   7
ATOM      7  O   UNL A   1      44.570  22.209  25.868  1.00  0.00    -0.460 OA
BRANCH   7   8
ATOM      8  C   UNL A   1      44.377  23.512  25.545  1.00  0.00     0.338 C 
ATOM      9  O   UNL A   1      44.702  23.888  24.418  1.00  0.00    -0.246 OA
BRANCH   8  10
ATOM     10  C   UNL A   1      43.719  24.515  26.441  1.00  0.00     0.060 A 
ATOM     11  C   UNL A   1      43.880  25.904  26.388  1.00  0.00     0.016 A 
ATOM     12  C   UNL A   1      42.792  24.003  27.364  1.00  0.00     0.016 A 
ATOM     13  C   UNL A   1      43.189  26.756  27.236  1.00  0.00     0.010 A 
ATOM     14  C   UNL A   1      42.084  24.850  28.223  1.00  0.00     0.010 A 
ATOM     15  C   UNL A   1      42.305  26.230  28.169  1.00  0.00    -0.014 A 
BRANCH  15  16
ATOM     16  C   UNL A   1      41.800  27.136  29.211  1.00  0.00     0.031 A 
ATOM     17  C   UNL A   1      42.646  27.315  30.433  1.00  0.00     0.074 A 
ATOM     18  C   UNL A   1      40.707  27.887  28.986  1.00  0.00     0.049 A 
ATOM     19  N   UNL A   1      42.399  27.989  31.521  1.00  0.00    -0.248 NA
ATOM     20  C   UNL A   1      43.965  26.654  30.417  1.00  0.00     0.031 C 
ATOM     21  C   UNL A   1      39.929  27.899  27.745  1.00  0.00     0.029 A 
ATOM     22  N   UNL A   1      40.086  28.810  29.780  1.00  0.00    -0.354 N 
ATOM     23  C   UNL A   1      43.508  27.794  32.335  1.00  0.00     0.074 A 
ATOM     24  C   UNL A   1      44.437  26.955  31.615  1.00  0.00     0.031 C 
ATOM     25  C   UNL A   1      38.940  28.802  27.859  1.00  0.00     0.029 A 
ATOM     26  C   UNL A   1      38.974  29.370  29.202  1.00  0.00     0.049 A 
ATOM     27  H   UNL A   1      40.405  29.051  30.680  1.00  0.00     0.167 HD
ATOM     28  C   UNL A   1      43.714  28.265  33.585  1.00  0.00     0.031 A 
ATOM     29  C   UNL A   1      38.067  30.212  29.731  1.00  0.00     0.031 A 
ATOM     30  C   UNL A   1      42.761  29.089  34.272  1.00  0.00     0.049 A 
ATOM     31  C   UNL A   1      38.259  30.630  31.164  1.00  0.00     0.074 A 
ATOM     32  C   UNL A   1      42.791  29.559  35.569  1.00  0.00     0.029 A 
ATOM     33  N   UNL A   1      41.594  29.568  33.691  1.00  0.00    -0.354 N 
ATOM     34  N   UNL A   1      39.255  30.360  31.976  1.00  0.00    -0.248 NA
ATOM     35  C   UNL A   1      37.195  31.444  31.764  1.00  0.00     0.031 C 
ATOM     36  C   UNL A   1      41.618  30.290  35.785  1.00  0.00     0.029 A 
ATOM     37  C   UNL A   1      40.885  30.319  34.606  1.00  0.00     0.049 A 
ATOM     38  H   UNL A   1      41.313  29.397  32.762  1.00  0.00     0.167 HD
ATOM     39  C   UNL A   1      38.947  30.980  33.178  1.00  0.00     0.074 A 
ATOM     40  C   UNL A   1      37.681  31.660  32.979  1.00  0.00     0.031 C 
ATOM     41  C   UNL A   1      39.634  30.983  34.348  1.00  0.00     0.031 A 
BRANCH  28  42
ATOM     42  C   UNL A   1      44.956  27.803  34.289  1.00  0.00    -0.014 A 
ATOM     43  C   UNL A   1      46.158  28.524  34.218  1.00  0.00     0.009 A 
ATOM     44  C   UNL A   1      44.933  26.588  34.992  1.00  0.00     0.009 A 
ATOM     45  C   UNL A   1      47.320  28.017  34.806  1.00  0.00     0.001 A 
ATOM     46  C   UNL A   1      46.089  26.096  35.598  1.00  0.00     0.001 A 
ATOM     47  C   UNL A   1      47.285  26.806  35.496  1.00  0.00     0.000 A 
ENDBRANCH  28  42
BRANCH  29  48
ATOM     48  C   UNL A   1      36.871  30.635  28.950  1.00  0.00    -0.014 A 
ATOM     49  C   UNL A   1      36.675  31.977  28.590  1.00  0.00     0.009 A 
ATOM     50  C   UNL A   1      35.898  29.692  28.578  1.00  0.00     0.009 A 
ATOM     51  C   UNL A   1      35.521  32.368  27.902  1.00  0.00     0.001 A 
ATOM     52  C   UNL A   1      34.762  30.079  27.862  1.00  0.00     0.001 A 
ATOM     53  C   UNL A   1      34.568  31.418  27.535  1.00  0.00     0.000 A 
ENDBRANCH  29  48
BRANCH  41  54
ATOM     54  C   UNL A   1      39.043  31.778  35.473  1.00  0.00    -0.014 A 
ATOM     55  C   UNL A   1      38.240  31.168  36.448  1.00  0.00     0.009 A 
ATOM     56  C   UNL A   1      39.345  33.144  35.583  1.00  0.00     0.009 A 
ATOM     57  C   UNL A   1      37.728  31.922  37.503  1.00  0.00     0.001 A 
ATOM     58  C   UNL A   1      38.854  33.887  36.654  1.00  0.00     0.001 A 
ATOM     59  C   UNL A   1      38.041  33.278  37.608  1.00  0.00     0.000 A 
ENDBRANCH  41  54
ENDBRANCH  15  16
ENDBRANCH   8  10
ENDBRANCH   7   8
ENDBRANCH   6   7
ENDBRANCH   5   6
ENDBRANCH   4   5
ENDBRANCH   3   4
ENDBRANCH   2   3
ENDBRANCH   1   2
BRANCH   1  60
ATOM     60  C   UNL A   1      40.052  21.535  26.830  1.00  0.00     0.188 C 
BRANCH  60  61
ATOM     61  C   UNL A   1      39.242  21.019  25.634  1.00  0.00     0.188 C 
BRANCH  61  62
ATOM     62  O   UNL A   1      38.008  21.690  25.406  1.00  0.00    -0.376 OA
BRANCH  62  63
ATOM     63  C   UNL A   1      38.066  23.096  25.662  1.00  0.00     0.202 C 
BRANCH  63  64
ATOM     64  C   UNL A   1      36.717  23.703  26.055  1.00  0.00     0.261 C 
BRANCH  64  65
ATOM     65  O   UNL A   1      35.884  23.935  24.909  1.00  0.00    -0.459 OA
BRANCH  65  66
ATOM     66  C   UNL A   1      34.699  24.588  25.038  1.00  0.00     0.370 C 
ATOM     67  O   UNL A   1      34.548  25.581  25.743  1.00  0.00    -0.245 OA
BRANCH  66  68
ATOM     68  C   UNL A   1      33.618  23.863  24.150  1.00  0.00     0.328 C 
BRANCH  68  69
ATOM     69  N   UNL A   1      32.552  23.143  24.903  1.00  0.00    -0.316 N 
ATOM     70  C   UNL A   1      31.843  22.176  23.994  1.00  0.00     0.284 C 
ATOM     71  C   UNL A   1      33.071  22.350  26.048  1.00  0.00     0.284 C 
ATOM     72  H   UNL A   1      31.930  23.870  25.258  1.00  0.00     0.349 HD
ATOM     73  C   UNL A   1      32.574  20.828  23.637  1.00  0.00     0.178 C 
ATOM     74  C   UNL A   1      33.894  21.089  25.696  1.00  0.00     0.178 C 
ATOM     75  N   UNL A   1      33.092  20.193  24.857  1.00  0.00    -0.360 N 
BRANCH  75  76
ATOM     76  C   UNL A   1      33.410  18.844  24.948  1.00  0.00     0.038 A 
ATOM     77  C   UNL A   1      34.663  18.410  24.474  1.00  0.00     0.026 A 
ATOM     78  C   UNL A   1      32.545  17.869  25.454  1.00  0.00     0.046 A 
ATOM     79  C   UNL A   1      35.037  17.066  24.468  1.00  0.00     0.004 A 
ATOM     80  C   UNL A   1      32.915  16.517  25.446  1.00  0.00     0.043 A 
ATOM     81  C   UNL A   1      34.153  16.110  24.951  1.00  0.00     0.020 A 
ATOM     82  Cl  UNL A   1      31.818  15.324  26.034  1.00  0.00    -0.084 Cl
ENDBRANCH  75  76
ENDBRANCH  68  69
BRANCH  68  83
ATOM     83  C   UNL A   1      33.070  24.908  23.172  1.00  0.00     0.046 A 
ATOM     84  C   UNL A   1      32.794  24.667  21.834  1.00  0.00     0.094 A 
ATOM     85  C   UNL A   1      32.486  26.208  23.454  1.00  0.00     0.011 A 
ATOM     86  N   UNL A   1      31.903  25.604  21.392  1.00  0.00    -0.361 N 
ATOM     87  C   UNL A   1      31.629  26.507  22.389  1.00  0.00     0.046 A 
ATOM     88  C   UNL A   1      32.492  27.114  24.541  1.00  0.00     0.031 A 
ATOM     89  H   UNL A   1      31.514  25.628  20.488  1.00  0.00     0.166 HD
ATOM     90  C   UNL A   1      30.685  27.545  22.424  1.00  0.00     0.028 A 
ATOM     91  C   UNL A   1      31.558  28.160  24.588  1.00  0.00     0.041 A 
ATOM     92  C   UNL A   1      30.643  28.352  23.561  1.00  0.00     0.022 A 
ATOM     93  Cl  UNL A   1      31.508  29.193  25.967  1.00  0.00    -0.084 Cl
ENDBRANCH  68  83
ENDBRANCH  66  68
ENDBRANCH  65  66
ENDBRANCH  64  65
ENDBRANCH  63  64
ENDBRANCH  62  63
ENDBRANCH  61  62
ENDBRANCH  60  61
ENDBRANCH   1  60
TORSDOF 23
ENDMDL
MODEL 2
REMARK VINA RESULT:     -10.3      1.360      4.851
REMARK SMILES O=C(OCCOCCOCCOCCOC(=O)[C@H](c1c[nH]c2ccc(Cl)cc12)[NH+]1CCN(c2cccc(Cl)c2)CC1)c1ccc(-c2c3nc(c(-c4ccccc4)c4ccc([nH]4)c(-c4ccccc4)c4nc(c(-c5ccccc5)c5ccc2[nH]5)C=C4)C=C3)cc1
REMARK SMILES IDX 9 1 8 2 7 3 6 4 5 5 4 6 3 7 2 8 1 9 42 10 43 11 89 12 44 13
REMARK SMILES IDX 88 14 45 15 46 16 47 17 82 18 48 19 87 20 81 21 83 22 49 23
REMARK SMILES IDX 86 24 80 25 79 26 50 28 72 29 57 30 71 31 58 32 61 33 70 34
REMARK SMILES IDX 84 35 59 36 60 37 69 39 85 40 62 41 51 42 52 43 56 44 53 45
REMARK SMILES IDX 55 46 54 47 73 48 74 49 78 50 75 51 77 52 76 53 63 54 64 55
REMARK SMILES IDX 68 56 65 57 67 58 66 59 10 60 11 61 12 62 13 63 14 64 15 65
REMARK SMILES IDX 16 66 17 67 18 68 29 69 30 70 41 71 31 73 40 74 32 75 33 76
REMARK SMILES IDX 34 77 39 78 35 79 37 80 36 81 38 82 19 83 20 84 28 85 21 86
REMARK SMILES IDX 22 87 27 88 23 90 25 91 24 92 26 93
REMARK H PARENT 83 27 61 38 29 72 21 89
REMARK Flexibility Score: inf
ROOT
ATOM      1  O   UNL A   1      41.545  18.926  25.701  1.00  0.00    -0.377 OA
ENDROOT
BRANCH   1   2
ATOM      2  C   UNL A   1      42.800  19.381  26.211  1.00  0.00     0.188 C 
BRANCH   2   3
ATOM      3  C   UNL A   1      42.971  20.900  26.148  1.00  0.00     0.188 C 
BRANCH   3   4
ATOM      4  O   UNL A   1      43.500  21.256  24.870  1.00  0.00    -0.376 OA
BRANCH   4   5
ATOM      5  C   UNL A   1      44.921  21.180  24.743  1.00  0.00     0.202 C 
BRANCH   5   6
ATOM      6  C   UNL A   1      45.612  22.466  25.169  1.00  0.00     0.261 C 
BRANCH   6   7
ATOM      7  O   UNL A   1      44.830  23.618  24.827  1.00  0.00    -0.460 OA
BRANCH   7   8
ATOM      8  C   UNL A   1      45.122  24.911  25.112  1.00  0.00     0.338 C 
ATOM      9  O   UNL A   1      46.054  25.445  24.508  1.00  0.00    -0.246 OA
BRANCH   8  10
ATOM     10  C   UNL A   1      44.336  25.766  26.057  1.00  0.00     0.060 A 
ATOM     11  C   UNL A   1      44.200  27.157  25.997  1.00  0.00     0.016 A 
ATOM     12  C   UNL A   1      43.605  25.083  27.044  1.00  0.00     0.016 A 
ATOM     13  C   UNL A   1      43.409  27.856  26.896  1.00  0.00     0.010 A 
ATOM     14  C   UNL A   1      42.800  25.774  27.954  1.00  0.00     0.010 A 
ATOM     15  C   UNL A   1      42.724  27.169  27.890  1.00  0.00    -0.014 A 
BRANCH  15  16
ATOM     16  C   UNL A   1      42.118  27.963  28.969  1.00  0.00     0.031 A 
ATOM     17  C   UNL A   1      42.956  28.224  30.181  1.00  0.00     0.074 A 
ATOM     18  C   UNL A   1      40.925  28.556  28.787  1.00  0.00     0.049 A 
ATOM     19  N   UNL A   1      42.639  28.823  31.295  1.00  0.00    -0.248 NA
ATOM     20  C   UNL A   1      44.355  27.760  30.121  1.00  0.00     0.031 C 
ATOM     21  C   UNL A   1      40.126  28.494  27.560  1.00  0.00     0.029 A 
ATOM     22  N   UNL A   1      40.196  29.357  29.621  1.00  0.00    -0.354 N 
ATOM     23  C   UNL A   1      43.782  28.765  32.083  1.00  0.00     0.074 A 
ATOM     24  C   UNL A   1      44.805  28.089  31.321  1.00  0.00     0.031 C 
ATOM     25  C   UNL A   1      39.021  29.242  27.720  1.00  0.00     0.029 A 
ATOM     26  C   UNL A   1      39.003  29.770  29.080  1.00  0.00     0.049 A 
ATOM     27  H   UNL A   1      40.497  29.615  30.522  1.00  0.00     0.167 HD
ATOM     28  C   UNL A   1      43.945  29.223  33.343  1.00  0.00     0.031 A 
ATOM     29  C   UNL A   1      37.997  30.457  29.651  1.00  0.00     0.031 A 
ATOM     30  C   UNL A   1      42.899  29.882  34.073  1.00  0.00     0.049 A 
ATOM     31  C   UNL A   1      38.158  30.855  31.094  1.00  0.00     0.074 A 
ATOM     32  C   UNL A   1      42.890  30.313  35.384  1.00  0.00     0.029 A 
ATOM     33  N   UNL A   1      41.664  30.206  33.528  1.00  0.00    -0.354 N 
ATOM     34  N   UNL A   1      39.200  30.707  31.880  1.00  0.00    -0.248 NA
ATOM     35  C   UNL A   1      37.003  31.491  31.738  1.00  0.00     0.031 C 
ATOM     36  C   UNL A   1      41.630  30.862  35.644  1.00  0.00     0.029 A 
ATOM     37  C   UNL A   1      40.876  30.821  34.479  1.00  0.00     0.049 A 
ATOM     38  H   UNL A   1      41.390  30.025  32.599  1.00  0.00     0.167 HD
ATOM     39  C   UNL A   1      38.833  31.241  33.106  1.00  0.00     0.074 A 
ATOM     40  C   UNL A   1      37.479  31.738  32.951  1.00  0.00     0.031 C 
ATOM     41  C   UNL A   1      39.537  31.307  34.264  1.00  0.00     0.031 A 
BRANCH  28  42
ATOM     42  C   UNL A   1      45.256  28.923  34.011  1.00  0.00    -0.014 A 
ATOM     43  C   UNL A   1      45.524  27.669  34.583  1.00  0.00     0.009 A 
ATOM     44  C   UNL A   1      46.218  29.939  34.118  1.00  0.00     0.009 A 
ATOM     45  C   UNL A   1      46.716  27.453  35.280  1.00  0.00     0.001 A 
ATOM     46  C   UNL A   1      47.417  29.713  34.794  1.00  0.00     0.001 A 
ATOM     47  C   UNL A   1      47.661  28.474  35.384  1.00  0.00     0.000 A 
ENDBRANCH  28  42
BRANCH  29  48
ATOM     48  C   UNL A   1      36.737  30.728  28.905  1.00  0.00    -0.014 A 
ATOM     49  C   UNL A   1      35.887  29.683  28.509  1.00  0.00     0.009 A 
ATOM     50  C   UNL A   1      36.388  32.044  28.559  1.00  0.00     0.009 A 
ATOM     51  C   UNL A   1      34.734  29.950  27.763  1.00  0.00     0.001 A 
ATOM     52  C   UNL A   1      35.219  32.311  27.842  1.00  0.00     0.001 A 
ATOM     53  C   UNL A   1      34.398  31.263  27.434  1.00  0.00     0.000 A 
ENDBRANCH  29  48
BRANCH  41  54
ATOM     54  C   UNL A   1      38.863  31.975  35.424  1.00  0.00    -0.014 A 
ATOM     55  C   UNL A   1      38.284  31.224  36.456  1.00  0.00     0.009 A 
ATOM     56  C   UNL A   1      38.864  33.376  35.505  1.00  0.00     0.009 A 
ATOM     57  C   UNL A   1      37.691  31.869  37.542  1.00  0.00     0.001 A 
ATOM     58  C   UNL A   1      38.295  34.015  36.605  1.00  0.00     0.001 A 
ATOM     59  C   UNL A   1      37.703  33.262  37.617  1.00  0.00     0.000 A 
ENDBRANCH  41  54
ENDBRANCH  15  16
ENDBRANCH   8  10
ENDBRANCH   7   8
ENDBRANCH   6   7
ENDBRANCH   5   6
ENDBRANCH   4   5
ENDBRANCH   3   4
ENDBRANCH   2   3
ENDBRANCH   1   2
BRANCH   1  60
ATOM     60  C   UNL A   1      40.404  19.598  26.209  1.00  0.00     0.188 C 
BRANCH  60  61
ATOM     61  C   UNL A   1      39.139  19.762  25.357  1.00  0.00     0.188 C 
BRANCH  61  62
ATOM     62  O   UNL A   1      38.476  21.014  25.495  1.00  0.00    -0.376 OA
BRANCH  62  63
ATOM     63  C   UNL A   1      37.182  21.044  24.888  1.00  0.00     0.202 C 
BRANCH  63  64
ATOM     64  C   UNL A   1      36.892  22.342  24.129  1.00  0.00     0.261 C 
BRANCH  64  65
ATOM     65  O   UNL A   1      35.561  22.357  23.592  1.00  0.00    -0.459 OA
BRANCH  65  66
ATOM     66  C   UNL A   1      34.825  23.500  23.604  1.00  0.00     0.370 C 
ATOM     67  O   UNL A   1      35.160  24.525  23.019  1.00  0.00    -0.245 OA
BRANCH  66  68
ATOM     68  C   UNL A   1      33.526  23.261  24.463  1.00  0.00     0.328 C 
BRANCH  68  69
ATOM     69  N   UNL A   1      32.241  23.350  23.713  1.00  0.00    -0.316 N 
ATOM     70  C   UNL A   1      31.130  23.758  24.642  1.00  0.00     0.284 C 
ATOM     71  C   UNL A   1      32.267  24.350  22.613  1.00  0.00     0.284 C 
ATOM     72  H   UNL A   1      32.093  22.423  23.315  1.00  0.00     0.349 HD
ATOM     73  C   UNL A   1      31.045  25.271  25.070  1.00  0.00     0.178 C 
ATOM     74  C   UNL A   1      32.306  25.837  23.035  1.00  0.00     0.178 C 
ATOM     75  N   UNL A   1      31.153  26.140  23.889  1.00  0.00    -0.360 N 
BRANCH  75  76
ATOM     76  C   UNL A   1      30.716  27.458  23.860  1.00  0.00     0.038 A 
ATOM     77  C   UNL A   1      29.820  27.852  22.846  1.00  0.00     0.026 A 
ATOM     78  C   UNL A   1      31.136  28.441  24.760  1.00  0.00     0.046 A 
ATOM     79  C   UNL A   1      29.383  29.170  22.705  1.00  0.00     0.004 A 
ATOM     80  C   UNL A   1      30.702  29.767  24.619  1.00  0.00     0.043 A 
ATOM     81  C   UNL A   1      29.833  30.136  23.594  1.00  0.00     0.020 A 
ATOM     82  Cl  UNL A   1      31.266  30.975  25.712  1.00  0.00    -0.084 Cl
ENDBRANCH  75  76
ENDBRANCH  68  69
BRANCH  68  83
ATOM     83  C   UNL A   1      33.712  21.927  25.193  1.00  0.00     0.046 A 
ATOM     84  C   UNL A   1      33.976  21.799  26.548  1.00  0.00     0.094 A 
ATOM     85  C   UNL A   1      33.398  20.583  24.737  1.00  0.00     0.011 A 
ATOM     86  N   UNL A   1      33.610  20.547  26.953  1.00  0.00    -0.361 N 
ATOM     87  C   UNL A   1      33.170  19.811  25.881  1.00  0.00     0.046 A 
ATOM     88  C   UNL A   1      33.166  19.959  23.488  1.00  0.00     0.031 A 
ATOM     89  H   UNL A   1      33.655  20.219  27.881  1.00  0.00     0.166 HD
ATOM     90  C   UNL A   1      32.581  18.537  25.849  1.00  0.00     0.028 A 
ATOM     91  C   UNL A   1      32.582  18.683  23.440  1.00  0.00     0.041 A 
ATOM     92  C   UNL A   1      32.262  17.995  24.604  1.00  0.00     0.022 A 
ATOM     93  Cl  UNL A   1      32.210  17.977  21.912  1.00  0.00    -0.084 Cl
ENDBRANCH  68  83
ENDBRANCH  66  68
ENDBRANCH  65  66
ENDBRANCH  64  65
ENDBRANCH  63  64
ENDBRANCH  62  63
ENDBRANCH  61  62
ENDBRANCH  60  61
ENDBRANCH   1  60
TORSDOF 23
ENDMDL
MODEL 3
REMARK VINA RESULT:     -10.2      4.581      7.871
REMARK SMILES O=C(OCCOCCOCCOCCOC(=O)[C@H](c1c[nH]c2ccc(Cl)cc12)[NH+]1CCN(c2cccc(Cl)c2)CC1)c1ccc(-c2c3nc(c(-c4ccccc4)c4ccc([nH]4)c(-c4ccccc4)c4nc(c(-c5ccccc5)c5ccc2[nH]5)C=C4)C=C3)cc1
REMARK SMILES IDX 9 1 8 2 7 3 6 4 5 5 4 6 3 7 2 8 1 9 42 10 43 11 89 12 44 13
REMARK SMILES IDX 88 14 45 15 46 16 47 17 82 18 48 19 87 20 81 21 83 22 49 23
REMARK SMILES IDX 86 24 80 25 79 26 50 28 72 29 57 30 71 31 58 32 61 33 70 34
REMARK SMILES IDX 84 35 59 36 60 37 69 39 85 40 62 41 51 42 52 43 56 44 53 45
REMARK SMILES IDX 55 46 54 47 73 48 74 49 78 50 75 51 77 52 76 53 63 54 64 55
REMARK SMILES IDX 68 56 65 57 67 58 66 59 10 60 11 61 12 62 13 63 14 64 15 65
REMARK SMILES IDX 16 66 17 67 18 68 29 69 30 70 41 71 31 73 40 74 32 75 33 76
REMARK SMILES IDX 34 77 39 78 35 79 37 80 36 81 38 82 19 83 20 84 28 85 21 86
REMARK SMILES IDX 22 87 27 88 23 90 25 91 24 92 26 93
REMARK H PARENT 83 27 61 38 29 72 21 89
REMARK Flexibility Score: inf
ROOT
ATOM      1  O   UNL A   1      38.363  22.573  25.574  1.00  0.00    -0.377 OA
ENDROOT
BRANCH   1   2
ATOM      2  C   UNL A   1      38.916  21.289  25.869  1.00  0.00     0.188 C 
BRANCH   2   3
ATOM      3  C   UNL A   1      40.352  21.348  26.393  1.00  0.00     0.188 C 
BRANCH   3   4
ATOM      4  O   UNL A   1      41.045  20.167  25.985  1.00  0.00    -0.376 OA
BRANCH   4   5
ATOM      5  C   UNL A   1      41.887  19.568  26.972  1.00  0.00     0.202 C 
BRANCH   5   6
ATOM      6  C   UNL A   1      42.777  18.480  26.391  1.00  0.00     0.261 C 
BRANCH   6   7
ATOM      7  O   UNL A   1      43.148  18.774  25.039  1.00  0.00    -0.460 OA
BRANCH   7   8
ATOM      8  C   UNL A   1      44.255  19.444  24.628  1.00  0.00     0.338 C 
ATOM      9  O   UNL A   1      45.014  18.884  23.836  1.00  0.00    -0.246 OA
BRANCH   8  10
ATOM     10  C   UNL A   1      44.577  20.855  25.009  1.00  0.00     0.060 A 
ATOM     11  C   UNL A   1      45.617  21.268  25.849  1.00  0.00     0.016 A 
ATOM     12  C   UNL A   1      43.803  21.853  24.394  1.00  0.00     0.016 A 
ATOM     13  C   UNL A   1      45.864  22.608  26.106  1.00  0.00     0.010 A 
ATOM     14  C   UNL A   1      44.042  23.208  24.641  1.00  0.00     0.010 A 
ATOM     15  C   UNL A   1      45.064  23.580  25.521  1.00  0.00    -0.014 A 
BRANCH  15  16
ATOM     16  C   UNL A   1      45.191  24.957  26.023  1.00  0.00     0.031 A 
ATOM     17  C   UNL A   1      46.505  25.643  25.814  1.00  0.00     0.074 A 
ATOM     18  C   UNL A   1      44.115  25.609  26.497  1.00  0.00     0.049 A 
ATOM     19  N   UNL A   1      46.903  26.815  26.224  1.00  0.00    -0.248 NA
ATOM     20  C   UNL A   1      47.506  24.910  25.015  1.00  0.00     0.031 C 
ATOM     21  C   UNL A   1      42.757  25.063  26.566  1.00  0.00     0.029 A 
ATOM     22  N   UNL A   1      43.990  26.883  26.976  1.00  0.00    -0.354 N 
ATOM     23  C   UNL A   1      48.211  26.938  25.773  1.00  0.00     0.074 A 
ATOM     24  C   UNL A   1      48.539  25.735  25.047  1.00  0.00     0.031 C 
ATOM     25  C   UNL A   1      41.932  26.009  27.047  1.00  0.00     0.029 A 
ATOM     26  C   UNL A   1      42.716  27.191  27.387  1.00  0.00     0.049 A 
ATOM     27  H   UNL A   1      44.740  27.519  27.022  1.00  0.00     0.167 HD
ATOM     28  C   UNL A   1      49.064  27.967  25.973  1.00  0.00     0.031 A 
ATOM     29  C   UNL A   1      42.262  28.293  28.010  1.00  0.00     0.031 A 
ATOM     30  C   UNL A   1      48.704  29.144  26.710  1.00  0.00     0.049 A 
ATOM     31  C   UNL A   1      43.259  29.377  28.323  1.00  0.00     0.074 A 
ATOM     32  C   UNL A   1      49.489  30.220  27.072  1.00  0.00     0.029 A 
ATOM     33  N   UNL A   1      47.426  29.390  27.196  1.00  0.00    -0.354 N 
ATOM     34  N   UNL A   1      44.528  29.451  27.993  1.00  0.00    -0.248 NA
ATOM     35  C   UNL A   1      42.774  30.514  29.115  1.00  0.00     0.031 C 
ATOM     36  C   UNL A   1      48.693  31.099  27.814  1.00  0.00     0.029 A 
ATOM     37  C   UNL A   1      47.400  30.595  27.867  1.00  0.00     0.049 A 
ATOM     38  H   UNL A   1      46.651  28.792  27.078  1.00  0.00     0.167 HD
ATOM     39  C   UNL A   1      44.992  30.645  28.523  1.00  0.00     0.074 A 
ATOM     40  C   UNL A   1      43.859  31.274  29.176  1.00  0.00     0.031 C 
ATOM     41  C   UNL A   1      46.239  31.177  28.490  1.00  0.00     0.031 A 
BRANCH  28  42
ATOM     42  C   UNL A   1      50.470  27.791  25.475  1.00  0.00    -0.014 A 
ATOM     43  C   UNL A   1      50.849  28.178  24.180  1.00  0.00     0.009 A 
ATOM     44  C   UNL A   1      51.417  27.172  26.304  1.00  0.00     0.009 A 
ATOM     45  C   UNL A   1      52.140  27.913  23.715  1.00  0.00     0.001 A 
ATOM     46  C   UNL A   1      52.713  26.931  25.845  1.00  0.00     0.001 A 
ATOM     47  C   UNL A   1      53.070  27.292  24.547  1.00  0.00     0.000 A 
ENDBRANCH  28  42
BRANCH  29  48
ATOM     48  C   UNL A   1      40.843  28.390  28.452  1.00  0.00    -0.014 A 
ATOM     49  C   UNL A   1      40.444  27.943  29.722  1.00  0.00     0.009 A 
ATOM     50  C   UNL A   1      39.865  28.911  27.587  1.00  0.00     0.009 A 
ATOM     51  C   UNL A   1      39.099  27.992  30.103  1.00  0.00     0.001 A 
ATOM     52  C   UNL A   1      38.527  28.989  27.983  1.00  0.00     0.001 A 
ATOM     53  C   UNL A   1      38.143  28.519  29.235  1.00  0.00     0.000 A 
ENDBRANCH  29  48
BRANCH  41  54
ATOM     54  C   UNL A   1      46.418  32.514  29.143  1.00  0.00    -0.014 A 
ATOM     55  C   UNL A   1      46.218  33.703  28.426  1.00  0.00     0.009 A 
ATOM     56  C   UNL A   1      46.734  32.576  30.508  1.00  0.00     0.009 A 
ATOM     57  C   UNL A   1      46.359  34.936  29.063  1.00  0.00     0.001 A 
ATOM     58  C   UNL A   1      46.845  33.809  31.148  1.00  0.00     0.001 A 
ATOM     59  C   UNL A   1      46.665  34.986  30.424  1.00  0.00     0.000 A 
ENDBRANCH  41  54
ENDBRANCH  15  16
ENDBRANCH   8  10
ENDBRANCH   7   8
ENDBRANCH   6   7
ENDBRANCH   5   6
ENDBRANCH   4   5
ENDBRANCH   3   4
ENDBRANCH   2   3
ENDBRANCH   1   2
BRANCH   1  60
ATOM     60  C   UNL A   1      36.965  22.593  25.340  1.00  0.00     0.188 C 
BRANCH  60  61
ATOM     61  C   UNL A   1      36.403  22.842  23.934  1.00  0.00     0.188 C 
BRANCH  61  62
ATOM     62  O   UNL A   1      35.286  23.722  23.878  1.00  0.00    -0.376 OA
BRANCH  62  63
ATOM     63  C   UNL A   1      34.148  23.248  24.603  1.00  0.00     0.202 C 
BRANCH  63  64
ATOM     64  C   UNL A   1      33.656  24.224  25.675  1.00  0.00     0.261 C 
BRANCH  64  65
ATOM     65  O   UNL A   1      32.641  25.103  25.167  1.00  0.00    -0.459 OA
BRANCH  65  66
ATOM     66  C   UNL A   1      31.842  25.800  26.018  1.00  0.00     0.370 C 
ATOM     67  O   UNL A   1      31.428  25.346  27.080  1.00  0.00    -0.245 OA
BRANCH  66  68
ATOM     68  C   UNL A   1      31.574  27.229  25.412  1.00  0.00     0.328 C 
BRANCH  68  69
ATOM     69  N   UNL A   1      32.758  27.892  24.794  1.00  0.00    -0.316 N 
ATOM     70  C   UNL A   1      32.462  29.347  24.547  1.00  0.00     0.284 C 
ATOM     71  C   UNL A   1      33.974  27.843  25.648  1.00  0.00     0.284 C 
ATOM     72  H   UNL A   1      32.938  27.380  23.931  1.00  0.00     0.349 HD
ATOM     73  C   UNL A   1      32.492  30.325  25.780  1.00  0.00     0.178 C 
ATOM     74  C   UNL A   1      33.955  28.713  26.926  1.00  0.00     0.178 C 
ATOM     75  N   UNL A   1      33.716  30.115  26.566  1.00  0.00    -0.360 N 
BRANCH  75  76
ATOM     76  C   UNL A   1      34.239  31.056  27.444  1.00  0.00     0.038 A 
ATOM     77  C   UNL A   1      33.444  32.162  27.803  1.00  0.00     0.026 A 
ATOM     78  C   UNL A   1      35.530  30.995  27.977  1.00  0.00     0.046 A 
ATOM     79  C   UNL A   1      33.915  33.185  28.627  1.00  0.00     0.004 A 
ATOM     80  C   UNL A   1      36.008  32.023  28.802  1.00  0.00     0.043 A 
ATOM     81  C   UNL A   1      35.209  33.119  29.125  1.00  0.00     0.020 A 
ATOM     82  Cl  UNL A   1      37.618  31.953  29.414  1.00  0.00    -0.084 Cl
ENDBRANCH  75  76
ENDBRANCH  68  69
BRANCH  68  83
ATOM     83  C   UNL A   1      30.387  27.092  24.453  1.00  0.00     0.046 A 
ATOM     84  C   UNL A   1      29.664  25.926  24.254  1.00  0.00     0.094 A 
ATOM     85  C   UNL A   1      29.619  28.135  23.793  1.00  0.00     0.011 A 
ATOM     86  N   UNL A   1      28.437  26.248  23.747  1.00  0.00    -0.361 N 
ATOM     87  C   UNL A   1      28.350  27.602  23.538  1.00  0.00     0.046 A 
ATOM     88  C   UNL A   1      29.810  29.503  23.488  1.00  0.00     0.031 A 
ATOM     89  H   UNL A   1      27.718  25.602  23.558  1.00  0.00     0.166 HD
ATOM     90  C   UNL A   1      27.246  28.382  23.159  1.00  0.00     0.028 A 
ATOM     91  C   UNL A   1      28.717  30.295  23.103  1.00  0.00     0.041 A 
ATOM     92  C   UNL A   1      27.446  29.751  22.974  1.00  0.00     0.022 A 
ATOM     93  Cl  UNL A   1      28.944  31.983  22.834  1.00  0.00    -0.084 Cl
ENDBRANCH  68  83
ENDBRANCH  66  68
ENDBRANCH  65  66
ENDBRANCH  64  65
ENDBRANCH  63  64
ENDBRANCH  62  63
ENDBRANCH  61  62
ENDBRANCH  60  61
ENDBRANCH   1  60
TORSDOF 23
ENDMDL
