MODEL 1
REMARK VINA RESULT:      -9.9      0.000      0.000
REMARK SMILES O=C1[NH+]=C(Nc2ccc(C(=O)OCCOCCOCCOCCOC(=O)c3ccc(-c4c5nc(c(-c6ccccc6)c6ccc([nH]6)c(-c6ccccc6)c6nc(c(-c7ccccc7)c7ccc4[nH]7)C=C6)C=C5)cc3)c(O)c2)S/C1=C\c1ccc[nH]1
REMARK SMILES IDX 18 1 17 2 16 3 15 4 14 5 13 6 12 7 10 8 11 9 9 10 6 11 7 12
REMARK SMILES IDX 77 13 8 14 75 15 5 16 1 17 2 18 3 19 79 20 4 21 78 23 80 24
REMARK SMILES IDX 81 26 82 27 85 28 83 29 84 30 76 32 19 34 20 35 21 36 22 37
REMARK SMILES IDX 23 38 24 39 25 40 26 41 27 42 28 43 74 44 29 45 73 46 30 47
REMARK SMILES IDX 31 48 32 49 67 50 33 51 72 52 66 53 68 54 34 55 71 56 65 57
REMARK SMILES IDX 64 58 35 60 57 61 42 62 56 63 43 64 46 65 55 66 69 67 44 68
REMARK SMILES IDX 45 69 54 71 70 72 47 73 36 74 37 75 41 76 38 77 40 78 39 79
REMARK SMILES IDX 58 80 59 81 63 82 60 83 62 84 61 85 48 86 49 87 53 88 50 89
REMARK SMILES IDX 52 90 51 91
REMARK H PARENT 3 22 5 25 85 31 76 33 68 59 46 70
REMARK Flexibility Score: inf
ROOT
ATOM      1  O   UNL A   1      34.713  24.426  24.934  1.00  0.00    -0.377 OA
ENDROOT
BRANCH   1   2
ATOM      2  C   UNL A   1      34.281  25.284  25.982  1.00  0.00     0.188 C 
BRANCH   2   3
ATOM      3  C   UNL A   1      33.645  26.591  25.464  1.00  0.00     0.188 C 
BRANCH   3   4
ATOM      4  O   UNL A   1      32.544  27.015  26.251  1.00  0.00    -0.376 OA
BRANCH   4   5
ATOM      5  C   UNL A   1      32.108  28.361  26.226  1.00  0.00     0.202 C 
BRANCH   5   6
ATOM      6  C   UNL A   1      32.085  29.234  24.954  1.00  0.00     0.261 C 
BRANCH   6   7
ATOM      7  O   UNL A   1      30.831  29.425  24.293  1.00  0.00    -0.460 OA
BRANCH   7   8
ATOM      8  C   UNL A   1      30.736  29.020  23.007  1.00  0.00     0.341 C 
ATOM      9  O   UNL A   1      30.711  29.734  22.022  1.00  0.00    -0.246 OA
BRANCH   8  10
ATOM     10  C   UNL A   1      30.887  27.544  22.987  1.00  0.00     0.102 A 
ATOM     11  C   UNL A   1      31.048  24.730  23.015  1.00  0.00     0.129 A 
ATOM     12  C   UNL A   1      29.918  25.381  23.521  1.00  0.00     0.053 A 
ATOM     13  C   UNL A   1      32.065  25.500  22.433  1.00  0.00     0.098 A 
ATOM     14  C   UNL A   1      29.856  26.778  23.548  1.00  0.00     0.024 A 
ATOM     15  C   UNL A   1      31.961  26.890  22.375  1.00  0.00     0.134 A 
BRANCH  11  16
ATOM     16  N   UNL A   1      31.203  23.343  23.090  1.00  0.00    -0.234 N 
ATOM     17  O   UNL A   1      32.771  22.000  27.268  1.00  0.00    -0.240 OA
ATOM     18  C   UNL A   1      32.517  21.931  26.077  1.00  0.00     0.346 C 
ATOM     19  N   UNL A   1      32.037  22.971  25.307  1.00  0.00    -0.199 N 
ATOM     20  C   UNL A   1      32.673  20.675  25.279  1.00  0.00     0.111 C 
ATOM     21  C   UNL A   1      31.774  22.623  24.094  1.00  0.00     0.322 C 
ATOM     22  H   UNL A   1      31.907  23.884  25.650  1.00  0.00     0.316 HD
ATOM     23  S   UNL A   1      32.150  20.965  23.669  1.00  0.00     0.006 SA
ATOM     24  C   UNL A   1      33.124  19.535  25.819  1.00  0.00     0.050 C 
ATOM     25  H   UNL A   1      30.860  22.825  22.327  1.00  0.00     0.313 HD
BRANCH  24  26
ATOM     26  C   UNL A   1      33.358  18.361  25.063  1.00  0.00     0.039 A 
ATOM     27  C   UNL A   1      32.549  17.325  24.637  1.00  0.00     0.027 A 
ATOM     28  N   UNL A   1      34.622  18.120  24.580  1.00  0.00    -0.362 N 
ATOM     29  C   UNL A   1      33.352  16.428  23.893  1.00  0.00     0.020 A 
ATOM     30  C   UNL A   1      34.630  16.938  23.883  1.00  0.00     0.083 A 
ATOM     31  H   UNL A   1      35.402  18.706  24.713  1.00  0.00     0.166 HD
ENDBRANCH  24  26
ENDBRANCH  11  16
BRANCH  15  32
ATOM     32  O   UNL A   1      32.931  27.542  21.665  1.00  0.00    -0.507 OA
ATOM     33  H   UNL A   1      32.874  28.468  21.535  1.00  0.00     0.293 HD
ENDBRANCH  15  32
ENDBRANCH   8  10
ENDBRANCH   7   8
ENDBRANCH   6   7
ENDBRANCH   5   6
ENDBRANCH   4   5
ENDBRANCH   3   4
ENDBRANCH   2   3
ENDBRANCH   1   2
BRANCH   1  34
ATOM     34  C   UNL A   1      35.727  23.464  25.237  1.00  0.00     0.188 C 
BRANCH  34  35
ATOM     35  C   UNL A   1      35.897  22.149  24.431  1.00  0.00     0.188 C 
BRANCH  35  36
ATOM     36  O   UNL A   1      36.227  21.016  25.219  1.00  0.00    -0.376 OA
BRANCH  36  37
ATOM     37  C   UNL A   1      37.127  20.053  24.702  1.00  0.00     0.202 C 
BRANCH  37  38
ATOM     38  C   UNL A   1      38.523  20.003  25.334  1.00  0.00     0.261 C 
BRANCH  38  39
ATOM     39  O   UNL A   1      39.066  21.260  25.757  1.00  0.00    -0.460 OA
BRANCH  39  40
ATOM     40  C   UNL A   1      39.923  21.254  26.801  1.00  0.00     0.338 C 
ATOM     41  O   UNL A   1      40.474  20.297  27.304  1.00  0.00    -0.246 OA
BRANCH  40  42
ATOM     42  C   UNL A   1      40.208  22.668  27.122  1.00  0.00     0.060 A 
ATOM     43  C   UNL A   1      39.447  23.685  26.526  1.00  0.00     0.016 A 
ATOM     44  C   UNL A   1      41.211  22.977  28.042  1.00  0.00     0.016 A 
ATOM     45  C   UNL A   1      39.708  25.022  26.837  1.00  0.00     0.010 A 
ATOM     46  C   UNL A   1      41.484  24.312  28.333  1.00  0.00     0.010 A 
ATOM     47  C   UNL A   1      40.754  25.341  27.711  1.00  0.00    -0.014 A 
BRANCH  47  48
ATOM     48  C   UNL A   1      41.249  26.731  27.839  1.00  0.00     0.031 A 
ATOM     49  C   UNL A   1      42.585  27.057  27.233  1.00  0.00     0.074 A 
ATOM     50  C   UNL A   1      40.568  27.664  28.525  1.00  0.00     0.049 A 
ATOM     51  N   UNL A   1      43.317  28.133  27.362  1.00  0.00    -0.248 NA
ATOM     52  C   UNL A   1      43.179  26.019  26.374  1.00  0.00     0.031 C 
ATOM     53  C   UNL A   1      39.242  27.490  29.113  1.00  0.00     0.029 A 
ATOM     54  N   UNL A   1      40.925  28.946  28.868  1.00  0.00    -0.354 N 
ATOM     55  C   UNL A   1      44.469  27.889  26.624  1.00  0.00     0.074 A 
ATOM     56  C   UNL A   1      44.347  26.560  26.067  1.00  0.00     0.031 C 
ATOM     57  C   UNL A   1      38.904  28.617  29.765  1.00  0.00     0.029 A 
ATOM     58  C   UNL A   1      40.012  29.569  29.683  1.00  0.00     0.049 A 
ATOM     59  H   UNL A   1      41.754  29.376  28.557  1.00  0.00     0.167 HD
ATOM     60  C   UNL A   1      45.535  28.700  26.432  1.00  0.00     0.031 A 
ATOM     61  C   UNL A   1      40.085  30.753  30.323  1.00  0.00     0.031 A 
ATOM     62  C   UNL A   1      45.659  30.012  27.005  1.00  0.00     0.049 A 
ATOM     63  C   UNL A   1      41.324  31.599  30.173  1.00  0.00     0.074 A 
ATOM     64  C   UNL A   1      46.693  30.919  26.863  1.00  0.00     0.029 A 
ATOM     65  N   UNL A   1      44.721  30.597  27.841  1.00  0.00    -0.354 N 
ATOM     66  N   UNL A   1      42.402  31.373  29.461  1.00  0.00    -0.248 NA
ATOM     67  C   UNL A   1      41.358  32.867  30.920  1.00  0.00     0.031 C 
ATOM     68  C   UNL A   1      46.412  32.027  27.665  1.00  0.00     0.029 A 
ATOM     69  C   UNL A   1      45.167  31.843  28.247  1.00  0.00     0.049 A 
ATOM     70  H   UNL A   1      43.866  30.188  28.107  1.00  0.00     0.167 HD
ATOM     71  C   UNL A   1      43.220  32.483  29.641  1.00  0.00     0.074 A 
ATOM     72  C   UNL A   1      42.514  33.385  30.525  1.00  0.00     0.031 C 
ATOM     73  C   UNL A   1      44.443  32.736  29.115  1.00  0.00     0.031 A 
BRANCH  60  74
ATOM     74  C   UNL A   1      46.671  28.167  25.604  1.00  0.00    -0.014 A 
ATOM     75  C   UNL A   1      46.619  28.165  24.202  1.00  0.00     0.009 A 
ATOM     76  C   UNL A   1      47.823  27.681  26.242  1.00  0.00     0.009 A 
ATOM     77  C   UNL A   1      47.683  27.654  23.457  1.00  0.00     0.001 A 
ATOM     78  C   UNL A   1      48.899  27.203  25.494  1.00  0.00     0.001 A 
ATOM     79  C   UNL A   1      48.824  27.180  24.102  1.00  0.00     0.000 A 
ENDBRANCH  60  74
BRANCH  61  80
ATOM     80  C   UNL A   1      38.967  31.203  31.197  1.00  0.00    -0.014 A 
ATOM     81  C   UNL A   1      38.885  30.771  32.530  1.00  0.00     0.009 A 
ATOM     82  C   UNL A   1      37.961  32.044  30.696  1.00  0.00     0.009 A 
ATOM     83  C   UNL A   1      37.804  31.148  33.332  1.00  0.00     0.001 A 
ATOM     84  C   UNL A   1      36.900  32.446  31.510  1.00  0.00     0.001 A 
ATOM     85  C   UNL A   1      36.815  31.989  32.824  1.00  0.00     0.000 A 
ENDBRANCH  61  80
BRANCH  73  86
ATOM     86  C   UNL A   1      45.081  34.063  29.424  1.00  0.00    -0.014 A 
ATOM     87  C   UNL A   1      45.814  34.271  30.602  1.00  0.00     0.009 A 
ATOM     88  C   UNL A   1      45.013  35.095  28.474  1.00  0.00     0.009 A 
ATOM     89  C   UNL A   1      46.449  35.496  30.829  1.00  0.00     0.001 A 
ATOM     90  C   UNL A   1      45.674  36.304  28.688  1.00  0.00     0.001 A 
ATOM     91  C   UNL A   1      46.386  36.506  29.869  1.00  0.00     0.000 A 
ENDBRANCH  73  86
ENDBRANCH  47  48
ENDBRANCH  40  42
ENDBRANCH  39  40
ENDBRANCH  38  39
ENDBRANCH  37  38
ENDBRANCH  36  37
ENDBRANCH  35  36
ENDBRANCH  34  35
ENDBRANCH   1  34
TORSDOF 23
ENDMDL
MODEL 2
REMARK VINA RESULT:      -8.7      3.388      8.290
REMARK SMILES O=C1[NH+]=C(Nc2ccc(C(=O)OCCOCCOCCOCCOC(=O)c3ccc(-c4c5nc(c(-c6ccccc6)c6ccc([nH]6)c(-c6ccccc6)c6nc(c(-c7ccccc7)c7ccc4[nH]7)C=C6)C=C5)cc3)c(O)c2)S/C1=C\c1ccc[nH]1
REMARK SMILES IDX 18 1 17 2 16 3 15 4 14 5 13 6 12 7 10 8 11 9 9 10 6 11 7 12
REMARK SMILES IDX 77 13 8 14 75 15 5 16 1 17 2 18 3 19 79 20 4 21 78 23 80 24
REMARK SMILES IDX 81 26 82 27 85 28 83 29 84 30 76 32 19 34 20 35 21 36 22 37
REMARK SMILES IDX 23 38 24 39 25 40 26 41 27 42 28 43 74 44 29 45 73 46 30 47
REMARK SMILES IDX 31 48 32 49 67 50 33 51 72 52 66 53 68 54 34 55 71 56 65 57
REMARK SMILES IDX 64 58 35 60 57 61 42 62 56 63 43 64 46 65 55 66 69 67 44 68
REMARK SMILES IDX 45 69 54 71 70 72 47 73 36 74 37 75 41 76 38 77 40 78 39 79
REMARK SMILES IDX 58 80 59 81 63 82 60 83 62 84 61 85 48 86 49 87 53 88 50 89
REMARK SMILES IDX 52 90 51 91
REMARK H PARENT 3 22 5 25 85 31 76 33 68 59 46 70
REMARK Flexibility Score: inf
ROOT
ATOM      1  O   UNL A   1      35.391  35.325  32.603  1.00  0.00    -0.377 OA
ENDROOT
BRANCH   1   2
ATOM      2  C   UNL A   1      34.055  34.842  32.570  1.00  0.00     0.188 C 
BRANCH   2   3
ATOM      3  C   UNL A   1      33.208  35.493  31.457  1.00  0.00     0.188 C 
BRANCH   3   4
ATOM      4  O   UNL A   1      33.141  34.701  30.283  1.00  0.00    -0.376 OA
BRANCH   4   5
ATOM      5  C   UNL A   1      34.280  34.517  29.463  1.00  0.00     0.202 C 
BRANCH   5   6
ATOM      6  C   UNL A   1      34.231  33.903  28.048  1.00  0.00     0.261 C 
BRANCH   6   7
ATOM      7  O   UNL A   1      33.859  32.528  27.925  1.00  0.00    -0.460 OA
BRANCH   7   8
ATOM      8  C   UNL A   1      32.639  32.255  27.411  1.00  0.00     0.341 C 
ATOM      9  O   UNL A   1      31.730  33.046  27.241  1.00  0.00    -0.246 OA
BRANCH   8  10
ATOM     10  C   UNL A   1      32.672  30.867  26.885  1.00  0.00     0.102 A 
ATOM     11  C   UNL A   1      32.832  28.201  25.986  1.00  0.00     0.129 A 
ATOM     12  C   UNL A   1      33.580  28.623  27.090  1.00  0.00     0.053 A 
ATOM     13  C   UNL A   1      31.951  29.109  25.382  1.00  0.00     0.098 A 
ATOM     14  C   UNL A   1      33.535  29.956  27.510  1.00  0.00     0.024 A 
ATOM     15  C   UNL A   1      31.837  30.415  25.860  1.00  0.00     0.134 A 
BRANCH  11  16
ATOM     16  N   UNL A   1      32.949  26.912  25.458  1.00  0.00    -0.234 N 
ATOM     17  O   UNL A   1      29.666  24.055  27.125  1.00  0.00    -0.240 OA
ATOM     18  C   UNL A   1      30.709  24.394  26.591  1.00  0.00     0.346 C 
ATOM     19  N   UNL A   1      31.173  25.691  26.509  1.00  0.00    -0.199 N 
ATOM     20  C   UNL A   1      31.634  23.430  25.918  1.00  0.00     0.111 C 
ATOM     21  C   UNL A   1      32.262  25.796  25.827  1.00  0.00     0.322 C 
ATOM     22  H   UNL A   1      30.719  26.457  26.929  1.00  0.00     0.316 HD
ATOM     23  S   UNL A   1      32.948  24.298  25.232  1.00  0.00     0.006 SA
ATOM     24  C   UNL A   1      31.386  22.114  25.871  1.00  0.00     0.050 C 
ATOM     25  H   UNL A   1      33.605  26.797  24.734  1.00  0.00     0.313 HD
BRANCH  24  26
ATOM     26  C   UNL A   1      32.288  21.176  25.313  1.00  0.00     0.039 A 
ATOM     27  C   UNL A   1      33.382  20.493  25.810  1.00  0.00     0.027 A 
ATOM     28  N   UNL A   1      32.108  20.770  24.012  1.00  0.00    -0.362 N 
ATOM     29  C   UNL A   1      33.884  19.670  24.775  1.00  0.00     0.020 A 
ATOM     30  C   UNL A   1      33.085  19.868  23.672  1.00  0.00     0.083 A 
ATOM     31  H   UNL A   1      31.388  21.079  23.416  1.00  0.00     0.166 HD
ENDBRANCH  24  26
ENDBRANCH  11  16
BRANCH  15  32
ATOM     32  O   UNL A   1      30.853  31.182  25.298  1.00  0.00    -0.507 OA
ATOM     33  H   UNL A   1      30.086  31.394  25.792  1.00  0.00     0.293 HD
ENDBRANCH  15  32
ENDBRANCH   8  10
ENDBRANCH   7   8
ENDBRANCH   6   7
ENDBRANCH   5   6
ENDBRANCH   4   5
ENDBRANCH   3   4
ENDBRANCH   2   3
ENDBRANCH   1   2
BRANCH   1  34
ATOM     34  C   UNL A   1      36.280  34.758  33.570  1.00  0.00     0.188 C 
BRANCH  34  35
ATOM     35  C   UNL A   1      35.803  33.762  34.660  1.00  0.00     0.188 C 
BRANCH  35  36
ATOM     36  O   UNL A   1      36.692  33.623  35.757  1.00  0.00    -0.376 OA
BRANCH  36  37
ATOM     37  C   UNL A   1      37.632  32.565  35.755  1.00  0.00     0.202 C 
BRANCH  37  38
ATOM     38  C   UNL A   1      37.475  31.504  34.659  1.00  0.00     0.261 C 
BRANCH  38  39
ATOM     39  O   UNL A   1      38.189  31.749  33.441  1.00  0.00    -0.460 OA
BRANCH  39  40
ATOM     40  C   UNL A   1      37.812  31.058  32.342  1.00  0.00     0.338 C 
ATOM     41  O   UNL A   1      36.687  30.760  32.002  1.00  0.00    -0.246 OA
BRANCH  40  42
ATOM     42  C   UNL A   1      39.028  30.872  31.524  1.00  0.00     0.060 A 
ATOM     43  C   UNL A   1      38.914  30.694  30.137  1.00  0.00     0.016 A 
ATOM     44  C   UNL A   1      40.283  30.909  32.134  1.00  0.00     0.016 A 
ATOM     45  C   UNL A   1      40.064  30.528  29.360  1.00  0.00     0.010 A 
ATOM     46  C   UNL A   1      41.426  30.722  31.360  1.00  0.00     0.010 A 
ATOM     47  C   UNL A   1      41.321  30.503  29.975  1.00  0.00    -0.014 A 
BRANCH  47  48
ATOM     48  C   UNL A   1      42.523  30.044  29.243  1.00  0.00     0.031 A 
ATOM     49  C   UNL A   1      42.584  28.600  28.830  1.00  0.00     0.074 A 
ATOM     50  C   UNL A   1      43.562  30.863  29.003  1.00  0.00     0.049 A 
ATOM     51  N   UNL A   1      43.588  27.913  28.350  1.00  0.00    -0.248 NA
ATOM     52  C   UNL A   1      41.343  27.825  28.997  1.00  0.00     0.031 C 
ATOM     53  C   UNL A   1      43.605  32.292  29.304  1.00  0.00     0.029 A 
ATOM     54  N   UNL A   1      44.799  30.591  28.474  1.00  0.00    -0.354 N 
ATOM     55  C   UNL A   1      43.107  26.621  28.182  1.00  0.00     0.074 A 
ATOM     56  C   UNL A   1      41.732  26.614  28.630  1.00  0.00     0.031 C 
ATOM     57  C   UNL A   1      44.819  32.768  28.975  1.00  0.00     0.029 A 
ATOM     58  C   UNL A   1      45.652  31.668  28.491  1.00  0.00     0.049 A 
ATOM     59  H   UNL A   1      45.050  29.708  28.116  1.00  0.00     0.167 HD
ATOM     60  C   UNL A   1      43.756  25.535  27.703  1.00  0.00     0.031 A 
ATOM     61  C   UNL A   1      46.964  31.742  28.191  1.00  0.00     0.031 A 
ATOM     62  C   UNL A   1      45.129  25.543  27.279  1.00  0.00     0.049 A 
ATOM     63  C   UNL A   1      47.693  30.498  27.751  1.00  0.00     0.074 A 
ATOM     64  C   UNL A   1      45.878  24.499  26.766  1.00  0.00     0.029 A 
ATOM     65  N   UNL A   1      45.962  26.649  27.331  1.00  0.00    -0.354 N 
ATOM     66  N   UNL A   1      47.230  29.283  27.577  1.00  0.00    -0.248 NA
ATOM     67  C   UNL A   1      49.130  30.635  27.465  1.00  0.00     0.031 C 
ATOM     68  C   UNL A   1      47.183  24.956  26.570  1.00  0.00     0.029 A 
ATOM     69  C   UNL A   1      47.227  26.305  26.888  1.00  0.00     0.049 A 
ATOM     70  H   UNL A   1      45.695  27.545  27.638  1.00  0.00     0.167 HD
ATOM     71  C   UNL A   1      48.305  28.525  27.126  1.00  0.00     0.074 A 
ATOM     72  C   UNL A   1      49.443  29.416  27.048  1.00  0.00     0.031 C 
ATOM     73  C   UNL A   1      48.345  27.210  26.800  1.00  0.00     0.031 A 
BRANCH  60  74
ATOM     74  C   UNL A   1      42.998  24.238  27.658  1.00  0.00    -0.014 A 
ATOM     75  C   UNL A   1      42.982  23.358  28.751  1.00  0.00     0.009 A 
ATOM     76  C   UNL A   1      42.264  23.904  26.508  1.00  0.00     0.009 A 
ATOM     77  C   UNL A   1      42.278  22.155  28.680  1.00  0.00     0.001 A 
ATOM     78  C   UNL A   1      41.534  22.717  26.452  1.00  0.00     0.001 A 
ATOM     79  C   UNL A   1      41.550  21.838  27.534  1.00  0.00     0.000 A 
ENDBRANCH  60  74
BRANCH  61  80
ATOM     80  C   UNL A   1      47.692  33.033  28.327  1.00  0.00    -0.014 A 
ATOM     81  C   UNL A   1      48.020  33.791  27.192  1.00  0.00     0.009 A 
ATOM     82  C   UNL A   1      48.088  33.501  29.589  1.00  0.00     0.009 A 
ATOM     83  C   UNL A   1      48.755  34.973  27.317  1.00  0.00     0.001 A 
ATOM     84  C   UNL A   1      48.793  34.700  29.714  1.00  0.00     0.001 A 
ATOM     85  C   UNL A   1      49.136  35.430  28.577  1.00  0.00     0.000 A 
ENDBRANCH  61  80
BRANCH  73  86
ATOM     86  C   UNL A   1      49.638  26.656  26.268  1.00  0.00    -0.014 A 
ATOM     87  C   UNL A   1      50.070  26.921  24.959  1.00  0.00     0.009 A 
ATOM     88  C   UNL A   1      50.477  25.923  27.125  1.00  0.00     0.009 A 
ATOM     89  C   UNL A   1      51.307  26.445  24.516  1.00  0.00     0.001 A 
ATOM     90  C   UNL A   1      51.724  25.478  26.690  1.00  0.00     0.001 A 
ATOM     91  C   UNL A   1      52.136  25.734  25.383  1.00  0.00     0.000 A 
ENDBRANCH  73  86
ENDBRANCH  47  48
ENDBRANCH  40  42
ENDBRANCH  39  40
ENDBRANCH  38  39
ENDBRANCH  37  38
ENDBRANCH  36  37
ENDBRANCH  35  36
ENDBRANCH  34  35
ENDBRANCH   1  34
TORSDOF 23
ENDMDL
MODEL 3
REMARK VINA RESULT:      -8.7      4.086      8.586
REMARK SMILES O=C1[NH+]=C(Nc2ccc(C(=O)OCCOCCOCCOCCOC(=O)c3ccc(-c4c5nc(c(-c6ccccc6)c6ccc([nH]6)c(-c6ccccc6)c6nc(c(-c7ccccc7)c7ccc4[nH]7)C=C6)C=C5)cc3)c(O)c2)S/C1=C\c1ccc[nH]1
REMARK SMILES IDX 18 1 17 2 16 3 15 4 14 5 13 6 12 7 10 8 11 9 9 10 6 11 7 12
REMARK SMILES IDX 77 13 8 14 75 15 5 16 1 17 2 18 3 19 79 20 4 21 78 23 80 24
REMARK SMILES IDX 81 26 82 27 85 28 83 29 84 30 76 32 19 34 20 35 21 36 22 37
REMARK SMILES IDX 23 38 24 39 25 40 26 41 27 42 28 43 74 44 29 45 73 46 30 47
REMARK SMILES IDX 31 48 32 49 67 50 33 51 72 52 66 53 68 54 34 55 71 56 65 57
REMARK SMILES IDX 64 58 35 60 57 61 42 62 56 63 43 64 46 65 55 66 69 67 44 68
REMARK SMILES IDX 45 69 54 71 70 72 47 73 36 74 37 75 41 76 38 77 40 78 39 79
REMARK SMILES IDX 58 80 59 81 63 82 60 83 62 84 61 85 48 86 49 87 53 88 50 89
REMARK SMILES IDX 52 90 51 91
REMARK H PARENT 3 22 5 25 85 31 76 33 68 59 46 70
REMARK Flexibility Score: inf
ROOT
ATOM      1  O   UNL A   1      34.483  34.756  34.173  1.00  0.00    -0.377 OA
ENDROOT
BRANCH   1   2
ATOM      2  C   UNL A   1      34.767  35.865  33.331  1.00  0.00     0.188 C 
BRANCH   2   3
ATOM      3  C   UNL A   1      33.924  37.111  33.674  1.00  0.00     0.188 C 
BRANCH   3   4
ATOM      4  O   UNL A   1      32.811  37.274  32.811  1.00  0.00    -0.376 OA
BRANCH   4   5
ATOM      5  C   UNL A   1      32.961  37.198  31.406  1.00  0.00     0.202 C 
BRANCH   5   6
ATOM      6  C   UNL A   1      32.721  35.914  30.584  1.00  0.00     0.261 C 
BRANCH   6   7
ATOM      7  O   UNL A   1      32.524  36.046  29.173  1.00  0.00    -0.460 OA
BRANCH   7   8
ATOM      8  C   UNL A   1      33.577  35.780  28.369  1.00  0.00     0.341 C 
ATOM      9  O   UNL A   1      34.472  36.548  28.067  1.00  0.00    -0.246 OA
BRANCH   8  10
ATOM     10  C   UNL A   1      33.573  34.322  28.090  1.00  0.00     0.102 A 
ATOM     11  C   UNL A   1      33.429  31.565  27.523  1.00  0.00     0.129 A 
ATOM     12  C   UNL A   1      32.321  32.392  27.309  1.00  0.00     0.053 A 
ATOM     13  C   UNL A   1      34.629  32.146  27.957  1.00  0.00     0.098 A 
ATOM     14  C   UNL A   1      32.378  33.752  27.631  1.00  0.00     0.024 A 
ATOM     15  C   UNL A   1      34.713  33.518  28.189  1.00  0.00     0.134 A 
BRANCH  11  16
ATOM     16  N   UNL A   1      33.371  30.181  27.336  1.00  0.00    -0.234 N 
ATOM     17  O   UNL A   1      30.829  29.047  23.597  1.00  0.00    -0.240 OA
ATOM     18  C   UNL A   1      31.406  28.902  24.663  1.00  0.00     0.346 C 
ATOM     19  N   UNL A   1      31.994  29.917  25.391  1.00  0.00    -0.199 N 
ATOM     20  C   UNL A   1      31.575  27.573  25.327  1.00  0.00     0.111 C 
ATOM     21  C   UNL A   1      32.606  29.494  26.443  1.00  0.00     0.322 C 
ATOM     22  H   UNL A   1      31.951  30.865  25.131  1.00  0.00     0.316 HD
ATOM     23  S   UNL A   1      32.494  27.775  26.763  1.00  0.00     0.006 SA
ATOM     24  C   UNL A   1      31.085  26.442  24.800  1.00  0.00     0.050 C 
ATOM     25  H   UNL A   1      33.950  29.639  27.917  1.00  0.00     0.313 HD
BRANCH  24  26
ATOM     26  C   UNL A   1      31.161  25.188  25.453  1.00  0.00     0.039 A 
ATOM     27  C   UNL A   1      31.825  24.738  26.578  1.00  0.00     0.027 A 
ATOM     28  N   UNL A   1      30.434  24.132  24.956  1.00  0.00    -0.362 N 
ATOM     29  C   UNL A   1      31.504  23.371  26.752  1.00  0.00     0.020 A 
ATOM     30  C   UNL A   1      30.652  23.020  25.730  1.00  0.00     0.083 A 
ATOM     31  H   UNL A   1      29.847  24.170  24.167  1.00  0.00     0.166 HD
ENDBRANCH  24  26
ENDBRANCH  11  16
BRANCH  15  32
ATOM     32  O   UNL A   1      35.957  34.011  28.473  1.00  0.00    -0.507 OA
ATOM     33  H   UNL A   1      36.135  34.376  29.317  1.00  0.00     0.293 HD
ENDBRANCH  15  32
ENDBRANCH   8  10
ENDBRANCH   7   8
ENDBRANCH   6   7
ENDBRANCH   5   6
ENDBRANCH   4   5
ENDBRANCH   3   4
ENDBRANCH   2   3
ENDBRANCH   1   2
BRANCH   1  34
ATOM     34  C   UNL A   1      34.614  33.445  33.615  1.00  0.00     0.188 C 
BRANCH  34  35
ATOM     35  C   UNL A   1      35.320  33.183  32.258  1.00  0.00     0.188 C 
BRANCH  35  36
ATOM     36  O   UNL A   1      36.731  33.053  32.346  1.00  0.00    -0.376 OA
BRANCH  36  37
ATOM     37  C   UNL A   1      37.331  31.811  32.031  1.00  0.00     0.202 C 
BRANCH  37  38
ATOM     38  C   UNL A   1      36.402  30.592  31.965  1.00  0.00     0.261 C 
BRANCH  38  39
ATOM     39  O   UNL A   1      36.929  29.436  31.301  1.00  0.00    -0.460 OA
BRANCH  39  40
ATOM     40  C   UNL A   1      37.861  28.708  31.955  1.00  0.00     0.338 C 
ATOM     41  O   UNL A   1      37.690  27.938  32.876  1.00  0.00    -0.246 OA
BRANCH  40  42
ATOM     42  C   UNL A   1      39.131  28.891  31.221  1.00  0.00     0.060 A 
ATOM     43  C   UNL A   1      39.114  29.411  29.919  1.00  0.00     0.016 A 
ATOM     44  C   UNL A   1      40.339  28.576  31.845  1.00  0.00     0.016 A 
ATOM     45  C   UNL A   1      40.315  29.595  29.228  1.00  0.00     0.010 A 
ATOM     46  C   UNL A   1      41.532  28.739  31.146  1.00  0.00     0.010 A 
ATOM     47  C   UNL A   1      41.525  29.223  29.826  1.00  0.00    -0.014 A 
BRANCH  47  48
ATOM     48  C   UNL A   1      42.773  29.126  29.034  1.00  0.00     0.031 A 
ATOM     49  C   UNL A   1      43.055  27.832  28.325  1.00  0.00     0.074 A 
ATOM     50  C   UNL A   1      43.664  30.132  28.993  1.00  0.00     0.049 A 
ATOM     51  N   UNL A   1      44.147  27.431  27.728  1.00  0.00    -0.248 NA
ATOM     52  C   UNL A   1      41.956  26.852  28.301  1.00  0.00     0.031 C 
ATOM     53  C   UNL A   1      43.485  31.452  29.591  1.00  0.00     0.029 A 
ATOM     54  N   UNL A   1      44.920  30.177  28.440  1.00  0.00    -0.354 N 
ATOM     55  C   UNL A   1      43.874  26.144  27.281  1.00  0.00     0.074 A 
ATOM     56  C   UNL A   1      42.525  25.824  27.692  1.00  0.00     0.031 C 
ATOM     57  C   UNL A   1      44.603  32.174  29.393  1.00  0.00     0.029 A 
ATOM     58  C   UNL A   1      45.592  31.347  28.701  1.00  0.00     0.049 A 
ATOM     59  H   UNL A   1      45.302  29.443  27.907  1.00  0.00     0.167 HD
ATOM     60  C   UNL A   1      44.680  25.301  26.593  1.00  0.00     0.031 A 
ATOM     61  C   UNL A   1      46.870  31.691  28.447  1.00  0.00     0.031 A 
ATOM     62  C   UNL A   1      46.027  25.616  26.206  1.00  0.00     0.049 A 
ATOM     63  C   UNL A   1      47.780  30.700  27.766  1.00  0.00     0.074 A 
ATOM     64  C   UNL A   1      46.923  24.838  25.497  1.00  0.00     0.029 A 
ATOM     65  N   UNL A   1      46.674  26.804  26.507  1.00  0.00    -0.354 N 
ATOM     66  N   UNL A   1      47.513  29.492  27.330  1.00  0.00    -0.248 NA
ATOM     67  C   UNL A   1      49.173  31.121  27.542  1.00  0.00     0.031 C 
ATOM     68  C   UNL A   1      48.136  25.527  25.426  1.00  0.00     0.029 A 
ATOM     69  C   UNL A   1      47.971  26.767  26.024  1.00  0.00     0.049 A 
ATOM     70  H   UNL A   1      46.274  27.560  26.993  1.00  0.00     0.167 HD
ATOM     71  C   UNL A   1      48.687  29.027  26.748  1.00  0.00     0.074 A 
ATOM     72  C   UNL A   1      49.668  30.083  26.881  1.00  0.00     0.031 C 
ATOM     73  C   UNL A   1      48.930  27.835  26.151  1.00  0.00     0.031 A 
BRANCH  60  74
ATOM     74  C   UNL A   1      44.136  23.940  26.261  1.00  0.00    -0.014 A 
ATOM     75  C   UNL A   1      44.160  22.892  27.193  1.00  0.00     0.009 A 
ATOM     76  C   UNL A   1      43.565  23.713  24.998  1.00  0.00     0.009 A 
ATOM     77  C   UNL A   1      43.657  21.634  26.855  1.00  0.00     0.001 A 
ATOM     78  C   UNL A   1      43.033  22.465  24.674  1.00  0.00     0.001 A 
ATOM     79  C   UNL A   1      43.089  21.423  25.599  1.00  0.00     0.000 A 
ENDBRANCH  60  74
BRANCH  61  80
ATOM     80  C   UNL A   1      47.387  33.021  28.868  1.00  0.00    -0.014 A 
ATOM     81  C   UNL A   1      47.918  33.207  30.154  1.00  0.00     0.009 A 
ATOM     82  C   UNL A   1      47.326  34.121  27.997  1.00  0.00     0.009 A 
ATOM     83  C   UNL A   1      48.349  34.471  30.567  1.00  0.00     0.001 A 
ATOM     84  C   UNL A   1      47.788  35.375  28.401  1.00  0.00     0.001 A 
ATOM     85  C   UNL A   1      48.289  35.552  29.690  1.00  0.00     0.000 A 
ENDBRANCH  61  80
BRANCH  73  86
ATOM     86  C   UNL A   1      50.286  27.619  25.536  1.00  0.00    -0.014 A 
ATOM     87  C   UNL A   1      51.369  27.143  26.290  1.00  0.00     0.009 A 
ATOM     88  C   UNL A   1      50.453  27.818  24.155  1.00  0.00     0.009 A 
ATOM     89  C   UNL A   1      52.598  26.892  25.674  1.00  0.00     0.001 A 
ATOM     90  C   UNL A   1      51.672  27.535  23.539  1.00  0.00     0.001 A 
ATOM     91  C   UNL A   1      52.746  27.078  24.300  1.00  0.00     0.000 A 
ENDBRANCH  73  86
ENDBRANCH  47  48
ENDBRANCH  40  42
ENDBRANCH  39  40
ENDBRANCH  38  39
ENDBRANCH  37  38
ENDBRANCH  36  37
ENDBRANCH  35  36
ENDBRANCH  34  35
ENDBRANCH   1  34
TORSDOF 23
ENDMDL
