MODEL 1
REMARK VINA RESULT:      -9.9      0.000      0.000
REMARK SMILES CSc1nc(N)cc(Nc2cccc(C(=O)OCCOCCOCCOCCOC(=O)c3ccc(-c4c5nc(c(-c6ccccc6)c6ccc([nH]6)c(-c6ccccc6)c6nc(c(-c7ccccc7)c7ccc4[nH]7)C=C6)C=C5)cc3)c2)n1
REMARK SMILES IDX 22 1 21 2 20 3 19 4 18 5 17 6 15 7 16 8 14 9 10 10 11 11
REMARK SMILES IDX 80 12 12 13 13 14 9 15 8 17 3 18 4 19 81 20 5 21 7 22 2 23
REMARK SMILES IDX 1 24 6 25 23 28 24 29 25 30 26 31 27 32 28 33 29 34 30 35
REMARK SMILES IDX 31 36 32 37 33 38 79 39 34 40 78 41 35 42 36 43 37 44 72 45
REMARK SMILES IDX 38 46 77 47 71 48 73 49 39 50 76 51 70 52 69 53 40 55 62 56
REMARK SMILES IDX 47 57 61 58 48 59 51 60 60 61 74 62 49 63 50 64 59 66 75 67
REMARK SMILES IDX 52 68 41 69 42 70 46 71 43 72 45 73 44 74 63 75 64 76 68 77
REMARK SMILES IDX 65 78 67 79 66 80 53 81 54 82 58 83 55 84 57 85 56 86
REMARK H PARENT 9 16 6 26 6 27 73 54 51 65
REMARK Flexibility Score: inf
ROOT
ATOM      1  C   UNL A   1      32.689  36.443  30.049  1.00  0.00     0.188 C 
ENDROOT
BRANCH   1   2
ATOM      2  C   UNL A   1      33.118  35.074  29.468  1.00  0.00     0.188 C 
BRANCH   2   3
ATOM      3  O   UNL A   1      34.481  34.751  29.676  1.00  0.00    -0.376 OA
BRANCH   3   4
ATOM      4  C   UNL A   1      35.050  33.663  28.976  1.00  0.00     0.202 C 
BRANCH   4   5
ATOM      5  C   UNL A   1      34.203  32.980  27.895  1.00  0.00     0.261 C 
BRANCH   5   6
ATOM      6  O   UNL A   1      33.926  31.594  28.117  1.00  0.00    -0.460 OA
BRANCH   6   7
ATOM      7  C   UNL A   1      34.682  30.690  27.452  1.00  0.00     0.338 C 
ATOM      8  O   UNL A   1      35.892  30.708  27.320  1.00  0.00    -0.246 OA
BRANCH   7   9
ATOM      9  C   UNL A   1      33.804  29.542  27.118  1.00  0.00     0.062 A 
ATOM     10  C   UNL A   1      33.515  27.328  26.140  1.00  0.00     0.040 A 
ATOM     11  C   UNL A   1      32.135  27.441  26.351  1.00  0.00     0.026 A 
ATOM     12  C   UNL A   1      34.327  28.418  26.478  1.00  0.00     0.041 A 
ATOM     13  C   UNL A   1      31.596  28.583  26.957  1.00  0.00     0.003 A 
ATOM     14  C   UNL A   1      32.434  29.621  27.371  1.00  0.00     0.016 A 
BRANCH  10  15
ATOM     15  N   UNL A   1      34.075  26.097  25.738  1.00  0.00    -0.340 N 
ATOM     16  H   UNL A   1      34.961  25.866  26.101  1.00  0.00     0.168 HD
BRANCH  15  17
ATOM     17  C   UNL A   1      33.474  25.171  24.862  1.00  0.00     0.137 A 
ATOM     18  C   UNL A   1      32.505  23.113  24.522  1.00  0.00     0.191 A 
ATOM     19  N   UNL A   1      32.363  23.296  23.206  1.00  0.00    -0.206 NA
ATOM     20  N   UNL A   1      33.006  24.018  25.362  1.00  0.00    -0.205 NA
ATOM     21  C   UNL A   1      32.804  24.464  22.726  1.00  0.00     0.130 A 
ATOM     22  C   UNL A   1      33.411  25.425  23.512  1.00  0.00     0.093 A 
BRANCH  18  23
ATOM     23  S   UNL A   1      32.158  21.523  25.224  1.00  0.00    -0.090 SA
ATOM     24  C   UNL A   1      32.360  20.513  23.748  1.00  0.00     0.094 C 
ENDBRANCH  18  23
BRANCH  21  25
ATOM     25  N   UNL A   1      32.696  24.638  21.359  1.00  0.00    -0.383 N 
ATOM     26  H   UNL A   1      32.415  23.887  20.789  1.00  0.00     0.158 HD
ATOM     27  H   UNL A   1      32.902  25.513  20.957  1.00  0.00     0.158 HD
ENDBRANCH  21  25
ENDBRANCH  15  17
ENDBRANCH  10  15
ENDBRANCH   7   9
ENDBRANCH   6   7
ENDBRANCH   5   6
ENDBRANCH   4   5
ENDBRANCH   3   4
ENDBRANCH   2   3
ENDBRANCH   1   2
BRANCH   1  28
ATOM     28  O   UNL A   1      32.351  36.585  31.424  1.00  0.00    -0.377 OA
BRANCH  28  29
ATOM     29  C   UNL A   1      33.328  37.040  32.351  1.00  0.00     0.188 C 
BRANCH  29  30
ATOM     30  C   UNL A   1      34.163  36.021  33.161  1.00  0.00     0.188 C 
BRANCH  30  31
ATOM     31  O   UNL A   1      35.515  35.916  32.748  1.00  0.00    -0.376 OA
BRANCH  31  32
ATOM     32  C   UNL A   1      36.288  34.849  33.264  1.00  0.00     0.202 C 
BRANCH  32  33
ATOM     33  C   UNL A   1      35.601  33.839  34.195  1.00  0.00     0.261 C 
BRANCH  33  34
ATOM     34  O   UNL A   1      35.760  32.451  33.866  1.00  0.00    -0.460 OA
BRANCH  34  35
ATOM     35  C   UNL A   1      35.374  32.051  32.639  1.00  0.00     0.338 C 
ATOM     36  O   UNL A   1      34.344  32.344  32.053  1.00  0.00    -0.246 OA
BRANCH  35  37
ATOM     37  C   UNL A   1      36.511  31.327  32.035  1.00  0.00     0.060 A 
ATOM     38  C   UNL A   1      37.729  31.259  32.724  1.00  0.00     0.016 A 
ATOM     39  C   UNL A   1      36.361  30.702  30.796  1.00  0.00     0.016 A 
ATOM     40  C   UNL A   1      38.814  30.589  32.158  1.00  0.00     0.010 A 
ATOM     41  C   UNL A   1      37.453  30.054  30.218  1.00  0.00     0.010 A 
ATOM     42  C   UNL A   1      38.693  30.025  30.881  1.00  0.00    -0.014 A 
BRANCH  42  43
ATOM     43  C   UNL A   1      39.905  29.596  30.143  1.00  0.00     0.031 A 
ATOM     44  C   UNL A   1      40.999  30.607  29.932  1.00  0.00     0.074 A 
ATOM     45  C   UNL A   1      40.040  28.344  29.674  1.00  0.00     0.049 A 
ATOM     46  N   UNL A   1      42.115  30.497  29.259  1.00  0.00    -0.248 NA
ATOM     47  C   UNL A   1      40.801  31.923  30.564  1.00  0.00     0.031 C 
ATOM     48  C   UNL A   1      39.078  27.259  29.858  1.00  0.00     0.029 A 
ATOM     49  N   UNL A   1      41.049  27.781  28.933  1.00  0.00    -0.354 N 
ATOM     50  C   UNL A   1      42.743  31.732  29.375  1.00  0.00     0.074 A 
ATOM     51  C   UNL A   1      41.873  32.582  30.156  1.00  0.00     0.031 C 
ATOM     52  C   UNL A   1      39.540  26.160  29.234  1.00  0.00     0.029 A 
ATOM     53  C   UNL A   1      40.805  26.477  28.575  1.00  0.00     0.049 A 
ATOM     54  H   UNL A   1      41.868  28.266  28.681  1.00  0.00     0.167 HD
ATOM     55  C   UNL A   1      43.939  32.122  28.878  1.00  0.00     0.031 A 
ATOM     56  C   UNL A   1      41.513  25.647  27.783  1.00  0.00     0.031 A 
ATOM     57  C   UNL A   1      44.795  31.280  28.085  1.00  0.00     0.049 A 
ATOM     58  C   UNL A   1      42.799  26.135  27.163  1.00  0.00     0.074 A 
ATOM     59  C   UNL A   1      46.032  31.578  27.543  1.00  0.00     0.029 A 
ATOM     60  N   UNL A   1      44.494  29.980  27.713  1.00  0.00    -0.354 N 
ATOM     61  N   UNL A   1      43.396  27.295  27.295  1.00  0.00    -0.248 NA
ATOM     62  C   UNL A   1      43.511  25.192  26.288  1.00  0.00     0.031 C 
ATOM     63  C   UNL A   1      46.449  30.479  26.785  1.00  0.00     0.029 A 
ATOM     64  C   UNL A   1      45.509  29.471  26.921  1.00  0.00     0.049 A 
ATOM     65  H   UNL A   1      43.681  29.490  27.974  1.00  0.00     0.167 HD
ATOM     66  C   UNL A   1      44.568  27.207  26.553  1.00  0.00     0.074 A 
ATOM     67  C   UNL A   1      44.604  25.877  25.983  1.00  0.00     0.031 C 
ATOM     68  C   UNL A   1      45.533  28.142  26.364  1.00  0.00     0.031 A 
BRANCH  55  69
ATOM     69  C   UNL A   1      44.369  33.538  29.141  1.00  0.00    -0.014 A 
ATOM     70  C   UNL A   1      44.106  34.569  28.224  1.00  0.00     0.009 A 
ATOM     71  C   UNL A   1      45.028  33.851  30.340  1.00  0.00     0.009 A 
ATOM     72  C   UNL A   1      44.527  35.874  28.487  1.00  0.00     0.001 A 
ATOM     73  C   UNL A   1      45.419  35.162  30.616  1.00  0.00     0.001 A 
ATOM     74  C   UNL A   1      45.177  36.170  29.684  1.00  0.00     0.000 A 
ENDBRANCH  55  69
BRANCH  56  75
ATOM     75  C   UNL A   1      41.015  24.274  27.503  1.00  0.00    -0.014 A 
ATOM     76  C   UNL A   1      39.912  24.068  26.660  1.00  0.00     0.009 A 
ATOM     77  C   UNL A   1      41.624  23.159  28.104  1.00  0.00     0.009 A 
ATOM     78  C   UNL A   1      39.411  22.780  26.449  1.00  0.00     0.001 A 
ATOM     79  C   UNL A   1      41.142  21.871  27.864  1.00  0.00     0.001 A 
ATOM     80  C   UNL A   1      40.029  21.683  27.047  1.00  0.00     0.000 A 
ENDBRANCH  56  75
BRANCH  68  81
ATOM     81  C   UNL A   1      46.736  27.747  25.551  1.00  0.00    -0.014 A 
ATOM     82  C   UNL A   1      46.755  27.875  24.154  1.00  0.00     0.009 A 
ATOM     83  C   UNL A   1      47.890  27.288  26.205  1.00  0.00     0.009 A 
ATOM     84  C   UNL A   1      47.894  27.517  23.427  1.00  0.00     0.001 A 
ATOM     85  C   UNL A   1      49.038  26.965  25.481  1.00  0.00     0.001 A 
ATOM     86  C   UNL A   1      49.035  27.069  24.092  1.00  0.00     0.000 A 
ENDBRANCH  68  81
ENDBRANCH  42  43
ENDBRANCH  35  37
ENDBRANCH  34  35
ENDBRANCH  33  34
ENDBRANCH  32  33
ENDBRANCH  31  32
ENDBRANCH  30  31
ENDBRANCH  29  30
ENDBRANCH  28  29
ENDBRANCH   1  28
TORSDOF 24
ENDMDL
MODEL 2
REMARK VINA RESULT:      -9.3      2.067      3.064
REMARK SMILES CSc1nc(N)cc(Nc2cccc(C(=O)OCCOCCOCCOCCOC(=O)c3ccc(-c4c5nc(c(-c6ccccc6)c6ccc([nH]6)c(-c6ccccc6)c6nc(c(-c7ccccc7)c7ccc4[nH]7)C=C6)C=C5)cc3)c2)n1
REMARK SMILES IDX 22 1 21 2 20 3 19 4 18 5 17 6 15 7 16 8 14 9 10 10 11 11
REMARK SMILES IDX 80 12 12 13 13 14 9 15 8 17 3 18 4 19 81 20 5 21 7 22 2 23
REMARK SMILES IDX 1 24 6 25 23 28 24 29 25 30 26 31 27 32 28 33 29 34 30 35
REMARK SMILES IDX 31 36 32 37 33 38 79 39 34 40 78 41 35 42 36 43 37 44 72 45
REMARK SMILES IDX 38 46 77 47 71 48 73 49 39 50 76 51 70 52 69 53 40 55 62 56
REMARK SMILES IDX 47 57 61 58 48 59 51 60 60 61 74 62 49 63 50 64 59 66 75 67
REMARK SMILES IDX 52 68 41 69 42 70 46 71 43 72 45 73 44 74 63 75 64 76 68 77
REMARK SMILES IDX 65 78 67 79 66 80 53 81 54 82 58 83 55 84 57 85 56 86
REMARK H PARENT 9 16 6 26 6 27 73 54 51 65
REMARK Flexibility Score: inf
ROOT
ATOM      1  C   UNL A   1      32.520  32.809  27.286  1.00  0.00     0.188 C 
ENDROOT
BRANCH   1   2
ATOM      2  C   UNL A   1      31.395  32.097  26.496  1.00  0.00     0.188 C 
BRANCH   2   3
ATOM      3  O   UNL A   1      31.690  30.759  26.136  1.00  0.00    -0.376 OA
BRANCH   3   4
ATOM      4  C   UNL A   1      32.999  30.262  26.330  1.00  0.00     0.202 C 
BRANCH   4   5
ATOM      5  C   UNL A   1      33.180  29.039  27.238  1.00  0.00     0.261 C 
BRANCH   5   6
ATOM      6  O   UNL A   1      33.089  27.770  26.584  1.00  0.00    -0.460 OA
BRANCH   6   7
ATOM      7  C   UNL A   1      31.858  27.225  26.442  1.00  0.00     0.338 C 
ATOM      8  O   UNL A   1      30.990  27.157  27.292  1.00  0.00    -0.246 OA
BRANCH   7   9
ATOM      9  C   UNL A   1      31.666  26.944  24.998  1.00  0.00     0.062 A 
ATOM     10  C   UNL A   1      32.301  25.716  22.991  1.00  0.00     0.040 A 
ATOM     11  C   UNL A   1      31.415  26.511  22.253  1.00  0.00     0.026 A 
ATOM     12  C   UNL A   1      32.455  25.989  24.356  1.00  0.00     0.041 A 
ATOM     13  C   UNL A   1      30.648  27.499  22.883  1.00  0.00     0.003 A 
ATOM     14  C   UNL A   1      30.748  27.694  24.262  1.00  0.00     0.016 A 
BRANCH  10  15
ATOM     15  N   UNL A   1      32.902  24.584  22.401  1.00  0.00    -0.340 N 
ATOM     16  H   UNL A   1      32.992  24.580  21.420  1.00  0.00     0.168 HD
BRANCH  15  17
ATOM     17  C   UNL A   1      33.385  23.457  23.097  1.00  0.00     0.137 A 
ATOM     18  C   UNL A   1      35.146  22.331  24.057  1.00  0.00     0.191 A 
ATOM     19  N   UNL A   1      34.406  21.269  24.386  1.00  0.00    -0.206 NA
ATOM     20  N   UNL A   1      34.675  23.428  23.465  1.00  0.00    -0.205 NA
ATOM     21  C   UNL A   1      33.115  21.326  24.042  1.00  0.00     0.130 A 
ATOM     22  C   UNL A   1      32.560  22.387  23.354  1.00  0.00     0.093 A 
BRANCH  18  23
ATOM     23  S   UNL A   1      36.905  22.268  24.266  1.00  0.00    -0.090 SA
ATOM     24  C   UNL A   1      37.040  20.646  25.034  1.00  0.00     0.094 C 
ENDBRANCH  18  23
BRANCH  21  25
ATOM     25  N   UNL A   1      32.357  20.210  24.344  1.00  0.00    -0.383 N 
ATOM     26  H   UNL A   1      32.676  19.315  24.087  1.00  0.00     0.158 HD
ATOM     27  H   UNL A   1      31.498  20.311  24.815  1.00  0.00     0.158 HD
ENDBRANCH  21  25
ENDBRANCH  15  17
ENDBRANCH  10  15
ENDBRANCH   7   9
ENDBRANCH   6   7
ENDBRANCH   5   6
ENDBRANCH   4   5
ENDBRANCH   3   4
ENDBRANCH   2   3
ENDBRANCH   1   2
BRANCH   1  28
ATOM     28  O   UNL A   1      32.287  34.055  27.933  1.00  0.00    -0.377 OA
BRANCH  28  29
ATOM     29  C   UNL A   1      33.375  34.772  28.503  1.00  0.00     0.188 C 
BRANCH  29  30
ATOM     30  C   UNL A   1      33.268  35.327  29.942  1.00  0.00     0.188 C 
BRANCH  30  31
ATOM     31  O   UNL A   1      33.543  34.377  30.957  1.00  0.00    -0.376 OA
BRANCH  31  32
ATOM     32  C   UNL A   1      34.751  34.507  31.683  1.00  0.00     0.202 C 
BRANCH  32  33
ATOM     33  C   UNL A   1      35.966  33.691  31.220  1.00  0.00     0.261 C 
BRANCH  33  34
ATOM     34  O   UNL A   1      35.865  32.264  31.337  1.00  0.00    -0.460 OA
BRANCH  34  35
ATOM     35  C   UNL A   1      35.597  31.563  30.217  1.00  0.00     0.338 C 
ATOM     36  O   UNL A   1      34.626  31.676  29.486  1.00  0.00    -0.246 OA
BRANCH  35  37
ATOM     37  C   UNL A   1      36.786  30.741  29.918  1.00  0.00     0.060 A 
ATOM     38  C   UNL A   1      37.370  29.976  30.938  1.00  0.00     0.016 A 
ATOM     39  C   UNL A   1      37.311  30.717  28.625  1.00  0.00     0.016 A 
ATOM     40  C   UNL A   1      38.503  29.206  30.670  1.00  0.00     0.010 A 
ATOM     41  C   UNL A   1      38.459  29.968  28.364  1.00  0.00     0.010 A 
ATOM     42  C   UNL A   1      39.079  29.238  29.394  1.00  0.00    -0.014 A 
BRANCH  42  43
ATOM     43  C   UNL A   1      40.439  28.688  29.181  1.00  0.00     0.031 A 
ATOM     44  C   UNL A   1      41.609  29.621  29.337  1.00  0.00     0.074 A 
ATOM     45  C   UNL A   1      40.638  27.398  28.863  1.00  0.00     0.049 A 
ATOM     46  N   UNL A   1      42.882  29.399  29.132  1.00  0.00    -0.248 NA
ATOM     47  C   UNL A   1      41.297  30.990  29.781  1.00  0.00     0.031 C 
ATOM     48  C   UNL A   1      39.594  26.384  28.734  1.00  0.00     0.029 A 
ATOM     49  N   UNL A   1      41.801  26.726  28.579  1.00  0.00    -0.354 N 
ATOM     50  C   UNL A   1      43.518  30.604  29.407  1.00  0.00     0.074 A 
ATOM     51  C   UNL A   1      42.492  31.558  29.764  1.00  0.00     0.031 C 
ATOM     52  C   UNL A   1      40.164  25.216  28.385  1.00  0.00     0.029 A 
ATOM     53  C   UNL A   1      41.604  25.414  28.226  1.00  0.00     0.049 A 
ATOM     54  H   UNL A   1      42.691  27.146  28.623  1.00  0.00     0.167 HD
ATOM     55  C   UNL A   1      44.840  30.890  29.369  1.00  0.00     0.031 A 
ATOM     56  C   UNL A   1      42.486  24.488  27.797  1.00  0.00     0.031 A 
ATOM     57  C   UNL A   1      45.858  29.945  28.995  1.00  0.00     0.049 A 
ATOM     58  C   UNL A   1      43.943  24.857  27.673  1.00  0.00     0.074 A 
ATOM     59  C   UNL A   1      47.227  30.133  28.935  1.00  0.00     0.029 A 
ATOM     60  N   UNL A   1      45.614  28.638  28.607  1.00  0.00    -0.354 N 
ATOM     61  N   UNL A   1      44.539  25.990  27.955  1.00  0.00    -0.248 NA
ATOM     62  C   UNL A   1      44.850  23.812  27.175  1.00  0.00     0.031 C 
ATOM     63  C   UNL A   1      47.806  28.959  28.445  1.00  0.00     0.029 A 
ATOM     64  C   UNL A   1      46.805  28.015  28.276  1.00  0.00     0.049 A 
ATOM     65  H   UNL A   1      44.726  28.214  28.574  1.00  0.00     0.167 HD
ATOM     66  C   UNL A   1      45.891  25.782  27.706  1.00  0.00     0.074 A 
ATOM     67  C   UNL A   1      46.029  24.412  27.261  1.00  0.00     0.031 C 
ATOM     68  C   UNL A   1      46.928  26.648  27.839  1.00  0.00     0.031 A 
BRANCH  55  69
ATOM     69  C   UNL A   1      45.253  32.298  29.697  1.00  0.00    -0.014 A 
ATOM     70  C   UNL A   1      45.111  33.342  28.768  1.00  0.00     0.009 A 
ATOM     71  C   UNL A   1      45.772  32.590  30.969  1.00  0.00     0.009 A 
ATOM     72  C   UNL A   1      45.514  34.639  29.094  1.00  0.00     0.001 A 
ATOM     73  C   UNL A   1      46.143  33.892  31.303  1.00  0.00     0.001 A 
ATOM     74  C   UNL A   1      46.024  34.913  30.362  1.00  0.00     0.000 A 
ENDBRANCH  55  69
BRANCH  56  75
ATOM     75  C   UNL A   1      42.019  23.125  27.426  1.00  0.00    -0.014 A 
ATOM     76  C   UNL A   1      41.968  22.099  28.382  1.00  0.00     0.009 A 
ATOM     77  C   UNL A   1      41.650  22.834  26.103  1.00  0.00     0.009 A 
ATOM     78  C   UNL A   1      41.587  20.805  28.015  1.00  0.00     0.001 A 
ATOM     79  C   UNL A   1      41.237  21.549  25.746  1.00  0.00     0.001 A 
ATOM     80  C   UNL A   1      41.217  20.533  26.699  1.00  0.00     0.000 A 
ENDBRANCH  56  75
BRANCH  68  81
ATOM     81  C   UNL A   1      48.310  26.127  27.551  1.00  0.00    -0.014 A 
ATOM     82  C   UNL A   1      48.895  26.252  26.282  1.00  0.00     0.009 A 
ATOM     83  C   UNL A   1      49.059  25.548  28.589  1.00  0.00     0.009 A 
ATOM     84  C   UNL A   1      50.189  25.775  26.050  1.00  0.00     0.001 A 
ATOM     85  C   UNL A   1      50.363  25.105  28.364  1.00  0.00     0.001 A 
ATOM     86  C   UNL A   1      50.922  25.209  27.093  1.00  0.00     0.000 A 
ENDBRANCH  68  81
ENDBRANCH  42  43
ENDBRANCH  35  37
ENDBRANCH  34  35
ENDBRANCH  33  34
ENDBRANCH  32  33
ENDBRANCH  31  32
ENDBRANCH  30  31
ENDBRANCH  29  30
ENDBRANCH  28  29
ENDBRANCH   1  28
TORSDOF 24
ENDMDL
MODEL 3
REMARK VINA RESULT:      -9.0      4.808      9.838
REMARK SMILES CSc1nc(N)cc(Nc2cccc(C(=O)OCCOCCOCCOCCOC(=O)c3ccc(-c4c5nc(c(-c6ccccc6)c6ccc([nH]6)c(-c6ccccc6)c6nc(c(-c7ccccc7)c7ccc4[nH]7)C=C6)C=C5)cc3)c2)n1
REMARK SMILES IDX 22 1 21 2 20 3 19 4 18 5 17 6 15 7 16 8 14 9 10 10 11 11
REMARK SMILES IDX 80 12 12 13 13 14 9 15 8 17 3 18 4 19 81 20 5 21 7 22 2 23
REMARK SMILES IDX 1 24 6 25 23 28 24 29 25 30 26 31 27 32 28 33 29 34 30 35
REMARK SMILES IDX 31 36 32 37 33 38 79 39 34 40 78 41 35 42 36 43 37 44 72 45
REMARK SMILES IDX 38 46 77 47 71 48 73 49 39 50 76 51 70 52 69 53 40 55 62 56
REMARK SMILES IDX 47 57 61 58 48 59 51 60 60 61 74 62 49 63 50 64 59 66 75 67
REMARK SMILES IDX 52 68 41 69 42 70 46 71 43 72 45 73 44 74 63 75 64 76 68 77
REMARK SMILES IDX 65 78 67 79 66 80 53 81 54 82 58 83 55 84 57 85 56 86
REMARK H PARENT 9 16 6 26 6 27 73 54 51 65
REMARK Flexibility Score: inf
ROOT
ATOM      1  C   UNL A   1      36.729  21.047  25.791  1.00  0.00     0.188 C 
ENDROOT
BRANCH   1   2
ATOM      2  C   UNL A   1      35.375  21.041  25.041  1.00  0.00     0.188 C 
BRANCH   2   3
ATOM      3  O   UNL A   1      34.303  20.475  25.773  1.00  0.00    -0.376 OA
BRANCH   3   4
ATOM      4  C   UNL A   1      33.067  20.245  25.125  1.00  0.00     0.202 C 
BRANCH   4   5
ATOM      5  C   UNL A   1      32.322  21.453  24.543  1.00  0.00     0.261 C 
BRANCH   5   6
ATOM      6  O   UNL A   1      31.320  22.022  25.389  1.00  0.00    -0.460 OA
BRANCH   6   7
ATOM      7  C   UNL A   1      31.726  22.901  26.336  1.00  0.00     0.338 C 
ATOM      8  O   UNL A   1      31.655  22.756  27.542  1.00  0.00    -0.246 OA
BRANCH   7   9
ATOM      9  C   UNL A   1      32.493  23.967  25.647  1.00  0.00     0.062 A 
ATOM     10  C   UNL A   1      32.659  25.627  23.870  1.00  0.00     0.040 A 
ATOM     11  C   UNL A   1      33.984  25.868  24.252  1.00  0.00     0.026 A 
ATOM     12  C   UNL A   1      31.948  24.626  24.545  1.00  0.00     0.041 A 
ATOM     13  C   UNL A   1      34.553  25.182  25.332  1.00  0.00     0.003 A 
ATOM     14  C   UNL A   1      33.798  24.254  26.052  1.00  0.00     0.016 A 
BRANCH  10  15
ATOM     15  N   UNL A   1      32.022  26.470  22.935  1.00  0.00    -0.340 N 
ATOM     16  H   UNL A   1      32.061  26.204  21.988  1.00  0.00     0.168 HD
BRANCH  15  17
ATOM     17  C   UNL A   1      31.335  27.662  23.242  1.00  0.00     0.137 A 
ATOM     18  C   UNL A   1      31.146  29.561  24.525  1.00  0.00     0.191 A 
ATOM     19  N   UNL A   1      30.013  29.954  23.939  1.00  0.00    -0.206 NA
ATOM     20  N   UNL A   1      31.836  28.473  24.186  1.00  0.00    -0.205 NA
ATOM     21  C   UNL A   1      29.542  29.153  22.977  1.00  0.00     0.130 A 
ATOM     22  C   UNL A   1      30.148  27.965  22.618  1.00  0.00     0.093 A 
BRANCH  18  23
ATOM     23  S   UNL A   1      31.737  30.428  25.954  1.00  0.00    -0.090 SA
ATOM     24  C   UNL A   1      31.993  29.024  27.051  1.00  0.00     0.094 C 
ENDBRANCH  18  23
BRANCH  21  25
ATOM     25  N   UNL A   1      28.347  29.537  22.399  1.00  0.00    -0.383 N 
ATOM     26  H   UNL A   1      28.071  29.149  21.537  1.00  0.00     0.158 HD
ATOM     27  H   UNL A   1      27.772  30.198  22.849  1.00  0.00     0.158 HD
ENDBRANCH  21  25
ENDBRANCH  15  17
ENDBRANCH  10  15
ENDBRANCH   7   9
ENDBRANCH   6   7
ENDBRANCH   5   6
ENDBRANCH   4   5
ENDBRANCH   3   4
ENDBRANCH   2   3
ENDBRANCH   1   2
BRANCH   1  28
ATOM     28  O   UNL A   1      37.945  21.339  25.112  1.00  0.00    -0.377 OA
BRANCH  28  29
ATOM     29  C   UNL A   1      38.885  22.233  25.694  1.00  0.00     0.188 C 
BRANCH  29  30
ATOM     30  C   UNL A   1      40.173  21.684  26.350  1.00  0.00     0.188 C 
BRANCH  30  31
ATOM     31  O   UNL A   1      40.447  20.325  26.052  1.00  0.00    -0.376 OA
BRANCH  31  32
ATOM     32  C   UNL A   1      41.463  19.673  26.789  1.00  0.00     0.202 C 
BRANCH  32  33
ATOM     33  C   UNL A   1      42.548  18.913  26.012  1.00  0.00     0.261 C 
BRANCH  33  34
ATOM     34  O   UNL A   1      42.968  19.488  24.766  1.00  0.00    -0.460 OA
BRANCH  34  35
ATOM     35  C   UNL A   1      44.293  19.622  24.554  1.00  0.00     0.338 C 
ATOM     36  O   UNL A   1      45.049  18.810  24.046  1.00  0.00    -0.246 OA
BRANCH  35  37
ATOM     37  C   UNL A   1      44.651  21.016  24.886  1.00  0.00     0.060 A 
ATOM     38  C   UNL A   1      45.205  21.306  26.140  1.00  0.00     0.016 A 
ATOM     39  C   UNL A   1      44.452  22.030  23.947  1.00  0.00     0.016 A 
ATOM     40  C   UNL A   1      45.535  22.622  26.469  1.00  0.00     0.010 A 
ATOM     41  C   UNL A   1      44.757  23.348  24.286  1.00  0.00     0.010 A 
ATOM     42  C   UNL A   1      45.268  23.653  25.561  1.00  0.00    -0.014 A 
BRANCH  42  43
ATOM     43  C   UNL A   1      45.315  25.065  26.009  1.00  0.00     0.031 A 
ATOM     44  C   UNL A   1      46.642  25.773  25.973  1.00  0.00     0.074 A 
ATOM     45  C   UNL A   1      44.214  25.709  26.433  1.00  0.00     0.049 A 
ATOM     46  N   UNL A   1      46.954  26.976  26.381  1.00  0.00    -0.248 NA
ATOM     47  C   UNL A   1      47.770  25.016  25.404  1.00  0.00     0.031 C 
ATOM     48  C   UNL A   1      42.864  25.152  26.466  1.00  0.00     0.029 A 
ATOM     49  N   UNL A   1      44.069  26.981  26.930  1.00  0.00    -0.354 N 
ATOM     50  C   UNL A   1      48.314  27.113  26.130  1.00  0.00     0.074 A 
ATOM     51  C   UNL A   1      48.772  25.864  25.565  1.00  0.00     0.031 C 
ATOM     52  C   UNL A   1      42.025  26.077  26.969  1.00  0.00     0.029 A 
ATOM     53  C   UNL A   1      42.788  27.271  27.330  1.00  0.00     0.049 A 
ATOM     54  H   UNL A   1      44.813  27.623  26.993  1.00  0.00     0.167 HD
ATOM     55  C   UNL A   1      49.110  28.185  26.349  1.00  0.00     0.031 A 
ATOM     56  C   UNL A   1      42.297  28.367  27.943  1.00  0.00     0.031 A 
ATOM     57  C   UNL A   1      48.657  29.420  26.929  1.00  0.00     0.049 A 
ATOM     58  C   UNL A   1      43.223  29.513  28.261  1.00  0.00     0.074 A 
ATOM     59  C   UNL A   1      49.382  30.570  27.183  1.00  0.00     0.029 A 
ATOM     60  N   UNL A   1      47.360  29.660  27.356  1.00  0.00    -0.354 N 
ATOM     61  N   UNL A   1      44.502  29.643  28.002  1.00  0.00    -0.248 NA
ATOM     62  C   UNL A   1      42.633  30.668  28.954  1.00  0.00     0.031 C 
ATOM     63  C   UNL A   1      48.541  31.482  27.826  1.00  0.00     0.029 A 
ATOM     64  C   UNL A   1      47.272  30.930  27.901  1.00  0.00     0.049 A 
ATOM     65  H   UNL A   1      46.614  29.023  27.282  1.00  0.00     0.167 HD
ATOM     66  C   UNL A   1      44.858  30.905  28.464  1.00  0.00     0.074 A 
ATOM     67  C   UNL A   1      43.659  31.505  29.009  1.00  0.00     0.031 C 
ATOM     68  C   UNL A   1      46.069  31.516  28.435  1.00  0.00     0.031 A 
BRANCH  55  69
ATOM     69  C   UNL A   1      50.566  28.047  25.999  1.00  0.00    -0.014 A 
ATOM     70  C   UNL A   1      51.512  27.618  26.945  1.00  0.00     0.009 A 
ATOM     71  C   UNL A   1      50.995  28.330  24.693  1.00  0.00     0.009 A 
ATOM     72  C   UNL A   1      52.861  27.511  26.598  1.00  0.00     0.001 A 
ATOM     73  C   UNL A   1      52.338  28.191  24.340  1.00  0.00     0.001 A 
ATOM     74  C   UNL A   1      53.271  27.792  25.295  1.00  0.00     0.000 A 
ENDBRANCH  55  69
BRANCH  56  75
ATOM     75  C   UNL A   1      40.860  28.430  28.323  1.00  0.00    -0.014 A 
ATOM     76  C   UNL A   1      39.916  29.021  27.468  1.00  0.00     0.009 A 
ATOM     77  C   UNL A   1      40.428  27.927  29.561  1.00  0.00     0.009 A 
ATOM     78  C   UNL A   1      38.578  29.133  27.856  1.00  0.00     0.001 A 
ATOM     79  C   UNL A   1      39.084  28.009  29.931  1.00  0.00     0.001 A 
ATOM     80  C   UNL A   1      38.163  28.622  29.085  1.00  0.00     0.000 A 
ENDBRANCH  56  75
BRANCH  68  81
ATOM     81  C   UNL A   1      46.152  32.924  28.959  1.00  0.00    -0.014 A 
ATOM     82  C   UNL A   1      46.014  34.034  28.112  1.00  0.00     0.009 A 
ATOM     83  C   UNL A   1      46.319  33.139  30.337  1.00  0.00     0.009 A 
ATOM     84  C   UNL A   1      46.077  35.331  28.631  1.00  0.00     0.001 A 
ATOM     85  C   UNL A   1      46.346  34.433  30.857  1.00  0.00     0.001 A 
ATOM     86  C   UNL A   1      46.236  35.528  30.003  1.00  0.00     0.000 A 
ENDBRANCH  68  81
ENDBRANCH  42  43
ENDBRANCH  35  37
ENDBRANCH  34  35
ENDBRANCH  33  34
ENDBRANCH  32  33
ENDBRANCH  31  32
ENDBRANCH  30  31
ENDBRANCH  29  30
ENDBRANCH  28  29
ENDBRANCH   1  28
TORSDOF 24
ENDMDL
