MODEL 1
REMARK VINA RESULT:     -10.0      0.000      0.000
REMARK SMILES Cc1cc(C(=O)OCCOCCOCCOCCOC(=O)c2ccc(-c3c4nc(c(-c5ccccc5)c5ccc([nH]5)c(-c5ccccc5)c5nc(c(-c6ccccc6)c6ccc3[nH]6)C=C5)C=C4)cc2)ccc1NC(=O)c1ccc(=O)n(CCOc2ccccc2)n1
REMARK SMILES IDX 11 1 10 2 9 3 8 4 7 5 5 6 6 7 4 8 1 9 2 10 3 11 72 12 71 13
REMARK SMILES IDX 70 14 73 15 74 16 75 18 76 19 77 20 91 21 78 22 81 23 79 24
REMARK SMILES IDX 80 25 82 26 83 27 84 28 85 29 86 30 90 31 87 32 89 33 88 34
REMARK SMILES IDX 12 35 13 36 14 37 15 38 16 39 17 40 18 41 19 42 20 43 21 44
REMARK SMILES IDX 22 45 23 46 69 47 24 48 68 49 25 50 26 51 27 52 62 53 28 54
REMARK SMILES IDX 67 55 61 56 63 57 29 58 66 59 60 60 59 61 30 63 52 64 37 65
REMARK SMILES IDX 51 66 38 67 41 68 50 69 64 70 39 71 40 72 49 74 65 75 42 76
REMARK SMILES IDX 31 77 32 78 36 79 33 80 35 81 34 82 53 83 54 84 58 85 55 86
REMARK SMILES IDX 57 87 56 88 43 89 44 90 48 91 45 92 47 93 46 94
REMARK H PARENT 73 17 63 62 41 73
REMARK Flexibility Score: inf
ROOT
ATOM      1  C   UNL A   1      38.136  20.906  25.142  1.00  0.00     0.188 C 
ENDROOT
BRANCH   1   2
ATOM      2  O   UNL A   1      36.791  20.478  24.946  1.00  0.00    -0.376 OA
BRANCH   2   3
ATOM      3  C   UNL A   1      35.815  21.149  25.747  1.00  0.00     0.202 C 
BRANCH   3   4
ATOM      4  C   UNL A   1      34.598  21.719  25.014  1.00  0.00     0.261 C 
BRANCH   4   5
ATOM      5  O   UNL A   1      34.793  23.119  24.803  1.00  0.00    -0.460 OA
BRANCH   5   6
ATOM      6  C   UNL A   1      35.138  23.473  23.548  1.00  0.00     0.338 C 
ATOM      7  O   UNL A   1      35.959  22.952  22.822  1.00  0.00    -0.246 OA
BRANCH   6   8
ATOM      8  C   UNL A   1      34.086  24.402  23.089  1.00  0.00     0.060 A 
ATOM      9  C   UNL A   1      34.039  28.120  22.486  1.00  0.00     0.046 C 
ATOM     10  C   UNL A   1      33.504  26.715  22.566  1.00  0.00    -0.027 A 
ATOM     11  C   UNL A   1      34.359  25.767  23.165  1.00  0.00     0.021 A 
ATOM     12  C   UNL A   1      32.314  26.277  21.950  1.00  0.00     0.044 A 
ATOM     13  C   UNL A   1      32.161  24.903  21.768  1.00  0.00     0.027 A 
ATOM     14  C   UNL A   1      32.999  23.964  22.353  1.00  0.00     0.018 A 
BRANCH  12  15
ATOM     15  N   UNL A   1      31.300  27.212  21.627  1.00  0.00    -0.320 N 
ATOM     16  C   UNL A   1      30.585  28.111  22.406  1.00  0.00     0.276 C 
ATOM     17  H   UNL A   1      31.058  27.226  20.673  1.00  0.00     0.170 HD
ATOM     18  O   UNL A   1      29.871  28.970  21.898  1.00  0.00    -0.267 OA
BRANCH  16  19
ATOM     19  C   UNL A   1      30.563  27.954  23.911  1.00  0.00     0.149 A 
ATOM     20  C   UNL A   1      29.955  26.688  24.361  1.00  0.00     0.042 A 
ATOM     21  N   UNL A   1      31.129  28.833  24.686  1.00  0.00    -0.164 NA
ATOM     22  C   UNL A   1      30.348  26.256  25.557  1.00  0.00     0.076 A 
ATOM     23  N   UNL A   1      31.368  28.418  26.001  1.00  0.00    -0.226 N 
ATOM     24  C   UNL A   1      31.248  27.085  26.396  1.00  0.00     0.266 A 
ATOM     25  O   UNL A   1      31.744  26.589  27.404  1.00  0.00    -0.268 OA
BRANCH  23  26
ATOM     26  C   UNL A   1      31.983  29.390  26.909  1.00  0.00     0.190 C 
BRANCH  26  27
ATOM     27  C   UNL A   1      33.425  29.753  26.516  1.00  0.00     0.253 C 
BRANCH  27  28
ATOM     28  O   UNL A   1      33.850  31.014  27.078  1.00  0.00    -0.492 OA
BRANCH  28  29
ATOM     29  C   UNL A   1      35.082  30.914  27.664  1.00  0.00     0.119 A 
ATOM     30  C   UNL A   1      35.692  29.681  27.860  1.00  0.00     0.046 A 
ATOM     31  C   UNL A   1      35.698  32.067  28.131  1.00  0.00     0.046 A 
ATOM     32  C   UNL A   1      36.974  29.632  28.416  1.00  0.00     0.004 A 
ATOM     33  C   UNL A   1      37.003  32.035  28.609  1.00  0.00     0.004 A 
ATOM     34  C   UNL A   1      37.648  30.811  28.745  1.00  0.00     0.000 A 
ENDBRANCH  28  29
ENDBRANCH  27  28
ENDBRANCH  26  27
ENDBRANCH  23  26
ENDBRANCH  16  19
ENDBRANCH  12  15
ENDBRANCH   6   8
ENDBRANCH   5   6
ENDBRANCH   4   5
ENDBRANCH   3   4
ENDBRANCH   2   3
ENDBRANCH   1   2
BRANCH   1  35
ATOM     35  C   UNL A   1      39.179  19.830  25.453  1.00  0.00     0.188 C 
BRANCH  35  36
ATOM     36  O   UNL A   1      40.128  20.125  26.475  1.00  0.00    -0.377 OA
BRANCH  36  37
ATOM     37  C   UNL A   1      41.265  20.918  26.120  1.00  0.00     0.188 C 
BRANCH  37  38
ATOM     38  C   UNL A   1      42.529  20.140  25.747  1.00  0.00     0.188 C 
BRANCH  38  39
ATOM     39  O   UNL A   1      43.397  21.002  25.006  1.00  0.00    -0.376 OA
BRANCH  39  40
ATOM     40  C   UNL A   1      43.361  22.380  25.376  1.00  0.00     0.202 C 
BRANCH  40  41
ATOM     41  C   UNL A   1      44.431  23.240  24.695  1.00  0.00     0.261 C 
BRANCH  41  42
ATOM     42  O   UNL A   1      45.305  23.795  25.693  1.00  0.00    -0.460 OA
BRANCH  42  43
ATOM     43  C   UNL A   1      44.724  24.711  26.510  1.00  0.00     0.338 C 
ATOM     44  O   UNL A   1      44.292  25.797  26.162  1.00  0.00    -0.246 OA
BRANCH  43  45
ATOM     45  C   UNL A   1      44.933  24.313  27.929  1.00  0.00     0.060 A 
ATOM     46  C   UNL A   1      43.949  23.559  28.587  1.00  0.00     0.016 A 
ATOM     47  C   UNL A   1      45.931  24.942  28.669  1.00  0.00     0.016 A 
ATOM     48  C   UNL A   1      43.862  23.591  29.985  1.00  0.00     0.010 A 
ATOM     49  C   UNL A   1      45.779  25.047  30.037  1.00  0.00     0.010 A 
ATOM     50  C   UNL A   1      44.712  24.432  30.707  1.00  0.00    -0.014 A 
BRANCH  50  51
ATOM     51  C   UNL A   1      44.437  24.941  32.067  1.00  0.00     0.031 A 
ATOM     52  C   UNL A   1      43.820  26.287  32.286  1.00  0.00     0.074 A 
ATOM     53  C   UNL A   1      44.378  24.024  33.070  1.00  0.00     0.049 A 
ATOM     54  N   UNL A   1      43.574  26.790  33.451  1.00  0.00    -0.248 NA
ATOM     55  C   UNL A   1      43.421  27.201  31.213  1.00  0.00     0.031 C 
ATOM     56  C   UNL A   1      43.588  24.111  34.302  1.00  0.00     0.029 A 
ATOM     57  N   UNL A   1      45.025  22.795  33.215  1.00  0.00    -0.354 N 
ATOM     58  C   UNL A   1      42.671  27.817  33.289  1.00  0.00     0.074 A 
ATOM     59  C   UNL A   1      42.724  28.127  31.883  1.00  0.00     0.031 C 
ATOM     60  C   UNL A   1      43.896  23.099  35.123  1.00  0.00     0.029 A 
ATOM     61  C   UNL A   1      45.085  22.491  34.581  1.00  0.00     0.049 A 
ATOM     62  H   UNL A   1      45.378  22.239  32.483  1.00  0.00     0.167 HD
ATOM     63  C   UNL A   1      41.848  28.163  34.325  1.00  0.00     0.031 A 
ATOM     64  C   UNL A   1      46.256  22.388  35.277  1.00  0.00     0.031 A 
ATOM     65  C   UNL A   1      42.210  27.493  35.588  1.00  0.00     0.049 A 
ATOM     66  C   UNL A   1      46.354  23.486  36.319  1.00  0.00     0.074 A 
ATOM     67  C   UNL A   1      41.506  26.771  36.536  1.00  0.00     0.029 A 
ATOM     68  N   UNL A   1      43.553  27.384  35.952  1.00  0.00    -0.354 N 
ATOM     69  N   UNL A   1      45.659  24.595  36.238  1.00  0.00    -0.248 NA
ATOM     70  C   UNL A   1      47.132  23.426  37.555  1.00  0.00     0.031 C 
ATOM     71  C   UNL A   1      42.446  26.121  37.385  1.00  0.00     0.029 A 
ATOM     72  C   UNL A   1      43.718  26.530  37.017  1.00  0.00     0.049 A 
ATOM     73  H   UNL A   1      44.289  27.860  35.504  1.00  0.00     0.167 HD
ATOM     74  C   UNL A   1      45.773  25.304  37.396  1.00  0.00     0.074 A 
ATOM     75  C   UNL A   1      46.763  24.572  38.165  1.00  0.00     0.031 C 
ATOM     76  C   UNL A   1      45.015  26.405  37.668  1.00  0.00     0.031 A 
BRANCH  63  77
ATOM     77  C   UNL A   1      40.548  28.944  34.160  1.00  0.00    -0.014 A 
ATOM     78  C   UNL A   1      39.652  28.606  33.125  1.00  0.00     0.009 A 
ATOM     79  C   UNL A   1      40.198  30.087  34.906  1.00  0.00     0.009 A 
ATOM     80  C   UNL A   1      38.494  29.356  32.852  1.00  0.00     0.001 A 
ATOM     81  C   UNL A   1      39.018  30.815  34.672  1.00  0.00     0.001 A 
ATOM     82  C   UNL A   1      38.168  30.455  33.637  1.00  0.00     0.000 A 
ENDBRANCH  63  77
BRANCH  64  83
ATOM     83  C   UNL A   1      47.310  21.656  34.522  1.00  0.00    -0.014 A 
ATOM     84  C   UNL A   1      48.522  22.368  34.387  1.00  0.00     0.009 A 
ATOM     85  C   UNL A   1      47.362  20.251  34.533  1.00  0.00     0.009 A 
ATOM     86  C   UNL A   1      49.752  21.714  34.497  1.00  0.00     0.001 A 
ATOM     87  C   UNL A   1      48.605  19.600  34.635  1.00  0.00     0.001 A 
ATOM     88  C   UNL A   1      49.791  20.335  34.676  1.00  0.00     0.000 A 
ENDBRANCH  64  83
BRANCH  76  89
ATOM     89  C   UNL A   1      45.409  27.508  38.616  1.00  0.00    -0.014 A 
ATOM     90  C   UNL A   1      45.608  28.830  38.202  1.00  0.00     0.009 A 
ATOM     91  C   UNL A   1      45.325  27.278  40.009  1.00  0.00     0.009 A 
ATOM     92  C   UNL A   1      45.723  29.867  39.135  1.00  0.00     0.001 A 
ATOM     93  C   UNL A   1      45.397  28.313  40.939  1.00  0.00     0.001 A 
ATOM     94  C   UNL A   1      45.600  29.612  40.499  1.00  0.00     0.000 A 
ENDBRANCH  76  89
ENDBRANCH  50  51
ENDBRANCH  43  45
ENDBRANCH  42  43
ENDBRANCH  41  42
ENDBRANCH  40  41
ENDBRANCH  39  40
ENDBRANCH  38  39
ENDBRANCH  37  38
ENDBRANCH  36  37
ENDBRANCH  35  36
ENDBRANCH   1  35
TORSDOF 26
ENDMDL
MODEL 2
REMARK VINA RESULT:      -9.8      2.677      4.560
REMARK SMILES Cc1cc(C(=O)OCCOCCOCCOCCOC(=O)c2ccc(-c3c4nc(c(-c5ccccc5)c5ccc([nH]5)c(-c5ccccc5)c5nc(c(-c6ccccc6)c6ccc3[nH]6)C=C5)C=C4)cc2)ccc1NC(=O)c1ccc(=O)n(CCOc2ccccc2)n1
REMARK SMILES IDX 11 1 10 2 9 3 8 4 7 5 5 6 6 7 4 8 1 9 2 10 3 11 72 12 71 13
REMARK SMILES IDX 70 14 73 15 74 16 75 18 76 19 77 20 91 21 78 22 81 23 79 24
REMARK SMILES IDX 80 25 82 26 83 27 84 28 85 29 86 30 90 31 87 32 89 33 88 34
REMARK SMILES IDX 12 35 13 36 14 37 15 38 16 39 17 40 18 41 19 42 20 43 21 44
REMARK SMILES IDX 22 45 23 46 69 47 24 48 68 49 25 50 26 51 27 52 62 53 28 54
REMARK SMILES IDX 67 55 61 56 63 57 29 58 66 59 60 60 59 61 30 63 52 64 37 65
REMARK SMILES IDX 51 66 38 67 41 68 50 69 64 70 39 71 40 72 49 74 65 75 42 76
REMARK SMILES IDX 31 77 32 78 36 79 33 80 35 81 34 82 53 83 54 84 58 85 55 86
REMARK SMILES IDX 57 87 56 88 43 89 44 90 48 91 45 92 47 93 46 94
REMARK H PARENT 73 17 63 62 41 73
REMARK Flexibility Score: inf
ROOT
ATOM      1  C   UNL A   1      39.008  21.614  26.018  1.00  0.00     0.188 C 
ENDROOT
BRANCH   1   2
ATOM      2  O   UNL A   1      37.872  21.122  25.313  1.00  0.00    -0.376 OA
BRANCH   2   3
ATOM      3  C   UNL A   1      36.620  21.691  25.701  1.00  0.00     0.202 C 
BRANCH   3   4
ATOM      4  C   UNL A   1      35.423  21.408  24.789  1.00  0.00     0.261 C 
BRANCH   4   5
ATOM      5  O   UNL A   1      34.787  22.643  24.457  1.00  0.00    -0.460 OA
BRANCH   5   6
ATOM      6  C   UNL A   1      35.268  23.269  23.363  1.00  0.00     0.338 C 
ATOM      7  O   UNL A   1      36.229  22.961  22.689  1.00  0.00    -0.246 OA
BRANCH   6   8
ATOM      8  C   UNL A   1      34.208  24.201  22.933  1.00  0.00     0.060 A 
ATOM      9  C   UNL A   1      34.036  27.958  22.716  1.00  0.00     0.046 C 
ATOM     10  C   UNL A   1      33.559  26.533  22.615  1.00  0.00    -0.027 A 
ATOM     11  C   UNL A   1      34.415  25.560  23.168  1.00  0.00     0.021 A 
ATOM     12  C   UNL A   1      32.430  26.119  21.878  1.00  0.00     0.044 A 
ATOM     13  C   UNL A   1      32.350  24.768  21.544  1.00  0.00     0.027 A 
ATOM     14  C   UNL A   1      33.190  23.804  22.085  1.00  0.00     0.018 A 
BRANCH  12  15
ATOM     15  N   UNL A   1      31.399  27.045  21.585  1.00  0.00    -0.320 N 
ATOM     16  C   UNL A   1      30.608  27.841  22.402  1.00  0.00     0.276 C 
ATOM     17  H   UNL A   1      31.207  27.141  20.625  1.00  0.00     0.170 HD
ATOM     18  O   UNL A   1      29.889  28.719  21.936  1.00  0.00    -0.267 OA
BRANCH  16  19
ATOM     19  C   UNL A   1      30.513  27.542  23.883  1.00  0.00     0.149 A 
ATOM     20  C   UNL A   1      29.939  26.217  24.178  1.00  0.00     0.042 A 
ATOM     21  N   UNL A   1      30.997  28.366  24.766  1.00  0.00    -0.164 NA
ATOM     22  C   UNL A   1      30.286  25.690  25.351  1.00  0.00     0.076 A 
ATOM     23  N   UNL A   1      31.183  27.839  26.049  1.00  0.00    -0.226 N 
ATOM     24  C   UNL A   1      31.101  26.470  26.313  1.00  0.00     0.266 A 
ATOM     25  O   UNL A   1      31.564  25.902  27.297  1.00  0.00    -0.268 OA
BRANCH  23  26
ATOM     26  C   UNL A   1      31.705  28.744  27.077  1.00  0.00     0.190 C 
BRANCH  26  27
ATOM     27  C   UNL A   1      32.926  29.551  26.604  1.00  0.00     0.253 C 
BRANCH  27  28
ATOM     28  O   UNL A   1      32.905  30.915  27.081  1.00  0.00    -0.492 OA
BRANCH  28  29
ATOM     29  C   UNL A   1      34.116  31.286  27.596  1.00  0.00     0.119 A 
ATOM     30  C   UNL A   1      35.188  30.403  27.632  1.00  0.00     0.046 A 
ATOM     31  C   UNL A   1      34.247  32.550  28.157  1.00  0.00     0.046 A 
ATOM     32  C   UNL A   1      36.423  30.844  28.122  1.00  0.00     0.004 A 
ATOM     33  C   UNL A   1      35.489  33.022  28.569  1.00  0.00     0.004 A 
ATOM     34  C   UNL A   1      36.583  32.166  28.544  1.00  0.00     0.000 A 
ENDBRANCH  28  29
ENDBRANCH  27  28
ENDBRANCH  26  27
ENDBRANCH  23  26
ENDBRANCH  16  19
ENDBRANCH  12  15
ENDBRANCH   6   8
ENDBRANCH   5   6
ENDBRANCH   4   5
ENDBRANCH   3   4
ENDBRANCH   2   3
ENDBRANCH   1   2
BRANCH   1  35
ATOM     35  C   UNL A   1      40.184  20.654  26.216  1.00  0.00     0.188 C 
BRANCH  35  36
ATOM     36  O   UNL A   1      40.928  20.783  27.426  1.00  0.00    -0.377 OA
BRANCH  36  37
ATOM     37  C   UNL A   1      41.738  21.951  27.589  1.00  0.00     0.188 C 
BRANCH  37  38
ATOM     38  C   UNL A   1      42.991  22.020  26.713  1.00  0.00     0.188 C 
BRANCH  38  39
ATOM     39  O   UNL A   1      42.816  23.051  25.738  1.00  0.00    -0.376 OA
BRANCH  39  40
ATOM     40  C   UNL A   1      42.648  24.369  26.257  1.00  0.00     0.202 C 
BRANCH  40  41
ATOM     41  C   UNL A   1      42.865  25.482  25.226  1.00  0.00     0.261 C 
BRANCH  41  42
ATOM     42  O   UNL A   1      43.396  26.646  25.883  1.00  0.00    -0.460 OA
BRANCH  42  43
ATOM     43  C   UNL A   1      42.459  27.513  26.347  1.00  0.00     0.338 C 
ATOM     44  O   UNL A   1      41.887  28.360  25.682  1.00  0.00    -0.246 OA
BRANCH  43  45
ATOM     45  C   UNL A   1      42.426  27.457  27.834  1.00  0.00     0.060 A 
ATOM     46  C   UNL A   1      41.268  27.003  28.484  1.00  0.00     0.016 A 
ATOM     47  C   UNL A   1      43.402  28.136  28.558  1.00  0.00     0.016 A 
ATOM     48  C   UNL A   1      41.010  27.389  29.805  1.00  0.00     0.010 A 
ATOM     49  C   UNL A   1      43.096  28.592  29.825  1.00  0.00     0.010 A 
ATOM     50  C   UNL A   1      41.875  28.284  30.440  1.00  0.00    -0.014 A 
BRANCH  50  51
ATOM     51  C   UNL A   1      41.507  29.140  31.586  1.00  0.00     0.031 A 
ATOM     52  C   UNL A   1      40.683  30.378  31.404  1.00  0.00     0.074 A 
ATOM     53  C   UNL A   1      41.581  28.582  32.825  1.00  0.00     0.049 A 
ATOM     54  N   UNL A   1      40.347  31.172  32.365  1.00  0.00    -0.248 NA
ATOM     55  C   UNL A   1      40.158  30.841  30.117  1.00  0.00     0.031 C 
ATOM     56  C   UNL A   1      40.771  28.924  33.999  1.00  0.00     0.029 A 
ATOM     57  N   UNL A   1      42.411  27.573  33.317  1.00  0.00    -0.354 N 
ATOM     58  C   UNL A   1      39.295  31.947  31.928  1.00  0.00     0.074 A 
ATOM     59  C   UNL A   1      39.316  31.810  30.494  1.00  0.00     0.031 C 
ATOM     60  C   UNL A   1      41.224  28.276  35.079  1.00  0.00     0.029 A 
ATOM     61  C   UNL A   1      42.501  27.720  34.708  1.00  0.00     0.049 A 
ATOM     62  H   UNL A   1      42.856  26.879  32.779  1.00  0.00     0.167 HD
ATOM     63  C   UNL A   1      38.415  32.467  32.838  1.00  0.00     0.031 A 
ATOM     64  C   UNL A   1      43.665  28.019  35.357  1.00  0.00     0.031 A 
ATOM     65  C   UNL A   1      38.862  32.285  34.231  1.00  0.00     0.049 A 
ATOM     66  C   UNL A   1      43.576  29.388  36.006  1.00  0.00     0.074 A 
ATOM     67  C   UNL A   1      38.269  31.793  35.381  1.00  0.00     0.029 A 
ATOM     68  N   UNL A   1      40.201  32.502  34.560  1.00  0.00    -0.354 N 
ATOM     69  N   UNL A   1      42.716  30.296  35.613  1.00  0.00    -0.248 NA
ATOM     70  C   UNL A   1      44.338  29.834  37.171  1.00  0.00     0.031 C 
ATOM     71  C   UNL A   1      39.289  31.590  36.354  1.00  0.00     0.029 A 
ATOM     72  C   UNL A   1      40.485  32.055  35.831  1.00  0.00     0.049 A 
ATOM     73  H   UNL A   1      40.859  32.922  33.961  1.00  0.00     0.167 HD
ATOM     74  C   UNL A   1      42.702  31.337  36.491  1.00  0.00     0.074 A 
ATOM     75  C   UNL A   1      43.786  31.041  37.411  1.00  0.00     0.031 C 
ATOM     76  C   UNL A   1      41.778  32.339  36.440  1.00  0.00     0.031 A 
BRANCH  63  77
ATOM     77  C   UNL A   1      37.010  32.949  32.489  1.00  0.00    -0.014 A 
ATOM     78  C   UNL A   1      36.809  34.277  32.061  1.00  0.00     0.009 A 
ATOM     79  C   UNL A   1      35.835  32.193  32.669  1.00  0.00     0.009 A 
ATOM     80  C   UNL A   1      35.529  34.812  31.833  1.00  0.00     0.001 A 
ATOM     81  C   UNL A   1      34.554  32.704  32.396  1.00  0.00     0.001 A 
ATOM     82  C   UNL A   1      34.399  34.019  31.987  1.00  0.00     0.000 A 
ENDBRANCH  63  77
BRANCH  64  83
ATOM     83  C   UNL A   1      44.830  27.259  34.826  1.00  0.00    -0.014 A 
ATOM     84  C   UNL A   1      45.803  28.065  34.193  1.00  0.00     0.009 A 
ATOM     85  C   UNL A   1      45.250  26.063  35.433  1.00  0.00     0.009 A 
ATOM     86  C   UNL A   1      47.166  27.808  34.364  1.00  0.00     0.001 A 
ATOM     87  C   UNL A   1      46.624  25.808  35.594  1.00  0.00     0.001 A 
ATOM     88  C   UNL A   1      47.575  26.709  35.111  1.00  0.00     0.000 A 
ENDBRANCH  64  83
BRANCH  76  89
ATOM     89  C   UNL A   1      41.981  33.728  36.986  1.00  0.00    -0.014 A 
ATOM     90  C   UNL A   1      42.790  34.681  36.357  1.00  0.00     0.009 A 
ATOM     91  C   UNL A   1      41.134  34.189  38.021  1.00  0.00     0.009 A 
ATOM     92  C   UNL A   1      42.757  36.024  36.748  1.00  0.00     0.001 A 
ATOM     93  C   UNL A   1      41.067  35.533  38.385  1.00  0.00     0.001 A 
ATOM     94  C   UNL A   1      41.885  36.453  37.747  1.00  0.00     0.000 A 
ENDBRANCH  76  89
ENDBRANCH  50  51
ENDBRANCH  43  45
ENDBRANCH  42  43
ENDBRANCH  41  42
ENDBRANCH  40  41
ENDBRANCH  39  40
ENDBRANCH  38  39
ENDBRANCH  37  38
ENDBRANCH  36  37
ENDBRANCH  35  36
ENDBRANCH   1  35
TORSDOF 26
ENDMDL
MODEL 3
REMARK VINA RESULT:      -9.5      3.288      6.587
REMARK SMILES Cc1cc(C(=O)OCCOCCOCCOCCOC(=O)c2ccc(-c3c4nc(c(-c5ccccc5)c5ccc([nH]5)c(-c5ccccc5)c5nc(c(-c6ccccc6)c6ccc3[nH]6)C=C5)C=C4)cc2)ccc1NC(=O)c1ccc(=O)n(CCOc2ccccc2)n1
REMARK SMILES IDX 11 1 10 2 9 3 8 4 7 5 5 6 6 7 4 8 1 9 2 10 3 11 72 12 71 13
REMARK SMILES IDX 70 14 73 15 74 16 75 18 76 19 77 20 91 21 78 22 81 23 79 24
REMARK SMILES IDX 80 25 82 26 83 27 84 28 85 29 86 30 90 31 87 32 89 33 88 34
REMARK SMILES IDX 12 35 13 36 14 37 15 38 16 39 17 40 18 41 19 42 20 43 21 44
REMARK SMILES IDX 22 45 23 46 69 47 24 48 68 49 25 50 26 51 27 52 62 53 28 54
REMARK SMILES IDX 67 55 61 56 63 57 29 58 66 59 60 60 59 61 30 63 52 64 37 65
REMARK SMILES IDX 51 66 38 67 41 68 50 69 64 70 39 71 40 72 49 74 65 75 42 76
REMARK SMILES IDX 31 77 32 78 36 79 33 80 35 81 34 82 53 83 54 84 58 85 55 86
REMARK SMILES IDX 57 87 56 88 43 89 44 90 48 91 45 92 47 93 46 94
REMARK H PARENT 73 17 63 62 41 73
REMARK Flexibility Score: inf
ROOT
ATOM      1  C   UNL A   1      38.880  21.306  26.040  1.00  0.00     0.188 C 
ENDROOT
BRANCH   1   2
ATOM      2  O   UNL A   1      37.634  20.964  25.440  1.00  0.00    -0.376 OA
BRANCH   2   3
ATOM      3  C   UNL A   1      36.560  21.869  25.708  1.00  0.00     0.202 C 
BRANCH   3   4
ATOM      4  C   UNL A   1      35.246  21.617  24.963  1.00  0.00     0.261 C 
BRANCH   4   5
ATOM      5  O   UNL A   1      34.657  22.872  24.619  1.00  0.00    -0.460 OA
BRANCH   5   6
ATOM      6  C   UNL A   1      35.102  23.427  23.472  1.00  0.00     0.338 C 
ATOM      7  O   UNL A   1      36.017  23.053  22.768  1.00  0.00    -0.246 OA
BRANCH   6   8
ATOM      8  C   UNL A   1      34.052  24.373  23.049  1.00  0.00     0.060 A 
ATOM      9  C   UNL A   1      34.053  28.089  22.431  1.00  0.00     0.046 C 
ATOM     10  C   UNL A   1      33.495  26.695  22.538  1.00  0.00    -0.027 A 
ATOM     11  C   UNL A   1      34.353  25.734  23.108  1.00  0.00     0.021 A 
ATOM     12  C   UNL A   1      32.275  26.278  21.968  1.00  0.00     0.044 A 
ATOM     13  C   UNL A   1      32.089  24.906  21.797  1.00  0.00     0.027 A 
ATOM     14  C   UNL A   1      32.931  23.954  22.355  1.00  0.00     0.018 A 
BRANCH  12  15
ATOM     15  N   UNL A   1      31.268  27.230  21.678  1.00  0.00    -0.320 N 
ATOM     16  C   UNL A   1      30.595  28.143  22.480  1.00  0.00     0.276 C 
ATOM     17  H   UNL A   1      30.993  27.249  20.733  1.00  0.00     0.170 HD
ATOM     18  O   UNL A   1      29.880  29.014  21.996  1.00  0.00    -0.267 OA
BRANCH  16  19
ATOM     19  C   UNL A   1      30.621  27.987  23.985  1.00  0.00     0.149 A 
ATOM     20  C   UNL A   1      29.931  26.775  24.462  1.00  0.00     0.042 A 
ATOM     21  N   UNL A   1      31.289  28.815  24.734  1.00  0.00    -0.164 NA
ATOM     22  C   UNL A   1      30.335  26.311  25.643  1.00  0.00     0.076 A 
ATOM     23  N   UNL A   1      31.546  28.381  26.039  1.00  0.00    -0.226 N 
ATOM     24  C   UNL A   1      31.333  27.062  26.443  1.00  0.00     0.266 A 
ATOM     25  O   UNL A   1      31.827  26.526  27.431  1.00  0.00    -0.268 OA
BRANCH  23  26
ATOM     26  C   UNL A   1      32.275  29.298  26.919  1.00  0.00     0.190 C 
BRANCH  26  27
ATOM     27  C   UNL A   1      33.797  29.268  26.693  1.00  0.00     0.253 C 
BRANCH  27  28
ATOM     28  O   UNL A   1      34.460  30.428  27.242  1.00  0.00    -0.492 OA
BRANCH  28  29
ATOM     29  C   UNL A   1      35.600  30.084  27.914  1.00  0.00     0.119 A 
ATOM     30  C   UNL A   1      36.820  29.967  27.258  1.00  0.00     0.046 A 
ATOM     31  C   UNL A   1      35.515  29.779  29.266  1.00  0.00     0.046 A 
ATOM     32  C   UNL A   1      37.968  29.663  27.997  1.00  0.00     0.004 A 
ATOM     33  C   UNL A   1      36.662  29.557  30.021  1.00  0.00     0.004 A 
ATOM     34  C   UNL A   1      37.896  29.506  29.383  1.00  0.00     0.000 A 
ENDBRANCH  28  29
ENDBRANCH  27  28
ENDBRANCH  26  27
ENDBRANCH  23  26
ENDBRANCH  16  19
ENDBRANCH  12  15
ENDBRANCH   6   8
ENDBRANCH   5   6
ENDBRANCH   4   5
ENDBRANCH   3   4
ENDBRANCH   2   3
ENDBRANCH   1   2
BRANCH   1  35
ATOM     35  C   UNL A   1      40.040  20.322  25.861  1.00  0.00     0.188 C 
BRANCH  35  36
ATOM     36  O   UNL A   1      40.977  20.227  26.932  1.00  0.00    -0.377 OA
BRANCH  36  37
ATOM     37  C   UNL A   1      42.334  20.593  26.664  1.00  0.00     0.188 C 
BRANCH  37  38
ATOM     38  C   UNL A   1      43.058  19.745  25.615  1.00  0.00     0.188 C 
BRANCH  38  39
ATOM     39  O   UNL A   1      43.808  20.612  24.760  1.00  0.00    -0.376 OA
BRANCH  39  40
ATOM     40  C   UNL A   1      43.692  22.006  25.041  1.00  0.00     0.202 C 
BRANCH  40  41
ATOM     41  C   UNL A   1      44.278  22.915  23.955  1.00  0.00     0.261 C 
BRANCH  41  42
ATOM     42  O   UNL A   1      44.726  24.146  24.551  1.00  0.00    -0.460 OA
BRANCH  42  43
ATOM     43  C   UNL A   1      43.753  24.865  25.167  1.00  0.00     0.338 C 
ATOM     44  O   UNL A   1      42.733  25.273  24.639  1.00  0.00    -0.246 OA
BRANCH  43  45
ATOM     45  C   UNL A   1      44.236  25.310  26.503  1.00  0.00     0.060 A 
ATOM     46  C   UNL A   1      44.901  26.541  26.624  1.00  0.00     0.016 A 
ATOM     47  C   UNL A   1      44.305  24.384  27.541  1.00  0.00     0.016 A 
ATOM     48  C   UNL A   1      45.774  26.762  27.696  1.00  0.00     0.010 A 
ATOM     49  C   UNL A   1      45.241  24.571  28.538  1.00  0.00     0.010 A 
ATOM     50  C   UNL A   1      46.034  25.725  28.596  1.00  0.00    -0.014 A 
BRANCH  50  51
ATOM     51  C   UNL A   1      47.241  25.627  29.441  1.00  0.00     0.031 A 
ATOM     52  C   UNL A   1      48.599  25.429  28.842  1.00  0.00     0.074 A 
ATOM     53  C   UNL A   1      47.150  26.114  30.709  1.00  0.00     0.049 A 
ATOM     54  N   UNL A   1      49.686  25.319  29.533  1.00  0.00    -0.248 NA
ATOM     55  C   UNL A   1      48.865  25.336  27.405  1.00  0.00     0.031 C 
ATOM     56  C   UNL A   1      48.234  26.681  31.518  1.00  0.00     0.029 A 
ATOM     57  N   UNL A   1      46.054  26.206  31.568  1.00  0.00    -0.354 N 
ATOM     58  C   UNL A   1      50.750  25.551  28.690  1.00  0.00     0.074 A 
ATOM     59  C   UNL A   1      50.201  25.409  27.366  1.00  0.00     0.031 C 
ATOM     60  C   UNL A   1      47.808  26.915  32.765  1.00  0.00     0.029 A 
ATOM     61  C   UNL A   1      46.533  26.252  32.884  1.00  0.00     0.049 A 
ATOM     62  H   UNL A   1      45.108  26.234  31.296  1.00  0.00     0.167 HD
ATOM     63  C   UNL A   1      51.929  26.018  29.203  1.00  0.00     0.031 A 
ATOM     64  C   UNL A   1      46.279  25.281  33.810  1.00  0.00     0.031 A 
ATOM     65  C   UNL A   1      51.953  26.006  30.677  1.00  0.00     0.049 A 
ATOM     66  C   UNL A   1      47.561  24.569  34.201  1.00  0.00     0.074 A 
ATOM     67  C   UNL A   1      52.273  26.940  31.648  1.00  0.00     0.029 A 
ATOM     68  N   UNL A   1      51.439  24.907  31.367  1.00  0.00    -0.354 N 
ATOM     69  N   UNL A   1      48.629  24.578  33.440  1.00  0.00    -0.248 NA
ATOM     70  C   UNL A   1      47.807  23.883  35.468  1.00  0.00     0.031 C 
ATOM     71  C   UNL A   1      51.821  26.446  32.904  1.00  0.00     0.029 A 
ATOM     72  C   UNL A   1      51.320  25.168  32.713  1.00  0.00     0.049 A 
ATOM     73  H   UNL A   1      51.193  24.052  30.945  1.00  0.00     0.167 HD
ATOM     74  C   UNL A   1      49.689  24.054  34.116  1.00  0.00     0.074 A 
ATOM     75  C   UNL A   1      49.114  23.563  35.355  1.00  0.00     0.031 C 
ATOM     76  C   UNL A   1      50.967  24.103  33.642  1.00  0.00     0.031 A 
BRANCH  63  77
ATOM     77  C   UNL A   1      53.004  26.717  28.376  1.00  0.00    -0.014 A 
ATOM     78  C   UNL A   1      53.962  25.953  27.678  1.00  0.00     0.009 A 
ATOM     79  C   UNL A   1      53.204  28.112  28.335  1.00  0.00     0.009 A 
ATOM     80  C   UNL A   1      55.041  26.537  26.992  1.00  0.00     0.001 A 
ATOM     81  C   UNL A   1      54.252  28.707  27.611  1.00  0.00     0.001 A 
ATOM     82  C   UNL A   1      55.179  27.919  26.946  1.00  0.00     0.000 A 
ENDBRANCH  63  77
BRANCH  64  83
ATOM     83  C   UNL A   1      44.868  24.808  33.774  1.00  0.00    -0.014 A 
ATOM     84  C   UNL A   1      44.723  23.411  33.924  1.00  0.00     0.009 A 
ATOM     85  C   UNL A   1      43.818  25.635  34.210  1.00  0.00     0.009 A 
ATOM     86  C   UNL A   1      43.684  22.877  34.690  1.00  0.00     0.001 A 
ATOM     87  C   UNL A   1      42.770  25.089  34.972  1.00  0.00     0.001 A 
ATOM     88  C   UNL A   1      42.738  23.723  35.259  1.00  0.00     0.000 A 
ENDBRANCH  64  83
BRANCH  76  89
ATOM     89  C   UNL A   1      52.064  23.143  34.023  1.00  0.00    -0.014 A 
ATOM     90  C   UNL A   1      52.819  23.277  35.193  1.00  0.00     0.009 A 
ATOM     91  C   UNL A   1      52.177  21.918  33.324  1.00  0.00     0.009 A 
ATOM     92  C   UNL A   1      53.647  22.240  35.639  1.00  0.00     0.001 A 
ATOM     93  C   UNL A   1      52.968  20.868  33.786  1.00  0.00     0.001 A 
ATOM     94  C   UNL A   1      53.708  21.032  34.947  1.00  0.00     0.000 A 
ENDBRANCH  76  89
ENDBRANCH  50  51
ENDBRANCH  43  45
ENDBRANCH  42  43
ENDBRANCH  41  42
ENDBRANCH  40  41
ENDBRANCH  39  40
ENDBRANCH  38  39
ENDBRANCH  37  38
ENDBRANCH  36  37
ENDBRANCH  35  36
ENDBRANCH   1  35
TORSDOF 26
ENDMDL
