MODEL 1
REMARK VINA RESULT:      -8.9      0.000      0.000
REMARK SMILES O=C(CSCc1ccc(Cl)s1)Nc1ccsc1C(=O)OCCOCCOCCOCCOC(=O)c1ccc(-c2c3nc(c(-c4ccccc4)c4ccc([nH]4)c(-c4ccccc4)c4nc(c(-c5ccccc5)c5ccc2[nH]5)C=C4)C=C3)cc1
REMARK SMILES IDX 24 1 23 2 22 3 21 4 20 5 18 6 19 7 17 8 13 9 14 10 15 11
REMARK SMILES IDX 16 12 12 13 1 14 2 15 3 17 4 18 5 19 6 20 7 21 11 22 8 23
REMARK SMILES IDX 9 24 10 25 25 26 26 27 27 28 28 29 29 30 30 31 31 32 32 33
REMARK SMILES IDX 33 34 34 35 35 36 36 37 82 38 37 39 81 40 38 41 39 42 40 43
REMARK SMILES IDX 75 44 41 45 80 46 74 47 76 48 42 49 79 50 73 51 72 52 43 54
REMARK SMILES IDX 65 55 50 56 64 57 51 58 54 59 63 60 77 61 52 62 53 63 62 65
REMARK SMILES IDX 78 66 55 67 44 68 45 69 49 70 46 71 48 72 47 73 66 74 67 75
REMARK SMILES IDX 71 76 68 77 70 78 69 79 56 80 57 81 61 82 58 83 60 84 59 85
REMARK H PARENT 12 16 76 53 54 64
REMARK Flexibility Score: inf
ROOT
ATOM      1  C   UNL A   1      40.379  20.080  26.250  1.00  0.00     0.188 C 
ENDROOT
BRANCH   1   2
ATOM      2  O   UNL A   1      39.469  21.162  26.454  1.00  0.00    -0.376 OA
BRANCH   2   3
ATOM      3  C   UNL A   1      38.536  21.396  25.402  1.00  0.00     0.202 C 
BRANCH   3   4
ATOM      4  C   UNL A   1      37.358  22.309  25.780  1.00  0.00     0.261 C 
BRANCH   4   5
ATOM      5  O   UNL A   1      36.271  22.306  24.839  1.00  0.00    -0.459 OA
BRANCH   5   6
ATOM      6  C   UNL A   1      35.017  22.449  25.346  1.00  0.00     0.350 C 
ATOM      7  O   UNL A   1      34.708  23.311  26.163  1.00  0.00    -0.245 OA
BRANCH   6   8
ATOM      8  C   UNL A   1      34.122  21.520  24.682  1.00  0.00     0.136 A 
ATOM      9  C   UNL A   1      32.961  21.736  23.942  1.00  0.00     0.066 A 
ATOM     10  C   UNL A   1      32.348  20.493  23.582  1.00  0.00     0.039 A 
ATOM     11  C   UNL A   1      33.039  19.396  24.039  1.00  0.00     0.068 A 
ATOM     12  S   UNL A   1      34.455  19.843  24.869  1.00  0.00    -0.135 S 
BRANCH   9  13
ATOM     13  N   UNL A   1      32.495  23.011  23.611  1.00  0.00    -0.324 N 
ATOM     14  O   UNL A   1      33.656  23.389  21.629  1.00  0.00    -0.274 OA
ATOM     15  C   UNL A   1      32.924  23.775  22.538  1.00  0.00     0.234 C 
ATOM     16  H   UNL A   1      31.801  23.401  24.191  1.00  0.00     0.170 HD
BRANCH  15  17
ATOM     17  C   UNL A   1      32.502  25.233  22.615  1.00  0.00     0.170 C 
BRANCH  17  18
ATOM     18  S   UNL A   1      33.587  26.247  23.660  1.00  0.00    -0.146 SA
BRANCH  18  19
ATOM     19  C   UNL A   1      32.750  26.056  25.265  1.00  0.00     0.116 C 
BRANCH  19  20
ATOM     20  C   UNL A   1      32.402  27.355  25.924  1.00  0.00     0.016 A 
ATOM     21  C   UNL A   1      32.061  27.613  27.242  1.00  0.00     0.018 A 
ATOM     22  S   UNL A   1      32.308  28.787  24.973  1.00  0.00    -0.128 S 
ATOM     23  C   UNL A   1      31.711  28.980  27.459  1.00  0.00     0.033 A 
ATOM     24  C   UNL A   1      31.811  29.704  26.302  1.00  0.00     0.093 A 
ATOM     25  Cl  UNL A   1      31.469  31.375  26.104  1.00  0.00    -0.072 Cl
ENDBRANCH  19  20
ENDBRANCH  18  19
ENDBRANCH  17  18
ENDBRANCH  15  17
ENDBRANCH   9  13
ENDBRANCH   6   8
ENDBRANCH   5   6
ENDBRANCH   4   5
ENDBRANCH   3   4
ENDBRANCH   2   3
ENDBRANCH   1   2
BRANCH   1  26
ATOM     26  C   UNL A   1      41.490  20.016  27.309  1.00  0.00     0.188 C 
BRANCH  26  27
ATOM     27  O   UNL A   1      42.798  20.042  26.763  1.00  0.00    -0.377 OA
BRANCH  27  28
ATOM     28  C   UNL A   1      43.073  19.214  25.634  1.00  0.00     0.188 C 
BRANCH  28  29
ATOM     29  C   UNL A   1      44.132  19.582  24.578  1.00  0.00     0.188 C 
BRANCH  29  30
ATOM     30  O   UNL A   1      45.472  19.572  25.065  1.00  0.00    -0.376 OA
BRANCH  30  31
ATOM     31  C   UNL A   1      45.971  20.807  25.567  1.00  0.00     0.202 C 
BRANCH  31  32
ATOM     32  C   UNL A   1      45.359  22.032  24.877  1.00  0.00     0.261 C 
BRANCH  32  33
ATOM     33  O   UNL A   1      44.588  22.886  25.738  1.00  0.00    -0.460 OA
BRANCH  33  34
ATOM     34  C   UNL A   1      43.317  23.147  25.363  1.00  0.00     0.338 C 
ATOM     35  O   UNL A   1      42.635  22.535  24.564  1.00  0.00    -0.246 OA
BRANCH  34  36
ATOM     36  C   UNL A   1      42.814  24.237  26.217  1.00  0.00     0.060 A 
ATOM     37  C   UNL A   1      43.428  25.493  26.147  1.00  0.00     0.016 A 
ATOM     38  C   UNL A   1      41.755  24.007  27.095  1.00  0.00     0.016 A 
ATOM     39  C   UNL A   1      42.995  26.524  26.984  1.00  0.00     0.010 A 
ATOM     40  C   UNL A   1      41.338  25.032  27.944  1.00  0.00     0.010 A 
ATOM     41  C   UNL A   1      41.970  26.288  27.909  1.00  0.00    -0.014 A 
BRANCH  41  42
ATOM     42  C   UNL A   1      41.667  27.278  28.968  1.00  0.00     0.031 A 
ATOM     43  C   UNL A   1      42.527  27.289  30.203  1.00  0.00     0.074 A 
ATOM     44  C   UNL A   1      40.642  28.141  28.851  1.00  0.00     0.049 A 
ATOM     45  N   UNL A   1      42.421  28.023  31.280  1.00  0.00    -0.248 NA
ATOM     46  C   UNL A   1      43.652  26.338  30.228  1.00  0.00     0.031 C 
ATOM     47  C   UNL A   1      39.744  28.248  27.702  1.00  0.00     0.029 A 
ATOM     48  N   UNL A   1      40.180  29.088  29.730  1.00  0.00    -0.354 N 
ATOM     49  C   UNL A   1      43.455  27.615  32.113  1.00  0.00     0.074 A 
ATOM     50  C   UNL A   1      44.162  26.553  31.430  1.00  0.00     0.031 C 
ATOM     51  C   UNL A   1      38.833  29.206  27.952  1.00  0.00     0.029 A 
ATOM     52  C   UNL A   1      39.067  29.759  29.284  1.00  0.00     0.049 A 
ATOM     53  H   UNL A   1      40.605  29.270  30.600  1.00  0.00     0.167 HD
ATOM     54  C   UNL A   1      43.795  28.084  33.336  1.00  0.00     0.031 A 
ATOM     55  C   UNL A   1      38.318  30.701  29.892  1.00  0.00     0.031 A 
ATOM     56  C   UNL A   1      43.099  29.134  34.025  1.00  0.00     0.049 A 
ATOM     57  C   UNL A   1      38.688  31.170  31.275  1.00  0.00     0.074 A 
ATOM     58  C   UNL A   1      43.386  29.693  35.257  1.00  0.00     0.029 A 
ATOM     59  N   UNL A   1      41.973  29.780  33.542  1.00  0.00    -0.354 N 
ATOM     60  N   UNL A   1      39.696  30.807  32.031  1.00  0.00    -0.248 NA
ATOM     61  C   UNL A   1      37.815  32.186  31.885  1.00  0.00     0.031 C 
ATOM     62  C   UNL A   1      42.405  30.649  35.541  1.00  0.00     0.029 A 
ATOM     63  C   UNL A   1      41.538  30.716  34.463  1.00  0.00     0.049 A 
ATOM     64  H   UNL A   1      41.546  29.599  32.674  1.00  0.00     0.167 HD
ATOM     65  C   UNL A   1      39.594  31.569  33.190  1.00  0.00     0.074 A 
ATOM     66  C   UNL A   1      38.435  32.422  33.034  1.00  0.00     0.031 C 
ATOM     67  C   UNL A   1      40.390  31.564  34.287  1.00  0.00     0.031 A 
BRANCH  54  68
ATOM     68  C   UNL A   1      44.965  27.441  34.019  1.00  0.00    -0.014 A 
ATOM     69  C   UNL A   1      44.797  26.311  34.834  1.00  0.00     0.009 A 
ATOM     70  C   UNL A   1      46.256  27.952  33.818  1.00  0.00     0.009 A 
ATOM     71  C   UNL A   1      45.899  25.719  35.455  1.00  0.00     0.001 A 
ATOM     72  C   UNL A   1      47.358  27.345  34.421  1.00  0.00     0.001 A 
ATOM     73  C   UNL A   1      47.177  26.233  35.244  1.00  0.00     0.000 A 
ENDBRANCH  54  68
BRANCH  55  74
ATOM     74  C   UNL A   1      37.121  31.262  29.213  1.00  0.00    -0.014 A 
ATOM     75  C   UNL A   1      35.966  30.481  29.041  1.00  0.00     0.009 A 
ATOM     76  C   UNL A   1      37.145  32.562  28.686  1.00  0.00     0.009 A 
ATOM     77  C   UNL A   1      34.875  30.981  28.325  1.00  0.00     0.001 A 
ATOM     78  C   UNL A   1      36.043  33.068  27.994  1.00  0.00     0.001 A 
ATOM     79  C   UNL A   1      34.914  32.274  27.805  1.00  0.00     0.000 A 
ENDBRANCH  55  74
BRANCH  67  80
ATOM     80  C   UNL A   1      40.062  32.533  35.387  1.00  0.00    -0.014 A 
ATOM     81  C   UNL A   1      40.657  33.801  35.441  1.00  0.00     0.009 A 
ATOM     82  C   UNL A   1      39.100  32.189  36.350  1.00  0.00     0.009 A 
ATOM     83  C   UNL A   1      40.316  34.697  36.456  1.00  0.00     0.001 A 
ATOM     84  C   UNL A   1      38.742  33.097  37.348  1.00  0.00     0.001 A 
ATOM     85  C   UNL A   1      39.356  34.347  37.404  1.00  0.00     0.000 A 
ENDBRANCH  67  80
ENDBRANCH  41  42
ENDBRANCH  34  36
ENDBRANCH  33  34
ENDBRANCH  32  33
ENDBRANCH  31  32
ENDBRANCH  30  31
ENDBRANCH  29  30
ENDBRANCH  28  29
ENDBRANCH  27  28
ENDBRANCH  26  27
ENDBRANCH   1  26
TORSDOF 25
ENDMDL
MODEL 2
REMARK VINA RESULT:      -8.2      6.967      8.679
REMARK SMILES O=C(CSCc1ccc(Cl)s1)Nc1ccsc1C(=O)OCCOCCOCCOCCOC(=O)c1ccc(-c2c3nc(c(-c4ccccc4)c4ccc([nH]4)c(-c4ccccc4)c4nc(c(-c5ccccc5)c5ccc2[nH]5)C=C4)C=C3)cc1
REMARK SMILES IDX 24 1 23 2 22 3 21 4 20 5 18 6 19 7 17 8 13 9 14 10 15 11
REMARK SMILES IDX 16 12 12 13 1 14 2 15 3 17 4 18 5 19 6 20 7 21 11 22 8 23
REMARK SMILES IDX 9 24 10 25 25 26 26 27 27 28 28 29 29 30 30 31 31 32 32 33
REMARK SMILES IDX 33 34 34 35 35 36 36 37 82 38 37 39 81 40 38 41 39 42 40 43
REMARK SMILES IDX 75 44 41 45 80 46 74 47 76 48 42 49 79 50 73 51 72 52 43 54
REMARK SMILES IDX 65 55 50 56 64 57 51 58 54 59 63 60 77 61 52 62 53 63 62 65
REMARK SMILES IDX 78 66 55 67 44 68 45 69 49 70 46 71 48 72 47 73 66 74 67 75
REMARK SMILES IDX 71 76 68 77 70 78 69 79 56 80 57 81 61 82 58 83 60 84 59 85
REMARK H PARENT 12 16 76 53 54 64
REMARK Flexibility Score: inf
ROOT
ATOM      1  C   UNL A   1      40.501  20.422  26.229  1.00  0.00     0.188 C 
ENDROOT
BRANCH   1   2
ATOM      2  O   UNL A   1      39.541  21.423  26.573  1.00  0.00    -0.376 OA
BRANCH   2   3
ATOM      3  C   UNL A   1      38.680  21.847  25.519  1.00  0.00     0.202 C 
BRANCH   3   4
ATOM      4  C   UNL A   1      37.180  21.662  25.802  1.00  0.00     0.261 C 
BRANCH   4   5
ATOM      5  O   UNL A   1      36.317  22.000  24.703  1.00  0.00    -0.459 OA
BRANCH   5   6
ATOM      6  C   UNL A   1      35.299  22.866  24.962  1.00  0.00     0.350 C 
ATOM      7  O   UNL A   1      35.453  24.074  25.102  1.00  0.00    -0.245 OA
BRANCH   6   8
ATOM      8  C   UNL A   1      34.038  22.149  24.921  1.00  0.00     0.136 A 
ATOM      9  C   UNL A   1      32.746  22.548  25.258  1.00  0.00     0.066 A 
ATOM     10  C   UNL A   1      31.833  21.450  25.165  1.00  0.00     0.039 A 
ATOM     11  C   UNL A   1      32.433  20.279  24.766  1.00  0.00     0.068 A 
ATOM     12  S   UNL A   1      34.092  20.493  24.457  1.00  0.00    -0.135 S 
BRANCH   9  13
ATOM     13  N   UNL A   1      32.426  23.858  25.628  1.00  0.00    -0.324 N 
ATOM     14  O   UNL A   1      31.233  23.467  27.588  1.00  0.00    -0.274 OA
ATOM     15  C   UNL A   1      31.637  24.222  26.706  1.00  0.00     0.234 C 
ATOM     16  H   UNL A   1      32.793  24.584  25.073  1.00  0.00     0.170 HD
BRANCH  15  17
ATOM     17  C   UNL A   1      31.181  25.672  26.671  1.00  0.00     0.170 C 
BRANCH  17  18
ATOM     18  S   UNL A   1      29.997  26.027  25.340  1.00  0.00    -0.146 SA
BRANCH  18  19
ATOM     19  C   UNL A   1      30.887  27.358  24.473  1.00  0.00     0.116 C 
BRANCH  19  20
ATOM     20  C   UNL A   1      31.774  26.871  23.367  1.00  0.00     0.016 A 
ATOM     21  C   UNL A   1      33.155  26.910  23.263  1.00  0.00     0.018 A 
ATOM     22  S   UNL A   1      31.066  26.220  21.941  1.00  0.00    -0.128 S 
ATOM     23  C   UNL A   1      33.622  26.420  22.005  1.00  0.00     0.033 A 
ATOM     24  C   UNL A   1      32.579  26.020  21.214  1.00  0.00     0.093 A 
ATOM     25  Cl  UNL A   1      32.683  25.384  19.623  1.00  0.00    -0.072 Cl
ENDBRANCH  19  20
ENDBRANCH  18  19
ENDBRANCH  17  18
ENDBRANCH  15  17
ENDBRANCH   9  13
ENDBRANCH   6   8
ENDBRANCH   5   6
ENDBRANCH   4   5
ENDBRANCH   3   4
ENDBRANCH   2   3
ENDBRANCH   1   2
BRANCH   1  26
ATOM     26  C   UNL A   1      41.287  19.896  27.440  1.00  0.00     0.188 C 
BRANCH  26  27
ATOM     27  O   UNL A   1      42.618  19.519  27.132  1.00  0.00    -0.377 OA
BRANCH  27  28
ATOM     28  C   UNL A   1      42.832  18.648  26.023  1.00  0.00     0.188 C 
BRANCH  28  29
ATOM     29  C   UNL A   1      43.910  18.918  24.956  1.00  0.00     0.188 C 
BRANCH  29  30
ATOM     30  O   UNL A   1      45.223  18.512  25.334  1.00  0.00    -0.376 OA
BRANCH  30  31
ATOM     31  C   UNL A   1      46.186  19.549  25.484  1.00  0.00     0.202 C 
BRANCH  31  32
ATOM     32  C   UNL A   1      45.653  20.932  25.088  1.00  0.00     0.261 C 
BRANCH  32  33
ATOM     33  O   UNL A   1      46.094  22.011  25.928  1.00  0.00    -0.460 OA
BRANCH  33  34
ATOM     34  C   UNL A   1      45.137  22.753  26.524  1.00  0.00     0.338 C 
ATOM     35  O   UNL A   1      44.150  22.361  27.118  1.00  0.00    -0.246 OA
BRANCH  34  36
ATOM     36  C   UNL A   1      45.568  24.162  26.476  1.00  0.00     0.060 A 
ATOM     37  C   UNL A   1      45.432  24.872  25.278  1.00  0.00     0.016 A 
ATOM     38  C   UNL A   1      46.122  24.764  27.606  1.00  0.00     0.016 A 
ATOM     39  C   UNL A   1      45.881  26.193  25.201  1.00  0.00     0.010 A 
ATOM     40  C   UNL A   1      46.587  26.075  27.520  1.00  0.00     0.010 A 
ATOM     41  C   UNL A   1      46.489  26.789  26.313  1.00  0.00    -0.014 A 
BRANCH  41  42
ATOM     42  C   UNL A   1      47.191  28.087  26.181  1.00  0.00     0.031 A 
ATOM     43  C   UNL A   1      48.671  28.075  25.908  1.00  0.00     0.074 A 
ATOM     44  C   UNL A   1      46.539  29.256  26.318  1.00  0.00     0.049 A 
ATOM     45  N   UNL A   1      49.504  29.079  25.811  1.00  0.00    -0.248 NA
ATOM     46  C   UNL A   1      49.295  26.752  25.734  1.00  0.00     0.031 C 
ATOM     47  C   UNL A   1      45.106  29.409  26.565  1.00  0.00     0.029 A 
ATOM     48  N   UNL A   1      47.014  30.543  26.278  1.00  0.00    -0.354 N 
ATOM     49  C   UNL A   1      50.748  28.509  25.572  1.00  0.00     0.074 A 
ATOM     50  C   UNL A   1      50.568  27.074  25.568  1.00  0.00     0.031 C 
ATOM     51  C   UNL A   1      44.820  30.720  26.662  1.00  0.00     0.029 A 
ATOM     52  C   UNL A   1      46.050  31.494  26.509  1.00  0.00     0.049 A 
ATOM     53  H   UNL A   1      47.957  30.764  26.101  1.00  0.00     0.167 HD
ATOM     54  C   UNL A   1      51.937  29.122  25.369  1.00  0.00     0.031 A 
ATOM     55  C   UNL A   1      46.157  32.835  26.600  1.00  0.00     0.031 A 
ATOM     56  C   UNL A   1      52.128  30.545  25.375  1.00  0.00     0.049 A 
ATOM     57  C   UNL A   1      47.502  33.490  26.420  1.00  0.00     0.074 A 
ATOM     58  C   UNL A   1      53.293  31.259  25.154  1.00  0.00     0.029 A 
ATOM     59  N   UNL A   1      51.129  31.472  25.622  1.00  0.00    -0.354 N 
ATOM     60  N   UNL A   1      48.662  32.941  26.151  1.00  0.00    -0.248 NA
ATOM     61  C   UNL A   1      47.548  34.955  26.553  1.00  0.00     0.031 C 
ATOM     62  C   UNL A   1      53.006  32.619  25.310  1.00  0.00     0.029 A 
ATOM     63  C   UNL A   1      51.654  32.751  25.582  1.00  0.00     0.049 A 
ATOM     64  H   UNL A   1      50.185  31.252  25.800  1.00  0.00     0.167 HD
ATOM     65  C   UNL A   1      49.566  33.993  26.054  1.00  0.00     0.074 A 
ATOM     66  C   UNL A   1      48.820  35.213  26.280  1.00  0.00     0.031 C 
ATOM     67  C   UNL A   1      50.896  33.953  25.799  1.00  0.00     0.031 A 
BRANCH  54  68
ATOM     68  C   UNL A   1      53.134  28.246  25.145  1.00  0.00    -0.014 A 
ATOM     69  C   UNL A   1      53.906  27.786  26.223  1.00  0.00     0.009 A 
ATOM     70  C   UNL A   1      53.473  27.850  23.843  1.00  0.00     0.009 A 
ATOM     71  C   UNL A   1      55.011  26.963  25.997  1.00  0.00     0.001 A 
ATOM     72  C   UNL A   1      54.565  27.010  23.623  1.00  0.00     0.001 A 
ATOM     73  C   UNL A   1      55.336  26.573  24.699  1.00  0.00     0.000 A 
ENDBRANCH  54  68
BRANCH  55  74
ATOM     74  C   UNL A   1      44.961  33.665  26.898  1.00  0.00    -0.014 A 
ATOM     75  C   UNL A   1      44.563  33.895  28.225  1.00  0.00     0.009 A 
ATOM     76  C   UNL A   1      44.180  34.187  25.856  1.00  0.00     0.009 A 
ATOM     77  C   UNL A   1      43.388  34.602  28.499  1.00  0.00     0.001 A 
ATOM     78  C   UNL A   1      43.022  34.915  26.133  1.00  0.00     0.001 A 
ATOM     79  C   UNL A   1      42.621  35.112  27.453  1.00  0.00     0.000 A 
ENDBRANCH  55  74
BRANCH  67  80
ATOM     80  C   UNL A   1      51.626  35.264  25.711  1.00  0.00    -0.014 A 
ATOM     81  C   UNL A   1      51.853  35.889  24.477  1.00  0.00     0.009 A 
ATOM     82  C   UNL A   1      52.040  35.907  26.889  1.00  0.00     0.009 A 
ATOM     83  C   UNL A   1      52.507  37.122  24.421  1.00  0.00     0.001 A 
ATOM     84  C   UNL A   1      52.670  37.151  26.831  1.00  0.00     0.001 A 
ATOM     85  C   UNL A   1      52.909  37.753  25.597  1.00  0.00     0.000 A 
ENDBRANCH  67  80
ENDBRANCH  41  42
ENDBRANCH  34  36
ENDBRANCH  33  34
ENDBRANCH  32  33
ENDBRANCH  31  32
ENDBRANCH  30  31
ENDBRANCH  29  30
ENDBRANCH  28  29
ENDBRANCH  27  28
ENDBRANCH  26  27
ENDBRANCH   1  26
TORSDOF 25
ENDMDL
MODEL 3
REMARK VINA RESULT:      -7.9      7.242     10.229
REMARK SMILES O=C(CSCc1ccc(Cl)s1)Nc1ccsc1C(=O)OCCOCCOCCOCCOC(=O)c1ccc(-c2c3nc(c(-c4ccccc4)c4ccc([nH]4)c(-c4ccccc4)c4nc(c(-c5ccccc5)c5ccc2[nH]5)C=C4)C=C3)cc1
REMARK SMILES IDX 24 1 23 2 22 3 21 4 20 5 18 6 19 7 17 8 13 9 14 10 15 11
REMARK SMILES IDX 16 12 12 13 1 14 2 15 3 17 4 18 5 19 6 20 7 21 11 22 8 23
REMARK SMILES IDX 9 24 10 25 25 26 26 27 27 28 28 29 29 30 30 31 31 32 32 33
REMARK SMILES IDX 33 34 34 35 35 36 36 37 82 38 37 39 81 40 38 41 39 42 40 43
REMARK SMILES IDX 75 44 41 45 80 46 74 47 76 48 42 49 79 50 73 51 72 52 43 54
REMARK SMILES IDX 65 55 50 56 64 57 51 58 54 59 63 60 77 61 52 62 53 63 62 65
REMARK SMILES IDX 78 66 55 67 44 68 45 69 49 70 46 71 48 72 47 73 66 74 67 75
REMARK SMILES IDX 71 76 68 77 70 78 69 79 56 80 57 81 61 82 58 83 60 84 59 85
REMARK H PARENT 12 16 76 53 54 64
REMARK Flexibility Score: inf
ROOT
ATOM      1  C   UNL A   1      40.646  20.439  26.121  1.00  0.00     0.188 C 
ENDROOT
BRANCH   1   2
ATOM      2  O   UNL A   1      39.609  21.320  26.558  1.00  0.00    -0.376 OA
BRANCH   2   3
ATOM      3  C   UNL A   1      38.720  21.784  25.546  1.00  0.00     0.202 C 
BRANCH   3   4
ATOM      4  C   UNL A   1      37.249  21.892  25.983  1.00  0.00     0.261 C 
BRANCH   4   5
ATOM      5  O   UNL A   1      36.342  22.289  24.941  1.00  0.00    -0.459 OA
BRANCH   5   6
ATOM      6  C   UNL A   1      35.349  23.154  25.284  1.00  0.00     0.350 C 
ATOM      7  O   UNL A   1      35.549  24.308  25.647  1.00  0.00    -0.245 OA
BRANCH   6   8
ATOM      8  C   UNL A   1      34.062  22.530  25.036  1.00  0.00     0.136 A 
ATOM      9  C   UNL A   1      32.768  23.042  25.104  1.00  0.00     0.066 A 
ATOM     10  C   UNL A   1      31.800  22.010  24.887  1.00  0.00     0.039 A 
ATOM     11  C   UNL A   1      32.365  20.777  24.662  1.00  0.00     0.068 A 
ATOM     12  S   UNL A   1      34.064  20.850  24.665  1.00  0.00    -0.135 S 
BRANCH   9  13
ATOM     13  N   UNL A   1      32.494  24.391  25.347  1.00  0.00    -0.324 N 
ATOM     14  O   UNL A   1      31.237  24.225  27.299  1.00  0.00    -0.274 OA
ATOM     15  C   UNL A   1      31.695  24.881  26.366  1.00  0.00     0.234 C 
ATOM     16  H   UNL A   1      32.906  25.050  24.741  1.00  0.00     0.170 HD
BRANCH  15  17
ATOM     17  C   UNL A   1      31.302  26.339  26.190  1.00  0.00     0.170 C 
BRANCH  17  18
ATOM     18  S   UNL A   1      30.480  26.683  24.607  1.00  0.00    -0.146 SA
BRANCH  18  19
ATOM     19  C   UNL A   1      31.172  28.326  24.241  1.00  0.00     0.116 C 
BRANCH  19  20
ATOM     20  C   UNL A   1      32.037  28.874  25.335  1.00  0.00     0.016 A 
ATOM     21  C   UNL A   1      31.726  29.782  26.335  1.00  0.00     0.018 A 
ATOM     22  S   UNL A   1      33.699  28.432  25.400  1.00  0.00    -0.128 S 
ATOM     23  C   UNL A   1      32.857  30.119  27.138  1.00  0.00     0.033 A 
ATOM     24  C   UNL A   1      33.976  29.447  26.722  1.00  0.00     0.093 A 
ATOM     25  Cl  UNL A   1      35.552  29.566  27.391  1.00  0.00    -0.072 Cl
ENDBRANCH  19  20
ENDBRANCH  18  19
ENDBRANCH  17  18
ENDBRANCH  15  17
ENDBRANCH   9  13
ENDBRANCH   6   8
ENDBRANCH   5   6
ENDBRANCH   4   5
ENDBRANCH   3   4
ENDBRANCH   2   3
ENDBRANCH   1   2
BRANCH   1  26
ATOM     26  C   UNL A   1      41.536  19.936  27.267  1.00  0.00     0.188 C 
BRANCH  26  27
ATOM     27  O   UNL A   1      42.851  19.599  26.859  1.00  0.00    -0.377 OA
BRANCH  27  28
ATOM     28  C   UNL A   1      43.006  18.680  25.780  1.00  0.00     0.188 C 
BRANCH  28  29
ATOM     29  C   UNL A   1      43.984  18.930  24.616  1.00  0.00     0.188 C 
BRANCH  29  30
ATOM     30  O   UNL A   1      45.334  18.571  24.898  1.00  0.00    -0.376 OA
BRANCH  30  31
ATOM     31  C   UNL A   1      46.222  19.640  25.204  1.00  0.00     0.202 C 
BRANCH  31  32
ATOM     32  C   UNL A   1      45.593  21.025  25.005  1.00  0.00     0.261 C 
BRANCH  32  33
ATOM     33  O   UNL A   1      46.210  22.080  25.760  1.00  0.00    -0.460 OA
BRANCH  33  34
ATOM     34  C   UNL A   1      45.392  22.876  26.482  1.00  0.00     0.338 C 
ATOM     35  O   UNL A   1      44.424  22.547  27.142  1.00  0.00    -0.246 OA
BRANCH  34  36
ATOM     36  C   UNL A   1      45.963  24.234  26.471  1.00  0.00     0.060 A 
ATOM     37  C   UNL A   1      45.863  25.003  25.306  1.00  0.00     0.016 A 
ATOM     38  C   UNL A   1      46.612  24.730  27.601  1.00  0.00     0.016 A 
ATOM     39  C   UNL A   1      46.443  26.273  25.262  1.00  0.00     0.010 A 
ATOM     40  C   UNL A   1      47.206  25.990  27.548  1.00  0.00     0.010 A 
ATOM     41  C   UNL A   1      47.144  26.759  26.373  1.00  0.00    -0.014 A 
BRANCH  41  42
ATOM     42  C   UNL A   1      47.971  27.983  26.265  1.00  0.00     0.031 A 
ATOM     43  C   UNL A   1      47.303  29.317  26.462  1.00  0.00     0.074 A 
ATOM     44  C   UNL A   1      49.284  27.921  25.980  1.00  0.00     0.049 A 
ATOM     45  N   UNL A   1      47.806  30.519  26.360  1.00  0.00    -0.248 NA
ATOM     46  C   UNL A   1      45.872  29.288  26.810  1.00  0.00     0.031 C 
ATOM     47  C   UNL A   1      50.058  26.696  25.784  1.00  0.00     0.029 A 
ATOM     48  N   UNL A   1      50.196  28.930  25.795  1.00  0.00    -0.354 N 
ATOM     49  C   UNL A   1      46.754  31.389  26.622  1.00  0.00     0.074 A 
ATOM     50  C   UNL A   1      45.579  30.578  26.859  1.00  0.00     0.031 C 
ATOM     51  C   UNL A   1      51.330  27.028  25.498  1.00  0.00     0.029 A 
ATOM     52  C   UNL A   1      51.454  28.484  25.466  1.00  0.00     0.049 A 
ATOM     53  H   UNL A   1      49.972  29.884  25.887  1.00  0.00     0.167 HD
ATOM     54  C   UNL A   1      46.762  32.740  26.667  1.00  0.00     0.031 A 
ATOM     55  C   UNL A   1      52.570  29.176  25.162  1.00  0.00     0.031 A 
ATOM     56  C   UNL A   1      47.920  33.555  26.429  1.00  0.00     0.049 A 
ATOM     57  C   UNL A   1      52.539  30.682  25.170  1.00  0.00     0.074 A 
ATOM     58  C   UNL A   1      48.029  34.933  26.478  1.00  0.00     0.029 A 
ATOM     59  N   UNL A   1      49.170  33.063  26.091  1.00  0.00    -0.354 N 
ATOM     60  N   UNL A   1      51.548  31.489  25.463  1.00  0.00    -0.248 NA
ATOM     61  C   UNL A   1      53.787  31.372  24.809  1.00  0.00     0.031 C 
ATOM     62  C   UNL A   1      49.338  35.279  26.126  1.00  0.00     0.029 A 
ATOM     63  C   UNL A   1      50.052  34.112  25.905  1.00  0.00     0.049 A 
ATOM     64  H   UNL A   1      49.397  32.110  25.998  1.00  0.00     0.167 HD
ATOM     65  C   UNL A   1      52.061  32.777  25.350  1.00  0.00     0.074 A 
ATOM     66  C   UNL A   1      53.452  32.645  24.974  1.00  0.00     0.031 C 
ATOM     67  C   UNL A   1      51.436  33.963  25.541  1.00  0.00     0.031 A 
BRANCH  54  68
ATOM     68  C   UNL A   1      45.462  33.427  26.965  1.00  0.00    -0.014 A 
ATOM     69  C   UNL A   1      45.084  33.723  28.283  1.00  0.00     0.009 A 
ATOM     70  C   UNL A   1      44.620  33.811  25.910  1.00  0.00     0.009 A 
ATOM     71  C   UNL A   1      43.874  34.371  28.541  1.00  0.00     0.001 A 
ATOM     72  C   UNL A   1      43.423  34.478  26.169  1.00  0.00     0.001 A 
ATOM     73  C   UNL A   1      43.048  34.752  27.484  1.00  0.00     0.000 A 
ENDBRANCH  54  68
BRANCH  55  74
ATOM     74  C   UNL A   1      53.821  28.461  24.799  1.00  0.00    -0.014 A 
ATOM     75  C   UNL A   1      54.006  27.959  23.500  1.00  0.00     0.009 A 
ATOM     76  C   UNL A   1      54.813  28.229  25.763  1.00  0.00     0.009 A 
ATOM     77  C   UNL A   1      55.145  27.212  23.186  1.00  0.00     0.001 A 
ATOM     78  C   UNL A   1      55.962  27.504  25.440  1.00  0.00     0.001 A 
ATOM     79  C   UNL A   1      56.121  26.987  24.156  1.00  0.00     0.000 A 
ENDBRANCH  55  74
BRANCH  67  80
ATOM     80  C   UNL A   1      52.256  35.213  25.386  1.00  0.00    -0.014 A 
ATOM     81  C   UNL A   1      52.977  35.748  26.464  1.00  0.00     0.009 A 
ATOM     82  C   UNL A   1      52.351  35.828  24.128  1.00  0.00     0.009 A 
ATOM     83  C   UNL A   1      53.757  36.893  26.290  1.00  0.00     0.001 A 
ATOM     84  C   UNL A   1      53.151  36.958  23.953  1.00  0.00     0.001 A 
ATOM     85  C   UNL A   1      53.847  37.493  25.035  1.00  0.00     0.000 A 
ENDBRANCH  67  80
ENDBRANCH  41  42
ENDBRANCH  34  36
ENDBRANCH  33  34
ENDBRANCH  32  33
ENDBRANCH  31  32
ENDBRANCH  30  31
ENDBRANCH  29  30
ENDBRANCH  28  29
ENDBRANCH  27  28
ENDBRANCH  26  27
ENDBRANCH   1  26
TORSDOF 25
ENDMDL
