MODEL 1
REMARK VINA RESULT:      -9.7      0.000      0.000
REMARK SMILES C[C@@H]1C(=O)NC(=O)CN1C(=O)NC1(CC(=O)OCCOCCOCCOCCOC(=O)c2ccc(-c3c4nc(c(-c5ccccc5)c5ccc([nH]5)c(-c5ccccc5)c5nc(c(-c6ccccc6)c6ccc3[nH]6)C=C5)C=C4)cc2)CCC1
REMARK SMILES IDX 22 1 21 2 20 3 19 4 18 5 17 6 15 7 16 8 14 9 13 10 80 11
REMARK SMILES IDX 82 12 81 13 12 14 10 15 11 16 9 18 1 19 2 20 3 21 4 22 5 23
REMARK SMILES IDX 8 24 6 25 7 27 23 28 24 29 25 30 26 31 27 32 28 33 29 34
REMARK SMILES IDX 30 35 31 36 32 37 33 38 79 39 34 40 78 41 35 42 36 43 37 44
REMARK SMILES IDX 72 45 38 46 77 47 71 48 73 49 39 50 76 51 70 52 69 53 40 55
REMARK SMILES IDX 62 56 47 57 61 58 48 59 51 60 60 61 74 62 49 63 50 64 59 66
REMARK SMILES IDX 75 67 52 68 41 69 42 70 46 71 43 72 45 73 44 74 63 75 64 76
REMARK SMILES IDX 68 77 65 78 67 79 66 80 53 81 54 82 58 83 55 84 57 85 56 86
REMARK H PARENT 12 17 5 26 73 54 51 65
REMARK Flexibility Score: inf
ROOT
ATOM      1  C   UNL A   1      39.627  22.658  27.041  1.00  0.00     0.188 C 
ENDROOT
BRANCH   1   2
ATOM      2  C   UNL A   1      38.716  22.520  25.804  1.00  0.00     0.188 C 
BRANCH   2   3
ATOM      3  O   UNL A   1      37.313  22.384  25.968  1.00  0.00    -0.376 OA
BRANCH   3   4
ATOM      4  C   UNL A   1      36.636  21.363  25.257  1.00  0.00     0.202 C 
BRANCH   4   5
ATOM      5  C   UNL A   1      35.270  21.665  24.606  1.00  0.00     0.261 C 
BRANCH   5   6
ATOM      6  O   UNL A   1      34.569  22.868  25.007  1.00  0.00    -0.463 OA
BRANCH   6   7
ATOM      7  C   UNL A   1      33.812  23.504  24.080  1.00  0.00     0.308 C 
ATOM      8  O   UNL A   1      34.259  24.332  23.293  1.00  0.00    -0.252 OA
BRANCH   7   9
ATOM      9  C   UNL A   1      32.315  23.217  24.169  1.00  0.00     0.151 C 
BRANCH   9  10
ATOM     10  C   UNL A   1      31.415  23.884  25.236  1.00  0.00     0.052 C 
ATOM     11  C   UNL A   1      32.133  24.499  26.483  1.00  0.00     0.029 C 
ATOM     12  C   UNL A   1      30.787  22.905  26.322  1.00  0.00     0.029 C 
ATOM     13  C   UNL A   1      32.031  23.141  27.180  1.00  0.00     0.005 C 
BRANCH  10  14
ATOM     14  N   UNL A   1      30.391  24.733  24.567  1.00  0.00    -0.332 N 
ATOM     15  C   UNL A   1      30.085  25.973  24.157  1.00  0.00     0.318 C 
ATOM     16  O   UNL A   1      28.902  26.070  23.804  1.00  0.00    -0.249 OA
ATOM     17  H   UNL A   1      29.634  24.149  24.330  1.00  0.00     0.165 HD
BRANCH  15  18
ATOM     18  N   UNL A   1      30.914  27.041  24.101  1.00  0.00    -0.304 N 
ATOM     19  C   UNL A   1      33.051  27.794  25.131  1.00  0.00     0.042 C 
ATOM     20  C   UNL A   1      32.371  27.036  23.983  1.00  0.00     0.174 C 
ATOM     21  C   UNL A   1      32.817  27.625  22.639  1.00  0.00     0.249 C 
ATOM     22  O   UNL A   1      33.949  27.441  22.191  1.00  0.00    -0.272 OA
ATOM     23  N   UNL A   1      31.967  28.509  22.029  1.00  0.00    -0.293 N 
ATOM     24  C   UNL A   1      30.293  28.355  23.835  1.00  0.00     0.222 C 
ATOM     25  C   UNL A   1      30.766  28.962  22.516  1.00  0.00     0.246 C 
ATOM     26  H   UNL A   1      32.247  28.857  21.152  1.00  0.00     0.173 HD
ATOM     27  O   UNL A   1      30.207  29.920  21.986  1.00  0.00    -0.273 OA
ENDBRANCH  15  18
ENDBRANCH  10  14
ENDBRANCH   9  10
ENDBRANCH   7   9
ENDBRANCH   6   7
ENDBRANCH   5   6
ENDBRANCH   4   5
ENDBRANCH   3   4
ENDBRANCH   2   3
ENDBRANCH   1   2
BRANCH   1  28
ATOM     28  O   UNL A   1      40.237  21.464  27.484  1.00  0.00    -0.377 OA
BRANCH  28  29
ATOM     29  C   UNL A   1      40.726  20.635  26.450  1.00  0.00     0.188 C 
BRANCH  29  30
ATOM     30  C   UNL A   1      42.230  20.331  26.522  1.00  0.00     0.188 C 
BRANCH  30  31
ATOM     31  O   UNL A   1      42.955  20.874  25.424  1.00  0.00    -0.376 OA
BRANCH  31  32
ATOM     32  C   UNL A   1      44.303  20.481  25.223  1.00  0.00     0.202 C 
BRANCH  32  33
ATOM     33  C   UNL A   1      45.391  21.561  25.350  1.00  0.00     0.261 C 
BRANCH  33  34
ATOM     34  O   UNL A   1      45.069  22.707  26.148  1.00  0.00    -0.460 OA
BRANCH  34  35
ATOM     35  C   UNL A   1      44.899  23.885  25.511  1.00  0.00     0.338 C 
ATOM     36  O   UNL A   1      45.221  24.156  24.367  1.00  0.00    -0.246 OA
BRANCH  35  37
ATOM     37  C   UNL A   1      44.060  24.740  26.377  1.00  0.00     0.060 A 
ATOM     38  C   UNL A   1      44.288  26.123  26.374  1.00  0.00     0.016 A 
ATOM     39  C   UNL A   1      43.026  24.196  27.144  1.00  0.00     0.016 A 
ATOM     40  C   UNL A   1      43.496  26.964  27.153  1.00  0.00     0.010 A 
ATOM     41  C   UNL A   1      42.258  25.034  27.956  1.00  0.00     0.010 A 
ATOM     42  C   UNL A   1      42.513  26.417  27.988  1.00  0.00    -0.014 A 
BRANCH  42  43
ATOM     43  C   UNL A   1      41.948  27.250  29.073  1.00  0.00     0.031 A 
ATOM     44  C   UNL A   1      42.681  27.272  30.386  1.00  0.00     0.074 A 
ATOM     45  C   UNL A   1      40.843  27.995  28.899  1.00  0.00     0.049 A 
ATOM     46  N   UNL A   1      42.394  27.910  31.490  1.00  0.00    -0.248 NA
ATOM     47  C   UNL A   1      43.908  26.460  30.457  1.00  0.00     0.031 C 
ATOM     48  C   UNL A   1      40.081  28.109  27.657  1.00  0.00     0.029 A 
ATOM     49  N   UNL A   1      40.176  28.805  29.782  1.00  0.00    -0.354 N 
ATOM     50  C   UNL A   1      43.403  27.575  32.385  1.00  0.00     0.074 A 
ATOM     51  C   UNL A   1      44.285  26.650  31.710  1.00  0.00     0.031 C 
ATOM     52  C   UNL A   1      39.045  28.941  27.859  1.00  0.00     0.029 A 
ATOM     53  C   UNL A   1      39.054  29.393  29.250  1.00  0.00     0.049 A 
ATOM     54  H   UNL A   1      40.473  28.953  30.709  1.00  0.00     0.167 HD
ATOM     55  C   UNL A   1      43.584  28.002  33.657  1.00  0.00     0.031 A 
ATOM     56  C   UNL A   1      38.135  30.189  29.831  1.00  0.00     0.031 A 
ATOM     57  C   UNL A   1      42.685  28.891  34.340  1.00  0.00     0.049 A 
ATOM     58  C   UNL A   1      38.296  30.564  31.282  1.00  0.00     0.074 A 
ATOM     59  C   UNL A   1      42.771  29.381  35.630  1.00  0.00     0.029 A 
ATOM     60  N   UNL A   1      41.524  29.410  33.787  1.00  0.00    -0.354 N 
ATOM     61  N   UNL A   1      39.261  30.258  32.116  1.00  0.00    -0.248 NA
ATOM     62  C   UNL A   1      37.240  31.403  31.868  1.00  0.00     0.031 C 
ATOM     63  C   UNL A   1      41.625  30.145  35.880  1.00  0.00     0.029 A 
ATOM     64  C   UNL A   1      40.866  30.191  34.721  1.00  0.00     0.049 A 
ATOM     65  H   UNL A   1      41.214  29.248  32.867  1.00  0.00     0.167 HD
ATOM     66  C   UNL A   1      38.948  30.894  33.311  1.00  0.00     0.074 A 
ATOM     67  C   UNL A   1      37.709  31.610  33.091  1.00  0.00     0.031 C 
ATOM     68  C   UNL A   1      39.629  30.894  34.485  1.00  0.00     0.031 A 
BRANCH  55  69
ATOM     69  C   UNL A   1      44.776  27.456  34.395  1.00  0.00    -0.014 A 
ATOM     70  C   UNL A   1      44.694  26.275  35.152  1.00  0.00     0.009 A 
ATOM     71  C   UNL A   1      45.996  28.147  34.349  1.00  0.00     0.009 A 
ATOM     72  C   UNL A   1      45.794  25.828  35.886  1.00  0.00     0.001 A 
ATOM     73  C   UNL A   1      47.105  27.678  35.056  1.00  0.00     0.001 A 
ATOM     74  C   UNL A   1      46.999  26.528  35.835  1.00  0.00     0.000 A 
ENDBRANCH  55  69
BRANCH  56  75
ATOM     75  C   UNL A   1      36.975  30.684  29.044  1.00  0.00    -0.014 A 
ATOM     76  C   UNL A   1      36.902  32.028  28.643  1.00  0.00     0.009 A 
ATOM     77  C   UNL A   1      35.925  29.818  28.698  1.00  0.00     0.009 A 
ATOM     78  C   UNL A   1      35.796  32.496  27.931  1.00  0.00     0.001 A 
ATOM     79  C   UNL A   1      34.834  30.283  27.960  1.00  0.00     0.001 A 
ATOM     80  C   UNL A   1      34.765  31.622  27.585  1.00  0.00     0.000 A 
ENDBRANCH  56  75
BRANCH  68  81
ATOM     81  C   UNL A   1      39.076  31.727  35.609  1.00  0.00    -0.014 A 
ATOM     82  C   UNL A   1      38.202  31.187  36.565  1.00  0.00     0.009 A 
ATOM     83  C   UNL A   1      39.479  33.066  35.738  1.00  0.00     0.009 A 
ATOM     84  C   UNL A   1      37.716  31.982  37.605  1.00  0.00     0.001 A 
ATOM     85  C   UNL A   1      39.019  33.849  36.797  1.00  0.00     0.001 A 
ATOM     86  C   UNL A   1      38.129  33.309  37.725  1.00  0.00     0.000 A 
ENDBRANCH  68  81
ENDBRANCH  42  43
ENDBRANCH  35  37
ENDBRANCH  34  35
ENDBRANCH  33  34
ENDBRANCH  32  33
ENDBRANCH  31  32
ENDBRANCH  30  31
ENDBRANCH  29  30
ENDBRANCH  28  29
ENDBRANCH   1  28
TORSDOF 23
ENDMDL
MODEL 2
REMARK VINA RESULT:      -8.6      3.221      8.591
REMARK SMILES C[C@@H]1C(=O)NC(=O)CN1C(=O)NC1(CC(=O)OCCOCCOCCOCCOC(=O)c2ccc(-c3c4nc(c(-c5ccccc5)c5ccc([nH]5)c(-c5ccccc5)c5nc(c(-c6ccccc6)c6ccc3[nH]6)C=C5)C=C4)cc2)CCC1
REMARK SMILES IDX 22 1 21 2 20 3 19 4 18 5 17 6 15 7 16 8 14 9 13 10 80 11
REMARK SMILES IDX 82 12 81 13 12 14 10 15 11 16 9 18 1 19 2 20 3 21 4 22 5 23
REMARK SMILES IDX 8 24 6 25 7 27 23 28 24 29 25 30 26 31 27 32 28 33 29 34
REMARK SMILES IDX 30 35 31 36 32 37 33 38 79 39 34 40 78 41 35 42 36 43 37 44
REMARK SMILES IDX 72 45 38 46 77 47 71 48 73 49 39 50 76 51 70 52 69 53 40 55
REMARK SMILES IDX 62 56 47 57 61 58 48 59 51 60 60 61 74 62 49 63 50 64 59 66
REMARK SMILES IDX 75 67 52 68 41 69 42 70 46 71 43 72 45 73 44 74 63 75 64 76
REMARK SMILES IDX 68 77 65 78 67 79 66 80 53 81 54 82 58 83 55 84 57 85 56 86
REMARK H PARENT 12 17 5 26 73 54 51 65
REMARK Flexibility Score: inf
ROOT
ATOM      1  C   UNL A   1      33.934  25.447  23.684  1.00  0.00     0.188 C 
ENDROOT
BRANCH   1   2
ATOM      2  C   UNL A   1      32.694  25.569  22.774  1.00  0.00     0.188 C 
BRANCH   2   3
ATOM      3  O   UNL A   1      32.100  24.402  22.225  1.00  0.00    -0.376 OA
BRANCH   3   4
ATOM      4  C   UNL A   1      31.916  23.271  23.058  1.00  0.00     0.202 C 
BRANCH   4   5
ATOM      5  C   UNL A   1      30.938  23.353  24.248  1.00  0.00     0.261 C 
BRANCH   5   6
ATOM      6  O   UNL A   1      31.253  22.603  25.448  1.00  0.00    -0.463 OA
BRANCH   6   7
ATOM      7  C   UNL A   1      31.781  23.276  26.499  1.00  0.00     0.308 C 
ATOM      8  O   UNL A   1      31.114  23.955  27.273  1.00  0.00    -0.252 OA
BRANCH   7   9
ATOM      9  C   UNL A   1      33.306  23.242  26.580  1.00  0.00     0.151 C 
BRANCH   9  10
ATOM     10  C   UNL A   1      34.125  22.021  26.098  1.00  0.00     0.052 C 
ATOM     11  C   UNL A   1      35.624  21.955  26.542  1.00  0.00     0.029 C 
ATOM     12  C   UNL A   1      34.761  22.145  24.646  1.00  0.00     0.029 C 
ATOM     13  C   UNL A   1      36.002  22.758  25.297  1.00  0.00     0.005 C 
BRANCH  10  14
ATOM     14  N   UNL A   1      33.321  20.780  26.269  1.00  0.00    -0.332 N 
ATOM     15  C   UNL A   1      33.054  19.563  25.773  1.00  0.00     0.318 C 
ATOM     16  O   UNL A   1      32.066  19.045  26.310  1.00  0.00    -0.249 OA
ATOM     17  H   UNL A   1      32.758  20.902  27.068  1.00  0.00     0.165 HD
BRANCH  15  18
ATOM     18  N   UNL A   1      33.737  18.910  24.805  1.00  0.00    -0.304 N 
ATOM     19  C   UNL A   1      36.071  18.176  24.345  1.00  0.00     0.042 C 
ATOM     20  C   UNL A   1      34.712  17.833  24.970  1.00  0.00     0.174 C 
ATOM     21  C   UNL A   1      34.188  16.519  24.377  1.00  0.00     0.249 C 
ATOM     22  O   UNL A   1      34.682  15.430  24.669  1.00  0.00    -0.272 OA
ATOM     23  N   UNL A   1      33.258  16.611  23.376  1.00  0.00    -0.293 N 
ATOM     24  C   UNL A   1      33.255  19.077  23.417  1.00  0.00     0.222 C 
ATOM     25  C   UNL A   1      32.770  17.763  22.811  1.00  0.00     0.246 C 
ATOM     26  H   UNL A   1      32.903  15.762  23.024  1.00  0.00     0.173 HD
ATOM     27  O   UNL A   1      32.113  17.712  21.773  1.00  0.00    -0.273 OA
ENDBRANCH  15  18
ENDBRANCH  10  14
ENDBRANCH   9  10
ENDBRANCH   7   9
ENDBRANCH   6   7
ENDBRANCH   5   6
ENDBRANCH   4   5
ENDBRANCH   3   4
ENDBRANCH   2   3
ENDBRANCH   1   2
BRANCH   1  28
ATOM     28  O   UNL A   1      34.062  26.443  24.676  1.00  0.00    -0.377 OA
BRANCH  28  29
ATOM     29  C   UNL A   1      33.696  27.742  24.257  1.00  0.00     0.188 C 
BRANCH  29  30
ATOM     30  C   UNL A   1      32.534  28.371  25.040  1.00  0.00     0.188 C 
BRANCH  30  31
ATOM     31  O   UNL A   1      32.039  29.558  24.432  1.00  0.00    -0.376 OA
BRANCH  31  32
ATOM     32  C   UNL A   1      30.937  30.229  25.021  1.00  0.00     0.202 C 
BRANCH  32  33
ATOM     33  C   UNL A   1      31.235  31.284  26.101  1.00  0.00     0.261 C 
BRANCH  33  34
ATOM     34  O   UNL A   1      32.441  31.111  26.856  1.00  0.00    -0.460 OA
BRANCH  34  35
ATOM     35  C   UNL A   1      33.084  32.222  27.270  1.00  0.00     0.338 C 
ATOM     36  O   UNL A   1      32.634  33.353  27.334  1.00  0.00    -0.246 OA
BRANCH  35  37
ATOM     37  C   UNL A   1      34.382  31.798  27.837  1.00  0.00     0.060 A 
ATOM     38  C   UNL A   1      34.569  30.442  28.139  1.00  0.00     0.016 A 
ATOM     39  C   UNL A   1      35.422  32.714  28.023  1.00  0.00     0.016 A 
ATOM     40  C   UNL A   1      35.791  30.001  28.646  1.00  0.00     0.010 A 
ATOM     41  C   UNL A   1      36.632  32.279  28.569  1.00  0.00     0.010 A 
ATOM     42  C   UNL A   1      36.807  30.926  28.913  1.00  0.00    -0.014 A 
BRANCH  42  43
ATOM     43  C   UNL A   1      37.933  30.524  29.786  1.00  0.00     0.031 A 
ATOM     44  C   UNL A   1      38.999  29.649  29.187  1.00  0.00     0.074 A 
ATOM     45  C   UNL A   1      38.036  30.946  31.058  1.00  0.00     0.049 A 
ATOM     46  N   UNL A   1      40.078  29.155  29.735  1.00  0.00    -0.248 NA
ATOM     47  C   UNL A   1      38.818  29.283  27.771  1.00  0.00     0.031 C 
ATOM     48  C   UNL A   1      37.104  31.847  31.733  1.00  0.00     0.029 A 
ATOM     49  N   UNL A   1      38.987  30.668  32.006  1.00  0.00    -0.354 N 
ATOM     50  C   UNL A   1      40.701  28.421  28.733  1.00  0.00     0.074 A 
ATOM     51  C   UNL A   1      39.863  28.502  27.558  1.00  0.00     0.031 C 
ATOM     52  C   UNL A   1      37.530  32.046  32.993  1.00  0.00     0.029 A 
ATOM     53  C   UNL A   1      38.744  31.263  33.220  1.00  0.00     0.049 A 
ATOM     54  H   UNL A   1      39.770  30.097  31.834  1.00  0.00     0.167 HD
ATOM     55  C   UNL A   1      41.871  27.741  28.782  1.00  0.00     0.031 A 
ATOM     56  C   UNL A   1      39.419  31.168  34.382  1.00  0.00     0.031 A 
ATOM     57  C   UNL A   1      42.684  27.629  29.962  1.00  0.00     0.049 A 
ATOM     58  C   UNL A   1      40.661  30.316  34.446  1.00  0.00     0.074 A 
ATOM     59  C   UNL A   1      43.883  26.960  30.123  1.00  0.00     0.029 A 
ATOM     60  N   UNL A   1      42.367  28.191  31.189  1.00  0.00    -0.354 N 
ATOM     61  N   UNL A   1      41.253  29.640  33.491  1.00  0.00    -0.248 NA
ATOM     62  C   UNL A   1      41.331  30.221  35.752  1.00  0.00     0.031 C 
ATOM     63  C   UNL A   1      44.259  27.062  31.467  1.00  0.00     0.029 A 
ATOM     64  C   UNL A   1      43.333  27.858  32.123  1.00  0.00     0.049 A 
ATOM     65  H   UNL A   1      41.573  28.746  31.369  1.00  0.00     0.167 HD
ATOM     66  C   UNL A   1      42.381  29.070  34.068  1.00  0.00     0.074 A 
ATOM     67  C   UNL A   1      42.395  29.488  35.455  1.00  0.00     0.031 C 
ATOM     68  C   UNL A   1      43.327  28.279  33.502  1.00  0.00     0.031 A 
BRANCH  55  69
ATOM     69  C   UNL A   1      42.296  27.025  27.529  1.00  0.00    -0.014 A 
ATOM     70  C   UNL A   1      43.146  27.630  26.589  1.00  0.00     0.009 A 
ATOM     71  C   UNL A   1      41.819  25.729  27.276  1.00  0.00     0.009 A 
ATOM     72  C   UNL A   1      43.468  26.973  25.401  1.00  0.00     0.001 A 
ATOM     73  C   UNL A   1      42.172  25.060  26.103  1.00  0.00     0.001 A 
ATOM     74  C   UNL A   1      42.984  25.687  25.160  1.00  0.00     0.000 A 
ENDBRANCH  55  69
BRANCH  56  75
ATOM     75  C   UNL A   1      38.936  31.895  35.586  1.00  0.00    -0.014 A 
ATOM     76  C   UNL A   1      39.216  33.259  35.760  1.00  0.00     0.009 A 
ATOM     77  C   UNL A   1      38.201  31.224  36.578  1.00  0.00     0.009 A 
ATOM     78  C   UNL A   1      38.787  33.931  36.906  1.00  0.00     0.001 A 
ATOM     79  C   UNL A   1      37.748  31.906  37.710  1.00  0.00     0.001 A 
ATOM     80  C   UNL A   1      38.048  33.255  37.878  1.00  0.00     0.000 A 
ENDBRANCH  56  75
BRANCH  68  81
ATOM     81  C   UNL A   1      44.482  27.850  34.366  1.00  0.00    -0.014 A 
ATOM     82  C   UNL A   1      44.439  26.664  35.116  1.00  0.00     0.009 A 
ATOM     83  C   UNL A   1      45.652  28.626  34.390  1.00  0.00     0.009 A 
ATOM     84  C   UNL A   1      45.533  26.284  35.898  1.00  0.00     0.001 A 
ATOM     85  C   UNL A   1      46.755  28.227  35.145  1.00  0.00     0.001 A 
ATOM     86  C   UNL A   1      46.691  27.061  35.907  1.00  0.00     0.000 A 
ENDBRANCH  68  81
ENDBRANCH  42  43
ENDBRANCH  35  37
ENDBRANCH  34  35
ENDBRANCH  33  34
ENDBRANCH  32  33
ENDBRANCH  31  32
ENDBRANCH  30  31
ENDBRANCH  29  30
ENDBRANCH  28  29
ENDBRANCH   1  28
TORSDOF 23
ENDMDL
MODEL 3
REMARK VINA RESULT:      -8.5      4.735     10.055
REMARK SMILES C[C@@H]1C(=O)NC(=O)CN1C(=O)NC1(CC(=O)OCCOCCOCCOCCOC(=O)c2ccc(-c3c4nc(c(-c5ccccc5)c5ccc([nH]5)c(-c5ccccc5)c5nc(c(-c6ccccc6)c6ccc3[nH]6)C=C5)C=C4)cc2)CCC1
REMARK SMILES IDX 22 1 21 2 20 3 19 4 18 5 17 6 15 7 16 8 14 9 13 10 80 11
REMARK SMILES IDX 82 12 81 13 12 14 10 15 11 16 9 18 1 19 2 20 3 21 4 22 5 23
REMARK SMILES IDX 8 24 6 25 7 27 23 28 24 29 25 30 26 31 27 32 28 33 29 34
REMARK SMILES IDX 30 35 31 36 32 37 33 38 79 39 34 40 78 41 35 42 36 43 37 44
REMARK SMILES IDX 72 45 38 46 77 47 71 48 73 49 39 50 76 51 70 52 69 53 40 55
REMARK SMILES IDX 62 56 47 57 61 58 48 59 51 60 60 61 74 62 49 63 50 64 59 66
REMARK SMILES IDX 75 67 52 68 41 69 42 70 46 71 43 72 45 73 44 74 63 75 64 76
REMARK SMILES IDX 68 77 65 78 67 79 66 80 53 81 54 82 58 83 55 84 57 85 56 86
REMARK H PARENT 12 17 5 26 73 54 51 65
REMARK Flexibility Score: inf
ROOT
ATOM      1  C   UNL A   1      33.364  25.942  23.441  1.00  0.00     0.188 C 
ENDROOT
BRANCH   1   2
ATOM      2  C   UNL A   1      31.828  26.000  23.307  1.00  0.00     0.188 C 
BRANCH   2   3
ATOM      3  O   UNL A   1      31.138  24.978  22.604  1.00  0.00    -0.376 OA
BRANCH   3   4
ATOM      4  C   UNL A   1      30.769  23.800  23.296  1.00  0.00     0.202 C 
BRANCH   4   5
ATOM      5  C   UNL A   1      30.582  23.843  24.828  1.00  0.00     0.261 C 
BRANCH   5   6
ATOM      6  O   UNL A   1      31.505  23.090  25.653  1.00  0.00    -0.463 OA
BRANCH   6   7
ATOM      7  C   UNL A   1      32.281  23.775  26.529  1.00  0.00     0.308 C 
ATOM      8  O   UNL A   1      31.849  24.640  27.283  1.00  0.00    -0.252 OA
BRANCH   7   9
ATOM      9  C   UNL A   1      33.777  23.488  26.419  1.00  0.00     0.151 C 
BRANCH   9  10
ATOM     10  C   UNL A   1      34.319  22.224  25.710  1.00  0.00     0.052 C 
ATOM     11  C   UNL A   1      35.857  21.954  25.824  1.00  0.00     0.029 C 
ATOM     12  C   UNL A   1      34.659  22.390  24.165  1.00  0.00     0.029 C 
ATOM     13  C   UNL A   1      36.073  22.806  24.572  1.00  0.00     0.005 C 
BRANCH  10  14
ATOM     14  N   UNL A   1      33.415  21.073  25.980  1.00  0.00    -0.332 N 
ATOM     15  C   UNL A   1      33.057  19.840  25.593  1.00  0.00     0.318 C 
ATOM     16  O   UNL A   1      32.024  19.454  26.157  1.00  0.00    -0.249 OA
ATOM     17  H   UNL A   1      32.856  21.313  26.754  1.00  0.00     0.165 HD
BRANCH  15  18
ATOM     18  N   UNL A   1      33.696  19.047  24.702  1.00  0.00    -0.304 N 
ATOM     19  C   UNL A   1      35.956  18.054  24.381  1.00  0.00     0.042 C 
ATOM     20  C   UNL A   1      34.553  17.897  24.984  1.00  0.00     0.174 C 
ATOM     21  C   UNL A   1      33.915  16.596  24.478  1.00  0.00     0.249 C 
ATOM     22  O   UNL A   1      34.291  15.492  24.871  1.00  0.00    -0.272 OA
ATOM     23  N   UNL A   1      33.025  16.698  23.442  1.00  0.00    -0.293 N 
ATOM     24  C   UNL A   1      33.269  19.147  23.291  1.00  0.00     0.222 C 
ATOM     25  C   UNL A   1      32.670  17.842  22.773  1.00  0.00     0.246 C 
ATOM     26  H   UNL A   1      32.597  15.862  23.146  1.00  0.00     0.173 HD
ATOM     27  O   UNL A   1      32.039  17.771  21.720  1.00  0.00    -0.273 OA
ENDBRANCH  15  18
ENDBRANCH  10  14
ENDBRANCH   9  10
ENDBRANCH   7   9
ENDBRANCH   6   7
ENDBRANCH   5   6
ENDBRANCH   4   5
ENDBRANCH   3   4
ENDBRANCH   2   3
ENDBRANCH   1   2
BRANCH   1  28
ATOM     28  O   UNL A   1      33.895  26.513  24.618  1.00  0.00    -0.377 OA
BRANCH  28  29
ATOM     29  C   UNL A   1      33.614  27.888  24.783  1.00  0.00     0.188 C 
BRANCH  29  30
ATOM     30  C   UNL A   1      33.722  28.401  26.227  1.00  0.00     0.188 C 
BRANCH  30  31
ATOM     31  O   UNL A   1      34.098  29.772  26.298  1.00  0.00    -0.376 OA
BRANCH  31  32
ATOM     32  C   UNL A   1      33.742  30.528  27.444  1.00  0.00     0.202 C 
BRANCH  32  33
ATOM     33  C   UNL A   1      34.814  30.734  28.527  1.00  0.00     0.261 C 
BRANCH  33  34
ATOM     34  O   UNL A   1      35.920  29.821  28.522  1.00  0.00    -0.460 OA
BRANCH  34  35
ATOM     35  C   UNL A   1      36.594  29.649  29.678  1.00  0.00     0.338 C 
ATOM     36  O   UNL A   1      36.123  29.404  30.776  1.00  0.00    -0.246 OA
BRANCH  35  37
ATOM     37  C   UNL A   1      38.035  29.601  29.349  1.00  0.00     0.060 A 
ATOM     38  C   UNL A   1      38.410  29.531  28.000  1.00  0.00     0.016 A 
ATOM     39  C   UNL A   1      39.006  29.674  30.351  1.00  0.00     0.016 A 
ATOM     40  C   UNL A   1      39.760  29.515  27.650  1.00  0.00     0.010 A 
ATOM     41  C   UNL A   1      40.358  29.618  30.003  1.00  0.00     0.010 A 
ATOM     42  C   UNL A   1      40.737  29.505  28.653  1.00  0.00    -0.014 A 
BRANCH  42  43
ATOM     43  C   UNL A   1      42.120  29.110  28.303  1.00  0.00     0.031 A 
ATOM     44  C   UNL A   1      42.369  27.662  27.982  1.00  0.00     0.074 A 
ATOM     45  C   UNL A   1      43.121  30.003  28.232  1.00  0.00     0.049 A 
ATOM     46  N   UNL A   1      43.482  27.060  27.653  1.00  0.00    -0.248 NA
ATOM     47  C   UNL A   1      41.195  26.774  28.039  1.00  0.00     0.031 C 
ATOM     48  C   UNL A   1      42.994  31.442  28.457  1.00  0.00     0.029 A 
ATOM     49  N   UNL A   1      44.449  29.821  27.942  1.00  0.00    -0.354 N 
ATOM     50  C   UNL A   1      43.142  25.725  27.468  1.00  0.00     0.074 A 
ATOM     51  C   UNL A   1      41.732  25.598  27.756  1.00  0.00     0.031 C 
ATOM     52  C   UNL A   1      44.201  32.013  28.298  1.00  0.00     0.029 A 
ATOM     53  C   UNL A   1      45.188  30.977  27.993  1.00  0.00     0.049 A 
ATOM     54  H   UNL A   1      44.837  28.944  27.718  1.00  0.00     0.167 HD
ATOM     55  C   UNL A   1      43.932  24.694  27.087  1.00  0.00     0.031 A 
ATOM     56  C   UNL A   1      46.511  31.168  27.827  1.00  0.00     0.031 A 
ATOM     57  C   UNL A   1      45.342  24.814  26.838  1.00  0.00     0.049 A 
ATOM     58  C   UNL A   1      47.393  29.987  27.512  1.00  0.00     0.074 A 
ATOM     59  C   UNL A   1      46.237  23.833  26.453  1.00  0.00     0.029 A 
ATOM     60  N   UNL A   1      46.065  25.991  26.966  1.00  0.00    -0.354 N 
ATOM     61  N   UNL A   1      47.062  28.732  27.320  1.00  0.00    -0.248 NA
ATOM     62  C   UNL A   1      48.833  30.254  27.381  1.00  0.00     0.031 C 
ATOM     63  C   UNL A   1      47.514  24.403  26.413  1.00  0.00     0.029 A 
ATOM     64  C   UNL A   1      47.402  25.755  26.699  1.00  0.00     0.049 A 
ATOM     65  H   UNL A   1      45.683  26.865  27.210  1.00  0.00     0.167 HD
ATOM     66  C   UNL A   1      48.243  28.068  27.013  1.00  0.00     0.074 A 
ATOM     67  C   UNL A   1      49.298  29.061  27.034  1.00  0.00     0.031 C 
ATOM     68  C   UNL A   1      48.439  26.755  26.730  1.00  0.00     0.031 A 
BRANCH  55  69
ATOM     69  C   UNL A   1      43.282  23.343  26.976  1.00  0.00    -0.014 A 
ATOM     70  C   UNL A   1      42.898  22.616  28.116  1.00  0.00     0.009 A 
ATOM     71  C   UNL A   1      43.067  22.777  25.709  1.00  0.00     0.009 A 
ATOM     72  C   UNL A   1      42.362  21.333  27.990  1.00  0.00     0.001 A 
ATOM     73  C   UNL A   1      42.499  21.509  25.585  1.00  0.00     0.001 A 
ATOM     74  C   UNL A   1      42.159  20.782  26.725  1.00  0.00     0.000 A 
ENDBRANCH  55  69
BRANCH  56  75
ATOM     75  C   UNL A   1      47.090  32.532  27.962  1.00  0.00    -0.014 A 
ATOM     76  C   UNL A   1      47.200  33.376  26.846  1.00  0.00     0.009 A 
ATOM     77  C   UNL A   1      47.549  32.993  29.206  1.00  0.00     0.009 A 
ATOM     78  C   UNL A   1      47.772  34.644  26.971  1.00  0.00     0.001 A 
ATOM     79  C   UNL A   1      48.094  34.273  29.333  1.00  0.00     0.001 A 
ATOM     80  C   UNL A   1      48.213  35.094  28.215  1.00  0.00     0.000 A 
ENDBRANCH  56  75
BRANCH  68  81
ATOM     81  C   UNL A   1      49.836  26.323  26.375  1.00  0.00    -0.014 A 
ATOM     82  C   UNL A   1      50.358  26.508  25.085  1.00  0.00     0.009 A 
ATOM     83  C   UNL A   1      50.659  25.765  27.366  1.00  0.00     0.009 A 
ATOM     84  C   UNL A   1      51.664  26.110  24.789  1.00  0.00     0.001 A 
ATOM     85  C   UNL A   1      51.974  25.399  27.077  1.00  0.00     0.001 A 
ATOM     86  C   UNL A   1      52.472  25.562  25.785  1.00  0.00     0.000 A 
ENDBRANCH  68  81
ENDBRANCH  42  43
ENDBRANCH  35  37
ENDBRANCH  34  35
ENDBRANCH  33  34
ENDBRANCH  32  33
ENDBRANCH  31  32
ENDBRANCH  30  31
ENDBRANCH  29  30
ENDBRANCH  28  29
ENDBRANCH   1  28
TORSDOF 23
ENDMDL
