MODEL 1
REMARK VINA RESULT:      -8.9      0.000      0.000
REMARK SMILES C[C@H](C(=O)OCCOCCOCCOCCOC(=O)c1ccc(-c2c3nc(c(-c4ccccc4)c4ccc([nH]4)c(-c4ccccc4)c4nc(c(-c5ccccc5)c5ccc2[nH]5)C=C4)C=C3)cc1)[C@H](C)[NH+]1CC[NH+](CCO)CC1
REMARK SMILES IDX 9 1 8 2 7 3 6 4 5 5 3 6 4 7 2 8 1 9 68 10 69 11 70 12 71 13
REMARK SMILES IDX 78 14 72 16 77 17 73 18 74 20 75 21 76 22 10 24 11 25 12 26
REMARK SMILES IDX 13 27 14 28 15 29 16 30 17 31 18 32 19 33 20 34 21 35 67 36
REMARK SMILES IDX 22 37 66 38 23 39 24 40 25 41 60 42 26 43 65 44 59 45 61 46
REMARK SMILES IDX 27 47 64 48 58 49 57 50 28 52 50 53 35 54 49 55 36 56 39 57
REMARK SMILES IDX 48 58 62 59 37 60 38 61 47 63 63 64 40 65 29 66 30 67 34 68
REMARK SMILES IDX 31 69 33 70 32 71 51 72 52 73 56 74 53 75 55 76 54 77 41 78
REMARK SMILES IDX 42 79 46 80 43 81 45 82 44 83
REMARK H PARENT 70 15 73 19 76 23 61 51 39 62
REMARK Flexibility Score: inf
ROOT
ATOM      1  C   UNL A   1      35.343  33.065  27.849  1.00  0.00     0.188 C 
ENDROOT
BRANCH   1   2
ATOM      2  O   UNL A   1      34.420  32.010  28.068  1.00  0.00    -0.376 OA
BRANCH   2   3
ATOM      3  C   UNL A   1      34.829  30.671  27.806  1.00  0.00     0.202 C 
BRANCH   3   4
ATOM      4  C   UNL A   1      33.997  29.790  26.850  1.00  0.00     0.261 C 
BRANCH   4   5
ATOM      5  O   UNL A   1      32.633  29.642  27.274  1.00  0.00    -0.463 OA
BRANCH   5   6
ATOM      6  C   UNL A   1      32.135  28.376  27.279  1.00  0.00     0.314 C 
ATOM      7  O   UNL A   1      31.451  27.912  28.186  1.00  0.00    -0.252 OA
BRANCH   6   8
ATOM      8  C   UNL A   1      32.316  27.653  25.936  1.00  0.00     0.154 C 
ATOM      9  C   UNL A   1      33.328  26.526  26.186  1.00  0.00     0.026 C 
BRANCH   8  10
ATOM     10  C   UNL A   1      31.037  27.503  25.013  1.00  0.00     0.195 C 
ATOM     11  C   UNL A   1      30.198  26.237  25.288  1.00  0.00     0.076 C 
BRANCH  10  12
ATOM     12  N   UNL A   1      30.941  27.691  23.545  1.00  0.00    -0.323 N 
ATOM     13  C   UNL A   1      29.589  27.449  22.999  1.00  0.00     0.324 C 
ATOM     14  C   UNL A   1      31.512  28.832  22.847  1.00  0.00     0.324 C 
ATOM     15  H   UNL A   1      31.619  26.958  23.337  1.00  0.00     0.348 HD
ATOM     16  C   UNL A   1      28.664  28.688  23.071  1.00  0.00     0.324 C 
ATOM     17  C   UNL A   1      30.655  30.114  22.916  1.00  0.00     0.324 C 
ATOM     18  N   UNL A   1      29.234  29.955  22.606  1.00  0.00    -0.324 N 
ATOM     19  H   UNL A   1      28.739  30.617  23.204  1.00  0.00     0.348 HD
BRANCH  18  20
ATOM     20  C   UNL A   1      28.821  30.472  21.305  1.00  0.00     0.291 C 
BRANCH  20  21
ATOM     21  C   UNL A   1      27.781  31.604  21.278  1.00  0.00     0.217 C 
BRANCH  21  22
ATOM     22  O   UNL A   1      27.955  32.546  22.328  1.00  0.00    -0.391 OA
ATOM     23  H   UNL A   1      28.736  33.092  22.146  1.00  0.00     0.210 HD
ENDBRANCH  21  22
ENDBRANCH  20  21
ENDBRANCH  18  20
ENDBRANCH  10  12
ENDBRANCH   8  10
ENDBRANCH   6   8
ENDBRANCH   5   6
ENDBRANCH   4   5
ENDBRANCH   3   4
ENDBRANCH   2   3
ENDBRANCH   1   2
BRANCH   1  24
ATOM     24  C   UNL A   1      34.939  34.489  28.188  1.00  0.00     0.188 C 
BRANCH  24  25
ATOM     25  O   UNL A   1      33.543  34.681  28.362  1.00  0.00    -0.377 OA
BRANCH  25  26
ATOM     26  C   UNL A   1      33.083  35.836  29.050  1.00  0.00     0.188 C 
BRANCH  26  27
ATOM     27  C   UNL A   1      32.762  35.697  30.543  1.00  0.00     0.188 C 
BRANCH  27  28
ATOM     28  O   UNL A   1      33.796  35.763  31.523  1.00  0.00    -0.376 OA
BRANCH  28  29
ATOM     29  C   UNL A   1      34.020  34.686  32.419  1.00  0.00     0.202 C 
BRANCH  29  30
ATOM     30  C   UNL A   1      34.476  33.369  31.784  1.00  0.00     0.261 C 
BRANCH  30  31
ATOM     31  O   UNL A   1      34.920  32.383  32.718  1.00  0.00    -0.460 OA
BRANCH  31  32
ATOM     32  C   UNL A   1      36.188  32.542  33.155  1.00  0.00     0.338 C 
ATOM     33  O   UNL A   1      36.590  33.217  34.092  1.00  0.00    -0.246 OA
BRANCH  32  34
ATOM     34  C   UNL A   1      37.060  31.686  32.344  1.00  0.00     0.060 A 
ATOM     35  C   UNL A   1      37.982  30.845  32.980  1.00  0.00     0.016 A 
ATOM     36  C   UNL A   1      37.014  31.782  30.953  1.00  0.00     0.016 A 
ATOM     37  C   UNL A   1      38.894  30.123  32.220  1.00  0.00     0.010 A 
ATOM     38  C   UNL A   1      37.943  31.078  30.193  1.00  0.00     0.010 A 
ATOM     39  C   UNL A   1      38.910  30.283  30.830  1.00  0.00    -0.014 A 
BRANCH  39  40
ATOM     40  C   UNL A   1      40.076  29.804  30.063  1.00  0.00     0.031 A 
ATOM     41  C   UNL A   1      41.219  30.754  29.850  1.00  0.00     0.074 A 
ATOM     42  C   UNL A   1      40.115  28.550  29.586  1.00  0.00     0.049 A 
ATOM     43  N   UNL A   1      42.319  30.587  29.164  1.00  0.00    -0.248 NA
ATOM     44  C   UNL A   1      41.105  32.074  30.496  1.00  0.00     0.031 C 
ATOM     45  C   UNL A   1      39.085  27.533  29.790  1.00  0.00     0.029 A 
ATOM     46  N   UNL A   1      41.066  27.925  28.825  1.00  0.00    -0.354 N 
ATOM     47  C   UNL A   1      43.018  31.781  29.283  1.00  0.00     0.074 A 
ATOM     48  C   UNL A   1      42.211  32.674  30.083  1.00  0.00     0.031 C 
ATOM     49  C   UNL A   1      39.459  26.407  29.160  1.00  0.00     0.029 A 
ATOM     50  C   UNL A   1      40.728  26.642  28.477  1.00  0.00     0.049 A 
ATOM     51  H   UNL A   1      41.909  28.355  28.554  1.00  0.00     0.167 HD
ATOM     52  C   UNL A   1      44.227  32.103  28.769  1.00  0.00     0.031 A 
ATOM     53  C   UNL A   1      41.367  25.771  27.672  1.00  0.00     0.031 A 
ATOM     54  C   UNL A   1      45.011  31.212  27.957  1.00  0.00     0.049 A 
ATOM     55  C   UNL A   1      42.666  26.188  27.036  1.00  0.00     0.074 A 
ATOM     56  C   UNL A   1      46.255  31.427  27.392  1.00  0.00     0.029 A 
ATOM     57  N   UNL A   1      44.616  29.935  27.586  1.00  0.00    -0.354 N 
ATOM     58  N   UNL A   1      43.333  27.310  27.170  1.00  0.00    -0.248 NA
ATOM     59  C   UNL A   1      43.305  25.212  26.142  1.00  0.00     0.031 C 
ATOM     60  C   UNL A   1      46.581  30.306  26.623  1.00  0.00     0.029 A 
ATOM     61  C   UNL A   1      45.576  29.363  26.771  1.00  0.00     0.049 A 
ATOM     62  H   UNL A   1      43.776  29.500  27.863  1.00  0.00     0.167 HD
ATOM     63  C   UNL A   1      44.484  27.162  26.406  1.00  0.00     0.074 A 
ATOM     64  C   UNL A   1      44.430  25.835  25.824  1.00  0.00     0.031 C 
ATOM     65  C   UNL A   1      45.498  28.041  26.204  1.00  0.00     0.031 A 
BRANCH  52  66
ATOM     66  C   UNL A   1      44.743  33.491  29.025  1.00  0.00    -0.014 A 
ATOM     67  C   UNL A   1      45.636  33.765  30.074  1.00  0.00     0.009 A 
ATOM     68  C   UNL A   1      44.342  34.544  28.185  1.00  0.00     0.009 A 
ATOM     69  C   UNL A   1      46.086  35.069  30.298  1.00  0.00     0.001 A 
ATOM     70  C   UNL A   1      44.819  35.839  28.391  1.00  0.00     0.001 A 
ATOM     71  C   UNL A   1      45.682  36.102  29.453  1.00  0.00     0.000 A 
ENDBRANCH  52  66
BRANCH  53  72
ATOM     72  C   UNL A   1      40.780  24.431  27.406  1.00  0.00    -0.014 A 
ATOM     73  C   UNL A   1      41.355  23.276  27.955  1.00  0.00     0.009 A 
ATOM     74  C   UNL A   1      39.650  24.299  26.582  1.00  0.00     0.009 A 
ATOM     75  C   UNL A   1      40.829  22.015  27.663  1.00  0.00     0.001 A 
ATOM     76  C   UNL A   1      39.106  23.041  26.319  1.00  0.00     0.001 A 
ATOM     77  C   UNL A   1      39.702  21.899  26.849  1.00  0.00     0.000 A 
ENDBRANCH  53  72
BRANCH  65  78
ATOM     78  C   UNL A   1      46.652  27.576  25.359  1.00  0.00    -0.014 A 
ATOM     79  C   UNL A   1      47.610  26.677  25.851  1.00  0.00     0.009 A 
ATOM     80  C   UNL A   1      46.752  28.014  24.028  1.00  0.00     0.009 A 
ATOM     81  C   UNL A   1      48.665  26.256  25.040  1.00  0.00     0.001 A 
ATOM     82  C   UNL A   1      47.786  27.563  23.208  1.00  0.00     0.001 A 
ATOM     83  C   UNL A   1      48.749  26.694  23.719  1.00  0.00     0.000 A 
ENDBRANCH  65  78
ENDBRANCH  39  40
ENDBRANCH  32  34
ENDBRANCH  31  32
ENDBRANCH  30  31
ENDBRANCH  29  30
ENDBRANCH  28  29
ENDBRANCH  27  28
ENDBRANCH  26  27
ENDBRANCH  25  26
ENDBRANCH  24  25
ENDBRANCH   1  24
TORSDOF 25
ENDMDL
MODEL 2
REMARK VINA RESULT:      -8.8      4.161      6.121
REMARK SMILES C[C@H](C(=O)OCCOCCOCCOCCOC(=O)c1ccc(-c2c3nc(c(-c4ccccc4)c4ccc([nH]4)c(-c4ccccc4)c4nc(c(-c5ccccc5)c5ccc2[nH]5)C=C4)C=C3)cc1)[C@H](C)[NH+]1CC[NH+](CCO)CC1
REMARK SMILES IDX 9 1 8 2 7 3 6 4 5 5 3 6 4 7 2 8 1 9 68 10 69 11 70 12 71 13
REMARK SMILES IDX 78 14 72 16 77 17 73 18 74 20 75 21 76 22 10 24 11 25 12 26
REMARK SMILES IDX 13 27 14 28 15 29 16 30 17 31 18 32 19 33 20 34 21 35 67 36
REMARK SMILES IDX 22 37 66 38 23 39 24 40 25 41 60 42 26 43 65 44 59 45 61 46
REMARK SMILES IDX 27 47 64 48 58 49 57 50 28 52 50 53 35 54 49 55 36 56 39 57
REMARK SMILES IDX 48 58 62 59 37 60 38 61 47 63 63 64 40 65 29 66 30 67 34 68
REMARK SMILES IDX 31 69 33 70 32 71 51 72 52 73 56 74 53 75 55 76 54 77 41 78
REMARK SMILES IDX 42 79 46 80 43 81 45 82 44 83
REMARK H PARENT 70 15 73 19 76 23 61 51 39 62
REMARK Flexibility Score: inf
ROOT
ATOM      1  C   UNL A   1      33.988  30.717  27.676  1.00  0.00     0.188 C 
ENDROOT
BRANCH   1   2
ATOM      2  O   UNL A   1      32.759  31.163  27.125  1.00  0.00    -0.376 OA
BRANCH   2   3
ATOM      3  C   UNL A   1      32.096  30.343  26.167  1.00  0.00     0.202 C 
BRANCH   3   4
ATOM      4  C   UNL A   1      31.849  28.852  26.477  1.00  0.00     0.261 C 
BRANCH   4   5
ATOM      5  O   UNL A   1      31.894  28.024  25.304  1.00  0.00    -0.463 OA
BRANCH   5   6
ATOM      6  C   UNL A   1      32.786  26.997  25.322  1.00  0.00     0.314 C 
ATOM      7  O   UNL A   1      33.726  26.918  26.106  1.00  0.00    -0.252 OA
BRANCH   6   8
ATOM      8  C   UNL A   1      32.371  25.825  24.419  1.00  0.00     0.154 C 
ATOM      9  C   UNL A   1      33.458  25.705  23.342  1.00  0.00     0.026 C 
BRANCH   8  10
ATOM     10  C   UNL A   1      31.675  24.583  25.114  1.00  0.00     0.195 C 
ATOM     11  C   UNL A   1      30.356  24.917  25.843  1.00  0.00     0.076 C 
BRANCH  10  12
ATOM     12  N   UNL A   1      32.302  23.538  25.959  1.00  0.00    -0.323 N 
ATOM     13  C   UNL A   1      31.558  22.260  25.980  1.00  0.00     0.324 C 
ATOM     14  C   UNL A   1      33.723  23.231  25.928  1.00  0.00     0.324 C 
ATOM     15  H   UNL A   1      32.226  24.086  26.816  1.00  0.00     0.348 HD
ATOM     16  C   UNL A   1      31.916  21.319  24.804  1.00  0.00     0.324 C 
ATOM     17  C   UNL A   1      34.153  22.327  24.752  1.00  0.00     0.324 C 
ATOM     18  N   UNL A   1      33.343  21.128  24.534  1.00  0.00    -0.324 N 
ATOM     19  H   UNL A   1      33.328  20.979  23.525  1.00  0.00     0.348 HD
BRANCH  18  20
ATOM     20  C   UNL A   1      33.970  19.874  24.940  1.00  0.00     0.291 C 
BRANCH  20  21
ATOM     21  C   UNL A   1      33.060  18.658  25.177  1.00  0.00     0.217 C 
BRANCH  21  22
ATOM     22  O   UNL A   1      32.616  18.549  26.523  1.00  0.00    -0.391 OA
ATOM     23  H   UNL A   1      32.839  17.669  26.866  1.00  0.00     0.210 HD
ENDBRANCH  21  22
ENDBRANCH  20  21
ENDBRANCH  18  20
ENDBRANCH  10  12
ENDBRANCH   8  10
ENDBRANCH   6   8
ENDBRANCH   5   6
ENDBRANCH   4   5
ENDBRANCH   3   4
ENDBRANCH   2   3
ENDBRANCH   1   2
BRANCH   1  24
ATOM     24  C   UNL A   1      34.732  31.610  28.655  1.00  0.00     0.188 C 
BRANCH  24  25
ATOM     25  O   UNL A   1      35.709  32.451  28.060  1.00  0.00    -0.377 OA
BRANCH  25  26
ATOM     26  C   UNL A   1      35.410  33.826  27.864  1.00  0.00     0.188 C 
BRANCH  26  27
ATOM     27  C   UNL A   1      34.078  34.353  28.411  1.00  0.00     0.188 C 
BRANCH  27  28
ATOM     28  O   UNL A   1      33.956  35.697  28.871  1.00  0.00    -0.376 OA
BRANCH  28  29
ATOM     29  C   UNL A   1      32.819  36.113  29.611  1.00  0.00     0.202 C 
BRANCH  29  30
ATOM     30  C   UNL A   1      33.094  36.647  31.020  1.00  0.00     0.261 C 
BRANCH  30  31
ATOM     31  O   UNL A   1      34.156  35.984  31.708  1.00  0.00    -0.460 OA
BRANCH  31  32
ATOM     32  C   UNL A   1      33.827  34.791  32.249  1.00  0.00     0.338 C 
ATOM     33  O   UNL A   1      32.783  34.466  32.796  1.00  0.00    -0.246 OA
BRANCH  32  34
ATOM     34  C   UNL A   1      34.937  33.862  32.012  1.00  0.00     0.060 A 
ATOM     35  C   UNL A   1      34.866  32.560  32.524  1.00  0.00     0.016 A 
ATOM     36  C   UNL A   1      36.081  34.314  31.352  1.00  0.00     0.016 A 
ATOM     37  C   UNL A   1      35.961  31.714  32.409  1.00  0.00     0.010 A 
ATOM     38  C   UNL A   1      37.187  33.476  31.260  1.00  0.00     0.010 A 
ATOM     39  C   UNL A   1      37.141  32.191  31.828  1.00  0.00    -0.014 A 
BRANCH  39  40
ATOM     40  C   UNL A   1      38.395  31.436  32.014  1.00  0.00     0.031 A 
ATOM     41  C   UNL A   1      39.283  31.815  33.165  1.00  0.00     0.074 A 
ATOM     42  C   UNL A   1      38.719  30.428  31.189  1.00  0.00     0.049 A 
ATOM     43  N   UNL A   1      40.454  31.342  33.498  1.00  0.00    -0.248 NA
ATOM     44  C   UNL A   1      38.782  32.874  34.059  1.00  0.00     0.031 C 
ATOM     45  C   UNL A   1      37.897  29.943  30.081  1.00  0.00     0.029 A 
ATOM     46  N   UNL A   1      39.836  29.637  31.158  1.00  0.00    -0.354 N 
ATOM     47  C   UNL A   1      40.837  32.056  34.628  1.00  0.00     0.074 A 
ATOM     48  C   UNL A   1      39.788  33.009  34.909  1.00  0.00     0.031 C 
ATOM     49  C   UNL A   1      38.545  28.936  29.472  1.00  0.00     0.029 A 
ATOM     50  C   UNL A   1      39.839  28.740  30.120  1.00  0.00     0.049 A 
ATOM     51  H   UNL A   1      40.564  29.706  31.816  1.00  0.00     0.167 HD
ATOM     52  C   UNL A   1      41.964  31.925  35.364  1.00  0.00     0.031 A 
ATOM     53  C   UNL A   1      40.798  27.880  29.729  1.00  0.00     0.031 A 
ATOM     54  C   UNL A   1      43.009  30.985  35.061  1.00  0.00     0.049 A 
ATOM     55  C   UNL A   1      42.084  27.819  30.510  1.00  0.00     0.074 A 
ATOM     56  C   UNL A   1      44.190  30.757  35.744  1.00  0.00     0.029 A 
ATOM     57  N   UNL A   1      42.999  30.123  33.974  1.00  0.00    -0.354 N 
ATOM     58  N   UNL A   1      42.430  28.480  31.589  1.00  0.00    -0.248 NA
ATOM     59  C   UNL A   1      43.109  26.887  30.021  1.00  0.00     0.031 C 
ATOM     60  C   UNL A   1      44.926  29.806  35.030  1.00  0.00     0.029 A 
ATOM     61  C   UNL A   1      44.169  29.386  33.946  1.00  0.00     0.049 A 
ATOM     62  H   UNL A   1      42.268  30.048  33.319  1.00  0.00     0.167 HD
ATOM     63  C   UNL A   1      43.696  28.019  31.927  1.00  0.00     0.074 A 
ATOM     64  C   UNL A   1      44.049  27.012  30.946  1.00  0.00     0.031 C 
ATOM     65  C   UNL A   1      44.497  28.390  32.959  1.00  0.00     0.031 A 
BRANCH  52  66
ATOM     66  C   UNL A   1      42.144  32.857  36.529  1.00  0.00    -0.014 A 
ATOM     67  C   UNL A   1      41.698  32.521  37.818  1.00  0.00     0.009 A 
ATOM     68  C   UNL A   1      42.792  34.088  36.336  1.00  0.00     0.009 A 
ATOM     69  C   UNL A   1      41.865  33.414  38.879  1.00  0.00     0.001 A 
ATOM     70  C   UNL A   1      42.986  34.964  37.405  1.00  0.00     0.001 A 
ATOM     71  C   UNL A   1      42.513  34.631  38.673  1.00  0.00     0.000 A 
ENDBRANCH  52  66
BRANCH  53  72
ATOM     72  C   UNL A   1      40.590  27.024  28.531  1.00  0.00    -0.014 A 
ATOM     73  C   UNL A   1      39.971  25.770  28.646  1.00  0.00     0.009 A 
ATOM     74  C   UNL A   1      41.029  27.449  27.266  1.00  0.00     0.009 A 
ATOM     75  C   UNL A   1      39.821  24.949  27.526  1.00  0.00     0.001 A 
ATOM     76  C   UNL A   1      40.848  26.640  26.143  1.00  0.00     0.001 A 
ATOM     77  C   UNL A   1      40.255  25.386  26.275  1.00  0.00     0.000 A 
ENDBRANCH  53  72
BRANCH  65  78
ATOM     78  C   UNL A   1      45.809  27.670  33.103  1.00  0.00    -0.014 A 
ATOM     79  C   UNL A   1      46.988  28.165  32.526  1.00  0.00     0.009 A 
ATOM     80  C   UNL A   1      45.871  26.497  33.874  1.00  0.00     0.009 A 
ATOM     81  C   UNL A   1      48.194  27.480  32.685  1.00  0.00     0.001 A 
ATOM     82  C   UNL A   1      47.083  25.834  34.062  1.00  0.00     0.001 A 
ATOM     83  C   UNL A   1      48.242  26.320  33.457  1.00  0.00     0.000 A 
ENDBRANCH  65  78
ENDBRANCH  39  40
ENDBRANCH  32  34
ENDBRANCH  31  32
ENDBRANCH  30  31
ENDBRANCH  29  30
ENDBRANCH  28  29
ENDBRANCH  27  28
ENDBRANCH  26  27
ENDBRANCH  25  26
ENDBRANCH  24  25
ENDBRANCH   1  24
TORSDOF 25
ENDMDL
MODEL 3
REMARK VINA RESULT:      -8.4      1.869      3.247
REMARK SMILES C[C@H](C(=O)OCCOCCOCCOCCOC(=O)c1ccc(-c2c3nc(c(-c4ccccc4)c4ccc([nH]4)c(-c4ccccc4)c4nc(c(-c5ccccc5)c5ccc2[nH]5)C=C4)C=C3)cc1)[C@H](C)[NH+]1CC[NH+](CCO)CC1
REMARK SMILES IDX 9 1 8 2 7 3 6 4 5 5 3 6 4 7 2 8 1 9 68 10 69 11 70 12 71 13
REMARK SMILES IDX 78 14 72 16 77 17 73 18 74 20 75 21 76 22 10 24 11 25 12 26
REMARK SMILES IDX 13 27 14 28 15 29 16 30 17 31 18 32 19 33 20 34 21 35 67 36
REMARK SMILES IDX 22 37 66 38 23 39 24 40 25 41 60 42 26 43 65 44 59 45 61 46
REMARK SMILES IDX 27 47 64 48 58 49 57 50 28 52 50 53 35 54 49 55 36 56 39 57
REMARK SMILES IDX 48 58 62 59 37 60 38 61 47 63 63 64 40 65 29 66 30 67 34 68
REMARK SMILES IDX 31 69 33 70 32 71 51 72 52 73 56 74 53 75 55 76 54 77 41 78
REMARK SMILES IDX 42 79 46 80 43 81 45 82 44 83
REMARK H PARENT 70 15 73 19 76 23 61 51 39 62
REMARK Flexibility Score: inf
ROOT
ATOM      1  C   UNL A   1      34.553  32.075  28.191  1.00  0.00     0.188 C 
ENDROOT
BRANCH   1   2
ATOM      2  O   UNL A   1      33.776  30.888  28.151  1.00  0.00    -0.376 OA
BRANCH   2   3
ATOM      3  C   UNL A   1      33.774  30.105  26.961  1.00  0.00     0.202 C 
BRANCH   3   4
ATOM      4  C   UNL A   1      32.605  30.233  25.963  1.00  0.00     0.261 C 
BRANCH   4   5
ATOM      5  O   UNL A   1      31.634  29.184  26.104  1.00  0.00    -0.463 OA
BRANCH   5   6
ATOM      6  C   UNL A   1      32.123  27.921  26.235  1.00  0.00     0.314 C 
ATOM      7  O   UNL A   1      32.241  27.339  27.309  1.00  0.00    -0.252 OA
BRANCH   6   8
ATOM      8  C   UNL A   1      32.298  27.202  24.889  1.00  0.00     0.154 C 
ATOM      9  C   UNL A   1      33.756  27.427  24.466  1.00  0.00     0.026 C 
BRANCH   8  10
ATOM     10  C   UNL A   1      31.521  25.835  24.688  1.00  0.00     0.195 C 
ATOM     11  C   UNL A   1      30.001  25.992  24.472  1.00  0.00     0.076 C 
BRANCH  10  12
ATOM     12  N   UNL A   1      31.649  24.586  25.479  1.00  0.00    -0.323 N 
ATOM     13  C   UNL A   1      31.117  23.389  24.793  1.00  0.00     0.324 C 
ATOM     14  C   UNL A   1      32.865  24.203  26.177  1.00  0.00     0.324 C 
ATOM     15  H   UNL A   1      31.067  24.928  26.244  1.00  0.00     0.348 HD
ATOM     16  C   UNL A   1      32.139  22.720  23.842  1.00  0.00     0.324 C 
ATOM     17  C   UNL A   1      33.943  23.566  25.275  1.00  0.00     0.324 C 
ATOM     18  N   UNL A   1      33.485  22.503  24.379  1.00  0.00    -0.324 N 
ATOM     19  H   UNL A   1      34.045  22.589  23.531  1.00  0.00     0.348 HD
BRANCH  18  20
ATOM     20  C   UNL A   1      33.873  21.151  24.771  1.00  0.00     0.291 C 
BRANCH  20  21
ATOM     21  C   UNL A   1      32.774  20.209  25.289  1.00  0.00     0.217 C 
BRANCH  21  22
ATOM     22  O   UNL A   1      33.007  19.759  26.617  1.00  0.00    -0.391 OA
ATOM     23  H   UNL A   1      33.098  18.793  26.619  1.00  0.00     0.210 HD
ENDBRANCH  21  22
ENDBRANCH  20  21
ENDBRANCH  18  20
ENDBRANCH  10  12
ENDBRANCH   8  10
ENDBRANCH   6   8
ENDBRANCH   5   6
ENDBRANCH   4   5
ENDBRANCH   3   4
ENDBRANCH   2   3
ENDBRANCH   1   2
BRANCH   1  24
ATOM     24  C   UNL A   1      34.321  33.078  29.308  1.00  0.00     0.188 C 
BRANCH  24  25
ATOM     25  O   UNL A   1      33.481  34.168  28.956  1.00  0.00    -0.377 OA
BRANCH  25  26
ATOM     26  C   UNL A   1      33.630  35.404  29.641  1.00  0.00     0.188 C 
BRANCH  26  27
ATOM     27  C   UNL A   1      33.064  35.505  31.063  1.00  0.00     0.188 C 
BRANCH  27  28
ATOM     28  O   UNL A   1      33.929  35.666  32.185  1.00  0.00    -0.376 OA
BRANCH  28  29
ATOM     29  C   UNL A   1      34.194  34.582  33.062  1.00  0.00     0.202 C 
BRANCH  29  30
ATOM     30  C   UNL A   1      34.912  33.379  32.443  1.00  0.00     0.261 C 
BRANCH  30  31
ATOM     31  O   UNL A   1      35.575  32.535  33.385  1.00  0.00    -0.460 OA
BRANCH  31  32
ATOM     32  C   UNL A   1      36.886  32.803  33.566  1.00  0.00     0.338 C 
ATOM     33  O   UNL A   1      37.400  33.587  34.351  1.00  0.00    -0.246 OA
BRANCH  32  34
ATOM     34  C   UNL A   1      37.657  31.920  32.685  1.00  0.00     0.060 A 
ATOM     35  C   UNL A   1      38.572  31.019  33.245  1.00  0.00     0.016 A 
ATOM     36  C   UNL A   1      37.527  32.047  31.302  1.00  0.00     0.016 A 
ATOM     37  C   UNL A   1      39.393  30.266  32.415  1.00  0.00     0.010 A 
ATOM     38  C   UNL A   1      38.367  31.312  30.471  1.00  0.00     0.010 A 
ATOM     39  C   UNL A   1      39.329  30.454  31.030  1.00  0.00    -0.014 A 
BRANCH  39  40
ATOM     40  C   UNL A   1      40.416  29.931  30.180  1.00  0.00     0.031 A 
ATOM     41  C   UNL A   1      41.609  30.810  29.939  1.00  0.00     0.074 A 
ATOM     42  C   UNL A   1      40.343  28.698  29.655  1.00  0.00     0.049 A 
ATOM     43  N   UNL A   1      42.656  30.599  29.186  1.00  0.00    -0.248 NA
ATOM     44  C   UNL A   1      41.621  32.106  30.641  1.00  0.00     0.031 C 
ATOM     45  C   UNL A   1      39.257  27.744  29.878  1.00  0.00     0.029 A 
ATOM     46  N   UNL A   1      41.206  28.043  28.817  1.00  0.00    -0.354 N 
ATOM     47  C   UNL A   1      43.441  31.738  29.311  1.00  0.00     0.074 A 
ATOM     48  C   UNL A   1      42.742  32.648  30.189  1.00  0.00     0.031 C 
ATOM     49  C   UNL A   1      39.518  26.623  29.185  1.00  0.00     0.029 A 
ATOM     50  C   UNL A   1      40.762  26.801  28.440  1.00  0.00     0.049 A 
ATOM     51  H   UNL A   1      42.061  28.426  28.516  1.00  0.00     0.167 HD
ATOM     52  C   UNL A   1      44.640  32.000  28.742  1.00  0.00     0.031 A 
ATOM     53  C   UNL A   1      41.295  25.924  27.569  1.00  0.00     0.031 A 
ATOM     54  C   UNL A   1      45.316  31.093  27.854  1.00  0.00     0.049 A 
ATOM     55  C   UNL A   1      42.584  26.279  26.876  1.00  0.00     0.074 A 
ATOM     56  C   UNL A   1      46.539  31.248  27.228  1.00  0.00     0.029 A 
ATOM     57  N   UNL A   1      44.814  29.862  27.458  1.00  0.00    -0.354 N 
ATOM     58  N   UNL A   1      43.333  27.347  27.015  1.00  0.00    -0.248 NA
ATOM     59  C   UNL A   1      43.105  25.301  25.911  1.00  0.00     0.031 C 
ATOM     60  C   UNL A   1      46.745  30.141  26.400  1.00  0.00     0.029 A 
ATOM     61  C   UNL A   1      45.687  29.261  26.568  1.00  0.00     0.049 A 
ATOM     62  H   UNL A   1      43.963  29.473  27.764  1.00  0.00     0.167 HD
ATOM     63  C   UNL A   1      44.428  27.155  26.182  1.00  0.00     0.074 A 
ATOM     64  C   UNL A   1      44.252  25.861  25.554  1.00  0.00     0.031 C 
ATOM     65  C   UNL A   1      45.488  27.972  25.957  1.00  0.00     0.031 A 
BRANCH  52  66
ATOM     66  C   UNL A   1      45.264  33.338  29.021  1.00  0.00    -0.014 A 
ATOM     67  C   UNL A   1      46.138  33.534  30.102  1.00  0.00     0.009 A 
ATOM     68  C   UNL A   1      44.985  34.421  28.170  1.00  0.00     0.009 A 
ATOM     69  C   UNL A   1      46.690  34.794  30.347  1.00  0.00     0.001 A 
ATOM     70  C   UNL A   1      45.564  35.671  28.399  1.00  0.00     0.001 A 
ATOM     71  C   UNL A   1      46.407  35.859  29.492  1.00  0.00     0.000 A 
ENDBRANCH  52  66
BRANCH  53  72
ATOM     72  C   UNL A   1      40.604  24.639  27.285  1.00  0.00    -0.014 A 
ATOM     73  C   UNL A   1      41.089  23.433  27.812  1.00  0.00     0.009 A 
ATOM     74  C   UNL A   1      39.463  24.609  26.466  1.00  0.00     0.009 A 
ATOM     75  C   UNL A   1      40.464  22.222  27.504  1.00  0.00     0.001 A 
ATOM     76  C   UNL A   1      38.821  23.401  26.187  1.00  0.00     0.001 A 
ATOM     77  C   UNL A   1      39.328  22.208  26.696  1.00  0.00     0.000 A 
ENDBRANCH  53  72
BRANCH  65  78
ATOM     78  C   UNL A   1      46.560  27.468  25.030  1.00  0.00    -0.014 A 
ATOM     79  C   UNL A   1      46.838  28.104  23.811  1.00  0.00     0.009 A 
ATOM     80  C   UNL A   1      47.336  26.361  25.411  1.00  0.00     0.009 A 
ATOM     81  C   UNL A   1      47.845  27.619  22.975  1.00  0.00     0.001 A 
ATOM     82  C   UNL A   1      48.365  25.900  24.591  1.00  0.00     0.001 A 
ATOM     83  C   UNL A   1      48.611  26.522  23.368  1.00  0.00     0.000 A 
ENDBRANCH  65  78
ENDBRANCH  39  40
ENDBRANCH  32  34
ENDBRANCH  31  32
ENDBRANCH  30  31
ENDBRANCH  29  30
ENDBRANCH  28  29
ENDBRANCH  27  28
ENDBRANCH  26  27
ENDBRANCH  25  26
ENDBRANCH  24  25
ENDBRANCH   1  24
TORSDOF 25
ENDMDL
