MODEL 1
REMARK VINA RESULT:      -9.6      0.000      0.000
REMARK SMILES Nc1ccc(O)c(C(=O)OCCOCCOCCOCCOC(=O)c2ccc(-c3c4nc(c(-c5ccccc5)c5ccc([nH]5)c(-c5ccccc5)c5nc(c(-c6ccccc6)c6ccc3[nH]6)C=C5)C=C4)cc2)c1
REMARK SMILES IDX 17 1 16 2 15 3 14 4 13 5 12 6 11 7 10 8 8 9 9 10 7 11 2 12
REMARK SMILES IDX 3 13 73 14 4 15 5 16 1 17 6 20 18 22 19 23 20 24 21 25 22 26
REMARK SMILES IDX 23 27 24 28 25 29 26 30 72 31 27 32 71 33 28 34 29 35 30 36
REMARK SMILES IDX 65 37 31 38 70 39 64 40 66 41 32 42 69 43 63 44 62 45 33 47
REMARK SMILES IDX 55 48 40 49 54 50 41 51 44 52 53 53 67 54 42 55 43 56 52 58
REMARK SMILES IDX 68 59 45 60 34 61 35 62 39 63 36 64 38 65 37 66 56 67 57 68
REMARK SMILES IDX 61 69 58 70 60 71 59 72 46 73 47 74 51 75 48 76 50 77 49 78
REMARK H PARENT 1 18 1 19 6 21 66 46 44 57
REMARK Flexibility Score: inf
ROOT
ATOM      1  C   UNL A   1      34.408  33.379  28.974  1.00  0.00     0.188 C 
ENDROOT
BRANCH   1   2
ATOM      2  O   UNL A   1      33.843  32.645  27.889  1.00  0.00    -0.377 OA
BRANCH   2   3
ATOM      3  C   UNL A   1      34.117  31.258  27.748  1.00  0.00     0.188 C 
BRANCH   3   4
ATOM      4  C   UNL A   1      33.007  30.331  27.210  1.00  0.00     0.188 C 
BRANCH   4   5
ATOM      5  O   UNL A   1      33.405  29.561  26.090  1.00  0.00    -0.376 OA
BRANCH   5   6
ATOM      6  C   UNL A   1      33.035  28.199  26.018  1.00  0.00     0.202 C 
BRANCH   6   7
ATOM      7  C   UNL A   1      31.683  27.823  25.395  1.00  0.00     0.261 C 
BRANCH   7   8
ATOM      8  O   UNL A   1      31.701  27.316  24.054  1.00  0.00    -0.460 OA
BRANCH   8   9
ATOM      9  C   UNL A   1      30.579  26.719  23.600  1.00  0.00     0.342 C 
ATOM     10  O   UNL A   1      30.285  25.538  23.708  1.00  0.00    -0.246 OA
BRANCH   9  11
ATOM     11  C   UNL A   1      29.615  27.757  23.175  1.00  0.00     0.103 A 
ATOM     12  C   UNL A   1      29.143  29.961  22.263  1.00  0.00     0.032 A 
ATOM     13  C   UNL A   1      27.787  29.762  22.541  1.00  0.00     0.029 A 
ATOM     14  C   UNL A   1      30.057  28.961  22.605  1.00  0.00     0.045 A 
ATOM     15  C   UNL A   1      27.341  28.575  23.128  1.00  0.00     0.049 A 
ATOM     16  C   UNL A   1      28.251  27.570  23.433  1.00  0.00     0.130 A 
BRANCH  12  17
ATOM     17  N   UNL A   1      29.577  31.161  21.731  1.00  0.00    -0.399 N 
ATOM     18  H   UNL A   1      30.243  31.165  21.006  1.00  0.00     0.156 HD
ATOM     19  H   UNL A   1      29.221  32.011  22.077  1.00  0.00     0.156 HD
ENDBRANCH  12  17
BRANCH  16  20
ATOM     20  O   UNL A   1      27.745  26.450  24.034  1.00  0.00    -0.507 OA
ATOM     21  H   UNL A   1      27.787  26.358  24.966  1.00  0.00     0.293 HD
ENDBRANCH  16  20
ENDBRANCH   9  11
ENDBRANCH   8   9
ENDBRANCH   7   8
ENDBRANCH   6   7
ENDBRANCH   5   6
ENDBRANCH   4   5
ENDBRANCH   3   4
ENDBRANCH   2   3
ENDBRANCH   1   2
BRANCH   1  22
ATOM     22  C   UNL A   1      33.803  34.720  29.460  1.00  0.00     0.188 C 
BRANCH  22  23
ATOM     23  O   UNL A   1      33.188  34.667  30.734  1.00  0.00    -0.376 OA
BRANCH  23  24
ATOM     24  C   UNL A   1      33.999  34.866  31.876  1.00  0.00     0.202 C 
BRANCH  24  25
ATOM     25  C   UNL A   1      34.110  33.703  32.869  1.00  0.00     0.261 C 
BRANCH  25  26
ATOM     26  O   UNL A   1      34.999  32.637  32.500  1.00  0.00    -0.460 OA
BRANCH  26  27
ATOM     27  C   UNL A   1      36.092  32.446  33.266  1.00  0.00     0.338 C 
ATOM     28  O   UNL A   1      36.217  32.696  34.456  1.00  0.00    -0.246 OA
BRANCH  27  29
ATOM     29  C   UNL A   1      37.075  31.699  32.457  1.00  0.00     0.060 A 
ATOM     30  C   UNL A   1      38.057  30.933  33.101  1.00  0.00     0.016 A 
ATOM     31  C   UNL A   1      37.010  31.740  31.062  1.00  0.00     0.016 A 
ATOM     32  C   UNL A   1      38.996  30.229  32.349  1.00  0.00     0.010 A 
ATOM     33  C   UNL A   1      37.967  31.054  30.311  1.00  0.00     0.010 A 
ATOM     34  C   UNL A   1      38.983  30.322  30.951  1.00  0.00    -0.014 A 
BRANCH  34  35
ATOM     35  C   UNL A   1      40.140  29.828  30.167  1.00  0.00     0.031 A 
ATOM     36  C   UNL A   1      41.282  30.774  29.915  1.00  0.00     0.074 A 
ATOM     37  C   UNL A   1      40.189  28.568  29.700  1.00  0.00     0.049 A 
ATOM     38  N   UNL A   1      42.370  30.596  29.212  1.00  0.00    -0.248 NA
ATOM     39  C   UNL A   1      41.181  32.103  30.543  1.00  0.00     0.031 C 
ATOM     40  C   UNL A   1      39.174  27.540  29.918  1.00  0.00     0.029 A 
ATOM     41  N   UNL A   1      41.141  27.944  28.933  1.00  0.00    -0.354 N 
ATOM     42  C   UNL A   1      43.076  31.790  29.305  1.00  0.00     0.074 A 
ATOM     43  C   UNL A   1      42.282  32.694  30.107  1.00  0.00     0.031 C 
ATOM     44  C   UNL A   1      39.553  26.413  29.289  1.00  0.00     0.029 A 
ATOM     45  C   UNL A   1      40.817  26.653  28.593  1.00  0.00     0.049 A 
ATOM     46  H   UNL A   1      41.978  28.381  28.652  1.00  0.00     0.167 HD
ATOM     47  C   UNL A   1      44.282  32.103  28.777  1.00  0.00     0.031 A 
ATOM     48  C   UNL A   1      41.455  25.779  27.790  1.00  0.00     0.031 A 
ATOM     49  C   UNL A   1      45.065  31.210  27.966  1.00  0.00     0.049 A 
ATOM     50  C   UNL A   1      42.750  26.188  27.135  1.00  0.00     0.074 A 
ATOM     51  C   UNL A   1      46.302  31.432  27.390  1.00  0.00     0.029 A 
ATOM     52  N   UNL A   1      44.680  29.927  27.612  1.00  0.00    -0.354 N 
ATOM     53  N   UNL A   1      43.420  27.309  27.249  1.00  0.00    -0.248 NA
ATOM     54  C   UNL A   1      43.380  25.202  26.242  1.00  0.00     0.031 C 
ATOM     55  C   UNL A   1      46.637  30.307  26.632  1.00  0.00     0.029 A 
ATOM     56  C   UNL A   1      45.643  29.356  26.798  1.00  0.00     0.049 A 
ATOM     57  H   UNL A   1      43.846  29.486  27.896  1.00  0.00     0.167 HD
ATOM     58  C   UNL A   1      44.564  27.150  26.474  1.00  0.00     0.074 A 
ATOM     59  C   UNL A   1      44.506  25.818  25.910  1.00  0.00     0.031 C 
ATOM     60  C   UNL A   1      45.574  28.025  26.250  1.00  0.00     0.031 A 
BRANCH  47  61
ATOM     61  C   UNL A   1      44.814  33.486  29.032  1.00  0.00    -0.014 A 
ATOM     62  C   UNL A   1      44.601  34.530  28.118  1.00  0.00     0.009 A 
ATOM     63  C   UNL A   1      45.500  33.757  30.225  1.00  0.00     0.009 A 
ATOM     64  C   UNL A   1      45.090  35.811  28.384  1.00  0.00     0.001 A 
ATOM     65  C   UNL A   1      45.961  35.045  30.503  1.00  0.00     0.001 A 
ATOM     66  C   UNL A   1      45.763  36.069  29.578  1.00  0.00     0.000 A 
ENDBRANCH  47  61
BRANCH  48  67
ATOM     67  C   UNL A   1      40.870  24.436  27.523  1.00  0.00    -0.014 A 
ATOM     68  C   UNL A   1      41.422  23.283  28.104  1.00  0.00     0.009 A 
ATOM     69  C   UNL A   1      39.787  24.294  26.640  1.00  0.00     0.009 A 
ATOM     70  C   UNL A   1      40.927  22.017  27.779  1.00  0.00     0.001 A 
ATOM     71  C   UNL A   1      39.271  23.031  26.344  1.00  0.00     0.001 A 
ATOM     72  C   UNL A   1      39.849  21.893  26.902  1.00  0.00     0.000 A 
ENDBRANCH  48  67
BRANCH  60  73
ATOM     73  C   UNL A   1      46.725  27.558  25.400  1.00  0.00    -0.014 A 
ATOM     74  C   UNL A   1      46.811  27.879  24.037  1.00  0.00     0.009 A 
ATOM     75  C   UNL A   1      47.764  26.820  25.989  1.00  0.00     0.009 A 
ATOM     76  C   UNL A   1      47.894  27.438  23.274  1.00  0.00     0.001 A 
ATOM     77  C   UNL A   1      48.863  26.411  25.234  1.00  0.00     0.001 A 
ATOM     78  C   UNL A   1      48.922  26.710  23.874  1.00  0.00     0.000 A 
ENDBRANCH  60  73
ENDBRANCH  34  35
ENDBRANCH  27  29
ENDBRANCH  26  27
ENDBRANCH  25  26
ENDBRANCH  24  25
ENDBRANCH  23  24
ENDBRANCH  22  23
ENDBRANCH   1  22
TORSDOF 22
ENDMDL
MODEL 2
REMARK VINA RESULT:      -9.3      5.282     10.817
REMARK SMILES Nc1ccc(O)c(C(=O)OCCOCCOCCOCCOC(=O)c2ccc(-c3c4nc(c(-c5ccccc5)c5ccc([nH]5)c(-c5ccccc5)c5nc(c(-c6ccccc6)c6ccc3[nH]6)C=C5)C=C4)cc2)c1
REMARK SMILES IDX 17 1 16 2 15 3 14 4 13 5 12 6 11 7 10 8 8 9 9 10 7 11 2 12
REMARK SMILES IDX 3 13 73 14 4 15 5 16 1 17 6 20 18 22 19 23 20 24 21 25 22 26
REMARK SMILES IDX 23 27 24 28 25 29 26 30 72 31 27 32 71 33 28 34 29 35 30 36
REMARK SMILES IDX 65 37 31 38 70 39 64 40 66 41 32 42 69 43 63 44 62 45 33 47
REMARK SMILES IDX 55 48 40 49 54 50 41 51 44 52 53 53 67 54 42 55 43 56 52 58
REMARK SMILES IDX 68 59 45 60 34 61 35 62 39 63 36 64 38 65 37 66 56 67 57 68
REMARK SMILES IDX 61 69 58 70 60 71 59 72 46 73 47 74 51 75 48 76 50 77 49 78
REMARK H PARENT 1 18 1 19 6 21 66 46 44 57
REMARK Flexibility Score: inf
ROOT
ATOM      1  C   UNL A   1      44.015  18.738  25.277  1.00  0.00     0.188 C 
ENDROOT
BRANCH   1   2
ATOM      2  O   UNL A   1      42.663  19.183  25.181  1.00  0.00    -0.377 OA
BRANCH   2   3
ATOM      3  C   UNL A   1      41.923  19.473  26.359  1.00  0.00     0.188 C 
BRANCH   3   4
ATOM      4  C   UNL A   1      40.497  20.046  26.218  1.00  0.00     0.188 C 
BRANCH   4   5
ATOM      5  O   UNL A   1      39.675  19.309  25.330  1.00  0.00    -0.376 OA
BRANCH   5   6
ATOM      6  C   UNL A   1      38.321  19.681  25.169  1.00  0.00     0.202 C 
BRANCH   6   7
ATOM      7  C   UNL A   1      37.920  21.151  25.366  1.00  0.00     0.261 C 
BRANCH   7   8
ATOM      8  O   UNL A   1      36.522  21.433  25.501  1.00  0.00    -0.460 OA
BRANCH   8   9
ATOM      9  C   UNL A   1      36.156  22.728  25.613  1.00  0.00     0.342 C 
ATOM     10  O   UNL A   1      36.808  23.630  26.115  1.00  0.00    -0.246 OA
BRANCH   9  11
ATOM     11  C   UNL A   1      34.946  22.963  24.794  1.00  0.00     0.103 A 
ATOM     12  C   UNL A   1      32.531  23.156  24.594  1.00  0.00     0.032 A 
ATOM     13  C   UNL A   1      32.674  23.237  23.205  1.00  0.00     0.029 A 
ATOM     14  C   UNL A   1      33.673  22.994  25.383  1.00  0.00     0.045 A 
ATOM     15  C   UNL A   1      33.937  23.184  22.610  1.00  0.00     0.049 A 
ATOM     16  C   UNL A   1      35.071  23.059  23.403  1.00  0.00     0.130 A 
BRANCH  12  17
ATOM     17  N   UNL A   1      31.273  23.156  25.167  1.00  0.00    -0.399 N 
ATOM     18  H   UNL A   1      30.972  23.933  25.693  1.00  0.00     0.156 HD
ATOM     19  H   UNL A   1      30.678  22.381  25.049  1.00  0.00     0.156 HD
ENDBRANCH  12  17
BRANCH  16  20
ATOM     20  O   UNL A   1      36.269  22.984  22.746  1.00  0.00    -0.507 OA
ATOM     21  H   UNL A   1      36.921  23.643  22.883  1.00  0.00     0.293 HD
ENDBRANCH  16  20
ENDBRANCH   9  11
ENDBRANCH   8   9
ENDBRANCH   7   8
ENDBRANCH   6   7
ENDBRANCH   5   6
ENDBRANCH   4   5
ENDBRANCH   3   4
ENDBRANCH   2   3
ENDBRANCH   1   2
BRANCH   1  22
ATOM     22  C   UNL A   1      45.192  19.562  24.702  1.00  0.00     0.188 C 
BRANCH  22  23
ATOM     23  O   UNL A   1      45.401  20.816  25.327  1.00  0.00    -0.376 OA
BRANCH  23  24
ATOM     24  C   UNL A   1      46.117  21.806  24.615  1.00  0.00     0.202 C 
BRANCH  24  25
ATOM     25  C   UNL A   1      45.369  23.098  24.267  1.00  0.00     0.261 C 
BRANCH  25  26
ATOM     26  O   UNL A   1      44.650  23.724  25.341  1.00  0.00    -0.460 OA
BRANCH  26  27
ATOM     27  C   UNL A   1      43.313  23.551  25.377  1.00  0.00     0.338 C 
ATOM     28  O   UNL A   1      42.672  22.619  24.914  1.00  0.00    -0.246 OA
BRANCH  27  29
ATOM     29  C   UNL A   1      42.754  24.605  26.246  1.00  0.00     0.060 A 
ATOM     30  C   UNL A   1      43.324  25.885  26.230  1.00  0.00     0.016 A 
ATOM     31  C   UNL A   1      41.652  24.331  27.061  1.00  0.00     0.016 A 
ATOM     32  C   UNL A   1      42.810  26.888  27.051  1.00  0.00     0.010 A 
ATOM     33  C   UNL A   1      41.155  25.329  27.901  1.00  0.00     0.010 A 
ATOM     34  C   UNL A   1      41.752  26.602  27.924  1.00  0.00    -0.014 A 
BRANCH  34  35
ATOM     35  C   UNL A   1      41.402  27.560  28.999  1.00  0.00     0.031 A 
ATOM     36  C   UNL A   1      42.200  27.520  30.274  1.00  0.00     0.074 A 
ATOM     37  C   UNL A   1      40.411  28.457  28.850  1.00  0.00     0.049 A 
ATOM     38  N   UNL A   1      42.048  28.212  31.373  1.00  0.00    -0.248 NA
ATOM     39  C   UNL A   1      43.324  26.568  30.311  1.00  0.00     0.031 C 
ATOM     40  C   UNL A   1      39.598  28.632  27.648  1.00  0.00     0.029 A 
ATOM     41  N   UNL A   1      39.917  29.387  29.730  1.00  0.00    -0.354 N 
ATOM     42  C   UNL A   1      43.047  27.772  32.233  1.00  0.00     0.074 A 
ATOM     43  C   UNL A   1      43.781  26.736  31.542  1.00  0.00     0.031 C 
ATOM     44  C   UNL A   1      38.698  29.607  27.871  1.00  0.00     0.029 A 
ATOM     45  C   UNL A   1      38.846  30.095  29.242  1.00  0.00     0.049 A 
ATOM     46  H   UNL A   1      40.296  29.533  30.628  1.00  0.00     0.167 HD
ATOM     47  C   UNL A   1      43.334  28.199  33.485  1.00  0.00     0.031 A 
ATOM     48  C   UNL A   1      38.061  31.010  29.844  1.00  0.00     0.031 A 
ATOM     49  C   UNL A   1      42.594  29.218  34.180  1.00  0.00     0.049 A 
ATOM     50  C   UNL A   1      38.342  31.397  31.274  1.00  0.00     0.074 A 
ATOM     51  C   UNL A   1      42.810  29.724  35.449  1.00  0.00     0.029 A 
ATOM     52  N   UNL A   1      41.490  29.879  33.665  1.00  0.00    -0.354 N 
ATOM     53  N   UNL A   1      39.303  30.994  32.069  1.00  0.00    -0.248 NA
ATOM     54  C   UNL A   1      37.429  32.375  31.887  1.00  0.00     0.031 C 
ATOM     55  C   UNL A   1      41.797  30.646  35.727  1.00  0.00     0.029 A 
ATOM     56  C   UNL A   1      40.995  30.767  34.604  1.00  0.00     0.049 A 
ATOM     57  H   UNL A   1      41.114  29.738  32.766  1.00  0.00     0.167 HD
ATOM     58  C   UNL A   1      39.132  31.694  33.260  1.00  0.00     0.074 A 
ATOM     59  C   UNL A   1      37.986  32.559  33.075  1.00  0.00     0.031 C 
ATOM     60  C   UNL A   1      39.858  31.628  34.402  1.00  0.00     0.031 A 
BRANCH  47  61
ATOM     61  C   UNL A   1      44.479  27.537  34.200  1.00  0.00    -0.014 A 
ATOM     62  C   UNL A   1      44.290  26.372  34.960  1.00  0.00     0.009 A 
ATOM     63  C   UNL A   1      45.774  28.063  34.074  1.00  0.00     0.009 A 
ATOM     64  C   UNL A   1      45.372  25.764  35.601  1.00  0.00     0.001 A 
ATOM     65  C   UNL A   1      46.857  27.437  34.690  1.00  0.00     0.001 A 
ATOM     66  C   UNL A   1      46.655  26.293  35.461  1.00  0.00     0.000 A 
ENDBRANCH  47  61
BRANCH  48  67
ATOM     67  C   UNL A   1      36.905  31.606  29.119  1.00  0.00    -0.014 A 
ATOM     68  C   UNL A   1      36.980  32.906  28.593  1.00  0.00     0.009 A 
ATOM     69  C   UNL A   1      35.700  30.897  28.995  1.00  0.00     0.009 A 
ATOM     70  C   UNL A   1      35.863  33.494  27.993  1.00  0.00     0.001 A 
ATOM     71  C   UNL A   1      34.596  31.474  28.364  1.00  0.00     0.001 A 
ATOM     72  C   UNL A   1      34.674  32.776  27.876  1.00  0.00     0.000 A 
ENDBRANCH  48  67
BRANCH  60  73
ATOM     73  C   UNL A   1      39.470  32.550  35.527  1.00  0.00    -0.014 A 
ATOM     74  C   UNL A   1      38.586  32.146  36.539  1.00  0.00     0.009 A 
ATOM     75  C   UNL A   1      40.038  33.833  35.595  1.00  0.00     0.009 A 
ATOM     76  C   UNL A   1      38.251  33.021  37.574  1.00  0.00     0.001 A 
ATOM     77  C   UNL A   1      39.728  34.692  36.650  1.00  0.00     0.001 A 
ATOM     78  C   UNL A   1      38.826  34.290  37.633  1.00  0.00     0.000 A 
ENDBRANCH  60  73
ENDBRANCH  34  35
ENDBRANCH  27  29
ENDBRANCH  26  27
ENDBRANCH  25  26
ENDBRANCH  24  25
ENDBRANCH  23  24
ENDBRANCH  22  23
ENDBRANCH   1  22
TORSDOF 22
ENDMDL
MODEL 3
REMARK VINA RESULT:      -9.1      3.497      8.432
REMARK SMILES Nc1ccc(O)c(C(=O)OCCOCCOCCOCCOC(=O)c2ccc(-c3c4nc(c(-c5ccccc5)c5ccc([nH]5)c(-c5ccccc5)c5nc(c(-c6ccccc6)c6ccc3[nH]6)C=C5)C=C4)cc2)c1
REMARK SMILES IDX 17 1 16 2 15 3 14 4 13 5 12 6 11 7 10 8 8 9 9 10 7 11 2 12
REMARK SMILES IDX 3 13 73 14 4 15 5 16 1 17 6 20 18 22 19 23 20 24 21 25 22 26
REMARK SMILES IDX 23 27 24 28 25 29 26 30 72 31 27 32 71 33 28 34 29 35 30 36
REMARK SMILES IDX 65 37 31 38 70 39 64 40 66 41 32 42 69 43 63 44 62 45 33 47
REMARK SMILES IDX 55 48 40 49 54 50 41 51 44 52 53 53 67 54 42 55 43 56 52 58
REMARK SMILES IDX 68 59 45 60 34 61 35 62 39 63 36 64 38 65 37 66 56 67 57 68
REMARK SMILES IDX 61 69 58 70 60 71 59 72 46 73 47 74 51 75 48 76 50 77 49 78
REMARK H PARENT 1 18 1 19 6 21 66 46 44 57
REMARK Flexibility Score: inf
ROOT
ATOM      1  C   UNL A   1      34.590  22.030  25.828  1.00  0.00     0.188 C 
ENDROOT
BRANCH   1   2
ATOM      2  O   UNL A   1      33.265  21.514  25.943  1.00  0.00    -0.377 OA
BRANCH   2   3
ATOM      3  C   UNL A   1      32.148  22.385  25.827  1.00  0.00     0.188 C 
BRANCH   3   4
ATOM      4  C   UNL A   1      31.658  23.135  27.083  1.00  0.00     0.188 C 
BRANCH   4   5
ATOM      5  O   UNL A   1      31.447  24.520  26.870  1.00  0.00    -0.376 OA
BRANCH   5   6
ATOM      6  C   UNL A   1      30.695  24.942  25.750  1.00  0.00     0.202 C 
BRANCH   6   7
ATOM      7  C   UNL A   1      31.431  25.493  24.520  1.00  0.00     0.261 C 
BRANCH   7   8
ATOM      8  O   UNL A   1      31.338  26.903  24.281  1.00  0.00    -0.460 OA
BRANCH   8   9
ATOM      9  C   UNL A   1      31.282  27.314  22.996  1.00  0.00     0.342 C 
ATOM     10  O   UNL A   1      31.922  26.866  22.058  1.00  0.00    -0.246 OA
BRANCH   9  11
ATOM     11  C   UNL A   1      30.128  28.224  22.828  1.00  0.00     0.103 A 
ATOM     12  C   UNL A   1      27.743  28.669  22.989  1.00  0.00     0.032 A 
ATOM     13  C   UNL A   1      27.949  29.891  22.342  1.00  0.00     0.029 A 
ATOM     14  C   UNL A   1      28.836  27.827  23.208  1.00  0.00     0.045 A 
ATOM     15  C   UNL A   1      29.228  30.284  21.940  1.00  0.00     0.049 A 
ATOM     16  C   UNL A   1      30.316  29.458  22.193  1.00  0.00     0.130 A 
BRANCH  12  17
ATOM     17  N   UNL A   1      26.465  28.268  23.334  1.00  0.00    -0.399 N 
ATOM     18  H   UNL A   1      26.229  28.139  24.282  1.00  0.00     0.156 HD
ATOM     19  H   UNL A   1      25.792  28.112  22.633  1.00  0.00     0.156 HD
ENDBRANCH  12  17
BRANCH  16  20
ATOM     20  O   UNL A   1      31.532  29.895  21.743  1.00  0.00    -0.507 OA
ATOM     21  H   UNL A   1      32.225  30.064  22.352  1.00  0.00     0.293 HD
ENDBRANCH  16  20
ENDBRANCH   9  11
ENDBRANCH   8   9
ENDBRANCH   7   8
ENDBRANCH   6   7
ENDBRANCH   5   6
ENDBRANCH   4   5
ENDBRANCH   3   4
ENDBRANCH   2   3
ENDBRANCH   1   2
BRANCH   1  22
ATOM     22  C   UNL A   1      35.562  21.555  24.720  1.00  0.00     0.188 C 
BRANCH  22  23
ATOM     23  O   UNL A   1      36.564  20.653  25.156  1.00  0.00    -0.376 OA
BRANCH  23  24
ATOM     24  C   UNL A   1      37.907  21.094  25.147  1.00  0.00     0.202 C 
BRANCH  24  25
ATOM     25  C   UNL A   1      38.998  20.017  25.074  1.00  0.00     0.261 C 
BRANCH  25  26
ATOM     26  O   UNL A   1      39.758  19.802  26.273  1.00  0.00    -0.460 OA
BRANCH  26  27
ATOM     27  C   UNL A   1      41.101  19.753  26.157  1.00  0.00     0.338 C 
ATOM     28  O   UNL A   1      41.768  18.879  25.624  1.00  0.00    -0.246 OA
BRANCH  27  29
ATOM     29  C   UNL A   1      41.633  21.048  26.625  1.00  0.00     0.060 A 
ATOM     30  C   UNL A   1      41.608  21.347  27.994  1.00  0.00     0.016 A 
ATOM     31  C   UNL A   1      42.176  21.955  25.712  1.00  0.00     0.016 A 
ATOM     32  C   UNL A   1      42.101  22.569  28.450  1.00  0.00     0.010 A 
ATOM     33  C   UNL A   1      42.646  23.189  26.167  1.00  0.00     0.010 A 
ATOM     34  C   UNL A   1      42.581  23.514  27.534  1.00  0.00    -0.014 A 
BRANCH  34  35
ATOM     35  C   UNL A   1      42.824  24.910  27.969  1.00  0.00     0.031 A 
ATOM     36  C   UNL A   1      44.241  25.329  28.250  1.00  0.00     0.074 A 
ATOM     37  C   UNL A   1      41.818  25.793  28.099  1.00  0.00     0.049 A 
ATOM     38  N   UNL A   1      44.698  26.471  28.697  1.00  0.00    -0.248 NA
ATOM     39  C   UNL A   1      45.284  24.322  27.992  1.00  0.00     0.031 C 
ATOM     40  C   UNL A   1      40.411  25.528  27.809  1.00  0.00     0.029 A 
ATOM     41  N   UNL A   1      41.835  27.099  28.521  1.00  0.00    -0.354 N 
ATOM     42  C   UNL A   1      46.076  26.315  28.782  1.00  0.00     0.074 A 
ATOM     43  C   UNL A   1      46.379  24.963  28.370  1.00  0.00     0.031 C 
ATOM     44  C   UNL A   1      39.696  26.637  28.071  1.00  0.00     0.029 A 
ATOM     45  C   UNL A   1      40.589  27.675  28.583  1.00  0.00     0.049 A 
ATOM     46  H   UNL A   1      42.663  27.579  28.756  1.00  0.00     0.167 HD
ATOM     47  C   UNL A   1      47.008  27.220  29.162  1.00  0.00     0.031 A 
ATOM     48  C   UNL A   1      40.214  28.890  29.030  1.00  0.00     0.031 A 
ATOM     49  C   UNL A   1      46.706  28.560  29.587  1.00  0.00     0.049 A 
ATOM     50  C   UNL A   1      41.263  29.845  29.540  1.00  0.00     0.074 A 
ATOM     51  C   UNL A   1      47.580  29.554  29.986  1.00  0.00     0.029 A 
ATOM     52  N   UNL A   1      45.428  29.088  29.676  1.00  0.00    -0.354 N 
ATOM     53  N   UNL A   1      42.565  29.697  29.594  1.00  0.00    -0.248 NA
ATOM     54  C   UNL A   1      40.787  31.142  30.046  1.00  0.00     0.031 C 
ATOM     55  C   UNL A   1      46.827  30.664  30.379  1.00  0.00     0.029 A 
ATOM     56  C   UNL A   1      45.489  30.386  30.154  1.00  0.00     0.049 A 
ATOM     57  H   UNL A   1      44.600  28.612  29.437  1.00  0.00     0.167 HD
ATOM     58  C   UNL A   1      43.064  30.891  30.104  1.00  0.00     0.074 A 
ATOM     59  C   UNL A   1      41.927  31.759  30.326  1.00  0.00     0.031 C 
ATOM     60  C   UNL A   1      44.348  31.240  30.363  1.00  0.00     0.031 A 
BRANCH  47  61
ATOM     61  C   UNL A   1      48.444  26.777  29.168  1.00  0.00    -0.014 A 
ATOM     62  C   UNL A   1      49.014  26.161  30.293  1.00  0.00     0.009 A 
ATOM     63  C   UNL A   1      49.227  26.939  28.014  1.00  0.00     0.009 A 
ATOM     64  C   UNL A   1      50.347  25.742  30.270  1.00  0.00     0.001 A 
ATOM     65  C   UNL A   1      50.548  26.492  27.983  1.00  0.00     0.001 A 
ATOM     66  C   UNL A   1      51.110  25.902  29.114  1.00  0.00     0.000 A 
ENDBRANCH  47  61
BRANCH  48  67
ATOM     67  C   UNL A   1      38.776  29.273  29.055  1.00  0.00    -0.014 A 
ATOM     68  C   UNL A   1      38.217  30.038  28.018  1.00  0.00     0.009 A 
ATOM     69  C   UNL A   1      37.963  28.920  30.144  1.00  0.00     0.009 A 
ATOM     70  C   UNL A   1      36.891  30.471  28.091  1.00  0.00     0.001 A 
ATOM     71  C   UNL A   1      36.628  29.324  30.198  1.00  0.00     0.001 A 
ATOM     72  C   UNL A   1      36.096  30.110  29.178  1.00  0.00     0.000 A 
ENDBRANCH  48  67
BRANCH  60  73
ATOM     73  C   UNL A   1      44.601  32.635  30.869  1.00  0.00    -0.014 A 
ATOM     74  C   UNL A   1      44.659  32.921  32.242  1.00  0.00     0.009 A 
ATOM     75  C   UNL A   1      44.830  33.672  29.950  1.00  0.00     0.009 A 
ATOM     76  C   UNL A   1      44.903  34.223  32.682  1.00  0.00     0.001 A 
ATOM     77  C   UNL A   1      45.109  34.965  30.393  1.00  0.00     0.001 A 
ATOM     78  C   UNL A   1      45.134  35.243  31.758  1.00  0.00     0.000 A 
ENDBRANCH  60  73
ENDBRANCH  34  35
ENDBRANCH  27  29
ENDBRANCH  26  27
ENDBRANCH  25  26
ENDBRANCH  24  25
ENDBRANCH  23  24
ENDBRANCH  22  23
ENDBRANCH   1  22
TORSDOF 22
ENDMDL
