MODEL 1
REMARK VINA RESULT:      -8.9      0.000      0.000
REMARK SMILES O=C(OCCOCCOCCOCCOC(=O)[C@H]1CCCCN1c1cc(-c2ccccc2)nc(-c2cccc(Cl)c2)n1)c1ccc(-c2c3nc(c(-c4ccccc4)c4ccc([nH]4)c(-c4ccccc4)c4nc(c(-c5ccccc5)c5ccc2[nH]5)C=C4)C=C3)cc1
REMARK SMILES IDX 9 1 8 2 7 3 6 4 5 5 4 6 3 7 2 8 1 9 43 10 44 11 90 12 45 13
REMARK SMILES IDX 89 14 46 15 47 16 48 17 83 18 49 19 88 20 82 21 84 22 50 23
REMARK SMILES IDX 87 24 81 25 80 26 51 28 73 29 58 30 72 31 59 32 62 33 71 34
REMARK SMILES IDX 85 35 60 36 61 37 70 39 86 40 63 41 52 42 53 43 57 44 54 45
REMARK SMILES IDX 56 46 55 47 74 48 75 49 79 50 76 51 78 52 77 53 64 54 65 55
REMARK SMILES IDX 69 56 66 57 68 58 67 59 10 60 11 61 12 62 13 63 14 64 15 65
REMARK SMILES IDX 16 66 17 67 18 68 19 69 23 70 20 71 22 72 21 73 24 74 25 75
REMARK SMILES IDX 42 76 26 77 34 78 33 79 27 80 28 81 32 82 29 83 31 84 30 85
REMARK SMILES IDX 35 86 36 87 41 88 37 89 39 90 38 91 40 92
REMARK H PARENT 84 27 62 38
REMARK Flexibility Score: inf
ROOT
ATOM      1  O   UNL A   1      34.244  29.579  27.528  1.00  0.00    -0.377 OA
ENDROOT
BRANCH   1   2
ATOM      2  C   UNL A   1      35.506  29.719  28.162  1.00  0.00     0.188 C 
BRANCH   2   3
ATOM      3  C   UNL A   1      36.247  30.989  27.750  1.00  0.00     0.188 C 
BRANCH   3   4
ATOM      4  O   UNL A   1      35.328  32.052  27.463  1.00  0.00    -0.376 OA
BRANCH   4   5
ATOM      5  C   UNL A   1      34.671  32.635  28.589  1.00  0.00     0.202 C 
BRANCH   5   6
ATOM      6  C   UNL A   1      34.594  34.161  28.594  1.00  0.00     0.261 C 
BRANCH   6   7
ATOM      7  O   UNL A   1      34.940  34.723  29.863  1.00  0.00    -0.460 OA
BRANCH   7   8
ATOM      8  C   UNL A   1      34.780  34.174  31.091  1.00  0.00     0.338 C 
ATOM      9  O   UNL A   1      33.636  33.881  31.436  1.00  0.00    -0.246 OA
BRANCH   8  10
ATOM     10  C   UNL A   1      35.889  33.934  32.082  1.00  0.00     0.060 A 
ATOM     11  C   UNL A   1      37.031  34.721  32.263  1.00  0.00     0.016 A 
ATOM     12  C   UNL A   1      35.739  32.814  32.924  1.00  0.00     0.016 A 
ATOM     13  C   UNL A   1      38.006  34.405  33.193  1.00  0.00     0.010 A 
ATOM     14  C   UNL A   1      36.731  32.460  33.843  1.00  0.00     0.010 A 
ATOM     15  C   UNL A   1      37.887  33.239  33.935  1.00  0.00    -0.014 A 
BRANCH  15  16
ATOM     16  C   UNL A   1      39.130  32.727  34.521  1.00  0.00     0.031 A 
ATOM     17  C   UNL A   1      39.337  32.983  35.984  1.00  0.00     0.074 A 
ATOM     18  C   UNL A   1      39.909  31.885  33.825  1.00  0.00     0.049 A 
ATOM     19  N   UNL A   1      40.327  32.637  36.757  1.00  0.00    -0.248 NA
ATOM     20  C   UNL A   1      38.252  33.702  36.680  1.00  0.00     0.031 C 
ATOM     21  C   UNL A   1      39.648  31.423  32.460  1.00  0.00     0.029 A 
ATOM     22  N   UNL A   1      41.050  31.231  34.193  1.00  0.00    -0.354 N 
ATOM     23  C   UNL A   1      40.003  33.130  38.016  1.00  0.00     0.074 A 
ATOM     24  C   UNL A   1      38.721  33.784  37.912  1.00  0.00     0.031 C 
ATOM     25  C   UNL A   1      40.603  30.545  32.110  1.00  0.00     0.029 A 
ATOM     26  C   UNL A   1      41.568  30.440  33.200  1.00  0.00     0.049 A 
ATOM     27  H   UNL A   1      41.460  31.319  35.084  1.00  0.00     0.167 HD
ATOM     28  C   UNL A   1      40.730  33.059  39.152  1.00  0.00     0.031 A 
ATOM     29  C   UNL A   1      42.719  29.745  33.180  1.00  0.00     0.031 A 
ATOM     30  C   UNL A   1      42.017  32.427  39.205  1.00  0.00     0.049 A 
ATOM     31  C   UNL A   1      43.587  29.802  34.408  1.00  0.00     0.074 A 
ATOM     32  C   UNL A   1      42.916  32.368  40.251  1.00  0.00     0.029 A 
ATOM     33  N   UNL A   1      42.584  31.742  38.138  1.00  0.00    -0.354 N 
ATOM     34  N   UNL A   1      43.337  30.363  35.570  1.00  0.00    -0.248 NA
ATOM     35  C   UNL A   1      44.900  29.153  34.321  1.00  0.00     0.031 C 
ATOM     36  C   UNL A   1      44.053  31.689  39.796  1.00  0.00     0.029 A 
ATOM     37  C   UNL A   1      43.834  31.272  38.490  1.00  0.00     0.049 A 
ATOM     38  H   UNL A   1      42.158  31.610  37.261  1.00  0.00     0.167 HD
ATOM     39  C   UNL A   1      44.454  30.122  36.358  1.00  0.00     0.074 A 
ATOM     40  C   UNL A   1      45.373  29.348  35.544  1.00  0.00     0.031 C 
ATOM     41  C   UNL A   1      44.706  30.505  37.635  1.00  0.00     0.031 A 
BRANCH  28  42
ATOM     42  C   UNL A   1      40.185  33.793  40.344  1.00  0.00    -0.014 A 
ATOM     43  C   UNL A   1      40.554  35.116  40.635  1.00  0.00     0.009 A 
ATOM     44  C   UNL A   1      39.362  33.104  41.248  1.00  0.00     0.009 A 
ATOM     45  C   UNL A   1      40.152  35.715  41.833  1.00  0.00     0.001 A 
ATOM     46  C   UNL A   1      38.939  33.714  42.431  1.00  0.00     0.001 A 
ATOM     47  C   UNL A   1      39.347  35.012  42.730  1.00  0.00     0.000 A 
ENDBRANCH  28  42
BRANCH  29  48
ATOM     48  C   UNL A   1      43.135  29.012  31.955  1.00  0.00    -0.014 A 
ATOM     49  C   UNL A   1      42.919  27.632  31.826  1.00  0.00     0.009 A 
ATOM     50  C   UNL A   1      43.752  29.699  30.894  1.00  0.00     0.009 A 
ATOM     51  C   UNL A   1      43.323  26.956  30.669  1.00  0.00     0.001 A 
ATOM     52  C   UNL A   1      44.128  29.028  29.729  1.00  0.00     0.001 A 
ATOM     53  C   UNL A   1      43.920  27.655  29.621  1.00  0.00     0.000 A 
ENDBRANCH  29  48
BRANCH  41  54
ATOM     54  C   UNL A   1      46.008  30.054  38.228  1.00  0.00    -0.014 A 
ATOM     55  C   UNL A   1      47.106  30.922  38.318  1.00  0.00     0.009 A 
ATOM     56  C   UNL A   1      46.110  28.757  38.755  1.00  0.00     0.009 A 
ATOM     57  C   UNL A   1      48.295  30.486  38.902  1.00  0.00     0.001 A 
ATOM     58  C   UNL A   1      47.289  28.337  39.365  1.00  0.00     0.001 A 
ATOM     59  C   UNL A   1      48.383  29.197  39.430  1.00  0.00     0.000 A 
ENDBRANCH  41  54
ENDBRANCH  15  16
ENDBRANCH   8  10
ENDBRANCH   7   8
ENDBRANCH   6   7
ENDBRANCH   5   6
ENDBRANCH   4   5
ENDBRANCH   3   4
ENDBRANCH   2   3
ENDBRANCH   1   2
BRANCH   1  60
ATOM     60  C   UNL A   1      34.235  28.743  26.381  1.00  0.00     0.188 C 
BRANCH  60  61
ATOM     61  C   UNL A   1      32.961  28.728  25.523  1.00  0.00     0.188 C 
BRANCH  61  62
ATOM     62  O   UNL A   1      32.686  27.457  24.956  1.00  0.00    -0.376 OA
BRANCH  62  63
ATOM     63  C   UNL A   1      31.766  26.662  25.693  1.00  0.00     0.202 C 
BRANCH  63  64
ATOM     64  C   UNL A   1      31.939  25.140  25.548  1.00  0.00     0.261 C 
BRANCH  64  65
ATOM     65  O   UNL A   1      33.105  24.538  26.171  1.00  0.00    -0.462 OA
BRANCH  65  66
ATOM     66  C   UNL A   1      34.183  24.217  25.407  1.00  0.00     0.328 C 
ATOM     67  O   UNL A   1      34.262  24.525  24.227  1.00  0.00    -0.250 OA
BRANCH  66  68
ATOM     68  C   UNL A   1      35.267  23.409  26.209  1.00  0.00     0.193 C 
ATOM     69  C   UNL A   1      34.566  22.205  26.856  1.00  0.00     0.037 C 
ATOM     70  N   UNL A   1      36.452  22.935  25.408  1.00  0.00    -0.343 N 
ATOM     71  C   UNL A   1      34.256  21.107  25.836  1.00  0.00     0.005 C 
ATOM     72  C   UNL A   1      36.288  21.789  24.507  1.00  0.00     0.119 C 
ATOM     73  C   UNL A   1      35.536  20.638  25.167  1.00  0.00     0.022 C 
BRANCH  70  74
ATOM     74  C   UNL A   1      37.753  23.204  25.863  1.00  0.00     0.134 A 
ATOM     75  C   UNL A   1      38.092  24.477  26.322  1.00  0.00     0.076 A 
ATOM     76  N   UNL A   1      38.673  22.232  25.893  1.00  0.00    -0.211 NA
ATOM     77  C   UNL A   1      39.332  24.683  26.910  1.00  0.00     0.076 A 
ATOM     78  C   UNL A   1      39.893  22.546  26.391  1.00  0.00     0.162 A 
ATOM     79  N   UNL A   1      40.258  23.722  26.925  1.00  0.00    -0.228 NA
BRANCH  77  80
ATOM     80  C   UNL A   1      39.687  25.920  27.629  1.00  0.00     0.000 A 
ATOM     81  C   UNL A   1      40.437  26.947  27.034  1.00  0.00     0.010 A 
ATOM     82  C   UNL A   1      39.318  26.091  28.975  1.00  0.00     0.010 A 
ATOM     83  C   UNL A   1      40.757  28.114  27.742  1.00  0.00     0.001 A 
ATOM     84  C   UNL A   1      39.612  27.265  29.678  1.00  0.00     0.001 A 
ATOM     85  C   UNL A   1      40.330  28.279  29.058  1.00  0.00     0.000 A 
ENDBRANCH  77  80
BRANCH  78  86
ATOM     86  C   UNL A   1      40.957  21.555  26.265  1.00  0.00     0.021 A 
ATOM     87  C   UNL A   1      40.688  20.193  26.476  1.00  0.00     0.012 A 
ATOM     88  C   UNL A   1      42.253  21.931  25.874  1.00  0.00     0.032 A 
ATOM     89  C   UNL A   1      41.685  19.230  26.317  1.00  0.00     0.002 A 
ATOM     90  C   UNL A   1      43.253  20.969  25.735  1.00  0.00     0.041 A 
ATOM     91  C   UNL A   1      42.973  19.622  25.955  1.00  0.00     0.020 A 
ATOM     92  Cl  UNL A   1      44.844  21.448  25.290  1.00  0.00    -0.084 Cl
ENDBRANCH  78  86
ENDBRANCH  70  74
ENDBRANCH  66  68
ENDBRANCH  65  66
ENDBRANCH  64  65
ENDBRANCH  63  64
ENDBRANCH  62  63
ENDBRANCH  61  62
ENDBRANCH  60  61
ENDBRANCH   1  60
TORSDOF 23
ENDMDL
MODEL 2
REMARK VINA RESULT:      -8.2      2.055      2.817
REMARK SMILES O=C(OCCOCCOCCOCCOC(=O)[C@H]1CCCCN1c1cc(-c2ccccc2)nc(-c2cccc(Cl)c2)n1)c1ccc(-c2c3nc(c(-c4ccccc4)c4ccc([nH]4)c(-c4ccccc4)c4nc(c(-c5ccccc5)c5ccc2[nH]5)C=C4)C=C3)cc1
REMARK SMILES IDX 9 1 8 2 7 3 6 4 5 5 4 6 3 7 2 8 1 9 43 10 44 11 90 12 45 13
REMARK SMILES IDX 89 14 46 15 47 16 48 17 83 18 49 19 88 20 82 21 84 22 50 23
REMARK SMILES IDX 87 24 81 25 80 26 51 28 73 29 58 30 72 31 59 32 62 33 71 34
REMARK SMILES IDX 85 35 60 36 61 37 70 39 86 40 63 41 52 42 53 43 57 44 54 45
REMARK SMILES IDX 56 46 55 47 74 48 75 49 79 50 76 51 78 52 77 53 64 54 65 55
REMARK SMILES IDX 69 56 66 57 68 58 67 59 10 60 11 61 12 62 13 63 14 64 15 65
REMARK SMILES IDX 16 66 17 67 18 68 19 69 23 70 20 71 22 72 21 73 24 74 25 75
REMARK SMILES IDX 42 76 26 77 34 78 33 79 27 80 28 81 32 82 29 83 31 84 30 85
REMARK SMILES IDX 35 86 36 87 41 88 37 89 39 90 38 91 40 92
REMARK H PARENT 84 27 62 38
REMARK Flexibility Score: inf
ROOT
ATOM      1  O   UNL A   1      33.974  29.079  27.532  1.00  0.00    -0.377 OA
ENDROOT
BRANCH   1   2
ATOM      2  C   UNL A   1      35.166  29.613  28.091  1.00  0.00     0.188 C 
BRANCH   2   3
ATOM      3  C   UNL A   1      35.545  30.972  27.509  1.00  0.00     0.188 C 
BRANCH   3   4
ATOM      4  O   UNL A   1      34.658  31.998  27.976  1.00  0.00    -0.376 OA
BRANCH   4   5
ATOM      5  C   UNL A   1      34.550  32.136  29.394  1.00  0.00     0.202 C 
BRANCH   5   6
ATOM      6  C   UNL A   1      35.664  32.935  30.068  1.00  0.00     0.261 C 
BRANCH   6   7
ATOM      7  O   UNL A   1      36.870  32.180  30.212  1.00  0.00    -0.460 OA
BRANCH   7   8
ATOM      8  C   UNL A   1      38.142  32.641  30.273  1.00  0.00     0.338 C 
ATOM      9  O   UNL A   1      38.603  33.165  29.260  1.00  0.00    -0.246 OA
BRANCH   8  10
ATOM     10  C   UNL A   1      39.049  32.524  31.471  1.00  0.00     0.060 A 
ATOM     11  C   UNL A   1      40.408  32.852  31.523  1.00  0.00     0.016 A 
ATOM     12  C   UNL A   1      38.452  32.060  32.659  1.00  0.00     0.016 A 
ATOM     13  C   UNL A   1      41.161  32.691  32.672  1.00  0.00     0.010 A 
ATOM     14  C   UNL A   1      39.207  31.857  33.818  1.00  0.00     0.010 A 
ATOM     15  C   UNL A   1      40.576  32.132  33.798  1.00  0.00    -0.014 A 
BRANCH  15  16
ATOM     16  C   UNL A   1      41.502  31.558  34.780  1.00  0.00     0.031 A 
ATOM     17  C   UNL A   1      41.853  32.420  35.956  1.00  0.00     0.074 A 
ATOM     18  C   UNL A   1      41.820  30.256  34.729  1.00  0.00     0.049 A 
ATOM     19  N   UNL A   1      42.629  32.167  36.972  1.00  0.00    -0.248 NA
ATOM     20  C   UNL A   1      41.206  33.747  36.008  1.00  0.00     0.031 C 
ATOM     21  C   UNL A   1      41.336  29.306  33.725  1.00  0.00     0.029 A 
ATOM     22  N   UNL A   1      42.585  29.501  35.571  1.00  0.00    -0.354 N 
ATOM     23  C   UNL A   1      42.594  33.312  37.758  1.00  0.00     0.074 A 
ATOM     24  C   UNL A   1      41.711  34.256  37.116  1.00  0.00     0.031 C 
ATOM     25  C   UNL A   1      41.811  28.084  34.021  1.00  0.00     0.029 A 
ATOM     26  C   UNL A   1      42.679  28.186  35.190  1.00  0.00     0.049 A 
ATOM     27  H   UNL A   1      43.027  29.864  36.372  1.00  0.00     0.167 HD
ATOM     28  C   UNL A   1      43.263  33.557  38.906  1.00  0.00     0.031 A 
ATOM     29  C   UNL A   1      43.421  27.198  35.720  1.00  0.00     0.031 A 
ATOM     30  C   UNL A   1      44.157  32.602  39.494  1.00  0.00     0.049 A 
ATOM     31  C   UNL A   1      44.276  27.534  36.912  1.00  0.00     0.074 A 
ATOM     32  C   UNL A   1      44.983  32.743  40.591  1.00  0.00     0.029 A 
ATOM     33  N   UNL A   1      44.337  31.313  39.010  1.00  0.00    -0.354 N 
ATOM     34  N   UNL A   1      44.333  28.653  37.598  1.00  0.00    -0.248 NA
ATOM     35  C   UNL A   1      45.181  26.484  37.393  1.00  0.00     0.031 C 
ATOM     36  C   UNL A   1      45.704  31.551  40.737  1.00  0.00     0.029 A 
ATOM     37  C   UNL A   1      45.279  30.650  39.771  1.00  0.00     0.049 A 
ATOM     38  H   UNL A   1      43.863  30.928  38.237  1.00  0.00     0.167 HD
ATOM     39  C   UNL A   1      45.269  28.440  38.601  1.00  0.00     0.074 A 
ATOM     40  C   UNL A   1      45.737  27.075  38.442  1.00  0.00     0.031 C 
ATOM     41  C   UNL A   1      45.708  29.288  39.565  1.00  0.00     0.031 A 
BRANCH  28  42
ATOM     42  C   UNL A   1      43.128  34.938  39.480  1.00  0.00    -0.014 A 
ATOM     43  C   UNL A   1      43.995  35.982  39.117  1.00  0.00     0.009 A 
ATOM     44  C   UNL A   1      42.173  35.168  40.481  1.00  0.00     0.009 A 
ATOM     45  C   UNL A   1      43.941  37.210  39.784  1.00  0.00     0.001 A 
ATOM     46  C   UNL A   1      42.103  36.405  41.126  1.00  0.00     0.001 A 
ATOM     47  C   UNL A   1      42.996  37.418  40.789  1.00  0.00     0.000 A 
ENDBRANCH  28  42
BRANCH  29  48
ATOM     48  C   UNL A   1      43.438  25.850  35.094  1.00  0.00    -0.014 A 
ATOM     49  C   UNL A   1      42.586  24.830  35.541  1.00  0.00     0.009 A 
ATOM     50  C   UNL A   1      44.314  25.576  34.027  1.00  0.00     0.009 A 
ATOM     51  C   UNL A   1      42.620  23.565  34.945  1.00  0.00     0.001 A 
ATOM     52  C   UNL A   1      44.325  24.321  33.415  1.00  0.00     0.001 A 
ATOM     53  C   UNL A   1      43.483  23.314  33.880  1.00  0.00     0.000 A 
ENDBRANCH  29  48
BRANCH  41  54
ATOM     54  C   UNL A   1      46.713  28.741  40.534  1.00  0.00    -0.014 A 
ATOM     55  C   UNL A   1      48.091  28.879  40.309  1.00  0.00     0.009 A 
ATOM     56  C   UNL A   1      46.266  28.133  41.717  1.00  0.00     0.009 A 
ATOM     57  C   UNL A   1      49.004  28.389  41.241  1.00  0.00     0.001 A 
ATOM     58  C   UNL A   1      47.182  27.673  42.661  1.00  0.00     0.001 A 
ATOM     59  C   UNL A   1      48.549  27.793  42.418  1.00  0.00     0.000 A 
ENDBRANCH  41  54
ENDBRANCH  15  16
ENDBRANCH   8  10
ENDBRANCH   7   8
ENDBRANCH   6   7
ENDBRANCH   5   6
ENDBRANCH   4   5
ENDBRANCH   3   4
ENDBRANCH   2   3
ENDBRANCH   1   2
BRANCH   1  60
ATOM     60  C   UNL A   1      34.118  28.509  26.241  1.00  0.00     0.188 C 
BRANCH  60  61
ATOM     61  C   UNL A   1      32.943  28.663  25.262  1.00  0.00     0.188 C 
BRANCH  61  62
ATOM     62  O   UNL A   1      32.426  27.422  24.811  1.00  0.00    -0.376 OA
BRANCH  62  63
ATOM     63  C   UNL A   1      31.985  26.550  25.844  1.00  0.00     0.202 C 
BRANCH  63  64
ATOM     64  C   UNL A   1      32.278  25.055  25.622  1.00  0.00     0.261 C 
BRANCH  64  65
ATOM     65  O   UNL A   1      33.460  24.505  26.261  1.00  0.00    -0.462 OA
BRANCH  65  66
ATOM     66  C   UNL A   1      34.601  24.345  25.538  1.00  0.00     0.328 C 
ATOM     67  O   UNL A   1      34.732  24.808  24.414  1.00  0.00    -0.250 OA
BRANCH  66  68
ATOM     68  C   UNL A   1      35.684  23.500  26.303  1.00  0.00     0.193 C 
ATOM     69  C   UNL A   1      35.002  22.221  26.811  1.00  0.00     0.037 C 
ATOM     70  N   UNL A   1      36.911  23.138  25.508  1.00  0.00    -0.343 N 
ATOM     71  C   UNL A   1      34.763  21.212  25.686  1.00  0.00     0.005 C 
ATOM     72  C   UNL A   1      36.816  22.074  24.501  1.00  0.00     0.119 C 
ATOM     73  C   UNL A   1      36.081  20.846  25.025  1.00  0.00     0.022 C 
BRANCH  70  74
ATOM     74  C   UNL A   1      38.185  23.403  26.034  1.00  0.00     0.134 A 
ATOM     75  C   UNL A   1      38.418  24.565  26.770  1.00  0.00     0.076 A 
ATOM     76  N   UNL A   1      39.182  22.527  25.863  1.00  0.00    -0.211 NA
ATOM     77  C   UNL A   1      39.637  24.735  27.410  1.00  0.00     0.076 A 
ATOM     78  C   UNL A   1      40.373  22.820  26.439  1.00  0.00     0.162 A 
ATOM     79  N   UNL A   1      40.640  23.873  27.228  1.00  0.00    -0.228 NA
BRANCH  77  80
ATOM     80  C   UNL A   1      39.889  25.806  28.392  1.00  0.00     0.000 A 
ATOM     81  C   UNL A   1      41.151  26.401  28.548  1.00  0.00     0.010 A 
ATOM     82  C   UNL A   1      38.863  26.237  29.252  1.00  0.00     0.010 A 
ATOM     83  C   UNL A   1      41.359  27.420  29.488  1.00  0.00     0.001 A 
ATOM     84  C   UNL A   1      39.060  27.271  30.174  1.00  0.00     0.001 A 
ATOM     85  C   UNL A   1      40.310  27.866  30.289  1.00  0.00     0.000 A 
ENDBRANCH  77  80
BRANCH  78  86
ATOM     86  C   UNL A   1      41.515  21.972  26.116  1.00  0.00     0.021 A 
ATOM     87  C   UNL A   1      42.670  22.526  25.537  1.00  0.00     0.012 A 
ATOM     88  C   UNL A   1      41.511  20.602  26.428  1.00  0.00     0.032 A 
ATOM     89  C   UNL A   1      43.787  21.734  25.264  1.00  0.00     0.002 A 
ATOM     90  C   UNL A   1      42.621  19.810  26.134  1.00  0.00     0.041 A 
ATOM     91  C   UNL A   1      43.757  20.372  25.554  1.00  0.00     0.020 A 
ATOM     92  Cl  UNL A   1      42.588  18.128  26.491  1.00  0.00    -0.084 Cl
ENDBRANCH  78  86
ENDBRANCH  70  74
ENDBRANCH  66  68
ENDBRANCH  65  66
ENDBRANCH  64  65
ENDBRANCH  63  64
ENDBRANCH  62  63
ENDBRANCH  61  62
ENDBRANCH  60  61
ENDBRANCH   1  60
TORSDOF 23
ENDMDL
MODEL 3
REMARK VINA RESULT:      -8.2      5.578     10.450
REMARK SMILES O=C(OCCOCCOCCOCCOC(=O)[C@H]1CCCCN1c1cc(-c2ccccc2)nc(-c2cccc(Cl)c2)n1)c1ccc(-c2c3nc(c(-c4ccccc4)c4ccc([nH]4)c(-c4ccccc4)c4nc(c(-c5ccccc5)c5ccc2[nH]5)C=C4)C=C3)cc1
REMARK SMILES IDX 9 1 8 2 7 3 6 4 5 5 4 6 3 7 2 8 1 9 43 10 44 11 90 12 45 13
REMARK SMILES IDX 89 14 46 15 47 16 48 17 83 18 49 19 88 20 82 21 84 22 50 23
REMARK SMILES IDX 87 24 81 25 80 26 51 28 73 29 58 30 72 31 59 32 62 33 71 34
REMARK SMILES IDX 85 35 60 36 61 37 70 39 86 40 63 41 52 42 53 43 57 44 54 45
REMARK SMILES IDX 56 46 55 47 74 48 75 49 79 50 76 51 78 52 77 53 64 54 65 55
REMARK SMILES IDX 69 56 66 57 68 58 67 59 10 60 11 61 12 62 13 63 14 64 15 65
REMARK SMILES IDX 16 66 17 67 18 68 19 69 23 70 20 71 22 72 21 73 24 74 25 75
REMARK SMILES IDX 42 76 26 77 34 78 33 79 27 80 28 81 32 82 29 83 31 84 30 85
REMARK SMILES IDX 35 86 36 87 41 88 37 89 39 90 38 91 40 92
REMARK H PARENT 84 27 62 38
REMARK Flexibility Score: inf
ROOT
ATOM      1  O   UNL A   1      47.154  26.354  24.028  1.00  0.00    -0.377 OA
ENDROOT
BRANCH   1   2
ATOM      2  C   UNL A   1      48.212  25.625  24.635  1.00  0.00     0.188 C 
BRANCH   2   3
ATOM      3  C   UNL A   1      48.473  26.038  26.081  1.00  0.00     0.188 C 
BRANCH   3   4
ATOM      4  O   UNL A   1      48.826  24.904  26.885  1.00  0.00    -0.376 OA
BRANCH   4   5
ATOM      5  C   UNL A   1      50.121  24.940  27.487  1.00  0.00     0.202 C 
BRANCH   5   6
ATOM      6  C   UNL A   1      50.140  24.990  29.013  1.00  0.00     0.261 C 
BRANCH   6   7
ATOM      7  O   UNL A   1      51.019  25.999  29.518  1.00  0.00    -0.460 OA
BRANCH   7   8
ATOM      8  C   UNL A   1      50.978  27.333  29.289  1.00  0.00     0.338 C 
ATOM      9  O   UNL A   1      51.951  27.843  28.735  1.00  0.00    -0.246 OA
BRANCH   8  10
ATOM     10  C   UNL A   1      49.852  28.246  29.699  1.00  0.00     0.060 A 
ATOM     11  C   UNL A   1      49.770  28.992  30.880  1.00  0.00     0.016 A 
ATOM     12  C   UNL A   1      48.789  28.373  28.783  1.00  0.00     0.016 A 
ATOM     13  C   UNL A   1      48.680  29.791  31.174  1.00  0.00     0.010 A 
ATOM     14  C   UNL A   1      47.664  29.147  29.080  1.00  0.00     0.010 A 
ATOM     15  C   UNL A   1      47.599  29.816  30.304  1.00  0.00    -0.014 A 
BRANCH  15  16
ATOM     16  C   UNL A   1      46.330  30.273  30.879  1.00  0.00     0.031 A 
ATOM     17  C   UNL A   1      45.693  29.374  31.897  1.00  0.00     0.074 A 
ATOM     18  C   UNL A   1      45.902  31.526  30.665  1.00  0.00     0.049 A 
ATOM     19  N   UNL A   1      44.587  29.530  32.570  1.00  0.00    -0.248 NA
ATOM     20  C   UNL A   1      46.429  28.137  32.227  1.00  0.00     0.031 C 
ATOM     21  C   UNL A   1      46.592  32.528  29.851  1.00  0.00     0.029 A 
ATOM     22  N   UNL A   1      44.810  32.181  31.158  1.00  0.00    -0.354 N 
ATOM     23  C   UNL A   1      44.478  28.398  33.369  1.00  0.00     0.074 A 
ATOM     24  C   UNL A   1      45.632  27.569  33.113  1.00  0.00     0.031 C 
ATOM     25  C   UNL A   1      45.907  33.682  29.912  1.00  0.00     0.029 A 
ATOM     26  C   UNL A   1      44.704  33.474  30.712  1.00  0.00     0.049 A 
ATOM     27  H   UNL A   1      44.162  31.767  31.772  1.00  0.00     0.167 HD
ATOM     28  C   UNL A   1      43.484  28.074  34.224  1.00  0.00     0.031 A 
ATOM     29  C   UNL A   1      43.715  34.364  30.910  1.00  0.00     0.031 A 
ATOM     30  C   UNL A   1      42.337  28.911  34.425  1.00  0.00     0.049 A 
ATOM     31  C   UNL A   1      42.543  33.926  31.746  1.00  0.00     0.074 A 
ATOM     32  C   UNL A   1      41.203  28.670  35.174  1.00  0.00     0.029 A 
ATOM     33  N   UNL A   1      42.190  30.169  33.853  1.00  0.00    -0.354 N 
ATOM     34  N   UNL A   1      42.380  32.808  32.417  1.00  0.00    -0.248 NA
ATOM     35  C   UNL A   1      41.413  34.857  31.839  1.00  0.00     0.031 C 
ATOM     36  C   UNL A   1      40.344  29.764  35.010  1.00  0.00     0.029 A 
ATOM     37  C   UNL A   1      40.972  30.711  34.212  1.00  0.00     0.049 A 
ATOM     38  H   UNL A   1      42.856  30.608  33.277  1.00  0.00     0.167 HD
ATOM     39  C   UNL A   1      41.136  32.905  33.024  1.00  0.00     0.074 A 
ATOM     40  C   UNL A   1      40.598  34.202  32.654  1.00  0.00     0.031 C 
ATOM     41  C   UNL A   1      40.489  32.010  33.812  1.00  0.00     0.031 A 
BRANCH  28  42
ATOM     42  C   UNL A   1      43.568  26.719  34.868  1.00  0.00    -0.014 A 
ATOM     43  C   UNL A   1      44.346  26.488  36.014  1.00  0.00     0.009 A 
ATOM     44  C   UNL A   1      42.931  25.632  34.250  1.00  0.00     0.009 A 
ATOM     45  C   UNL A   1      44.526  25.187  36.495  1.00  0.00     0.001 A 
ATOM     46  C   UNL A   1      43.091  24.338  34.749  1.00  0.00     0.001 A 
ATOM     47  C   UNL A   1      43.900  24.114  35.860  1.00  0.00     0.000 A 
ENDBRANCH  28  42
BRANCH  29  48
ATOM     48  C   UNL A   1      43.763  35.699  30.258  1.00  0.00    -0.014 A 
ATOM     49  C   UNL A   1      43.144  35.927  29.020  1.00  0.00     0.009 A 
ATOM     50  C   UNL A   1      44.433  36.768  30.882  1.00  0.00     0.009 A 
ATOM     51  C   UNL A   1      43.205  37.188  28.418  1.00  0.00     0.001 A 
ATOM     52  C   UNL A   1      44.467  38.033  30.293  1.00  0.00     0.001 A 
ATOM     53  C   UNL A   1      43.860  38.240  29.056  1.00  0.00     0.000 A 
ENDBRANCH  29  48
BRANCH  41  54
ATOM     54  C   UNL A   1      39.153  32.429  34.350  1.00  0.00    -0.014 A 
ATOM     55  C   UNL A   1      39.035  33.060  35.596  1.00  0.00     0.009 A 
ATOM     56  C   UNL A   1      38.006  32.239  33.563  1.00  0.00     0.009 A 
ATOM     57  C   UNL A   1      37.784  33.468  36.058  1.00  0.00     0.001 A 
ATOM     58  C   UNL A   1      36.763  32.676  34.015  1.00  0.00     0.001 A 
ATOM     59  C   UNL A   1      36.652  33.282  35.264  1.00  0.00     0.000 A 
ENDBRANCH  41  54
ENDBRANCH  15  16
ENDBRANCH   8  10
ENDBRANCH   7   8
ENDBRANCH   6   7
ENDBRANCH   5   6
ENDBRANCH   4   5
ENDBRANCH   3   4
ENDBRANCH   2   3
ENDBRANCH   1   2
BRANCH   1  60
ATOM     60  C   UNL A   1      46.347  27.102  24.924  1.00  0.00     0.188 C 
BRANCH  60  61
ATOM     61  C   UNL A   1      44.859  26.730  25.019  1.00  0.00     0.188 C 
BRANCH  61  62
ATOM     62  O   UNL A   1      44.632  25.330  24.990  1.00  0.00    -0.376 OA
BRANCH  62  63
ATOM     63  C   UNL A   1      43.294  24.937  25.269  1.00  0.00     0.202 C 
BRANCH  63  64
ATOM     64  C   UNL A   1      43.133  23.837  26.334  1.00  0.00     0.261 C 
BRANCH  64  65
ATOM     65  O   UNL A   1      42.407  24.181  27.543  1.00  0.00    -0.462 OA
BRANCH  65  66
ATOM     66  C   UNL A   1      42.966  23.926  28.757  1.00  0.00     0.328 C 
ATOM     67  O   UNL A   1      43.156  22.788  29.162  1.00  0.00    -0.250 OA
BRANCH  66  68
ATOM     68  C   UNL A   1      43.306  25.241  29.549  1.00  0.00     0.193 C 
ATOM     69  C   UNL A   1      44.200  24.851  30.737  1.00  0.00     0.037 C 
ATOM     70  N   UNL A   1      43.971  26.331  28.751  1.00  0.00    -0.343 N 
ATOM     71  C   UNL A   1      45.633  24.543  30.298  1.00  0.00     0.005 C 
ATOM     72  C   UNL A   1      45.391  26.193  28.406  1.00  0.00     0.119 C 
ATOM     73  C   UNL A   1      46.234  25.748  29.596  1.00  0.00     0.022 C 
BRANCH  70  74
ATOM     74  C   UNL A   1      43.449  27.634  28.780  1.00  0.00     0.134 A 
ATOM     75  C   UNL A   1      44.197  28.705  28.291  1.00  0.00     0.076 A 
ATOM     76  N   UNL A   1      42.215  27.857  29.245  1.00  0.00    -0.211 NA
ATOM     77  C   UNL A   1      43.608  29.957  28.185  1.00  0.00     0.076 A 
ATOM     78  C   UNL A   1      41.753  29.130  29.198  1.00  0.00     0.162 A 
ATOM     79  N   UNL A   1      42.384  30.188  28.665  1.00  0.00    -0.228 NA
BRANCH  77  80
ATOM     80  C   UNL A   1      44.234  31.085  27.470  1.00  0.00     0.000 A 
ATOM     81  C   UNL A   1      45.477  30.971  26.829  1.00  0.00     0.010 A 
ATOM     82  C   UNL A   1      43.613  32.346  27.451  1.00  0.00     0.010 A 
ATOM     83  C   UNL A   1      46.046  32.060  26.153  1.00  0.00     0.001 A 
ATOM     84  C   UNL A   1      44.164  33.429  26.756  1.00  0.00     0.001 A 
ATOM     85  C   UNL A   1      45.381  33.284  26.104  1.00  0.00     0.000 A 
ENDBRANCH  77  80
BRANCH  78  86
ATOM     86  C   UNL A   1      40.487  29.422  29.863  1.00  0.00     0.021 A 
ATOM     87  C   UNL A   1      39.726  30.540  29.481  1.00  0.00     0.012 A 
ATOM     88  C   UNL A   1      39.974  28.566  30.851  1.00  0.00     0.032 A 
ATOM     89  C   UNL A   1      38.493  30.807  30.077  1.00  0.00     0.002 A 
ATOM     90  C   UNL A   1      38.751  28.847  31.459  1.00  0.00     0.041 A 
ATOM     91  C   UNL A   1      38.010  29.963  31.076  1.00  0.00     0.020 A 
ATOM     92  Cl  UNL A   1      38.152  27.808  32.692  1.00  0.00    -0.084 Cl
ENDBRANCH  78  86
ENDBRANCH  70  74
ENDBRANCH  66  68
ENDBRANCH  65  66
ENDBRANCH  64  65
ENDBRANCH  63  64
ENDBRANCH  62  63
ENDBRANCH  61  62
ENDBRANCH  60  61
ENDBRANCH   1  60
TORSDOF 23
ENDMDL
