MODEL 1
REMARK VINA RESULT:      -6.6      0.000      0.000
REMARK SMILES Cc1ccc(CSc2nnc(CCC(=O)OCCOCCOCCOCCOC(=O)c3ccc(-c4c5nc(c(-c6ccccc6)c6ccc([nH]6)c(-c6ccccc6)c6nc(c(-c7ccccc7)c7ccc4[nH]7)C=C6)C=C5)cc3)c(O)n2)cc1
REMARK SMILES IDX 20 1 19 2 18 3 17 4 16 5 14 6 15 7 13 8 12 9 11 10 8 11 9 12
REMARK SMILES IDX 81 13 10 14 79 15 7 16 6 17 5 18 1 19 2 20 3 21 83 22 4 23
REMARK SMILES IDX 82 24 80 25 21 27 22 28 23 29 24 30 25 31 26 32 27 33 28 34
REMARK SMILES IDX 29 35 30 36 31 37 32 38 78 39 33 40 77 41 34 42 35 43 36 44
REMARK SMILES IDX 71 45 37 46 76 47 70 48 72 49 38 50 75 51 69 52 68 53 39 55
REMARK SMILES IDX 61 56 46 57 60 58 47 59 50 60 59 61 73 62 48 63 49 64 58 66
REMARK SMILES IDX 74 67 51 68 40 69 41 70 45 71 42 72 44 73 43 74 62 75 63 76
REMARK SMILES IDX 67 77 64 78 66 79 65 80 52 81 53 82 57 83 54 84 56 85 55 86
REMARK H PARENT 80 26 72 54 50 65
REMARK Flexibility Score: inf
ROOT
ATOM      1  C   UNL A   1      38.747  31.663  33.673  1.00  0.00     0.188 C 
ENDROOT
BRANCH   1   2
ATOM      2  O   UNL A   1      38.043  30.928  34.661  1.00  0.00    -0.376 OA
BRANCH   2   3
ATOM      3  C   UNL A   1      38.668  30.890  35.941  1.00  0.00     0.202 C 
BRANCH   3   4
ATOM      4  C   UNL A   1      40.187  30.715  35.968  1.00  0.00     0.261 C 
BRANCH   4   5
ATOM      5  O   UNL A   1      40.521  29.441  35.365  1.00  0.00    -0.463 OA
BRANCH   5   6
ATOM      6  C   UNL A   1      41.477  28.692  35.971  1.00  0.00     0.306 C 
ATOM      7  O   UNL A   1      41.418  27.498  36.152  1.00  0.00    -0.252 OA
BRANCH   6   8
ATOM      8  C   UNL A   1      42.655  29.557  36.394  1.00  0.00     0.129 C 
BRANCH   8   9
ATOM      9  C   UNL A   1      43.629  29.851  35.247  1.00  0.00     0.076 C 
BRANCH   9  10
ATOM     10  C   UNL A   1      43.532  31.197  34.561  1.00  0.00     0.126 A 
ATOM     11  C   UNL A   1      43.160  33.690  33.377  1.00  0.00     0.212 A 
ATOM     12  N   UNL A   1      43.968  33.544  34.433  1.00  0.00    -0.123 NA
ATOM     13  N   UNL A   1      42.511  32.625  32.866  1.00  0.00    -0.184 NA
ATOM     14  N   UNL A   1      44.152  32.280  35.052  1.00  0.00    -0.147 NA
ATOM     15  C   UNL A   1      42.721  31.433  33.472  1.00  0.00     0.237 A 
BRANCH  11  16
ATOM     16  S   UNL A   1      43.077  35.146  32.330  1.00  0.00    -0.080 SA
BRANCH  16  17
ATOM     17  C   UNL A   1      41.864  34.981  30.941  1.00  0.00     0.113 C 
BRANCH  17  18
ATOM     18  C   UNL A   1      42.394  35.140  29.533  1.00  0.00    -0.038 A 
ATOM     19  C   UNL A   1      43.483  34.725  25.396  1.00  0.00     0.044 C 
ATOM     20  C   UNL A   1      43.173  35.041  26.827  1.00  0.00    -0.051 A 
ATOM     21  C   UNL A   1      44.058  34.658  27.836  1.00  0.00     0.004 A 
ATOM     22  C   UNL A   1      42.003  35.703  27.191  1.00  0.00     0.004 A 
ATOM     23  C   UNL A   1      43.672  34.709  29.177  1.00  0.00     0.005 A 
ATOM     24  C   UNL A   1      41.650  35.796  28.542  1.00  0.00     0.005 A 
ENDBRANCH  17  18
ENDBRANCH  16  17
ENDBRANCH  11  16
BRANCH  15  25
ATOM     25  O   UNL A   1      42.012  30.431  32.888  1.00  0.00    -0.492 OA
ATOM     26  H   UNL A   1      42.402  29.915  32.210  1.00  0.00     0.295 HD
ENDBRANCH  15  25
ENDBRANCH   9  10
ENDBRANCH   8   9
ENDBRANCH   6   8
ENDBRANCH   5   6
ENDBRANCH   4   5
ENDBRANCH   3   4
ENDBRANCH   2   3
ENDBRANCH   1   2
BRANCH   1  27
ATOM     27  C   UNL A   1      38.848  31.079  32.258  1.00  0.00     0.188 C 
BRANCH  27  28
ATOM     28  O   UNL A   1      39.614  31.784  31.297  1.00  0.00    -0.377 OA
BRANCH  28  29
ATOM     29  C   UNL A   1      38.945  32.206  30.109  1.00  0.00     0.188 C 
BRANCH  29  30
ATOM     30  C   UNL A   1      37.715  33.078  30.250  1.00  0.00     0.188 C 
BRANCH  30  31
ATOM     31  O   UNL A   1      36.583  32.252  29.984  1.00  0.00    -0.376 OA
BRANCH  31  32
ATOM     32  C   UNL A   1      36.402  31.907  28.618  1.00  0.00     0.202 C 
BRANCH  32  33
ATOM     33  C   UNL A   1      36.079  30.422  28.416  1.00  0.00     0.261 C 
BRANCH  33  34
ATOM     34  O   UNL A   1      37.321  29.691  28.353  1.00  0.00    -0.460 OA
BRANCH  34  35
ATOM     35  C   UNL A   1      37.596  28.909  29.430  1.00  0.00     0.338 C 
ATOM     36  O   UNL A   1      37.041  28.977  30.516  1.00  0.00    -0.246 OA
BRANCH  35  37
ATOM     37  C   UNL A   1      38.860  28.147  29.198  1.00  0.00     0.060 A 
ATOM     38  C   UNL A   1      39.849  28.119  30.190  1.00  0.00     0.016 A 
ATOM     39  C   UNL A   1      39.186  27.741  27.907  1.00  0.00     0.016 A 
ATOM     40  C   UNL A   1      41.188  27.860  29.848  1.00  0.00     0.010 A 
ATOM     41  C   UNL A   1      40.517  27.568  27.563  1.00  0.00     0.010 A 
ATOM     42  C   UNL A   1      41.542  27.691  28.512  1.00  0.00    -0.014 A 
BRANCH  42  43
ATOM     43  C   UNL A   1      42.921  27.766  27.986  1.00  0.00     0.031 A 
ATOM     44  C   UNL A   1      43.465  29.054  27.496  1.00  0.00     0.074 A 
ATOM     45  C   UNL A   1      43.813  26.783  28.273  1.00  0.00     0.049 A 
ATOM     46  N   UNL A   1      44.658  29.210  27.032  1.00  0.00    -0.248 NA
ATOM     47  C   UNL A   1      42.728  30.307  27.549  1.00  0.00     0.031 C 
ATOM     48  C   UNL A   1      45.278  26.835  28.274  1.00  0.00     0.029 A 
ATOM     49  N   UNL A   1      43.579  25.467  28.646  1.00  0.00    -0.354 N 
ATOM     50  C   UNL A   1      44.984  30.538  27.156  1.00  0.00     0.074 A 
ATOM     51  C   UNL A   1      43.711  31.192  27.349  1.00  0.00     0.031 C 
ATOM     52  C   UNL A   1      45.800  25.603  28.362  1.00  0.00     0.029 A 
ATOM     53  C   UNL A   1      44.681  24.715  28.191  1.00  0.00     0.049 A 
ATOM     54  H   UNL A   1      42.796  25.125  29.134  1.00  0.00     0.167 HD
ATOM     55  C   UNL A   1      46.306  30.883  27.242  1.00  0.00     0.031 A 
ATOM     56  C   UNL A   1      44.518  23.798  27.200  1.00  0.00     0.031 A 
ATOM     57  C   UNL A   1      47.206  29.729  26.991  1.00  0.00     0.049 A 
ATOM     58  C   UNL A   1      45.398  24.226  26.056  1.00  0.00     0.074 A 
ATOM     59  C   UNL A   1      48.228  29.106  27.697  1.00  0.00     0.029 A 
ATOM     60  N   UNL A   1      46.947  28.886  25.901  1.00  0.00    -0.354 N 
ATOM     61  N   UNL A   1      45.606  25.488  25.756  1.00  0.00    -0.248 NA
ATOM     62  C   UNL A   1      46.333  23.324  25.381  1.00  0.00     0.031 C 
ATOM     63  C   UNL A   1      48.471  27.832  27.098  1.00  0.00     0.029 A 
ATOM     64  C   UNL A   1      47.633  27.692  25.999  1.00  0.00     0.049 A 
ATOM     65  H   UNL A   1      46.348  29.118  25.155  1.00  0.00     0.167 HD
ATOM     66  C   UNL A   1      46.786  25.578  25.071  1.00  0.00     0.074 A 
ATOM     67  C   UNL A   1      47.150  24.200  24.766  1.00  0.00     0.031 C 
ATOM     68  C   UNL A   1      47.558  26.697  24.936  1.00  0.00     0.031 A 
BRANCH  55  69
ATOM     69  C   UNL A   1      46.796  32.232  27.763  1.00  0.00    -0.014 A 
ATOM     70  C   UNL A   1      47.257  33.220  26.872  1.00  0.00     0.009 A 
ATOM     71  C   UNL A   1      46.870  32.589  29.123  1.00  0.00     0.009 A 
ATOM     72  C   UNL A   1      47.773  34.455  27.309  1.00  0.00     0.001 A 
ATOM     73  C   UNL A   1      47.375  33.820  29.572  1.00  0.00     0.001 A 
ATOM     74  C   UNL A   1      47.831  34.756  28.662  1.00  0.00     0.000 A 
ENDBRANCH  55  69
BRANCH  56  75
ATOM     75  C   UNL A   1      43.156  23.182  27.327  1.00  0.00    -0.014 A 
ATOM     76  C   UNL A   1      42.471  23.147  26.091  1.00  0.00     0.009 A 
ATOM     77  C   UNL A   1      42.782  22.220  28.261  1.00  0.00     0.009 A 
ATOM     78  C   UNL A   1      41.689  22.072  25.680  1.00  0.00     0.001 A 
ATOM     79  C   UNL A   1      41.862  21.207  27.896  1.00  0.00     0.001 A 
ATOM     80  C   UNL A   1      41.372  21.093  26.591  1.00  0.00     0.000 A 
ENDBRANCH  56  75
BRANCH  68  81
ATOM     81  C   UNL A   1      48.314  26.956  23.665  1.00  0.00    -0.014 A 
ATOM     82  C   UNL A   1      47.775  27.724  22.623  1.00  0.00     0.009 A 
ATOM     83  C   UNL A   1      49.692  26.657  23.605  1.00  0.00     0.009 A 
ATOM     84  C   UNL A   1      48.572  28.166  21.565  1.00  0.00     0.001 A 
ATOM     85  C   UNL A   1      50.498  27.133  22.572  1.00  0.00     0.001 A 
ATOM     86  C   UNL A   1      49.934  27.884  21.550  1.00  0.00     0.000 A 
ENDBRANCH  68  81
ENDBRANCH  42  43
ENDBRANCH  35  37
ENDBRANCH  34  35
ENDBRANCH  33  34
ENDBRANCH  32  33
ENDBRANCH  31  32
ENDBRANCH  30  31
ENDBRANCH  29  30
ENDBRANCH  28  29
ENDBRANCH  27  28
ENDBRANCH   1  27
TORSDOF 26
ENDMDL
MODEL 2
REMARK VINA RESULT:      -6.5      4.367      7.414
REMARK SMILES Cc1ccc(CSc2nnc(CCC(=O)OCCOCCOCCOCCOC(=O)c3ccc(-c4c5nc(c(-c6ccccc6)c6ccc([nH]6)c(-c6ccccc6)c6nc(c(-c7ccccc7)c7ccc4[nH]7)C=C6)C=C5)cc3)c(O)n2)cc1
REMARK SMILES IDX 20 1 19 2 18 3 17 4 16 5 14 6 15 7 13 8 12 9 11 10 8 11 9 12
REMARK SMILES IDX 81 13 10 14 79 15 7 16 6 17 5 18 1 19 2 20 3 21 83 22 4 23
REMARK SMILES IDX 82 24 80 25 21 27 22 28 23 29 24 30 25 31 26 32 27 33 28 34
REMARK SMILES IDX 29 35 30 36 31 37 32 38 78 39 33 40 77 41 34 42 35 43 36 44
REMARK SMILES IDX 71 45 37 46 76 47 70 48 72 49 38 50 75 51 69 52 68 53 39 55
REMARK SMILES IDX 61 56 46 57 60 58 47 59 50 60 59 61 73 62 48 63 49 64 58 66
REMARK SMILES IDX 74 67 51 68 40 69 41 70 45 71 42 72 44 73 43 74 62 75 63 76
REMARK SMILES IDX 67 77 64 78 66 79 65 80 52 81 53 82 57 83 54 84 56 85 55 86
REMARK H PARENT 80 26 72 54 50 65
REMARK Flexibility Score: inf
ROOT
ATOM      1  C   UNL A   1      36.555  34.131  33.834  1.00  0.00     0.188 C 
ENDROOT
BRANCH   1   2
ATOM      2  O   UNL A   1      35.208  34.362  34.210  1.00  0.00    -0.376 OA
BRANCH   2   3
ATOM      3  C   UNL A   1      34.275  34.367  33.132  1.00  0.00     0.202 C 
BRANCH   3   4
ATOM      4  C   UNL A   1      34.617  33.509  31.914  1.00  0.00     0.261 C 
BRANCH   4   5
ATOM      5  O   UNL A   1      34.748  34.371  30.757  1.00  0.00    -0.463 OA
BRANCH   5   6
ATOM      6  C   UNL A   1      35.284  33.834  29.632  1.00  0.00     0.306 C 
ATOM      7  O   UNL A   1      36.369  34.108  29.175  1.00  0.00    -0.252 OA
BRANCH   6   8
ATOM      8  C   UNL A   1      34.334  32.821  29.011  1.00  0.00     0.129 C 
BRANCH   8   9
ATOM      9  C   UNL A   1      35.023  31.877  28.019  1.00  0.00     0.076 C 
BRANCH   9  10
ATOM     10  C   UNL A   1      34.194  30.775  27.394  1.00  0.00     0.126 A 
ATOM     11  C   UNL A   1      32.669  28.653  26.430  1.00  0.00     0.212 A 
ATOM     12  N   UNL A   1      32.118  29.853  26.649  1.00  0.00    -0.123 NA
ATOM     13  N   UNL A   1      33.980  28.454  26.672  1.00  0.00    -0.184 NA
ATOM     14  N   UNL A   1      32.884  30.936  27.155  1.00  0.00    -0.147 NA
ATOM     15  C   UNL A   1      34.683  29.513  27.139  1.00  0.00     0.237 A 
BRANCH  11  16
ATOM     16  S   UNL A   1      31.899  27.310  25.521  1.00  0.00    -0.080 SA
BRANCH  16  17
ATOM     17  C   UNL A   1      31.970  25.689  26.413  1.00  0.00     0.113 C 
BRANCH  17  18
ATOM     18  C   UNL A   1      33.094  24.744  26.049  1.00  0.00    -0.038 A 
ATOM     19  C   UNL A   1      35.834  22.028  24.155  1.00  0.00     0.044 C 
ATOM     20  C   UNL A   1      34.997  22.977  24.957  1.00  0.00    -0.051 A 
ATOM     21  C   UNL A   1      33.945  22.495  25.737  1.00  0.00     0.004 A 
ATOM     22  C   UNL A   1      35.231  24.350  24.938  1.00  0.00     0.004 A 
ATOM     23  C   UNL A   1      33.003  23.372  26.280  1.00  0.00     0.005 A 
ATOM     24  C   UNL A   1      34.307  25.219  25.531  1.00  0.00     0.005 A 
ENDBRANCH  17  18
ENDBRANCH  16  17
ENDBRANCH  11  16
BRANCH  15  25
ATOM     25  O   UNL A   1      35.988  29.202  27.361  1.00  0.00    -0.492 OA
ATOM     26  H   UNL A   1      36.233  28.316  27.544  1.00  0.00     0.295 HD
ENDBRANCH  15  25
ENDBRANCH   9  10
ENDBRANCH   8   9
ENDBRANCH   6   8
ENDBRANCH   5   6
ENDBRANCH   4   5
ENDBRANCH   3   4
ENDBRANCH   2   3
ENDBRANCH   1   2
BRANCH   1  27
ATOM     27  C   UNL A   1      37.225  32.824  34.275  1.00  0.00     0.188 C 
BRANCH  27  28
ATOM     28  O   UNL A   1      37.503  31.847  33.286  1.00  0.00    -0.377 OA
BRANCH  28  29
ATOM     29  C   UNL A   1      38.602  32.098  32.410  1.00  0.00     0.188 C 
BRANCH  29  30
ATOM     30  C   UNL A   1      38.470  31.691  30.958  1.00  0.00     0.188 C 
BRANCH  30  31
ATOM     31  O   UNL A   1      37.485  30.661  30.900  1.00  0.00    -0.376 OA
BRANCH  31  32
ATOM     32  C   UNL A   1      37.937  29.432  30.349  1.00  0.00     0.202 C 
BRANCH  32  33
ATOM     33  C   UNL A   1      37.886  28.275  31.353  1.00  0.00     0.261 C 
BRANCH  33  34
ATOM     34  O   UNL A   1      39.237  27.834  31.607  1.00  0.00    -0.460 OA
BRANCH  34  35
ATOM     35  C   UNL A   1      39.876  28.460  32.631  1.00  0.00     0.338 C 
ATOM     36  O   UNL A   1      39.339  28.910  33.631  1.00  0.00    -0.246 OA
BRANCH  35  37
ATOM     37  C   UNL A   1      41.283  28.773  32.239  1.00  0.00     0.060 A 
ATOM     38  C   UNL A   1      41.544  29.382  31.004  1.00  0.00     0.016 A 
ATOM     39  C   UNL A   1      42.334  28.187  32.940  1.00  0.00     0.016 A 
ATOM     40  C   UNL A   1      42.806  29.243  30.400  1.00  0.00     0.010 A 
ATOM     41  C   UNL A   1      43.547  27.984  32.303  1.00  0.00     0.010 A 
ATOM     42  C   UNL A   1      43.779  28.449  31.000  1.00  0.00    -0.014 A 
BRANCH  42  43
ATOM     43  C   UNL A   1      44.989  27.938  30.324  1.00  0.00     0.031 A 
ATOM     44  C   UNL A   1      46.252  28.712  30.365  1.00  0.00     0.074 A 
ATOM     45  C   UNL A   1      45.074  26.627  29.981  1.00  0.00     0.049 A 
ATOM     46  N   UNL A   1      47.354  28.335  29.813  1.00  0.00    -0.248 NA
ATOM     47  C   UNL A   1      46.404  29.959  31.099  1.00  0.00     0.031 C 
ATOM     48  C   UNL A   1      46.267  25.808  29.741  1.00  0.00     0.029 A 
ATOM     49  N   UNL A   1      44.057  25.708  29.768  1.00  0.00    -0.354 N 
ATOM     50  C   UNL A   1      48.384  28.981  30.450  1.00  0.00     0.074 A 
ATOM     51  C   UNL A   1      47.736  30.074  31.138  1.00  0.00     0.031 C 
ATOM     52  C   UNL A   1      45.938  24.637  29.180  1.00  0.00     0.029 A 
ATOM     53  C   UNL A   1      44.547  24.768  28.838  1.00  0.00     0.049 A 
ATOM     54  H   UNL A   1      43.167  25.710  30.186  1.00  0.00     0.167 HD
ATOM     55  C   UNL A   1      49.626  28.404  30.441  1.00  0.00     0.031 A 
ATOM     56  C   UNL A   1      44.009  24.700  27.590  1.00  0.00     0.031 A 
ATOM     57  C   UNL A   1      49.689  27.220  29.548  1.00  0.00     0.049 A 
ATOM     58  C   UNL A   1      45.117  25.000  26.616  1.00  0.00     0.074 A 
ATOM     59  C   UNL A   1      50.033  25.883  29.708  1.00  0.00     0.029 A 
ATOM     60  N   UNL A   1      49.132  27.303  28.263  1.00  0.00    -0.354 N 
ATOM     61  N   UNL A   1      46.072  25.864  26.874  1.00  0.00    -0.248 NA
ATOM     62  C   UNL A   1      45.415  24.158  25.457  1.00  0.00     0.031 C 
ATOM     63  C   UNL A   1      49.552  25.160  28.575  1.00  0.00     0.029 A 
ATOM     64  C   UNL A   1      48.955  26.056  27.698  1.00  0.00     0.049 A 
ATOM     65  H   UNL A   1      48.896  28.149  27.818  1.00  0.00     0.167 HD
ATOM     66  C   UNL A   1      47.155  25.552  26.100  1.00  0.00     0.074 A 
ATOM     67  C   UNL A   1      46.667  24.553  25.157  1.00  0.00     0.031 C 
ATOM     68  C   UNL A   1      48.449  25.917  26.338  1.00  0.00     0.031 A 
BRANCH  55  69
ATOM     69  C   UNL A   1      50.744  28.788  31.407  1.00  0.00    -0.014 A 
ATOM     70  C   UNL A   1      51.920  29.403  30.935  1.00  0.00     0.009 A 
ATOM     71  C   UNL A   1      50.728  28.541  32.793  1.00  0.00     0.009 A 
ATOM     72  C   UNL A   1      53.001  29.720  31.779  1.00  0.00     0.001 A 
ATOM     73  C   UNL A   1      51.796  28.860  33.647  1.00  0.00     0.001 A 
ATOM     74  C   UNL A   1      52.938  29.449  33.138  1.00  0.00     0.000 A 
ENDBRANCH  55  69
BRANCH  56  75
ATOM     75  C   UNL A   1      42.546  25.020  27.674  1.00  0.00    -0.014 A 
ATOM     76  C   UNL A   1      42.208  26.167  26.921  1.00  0.00     0.009 A 
ATOM     77  C   UNL A   1      41.522  24.099  27.878  1.00  0.00     0.009 A 
ATOM     78  C   UNL A   1      41.043  26.273  26.167  1.00  0.00     0.001 A 
ATOM     79  C   UNL A   1      40.274  24.283  27.234  1.00  0.00     0.001 A 
ATOM     80  C   UNL A   1      40.060  25.326  26.327  1.00  0.00     0.000 A 
ENDBRANCH  56  75
BRANCH  68  81
ATOM     81  C   UNL A   1      49.377  26.233  25.200  1.00  0.00    -0.014 A 
ATOM     82  C   UNL A   1      48.989  27.052  24.130  1.00  0.00     0.009 A 
ATOM     83  C   UNL A   1      50.750  25.931  25.321  1.00  0.00     0.009 A 
ATOM     84  C   UNL A   1      49.926  27.540  23.217  1.00  0.00     0.001 A 
ATOM     85  C   UNL A   1      51.692  26.451  24.435  1.00  0.00     0.001 A 
ATOM     86  C   UNL A   1      51.277  27.253  23.380  1.00  0.00     0.000 A 
ENDBRANCH  68  81
ENDBRANCH  42  43
ENDBRANCH  35  37
ENDBRANCH  34  35
ENDBRANCH  33  34
ENDBRANCH  32  33
ENDBRANCH  31  32
ENDBRANCH  30  31
ENDBRANCH  29  30
ENDBRANCH  28  29
ENDBRANCH  27  28
ENDBRANCH   1  27
TORSDOF 26
ENDMDL
MODEL 3
REMARK VINA RESULT:      -6.5      5.404     12.250
REMARK SMILES Cc1ccc(CSc2nnc(CCC(=O)OCCOCCOCCOCCOC(=O)c3ccc(-c4c5nc(c(-c6ccccc6)c6ccc([nH]6)c(-c6ccccc6)c6nc(c(-c7ccccc7)c7ccc4[nH]7)C=C6)C=C5)cc3)c(O)n2)cc1
REMARK SMILES IDX 20 1 19 2 18 3 17 4 16 5 14 6 15 7 13 8 12 9 11 10 8 11 9 12
REMARK SMILES IDX 81 13 10 14 79 15 7 16 6 17 5 18 1 19 2 20 3 21 83 22 4 23
REMARK SMILES IDX 82 24 80 25 21 27 22 28 23 29 24 30 25 31 26 32 27 33 28 34
REMARK SMILES IDX 29 35 30 36 31 37 32 38 78 39 33 40 77 41 34 42 35 43 36 44
REMARK SMILES IDX 71 45 37 46 76 47 70 48 72 49 38 50 75 51 69 52 68 53 39 55
REMARK SMILES IDX 61 56 46 57 60 58 47 59 50 60 59 61 73 62 48 63 49 64 58 66
REMARK SMILES IDX 74 67 51 68 40 69 41 70 45 71 42 72 44 73 43 74 62 75 63 76
REMARK SMILES IDX 67 77 64 78 66 79 65 80 52 81 53 82 57 83 54 84 56 85 55 86
REMARK H PARENT 80 26 72 54 50 65
REMARK Flexibility Score: inf
ROOT
ATOM      1  C   UNL A   1      39.392  22.355  26.506  1.00  0.00     0.188 C 
ENDROOT
BRANCH   1   2
ATOM      2  O   UNL A   1      38.395  21.608  25.828  1.00  0.00    -0.376 OA
BRANCH   2   3
ATOM      3  C   UNL A   1      37.488  22.384  25.049  1.00  0.00     0.202 C 
BRANCH   3   4
ATOM      4  C   UNL A   1      36.764  23.527  25.761  1.00  0.00     0.261 C 
BRANCH   4   5
ATOM      5  O   UNL A   1      35.670  23.979  24.925  1.00  0.00    -0.463 OA
BRANCH   5   6
ATOM      6  C   UNL A   1      34.575  23.183  24.839  1.00  0.00     0.306 C 
ATOM      7  O   UNL A   1      33.941  22.762  25.778  1.00  0.00    -0.252 OA
BRANCH   6   8
ATOM      8  C   UNL A   1      34.234  22.887  23.385  1.00  0.00     0.129 C 
BRANCH   8   9
ATOM      9  C   UNL A   1      32.739  23.023  23.078  1.00  0.00     0.076 C 
BRANCH   9  10
ATOM     10  C   UNL A   1      32.156  24.418  22.989  1.00  0.00     0.126 A 
ATOM     11  C   UNL A   1      30.985  26.922  22.652  1.00  0.00     0.212 A 
ATOM     12  N   UNL A   1      30.571  26.093  23.618  1.00  0.00    -0.123 NA
ATOM     13  N   UNL A   1      31.983  26.555  21.825  1.00  0.00    -0.184 NA
ATOM     14  N   UNL A   1      31.152  24.809  23.787  1.00  0.00    -0.147 NA
ATOM     15  C   UNL A   1      32.524  25.331  22.024  1.00  0.00     0.237 A 
BRANCH  11  16
ATOM     16  S   UNL A   1      30.554  28.660  22.524  1.00  0.00    -0.080 SA
BRANCH  16  17
ATOM     17  C   UNL A   1      30.233  29.457  24.164  1.00  0.00     0.113 C 
BRANCH  17  18
ATOM     18  C   UNL A   1      31.320  29.353  25.212  1.00  0.00    -0.038 A 
ATOM     19  C   UNL A   1      34.998  29.046  27.413  1.00  0.00     0.044 C 
ATOM     20  C   UNL A   1      33.633  29.174  26.810  1.00  0.00    -0.051 A 
ATOM     21  C   UNL A   1      32.898  28.030  26.492  1.00  0.00     0.004 A 
ATOM     22  C   UNL A   1      33.070  30.418  26.537  1.00  0.00     0.004 A 
ATOM     23  C   UNL A   1      31.750  28.121  25.702  1.00  0.00     0.005 A 
ATOM     24  C   UNL A   1      31.889  30.497  25.788  1.00  0.00     0.005 A 
ENDBRANCH  17  18
ENDBRANCH  16  17
ENDBRANCH  11  16
BRANCH  15  25
ATOM     25  O   UNL A   1      33.510  25.055  21.130  1.00  0.00    -0.492 OA
ATOM     26  H   UNL A   1      34.231  25.645  21.033  1.00  0.00     0.295 HD
ENDBRANCH  15  25
ENDBRANCH   9  10
ENDBRANCH   8   9
ENDBRANCH   6   8
ENDBRANCH   5   6
ENDBRANCH   4   5
ENDBRANCH   3   4
ENDBRANCH   2   3
ENDBRANCH   1   2
BRANCH   1  27
ATOM     27  C   UNL A   1      40.782  21.731  26.681  1.00  0.00     0.188 C 
BRANCH  27  28
ATOM     28  O   UNL A   1      41.626  21.646  25.545  1.00  0.00    -0.377 OA
BRANCH  28  29
ATOM     29  C   UNL A   1      42.711  22.570  25.466  1.00  0.00     0.188 C 
BRANCH  29  30
ATOM     30  C   UNL A   1      44.057  22.143  26.010  1.00  0.00     0.188 C 
BRANCH  30  31
ATOM     31  O   UNL A   1      44.130  22.605  27.358  1.00  0.00    -0.376 OA
BRANCH  31  32
ATOM     32  C   UNL A   1      45.141  23.572  27.605  1.00  0.00     0.202 C 
BRANCH  32  33
ATOM     33  C   UNL A   1      44.625  25.012  27.506  1.00  0.00     0.261 C 
BRANCH  33  34
ATOM     34  O   UNL A   1      45.669  25.901  27.954  1.00  0.00    -0.460 OA
BRANCH  34  35
ATOM     35  C   UNL A   1      45.606  26.270  29.260  1.00  0.00     0.338 C 
ATOM     36  O   UNL A   1      46.180  25.711  30.183  1.00  0.00    -0.246 OA
BRANCH  35  37
ATOM     37  C   UNL A   1      44.519  27.276  29.455  1.00  0.00     0.060 A 
ATOM     38  C   UNL A   1      44.705  28.596  29.022  1.00  0.00     0.016 A 
ATOM     39  C   UNL A   1      43.474  26.992  30.331  1.00  0.00     0.016 A 
ATOM     40  C   UNL A   1      43.966  29.641  29.602  1.00  0.00     0.010 A 
ATOM     41  C   UNL A   1      42.809  28.034  30.956  1.00  0.00     0.010 A 
ATOM     42  C   UNL A   1      43.090  29.373  30.650  1.00  0.00    -0.014 A 
BRANCH  42  43
ATOM     43  C   UNL A   1      42.532  30.389  31.566  1.00  0.00     0.031 A 
ATOM     44  C   UNL A   1      43.296  30.821  32.760  1.00  0.00     0.074 A 
ATOM     45  C   UNL A   1      41.517  31.192  31.155  1.00  0.00     0.049 A 
ATOM     46  N   UNL A   1      42.889  31.707  33.603  1.00  0.00    -0.248 NA
ATOM     47  C   UNL A   1      44.632  30.336  33.075  1.00  0.00     0.031 C 
ATOM     48  C   UNL A   1      41.116  32.510  31.659  1.00  0.00     0.029 A 
ATOM     49  N   UNL A   1      40.588  30.985  30.145  1.00  0.00    -0.354 N 
ATOM     50  C   UNL A   1      43.993  32.212  34.244  1.00  0.00     0.074 A 
ATOM     51  C   UNL A   1      45.024  31.236  33.983  1.00  0.00     0.031 C 
ATOM     52  C   UNL A   1      39.920  32.865  31.169  1.00  0.00     0.029 A 
ATOM     53  C   UNL A   1      39.421  31.684  30.517  1.00  0.00     0.049 A 
ATOM     54  H   UNL A   1      40.718  30.453  29.328  1.00  0.00     0.167 HD
ATOM     55  C   UNL A   1      43.924  33.474  34.772  1.00  0.00     0.031 A 
ATOM     56  C   UNL A   1      38.288  31.001  30.833  1.00  0.00     0.031 A 
ATOM     57  C   UNL A   1      42.549  34.032  34.720  1.00  0.00     0.049 A 
ATOM     58  C   UNL A   1      37.949  31.346  32.258  1.00  0.00     0.074 A 
ATOM     59  C   UNL A   1      41.970  35.174  34.182  1.00  0.00     0.029 A 
ATOM     60  N   UNL A   1      41.471  33.228  35.121  1.00  0.00    -0.354 N 
ATOM     61  N   UNL A   1      38.867  31.556  33.174  1.00  0.00    -0.248 NA
ATOM     62  C   UNL A   1      36.618  31.783  32.683  1.00  0.00     0.031 C 
ATOM     63  C   UNL A   1      40.555  34.979  34.140  1.00  0.00     0.029 A 
ATOM     64  C   UNL A   1      40.262  33.740  34.694  1.00  0.00     0.049 A 
ATOM     65  H   UNL A   1      41.566  32.399  35.643  1.00  0.00     0.167 HD
ATOM     66  C   UNL A   1      38.321  32.327  34.162  1.00  0.00     0.074 A 
ATOM     67  C   UNL A   1      36.893  32.355  33.870  1.00  0.00     0.031 C 
ATOM     68  C   UNL A   1      39.007  33.095  35.060  1.00  0.00     0.031 A 
BRANCH  55  69
ATOM     69  C   UNL A   1      45.151  34.299  35.154  1.00  0.00    -0.014 A 
ATOM     70  C   UNL A   1      46.051  33.836  36.133  1.00  0.00     0.009 A 
ATOM     71  C   UNL A   1      45.466  35.563  34.619  1.00  0.00     0.009 A 
ATOM     72  C   UNL A   1      47.162  34.589  36.559  1.00  0.00     0.001 A 
ATOM     73  C   UNL A   1      46.575  36.320  35.030  1.00  0.00     0.001 A 
ATOM     74  C   UNL A   1      47.425  35.833  36.005  1.00  0.00     0.000 A 
ENDBRANCH  55  69
BRANCH  56  75
ATOM     75  C   UNL A   1      38.217  29.762  29.989  1.00  0.00    -0.014 A 
ATOM     76  C   UNL A   1      38.169  30.061  28.608  1.00  0.00     0.009 A 
ATOM     77  C   UNL A   1      38.736  28.516  30.327  1.00  0.00     0.009 A 
ATOM     78  C   UNL A   1      38.850  29.327  27.643  1.00  0.00     0.001 A 
ATOM     79  C   UNL A   1      39.295  27.691  29.320  1.00  0.00     0.001 A 
ATOM     80  C   UNL A   1      39.415  28.125  27.996  1.00  0.00     0.000 A 
ENDBRANCH  56  75
BRANCH  68  81
ATOM     81  C   UNL A   1      38.509  33.255  36.468  1.00  0.00    -0.014 A 
ATOM     82  C   UNL A   1      37.939  32.191  37.180  1.00  0.00     0.009 A 
ATOM     83  C   UNL A   1      38.852  34.414  37.196  1.00  0.00     0.009 A 
ATOM     84  C   UNL A   1      37.715  32.282  38.556  1.00  0.00     0.001 A 
ATOM     85  C   UNL A   1      38.667  34.491  38.575  1.00  0.00     0.001 A 
ATOM     86  C   UNL A   1      38.093  33.424  39.253  1.00  0.00     0.000 A 
ENDBRANCH  68  81
ENDBRANCH  42  43
ENDBRANCH  35  37
ENDBRANCH  34  35
ENDBRANCH  33  34
ENDBRANCH  32  33
ENDBRANCH  31  32
ENDBRANCH  30  31
ENDBRANCH  29  30
ENDBRANCH  28  29
ENDBRANCH  27  28
ENDBRANCH   1  27
TORSDOF 26
ENDMDL
