MODEL 1
REMARK VINA RESULT:      -9.0      0.000      0.000
REMARK SMILES COc1ccc(NC(=O)N[C@@H]2C=C[C@H](C(=O)OCCOCCOCCOCCOC(=O)c3ccc(-c4c5nc(c(-c6ccccc6)c6ccc([nH]6)c(-c6ccccc6)c6nc(c(-c7ccccc7)c7ccc4[nH]7)C=C6)C=C5)cc3)C2)c(C)c1
REMARK SMILES IDX 22 1 21 2 20 3 19 4 18 5 17 6 15 7 16 8 14 9 11 10 12 11
REMARK SMILES IDX 80 12 13 13 10 14 7 15 8 16 9 18 6 20 3 21 4 22 83 23 5 24
REMARK SMILES IDX 81 25 82 26 2 27 1 28 23 29 24 30 25 31 26 32 27 33 28 34
REMARK SMILES IDX 29 35 30 36 31 37 32 38 33 39 79 40 34 41 78 42 35 43 36 44
REMARK SMILES IDX 37 45 72 46 38 47 77 48 71 49 73 50 39 51 76 52 70 53 69 54
REMARK SMILES IDX 40 56 62 57 47 58 61 59 48 60 51 61 60 62 74 63 49 64 50 65
REMARK SMILES IDX 59 67 75 68 52 69 41 70 42 71 46 72 43 73 45 74 44 75 63 76
REMARK SMILES IDX 64 77 68 78 65 79 67 80 66 81 53 82 54 83 58 84 55 85 57 86
REMARK SMILES IDX 56 87
REMARK H PARENT 7 17 10 19 73 55 51 66
REMARK Flexibility Score: inf
ROOT
ATOM      1  C   UNL A   1      31.868  24.335  26.614  1.00  0.00     0.188 C 
ENDROOT
BRANCH   1   2
ATOM      2  C   UNL A   1      31.374  23.168  25.719  1.00  0.00     0.188 C 
BRANCH   2   3
ATOM      3  O   UNL A   1      32.265  22.042  25.816  1.00  0.00    -0.376 OA
BRANCH   3   4
ATOM      4  C   UNL A   1      32.703  21.399  24.612  1.00  0.00     0.202 C 
BRANCH   4   5
ATOM      5  C   UNL A   1      33.812  20.349  24.888  1.00  0.00     0.261 C 
BRANCH   5   6
ATOM      6  O   UNL A   1      35.169  20.586  24.518  1.00  0.00    -0.463 OA
BRANCH   6   7
ATOM      7  C   UNL A   1      35.908  21.248  25.414  1.00  0.00     0.312 C 
ATOM      8  O   UNL A   1      35.564  21.532  26.557  1.00  0.00    -0.252 OA
BRANCH   7   9
ATOM      9  C   UNL A   1      37.270  21.491  24.825  1.00  0.00     0.124 C 
ATOM     10  C   UNL A   1      38.551  23.166  25.999  1.00  0.00     0.107 C 
ATOM     11  C   UNL A   1      37.665  23.786  24.986  1.00  0.00    -0.006 C 
ATOM     12  C   UNL A   1      38.285  21.666  25.956  1.00  0.00     0.048 C 
ATOM     13  C   UNL A   1      37.144  22.843  24.198  1.00  0.00    -0.014 C 
BRANCH  10  14
ATOM     14  N   UNL A   1      38.519  23.799  27.291  1.00  0.00    -0.332 N 
ATOM     15  N   UNL A   1      40.782  24.521  27.473  1.00  0.00    -0.308 N 
ATOM     16  C   UNL A   1      39.492  24.507  27.926  1.00  0.00     0.319 C 
ATOM     17  H   UNL A   1      41.324  25.289  27.767  1.00  0.00     0.171 HD
ATOM     18  O   UNL A   1      39.181  25.228  28.878  1.00  0.00    -0.248 OA
ATOM     19  H   UNL A   1      37.673  23.706  27.785  1.00  0.00     0.165 HD
BRANCH  15  20
ATOM     20  C   UNL A   1      41.445  23.594  26.646  1.00  0.00     0.046 A 
ATOM     21  C   UNL A   1      43.469  22.115  25.401  1.00  0.00     0.119 A 
ATOM     22  C   UNL A   1      43.018  23.290  24.811  1.00  0.00     0.048 A 
ATOM     23  C   UNL A   1      42.791  21.593  26.508  1.00  0.00     0.052 A 
ATOM     24  C   UNL A   1      42.000  24.028  25.427  1.00  0.00     0.030 A 
ATOM     25  C   UNL A   1      41.760  22.316  27.142  1.00  0.00    -0.024 A 
ATOM     26  C   UNL A   1      41.119  21.711  28.359  1.00  0.00     0.047 C 
BRANCH  21  27
ATOM     27  O   UNL A   1      44.532  21.395  24.925  1.00  0.00    -0.497 OA
ATOM     28  C   UNL A   1      45.773  21.708  25.563  1.00  0.00     0.278 C 
ENDBRANCH  21  27
ENDBRANCH  15  20
ENDBRANCH  10  14
ENDBRANCH   7   9
ENDBRANCH   6   7
ENDBRANCH   5   6
ENDBRANCH   4   5
ENDBRANCH   3   4
ENDBRANCH   2   3
ENDBRANCH   1   2
BRANCH   1  29
ATOM     29  O   UNL A   1      32.873  25.226  26.109  1.00  0.00    -0.377 OA
BRANCH  29  30
ATOM     30  C   UNL A   1      32.513  26.540  25.660  1.00  0.00     0.188 C 
BRANCH  30  31
ATOM     31  C   UNL A   1      31.131  27.053  26.028  1.00  0.00     0.188 C 
BRANCH  31  32
ATOM     32  O   UNL A   1      31.112  28.456  25.774  1.00  0.00    -0.376 OA
BRANCH  32  33
ATOM     33  C   UNL A   1      32.373  29.100  25.923  1.00  0.00     0.202 C 
BRANCH  33  34
ATOM     34  C   UNL A   1      32.351  30.219  26.969  1.00  0.00     0.261 C 
BRANCH  34  35
ATOM     35  O   UNL A   1      33.355  31.191  26.620  1.00  0.00    -0.460 OA
BRANCH  35  36
ATOM     36  C   UNL A   1      33.978  31.770  27.681  1.00  0.00     0.338 C 
ATOM     37  O   UNL A   1      33.571  32.746  28.289  1.00  0.00    -0.246 OA
BRANCH  36  38
ATOM     38  C   UNL A   1      35.359  31.221  27.825  1.00  0.00     0.060 A 
ATOM     39  C   UNL A   1      35.577  29.854  27.620  1.00  0.00     0.016 A 
ATOM     40  C   UNL A   1      36.357  31.980  28.431  1.00  0.00     0.016 A 
ATOM     41  C   UNL A   1      36.739  29.238  28.118  1.00  0.00     0.010 A 
ATOM     42  C   UNL A   1      37.453  31.340  29.011  1.00  0.00     0.010 A 
ATOM     43  C   UNL A   1      37.677  29.960  28.873  1.00  0.00    -0.014 A 
BRANCH  43  44
ATOM     44  C   UNL A   1      38.778  29.237  29.600  1.00  0.00     0.031 A 
ATOM     45  C   UNL A   1      39.952  28.572  28.859  1.00  0.00     0.074 A 
ATOM     46  C   UNL A   1      39.202  29.814  30.750  1.00  0.00     0.049 A 
ATOM     47  N   UNL A   1      41.096  28.181  29.368  1.00  0.00    -0.248 NA
ATOM     48  C   UNL A   1      39.880  28.311  27.419  1.00  0.00     0.031 C 
ATOM     49  C   UNL A   1      39.947  31.055  30.730  1.00  0.00     0.029 A 
ATOM     50  N   UNL A   1      38.743  29.795  32.063  1.00  0.00    -0.354 N 
ATOM     51  C   UNL A   1      41.939  27.782  28.317  1.00  0.00     0.074 A 
ATOM     52  C   UNL A   1      41.121  27.917  27.134  1.00  0.00     0.031 C 
ATOM     53  C   UNL A   1      40.195  31.519  31.949  1.00  0.00     0.029 A 
ATOM     54  C   UNL A   1      39.614  30.567  32.828  1.00  0.00     0.049 A 
ATOM     55  H   UNL A   1      37.946  29.321  32.392  1.00  0.00     0.167 HD
ATOM     56  C   UNL A   1      43.274  27.465  28.443  1.00  0.00     0.031 A 
ATOM     57  C   UNL A   1      39.825  30.688  34.138  1.00  0.00     0.031 A 
ATOM     58  C   UNL A   1      43.848  27.725  29.784  1.00  0.00     0.049 A 
ATOM     59  C   UNL A   1      41.049  29.898  34.451  1.00  0.00     0.074 A 
ATOM     60  C   UNL A   1      45.036  28.306  30.208  1.00  0.00     0.029 A 
ATOM     61  N   UNL A   1      43.133  27.492  30.965  1.00  0.00    -0.354 N 
ATOM     62  N   UNL A   1      41.966  29.514  33.589  1.00  0.00    -0.248 NA
ATOM     63  C   UNL A   1      41.184  29.289  35.758  1.00  0.00     0.031 C 
ATOM     64  C   UNL A   1      45.031  28.439  31.616  1.00  0.00     0.029 A 
ATOM     65  C   UNL A   1      43.840  27.920  32.083  1.00  0.00     0.049 A 
ATOM     66  H   UNL A   1      42.240  27.077  30.998  1.00  0.00     0.167 HD
ATOM     67  C   UNL A   1      42.633  28.425  34.140  1.00  0.00     0.074 A 
ATOM     68  C   UNL A   1      42.139  28.384  35.510  1.00  0.00     0.031 C 
ATOM     69  C   UNL A   1      43.432  27.552  33.436  1.00  0.00     0.031 A 
BRANCH  56  70
ATOM     70  C   UNL A   1      44.194  27.069  27.228  1.00  0.00    -0.014 A 
ATOM     71  C   UNL A   1      44.699  25.758  27.078  1.00  0.00     0.009 A 
ATOM     72  C   UNL A   1      44.576  27.922  26.171  1.00  0.00     0.009 A 
ATOM     73  C   UNL A   1      45.618  25.373  26.080  1.00  0.00     0.001 A 
ATOM     74  C   UNL A   1      45.513  27.562  25.174  1.00  0.00     0.001 A 
ATOM     75  C   UNL A   1      46.054  26.289  25.141  1.00  0.00     0.000 A 
ENDBRANCH  56  70
BRANCH  57  76
ATOM     76  C   UNL A   1      38.936  31.690  34.767  1.00  0.00    -0.014 A 
ATOM     77  C   UNL A   1      39.433  32.973  35.080  1.00  0.00     0.009 A 
ATOM     78  C   UNL A   1      37.590  31.590  34.360  1.00  0.00     0.009 A 
ATOM     79  C   UNL A   1      38.675  34.120  34.783  1.00  0.00     0.001 A 
ATOM     80  C   UNL A   1      36.853  32.733  34.037  1.00  0.00     0.001 A 
ATOM     81  C   UNL A   1      37.410  33.997  34.210  1.00  0.00     0.000 A 
ENDBRANCH  57  76
BRANCH  69  82
ATOM     82  C   UNL A   1      43.948  26.181  33.903  1.00  0.00    -0.014 A 
ATOM     83  C   UNL A   1      43.276  25.282  34.733  1.00  0.00     0.009 A 
ATOM     84  C   UNL A   1      45.194  25.713  33.406  1.00  0.00     0.009 A 
ATOM     85  C   UNL A   1      43.750  23.981  34.970  1.00  0.00     0.001 A 
ATOM     86  C   UNL A   1      45.681  24.424  33.642  1.00  0.00     0.001 A 
ATOM     87  C   UNL A   1      44.940  23.544  34.407  1.00  0.00     0.000 A 
ENDBRANCH  69  82
ENDBRANCH  43  44
ENDBRANCH  36  38
ENDBRANCH  35  36
ENDBRANCH  34  35
ENDBRANCH  33  34
ENDBRANCH  32  33
ENDBRANCH  31  32
ENDBRANCH  30  31
ENDBRANCH  29  30
ENDBRANCH   1  29
TORSDOF 23
ENDMDL
MODEL 2
REMARK VINA RESULT:      -8.7      4.988     10.315
REMARK SMILES COc1ccc(NC(=O)N[C@@H]2C=C[C@H](C(=O)OCCOCCOCCOCCOC(=O)c3ccc(-c4c5nc(c(-c6ccccc6)c6ccc([nH]6)c(-c6ccccc6)c6nc(c(-c7ccccc7)c7ccc4[nH]7)C=C6)C=C5)cc3)C2)c(C)c1
REMARK SMILES IDX 22 1 21 2 20 3 19 4 18 5 17 6 15 7 16 8 14 9 11 10 12 11
REMARK SMILES IDX 80 12 13 13 10 14 7 15 8 16 9 18 6 20 3 21 4 22 83 23 5 24
REMARK SMILES IDX 81 25 82 26 2 27 1 28 23 29 24 30 25 31 26 32 27 33 28 34
REMARK SMILES IDX 29 35 30 36 31 37 32 38 33 39 79 40 34 41 78 42 35 43 36 44
REMARK SMILES IDX 37 45 72 46 38 47 77 48 71 49 73 50 39 51 76 52 70 53 69 54
REMARK SMILES IDX 40 56 62 57 47 58 61 59 48 60 51 61 60 62 74 63 49 64 50 65
REMARK SMILES IDX 59 67 75 68 52 69 41 70 42 71 46 72 43 73 45 74 44 75 63 76
REMARK SMILES IDX 64 77 68 78 65 79 67 80 66 81 53 82 54 83 58 84 55 85 57 86
REMARK SMILES IDX 56 87
REMARK H PARENT 7 17 10 19 73 55 51 66
REMARK Flexibility Score: inf
ROOT
ATOM      1  C   UNL A   1      41.251  23.755  26.998  1.00  0.00     0.188 C 
ENDROOT
BRANCH   1   2
ATOM      2  C   UNL A   1      40.215  22.627  27.250  1.00  0.00     0.188 C 
BRANCH   2   3
ATOM      3  O   UNL A   1      39.102  22.750  26.346  1.00  0.00    -0.376 OA
BRANCH   3   4
ATOM      4  C   UNL A   1      38.585  21.569  25.719  1.00  0.00     0.202 C 
BRANCH   4   5
ATOM      5  C   UNL A   1      37.249  21.845  24.981  1.00  0.00     0.261 C 
BRANCH   5   6
ATOM      6  O   UNL A   1      36.102  21.023  25.188  1.00  0.00    -0.463 OA
BRANCH   6   7
ATOM      7  C   UNL A   1      35.100  21.585  25.872  1.00  0.00     0.312 C 
ATOM      8  O   UNL A   1      34.706  21.237  26.981  1.00  0.00    -0.252 OA
BRANCH   7   9
ATOM      9  C   UNL A   1      34.610  22.783  25.106  1.00  0.00     0.124 C 
ATOM     10  C   UNL A   1      32.322  23.376  25.590  1.00  0.00     0.107 C 
ATOM     11  C   UNL A   1      32.391  22.343  24.531  1.00  0.00    -0.006 C 
ATOM     12  C   UNL A   1      33.755  23.655  26.026  1.00  0.00     0.048 C 
ATOM     13  C   UNL A   1      33.653  22.198  24.117  1.00  0.00    -0.014 C 
BRANCH  10  14
ATOM     14  N   UNL A   1      31.363  23.106  26.628  1.00  0.00    -0.332 N 
ATOM     15  N   UNL A   1      29.803  24.863  26.242  1.00  0.00    -0.308 N 
ATOM     16  C   UNL A   1      30.167  23.705  26.871  1.00  0.00     0.319 C 
ATOM     17  H   UNL A   1      28.834  25.041  26.212  1.00  0.00     0.171 HD
ATOM     18  O   UNL A   1      29.353  23.139  27.606  1.00  0.00    -0.248 OA
ATOM     19  H   UNL A   1      31.609  22.385  27.251  1.00  0.00     0.165 HD
BRANCH  15  20
ATOM     20  C   UNL A   1      30.615  25.838  25.631  1.00  0.00     0.046 A 
ATOM     21  C   UNL A   1      32.845  27.156  24.572  1.00  0.00     0.119 A 
ATOM     22  C   UNL A   1      32.501  27.354  25.905  1.00  0.00     0.048 A 
ATOM     23  C   UNL A   1      31.979  26.448  23.733  1.00  0.00     0.052 A 
ATOM     24  C   UNL A   1      31.382  26.703  26.435  1.00  0.00     0.030 A 
ATOM     25  C   UNL A   1      30.843  25.787  24.244  1.00  0.00    -0.024 A 
ATOM     26  C   UNL A   1      29.993  25.001  23.286  1.00  0.00     0.047 C 
BRANCH  21  27
ATOM     27  O   UNL A   1      33.983  27.665  24.006  1.00  0.00    -0.497 OA
ATOM     28  C   UNL A   1      33.759  28.827  23.203  1.00  0.00     0.278 C 
ENDBRANCH  21  27
ENDBRANCH  15  20
ENDBRANCH  10  14
ENDBRANCH   7   9
ENDBRANCH   6   7
ENDBRANCH   5   6
ENDBRANCH   4   5
ENDBRANCH   3   4
ENDBRANCH   2   3
ENDBRANCH   1   2
BRANCH   1  29
ATOM     29  O   UNL A   1      40.966  24.759  26.013  1.00  0.00    -0.377 OA
BRANCH  29  30
ATOM     30  C   UNL A   1      41.645  26.022  26.052  1.00  0.00     0.188 C 
BRANCH  30  31
ATOM     31  C   UNL A   1      40.876  27.216  26.592  1.00  0.00     0.188 C 
BRANCH  31  32
ATOM     32  O   UNL A   1      39.951  26.728  27.561  1.00  0.00    -0.376 OA
BRANCH  32  33
ATOM     33  C   UNL A   1      40.007  27.394  28.818  1.00  0.00     0.202 C 
BRANCH  33  34
ATOM     34  C   UNL A   1      38.857  27.002  29.751  1.00  0.00     0.261 C 
BRANCH  34  35
ATOM     35  O   UNL A   1      38.649  28.072  30.695  1.00  0.00    -0.460 OA
BRANCH  35  36
ATOM     36  C   UNL A   1      37.951  29.131  30.206  1.00  0.00     0.338 C 
ATOM     37  O   UNL A   1      36.871  29.063  29.643  1.00  0.00    -0.246 OA
BRANCH  36  38
ATOM     38  C   UNL A   1      38.809  30.353  30.204  1.00  0.00     0.060 A 
ATOM     39  C   UNL A   1      39.930  30.403  31.041  1.00  0.00     0.016 A 
ATOM     40  C   UNL A   1      38.357  31.529  29.612  1.00  0.00     0.016 A 
ATOM     41  C   UNL A   1      40.521  31.637  31.364  1.00  0.00     0.010 A 
ATOM     42  C   UNL A   1      38.883  32.755  30.023  1.00  0.00     0.010 A 
ATOM     43  C   UNL A   1      39.974  32.846  30.904  1.00  0.00    -0.014 A 
BRANCH  43  44
ATOM     44  C   UNL A   1      40.467  34.156  31.456  1.00  0.00     0.031 A 
ATOM     45  C   UNL A   1      40.345  34.517  32.947  1.00  0.00     0.074 A 
ATOM     46  C   UNL A   1      41.640  34.604  30.949  1.00  0.00     0.049 A 
ATOM     47  N   UNL A   1      40.981  35.465  33.592  1.00  0.00    -0.248 NA
ATOM     48  C   UNL A   1      39.447  33.767  33.830  1.00  0.00     0.031 C 
ATOM     49  C   UNL A   1      42.888  33.936  31.255  1.00  0.00     0.029 A 
ATOM     50  N   UNL A   1      41.986  35.310  29.801  1.00  0.00    -0.354 N 
ATOM     51  C   UNL A   1      40.700  35.339  34.963  1.00  0.00     0.074 A 
ATOM     52  C   UNL A   1      39.761  34.245  35.035  1.00  0.00     0.031 C 
ATOM     53  C   UNL A   1      43.917  34.454  30.596  1.00  0.00     0.029 A 
ATOM     54  C   UNL A   1      43.364  35.511  29.826  1.00  0.00     0.049 A 
ATOM     55  H   UNL A   1      41.368  35.613  29.098  1.00  0.00     0.167 HD
ATOM     56  C   UNL A   1      41.314  36.050  35.970  1.00  0.00     0.031 A 
ATOM     57  C   UNL A   1      44.186  36.320  29.160  1.00  0.00     0.031 A 
ATOM     58  C   UNL A   1      42.452  36.891  35.530  1.00  0.00     0.049 A 
ATOM     59  C   UNL A   1      44.509  37.453  30.071  1.00  0.00     0.074 A 
ATOM     60  C   UNL A   1      43.723  37.108  36.046  1.00  0.00     0.029 A 
ATOM     61  N   UNL A   1      42.446  37.587  34.315  1.00  0.00    -0.354 N 
ATOM     62  N   UNL A   1      44.370  37.459  31.380  1.00  0.00    -0.248 NA
ATOM     63  C   UNL A   1      44.798  38.756  29.510  1.00  0.00     0.031 C 
ATOM     64  C   UNL A   1      44.476  37.906  35.152  1.00  0.00     0.029 A 
ATOM     65  C   UNL A   1      43.668  38.208  34.076  1.00  0.00     0.049 A 
ATOM     66  H   UNL A   1      41.672  37.633  33.708  1.00  0.00     0.167 HD
ATOM     67  C   UNL A   1      44.286  38.786  31.789  1.00  0.00     0.074 A 
ATOM     68  C   UNL A   1      44.625  39.532  30.586  1.00  0.00     0.031 C 
ATOM     69  C   UNL A   1      43.828  39.203  33.019  1.00  0.00     0.031 A 
BRANCH  56  70
ATOM     70  C   UNL A   1      41.002  35.842  37.500  1.00  0.00    -0.014 A 
ATOM     71  C   UNL A   1      41.739  34.929  38.288  1.00  0.00     0.009 A 
ATOM     72  C   UNL A   1      40.024  36.534  38.243  1.00  0.00     0.009 A 
ATOM     73  C   UNL A   1      41.433  34.614  39.628  1.00  0.00     0.001 A 
ATOM     74  C   UNL A   1      39.687  36.218  39.580  1.00  0.00     0.001 A 
ATOM     75  C   UNL A   1      40.380  35.238  40.270  1.00  0.00     0.000 A 
ENDBRANCH  56  70
BRANCH  57  76
ATOM     76  C   UNL A   1      44.644  35.737  27.878  1.00  0.00    -0.014 A 
ATOM     77  C   UNL A   1      45.429  34.564  27.881  1.00  0.00     0.009 A 
ATOM     78  C   UNL A   1      43.732  35.912  26.818  1.00  0.00     0.009 A 
ATOM     79  C   UNL A   1      45.151  33.521  26.980  1.00  0.00     0.001 A 
ATOM     80  C   UNL A   1      43.438  34.861  25.945  1.00  0.00     0.001 A 
ATOM     81  C   UNL A   1      44.119  33.651  26.052  1.00  0.00     0.000 A 
ENDBRANCH  57  76
BRANCH  69  82
ATOM     82  C   UNL A   1      43.429  40.631  33.427  1.00  0.00    -0.014 A 
ATOM     83  C   UNL A   1      42.609  41.500  32.706  1.00  0.00     0.009 A 
ATOM     84  C   UNL A   1      43.856  41.126  34.688  1.00  0.00     0.009 A 
ATOM     85  C   UNL A   1      42.160  42.721  33.234  1.00  0.00     0.001 A 
ATOM     86  C   UNL A   1      43.424  42.345  35.222  1.00  0.00     0.001 A 
ATOM     87  C   UNL A   1      42.549  43.134  34.500  1.00  0.00     0.000 A 
ENDBRANCH  69  82
ENDBRANCH  43  44
ENDBRANCH  36  38
ENDBRANCH  35  36
ENDBRANCH  34  35
ENDBRANCH  33  34
ENDBRANCH  32  33
ENDBRANCH  31  32
ENDBRANCH  30  31
ENDBRANCH  29  30
ENDBRANCH   1  29
TORSDOF 23
ENDMDL
MODEL 3
REMARK VINA RESULT:      -8.7      2.862      6.438
REMARK SMILES COc1ccc(NC(=O)N[C@@H]2C=C[C@H](C(=O)OCCOCCOCCOCCOC(=O)c3ccc(-c4c5nc(c(-c6ccccc6)c6ccc([nH]6)c(-c6ccccc6)c6nc(c(-c7ccccc7)c7ccc4[nH]7)C=C6)C=C5)cc3)C2)c(C)c1
REMARK SMILES IDX 22 1 21 2 20 3 19 4 18 5 17 6 15 7 16 8 14 9 11 10 12 11
REMARK SMILES IDX 80 12 13 13 10 14 7 15 8 16 9 18 6 20 3 21 4 22 83 23 5 24
REMARK SMILES IDX 81 25 82 26 2 27 1 28 23 29 24 30 25 31 26 32 27 33 28 34
REMARK SMILES IDX 29 35 30 36 31 37 32 38 33 39 79 40 34 41 78 42 35 43 36 44
REMARK SMILES IDX 37 45 72 46 38 47 77 48 71 49 73 50 39 51 76 52 70 53 69 54
REMARK SMILES IDX 40 56 62 57 47 58 61 59 48 60 51 61 60 62 74 63 49 64 50 65
REMARK SMILES IDX 59 67 75 68 52 69 41 70 42 71 46 72 43 73 45 74 44 75 63 76
REMARK SMILES IDX 64 77 68 78 65 79 67 80 66 81 53 82 54 83 58 84 55 85 57 86
REMARK SMILES IDX 56 87
REMARK H PARENT 7 17 10 19 73 55 51 66
REMARK Flexibility Score: inf
ROOT
ATOM      1  C   UNL A   1      33.519  33.416  27.692  1.00  0.00     0.188 C 
ENDROOT
BRANCH   1   2
ATOM      2  C   UNL A   1      33.904  32.010  28.224  1.00  0.00     0.188 C 
BRANCH   2   3
ATOM      3  O   UNL A   1      33.585  30.996  27.253  1.00  0.00    -0.376 OA
BRANCH   3   4
ATOM      4  C   UNL A   1      32.216  30.808  26.872  1.00  0.00     0.202 C 
BRANCH   4   5
ATOM      5  C   UNL A   1      32.090  30.063  25.517  1.00  0.00     0.261 C 
BRANCH   5   6
ATOM      6  O   UNL A   1      32.772  28.833  25.279  1.00  0.00    -0.463 OA
BRANCH   6   7
ATOM      7  C   UNL A   1      32.266  28.067  24.308  1.00  0.00     0.312 C 
ATOM      8  O   UNL A   1      31.267  28.322  23.642  1.00  0.00    -0.252 OA
BRANCH   7   9
ATOM      9  C   UNL A   1      33.185  26.896  24.093  1.00  0.00     0.124 C 
ATOM     10  C   UNL A   1      32.480  24.887  25.228  1.00  0.00     0.107 C 
ATOM     11  C   UNL A   1      33.287  25.749  26.123  1.00  0.00    -0.006 C 
ATOM     12  C   UNL A   1      32.351  25.628  23.903  1.00  0.00     0.048 C 
ATOM     13  C   UNL A   1      33.856  26.731  25.419  1.00  0.00    -0.014 C 
BRANCH  10  14
ATOM     14  N   UNL A   1      31.267  24.382  25.816  1.00  0.00    -0.332 N 
ATOM     15  N   UNL A   1      32.119  22.517  27.027  1.00  0.00    -0.308 N 
ATOM     16  C   UNL A   1      31.101  23.374  26.714  1.00  0.00     0.319 C 
ATOM     17  H   UNL A   1      32.031  22.055  27.893  1.00  0.00     0.171 HD
ATOM     18  O   UNL A   1      30.035  23.292  27.330  1.00  0.00    -0.248 OA
ATOM     19  H   UNL A   1      30.441  24.830  25.526  1.00  0.00     0.165 HD
BRANCH  15  20
ATOM     20  C   UNL A   1      33.276  22.200  26.289  1.00  0.00     0.046 A 
ATOM     21  C   UNL A   1      35.586  20.896  25.399  1.00  0.00     0.119 A 
ATOM     22  C   UNL A   1      35.692  21.903  26.351  1.00  0.00     0.048 A 
ATOM     23  C   UNL A   1      34.359  20.668  24.768  1.00  0.00     0.052 A 
ATOM     24  C   UNL A   1      34.539  22.563  26.792  1.00  0.00     0.030 A 
ATOM     25  C   UNL A   1      33.185  21.323  25.192  1.00  0.00    -0.024 A 
ATOM     26  C   UNL A   1      31.896  20.982  24.499  1.00  0.00     0.047 C 
BRANCH  21  27
ATOM     27  O   UNL A   1      36.646  20.128  24.996  1.00  0.00    -0.497 OA
ATOM     28  C   UNL A   1      37.893  20.829  24.977  1.00  0.00     0.278 C 
ENDBRANCH  21  27
ENDBRANCH  15  20
ENDBRANCH  10  14
ENDBRANCH   7   9
ENDBRANCH   6   7
ENDBRANCH   5   6
ENDBRANCH   4   5
ENDBRANCH   3   4
ENDBRANCH   2   3
ENDBRANCH   1   2
BRANCH   1  29
ATOM     29  O   UNL A   1      34.501  34.463  27.708  1.00  0.00    -0.377 OA
BRANCH  29  30
ATOM     30  C   UNL A   1      34.269  35.658  28.467  1.00  0.00     0.188 C 
BRANCH  30  31
ATOM     31  C   UNL A   1      32.885  35.854  29.062  1.00  0.00     0.188 C 
BRANCH  31  32
ATOM     32  O   UNL A   1      33.053  36.376  30.378  1.00  0.00    -0.376 OA
BRANCH  32  33
ATOM     33  C   UNL A   1      33.779  35.527  31.261  1.00  0.00     0.202 C 
BRANCH  33  34
ATOM     34  C   UNL A   1      34.353  36.274  32.469  1.00  0.00     0.261 C 
BRANCH  34  35
ATOM     35  O   UNL A   1      35.574  35.624  32.871  1.00  0.00    -0.460 OA
BRANCH  35  36
ATOM     36  C   UNL A   1      35.500  34.960  34.055  1.00  0.00     0.338 C 
ATOM     37  O   UNL A   1      34.643  35.132  34.906  1.00  0.00    -0.246 OA
BRANCH  36  38
ATOM     38  C   UNL A   1      36.760  34.195  34.293  1.00  0.00     0.060 A 
ATOM     39  C   UNL A   1      37.696  34.081  33.259  1.00  0.00     0.016 A 
ATOM     40  C   UNL A   1      36.881  33.368  35.407  1.00  0.00     0.016 A 
ATOM     41  C   UNL A   1      38.676  33.073  33.296  1.00  0.00     0.010 A 
ATOM     42  C   UNL A   1      37.788  32.307  35.383  1.00  0.00     0.010 A 
ATOM     43  C   UNL A   1      38.707  32.129  34.335  1.00  0.00    -0.014 A 
BRANCH  43  44
ATOM     44  C   UNL A   1      39.599  30.921  34.231  1.00  0.00     0.031 A 
ATOM     45  C   UNL A   1      39.721  30.101  32.935  1.00  0.00     0.074 A 
ATOM     46  C   UNL A   1      40.799  31.021  34.851  1.00  0.00     0.049 A 
ATOM     47  N   UNL A   1      40.656  29.234  32.627  1.00  0.00    -0.248 NA
ATOM     48  C   UNL A   1      38.734  30.240  31.862  1.00  0.00     0.031 C 
ATOM     49  C   UNL A   1      41.830  31.902  34.343  1.00  0.00     0.029 A 
ATOM     50  N   UNL A   1      41.223  30.838  36.164  1.00  0.00    -0.354 N 
ATOM     51  C   UNL A   1      40.479  28.842  31.290  1.00  0.00     0.074 A 
ATOM     52  C   UNL A   1      39.280  29.531  30.873  1.00  0.00     0.031 C 
ATOM     53  C   UNL A   1      42.898  31.941  35.130  1.00  0.00     0.029 A 
ATOM     54  C   UNL A   1      42.597  31.058  36.200  1.00  0.00     0.049 A 
ATOM     55  H   UNL A   1      40.653  30.597  36.929  1.00  0.00     0.167 HD
ATOM     56  C   UNL A   1      41.359  28.072  30.561  1.00  0.00     0.031 A 
ATOM     57  C   UNL A   1      43.550  30.776  37.088  1.00  0.00     0.031 A 
ATOM     58  C   UNL A   1      42.643  27.785  31.245  1.00  0.00     0.049 A 
ATOM     59  C   UNL A   1      44.262  29.568  36.587  1.00  0.00     0.074 A 
ATOM     60  C   UNL A   1      43.965  27.808  30.821  1.00  0.00     0.029 A 
ATOM     61  N   UNL A   1      42.721  27.528  32.618  1.00  0.00    -0.354 N 
ATOM     62  N   UNL A   1      44.252  29.118  35.350  1.00  0.00    -0.248 NA
ATOM     63  C   UNL A   1      44.854  28.649  37.536  1.00  0.00     0.031 C 
ATOM     64  C   UNL A   1      44.826  27.586  31.921  1.00  0.00     0.029 A 
ATOM     65  C   UNL A   1      44.041  27.404  33.040  1.00  0.00     0.049 A 
ATOM     66  H   UNL A   1      41.939  27.444  33.211  1.00  0.00     0.167 HD
ATOM     67  C   UNL A   1      44.584  27.768  35.389  1.00  0.00     0.074 A 
ATOM     68  C   UNL A   1      45.007  27.564  36.767  1.00  0.00     0.031 C 
ATOM     69  C   UNL A   1      44.378  26.877  34.360  1.00  0.00     0.031 A 
BRANCH  56  70
ATOM     70  C   UNL A   1      41.143  27.698  29.047  1.00  0.00    -0.014 A 
ATOM     71  C   UNL A   1      40.593  26.453  28.663  1.00  0.00     0.009 A 
ATOM     72  C   UNL A   1      41.422  28.531  27.944  1.00  0.00     0.009 A 
ATOM     73  C   UNL A   1      40.484  26.015  27.327  1.00  0.00     0.001 A 
ATOM     74  C   UNL A   1      41.340  28.103  26.598  1.00  0.00     0.001 A 
ATOM     75  C   UNL A   1      40.890  26.832  26.288  1.00  0.00     0.000 A 
ENDBRANCH  56  70
BRANCH  57  76
ATOM     76  C   UNL A   1      43.703  31.834  38.112  1.00  0.00    -0.014 A 
ATOM     77  C   UNL A   1      44.588  32.909  37.885  1.00  0.00     0.009 A 
ATOM     78  C   UNL A   1      42.523  32.098  38.836  1.00  0.00     0.009 A 
ATOM     79  C   UNL A   1      44.195  34.226  38.181  1.00  0.00     0.001 A 
ATOM     80  C   UNL A   1      42.124  33.412  39.100  1.00  0.00     0.001 A 
ATOM     81  C   UNL A   1      42.941  34.478  38.735  1.00  0.00     0.000 A 
ENDBRANCH  57  76
BRANCH  69  82
ATOM     82  C   UNL A   1      44.437  25.342  34.434  1.00  0.00    -0.014 A 
ATOM     83  C   UNL A   1      43.347  24.472  34.494  1.00  0.00     0.009 A 
ATOM     84  C   UNL A   1      45.704  24.703  34.362  1.00  0.00     0.009 A 
ATOM     85  C   UNL A   1      43.491  23.079  34.388  1.00  0.00     0.001 A 
ATOM     86  C   UNL A   1      45.862  23.317  34.264  1.00  0.00     0.001 A 
ATOM     87  C   UNL A   1      44.745  22.503  34.251  1.00  0.00     0.000 A 
ENDBRANCH  69  82
ENDBRANCH  43  44
ENDBRANCH  36  38
ENDBRANCH  35  36
ENDBRANCH  34  35
ENDBRANCH  33  34
ENDBRANCH  32  33
ENDBRANCH  31  32
ENDBRANCH  30  31
ENDBRANCH  29  30
ENDBRANCH   1  29
TORSDOF 23
ENDMDL
