MODEL 1
REMARK VINA RESULT:      -9.2      0.000      0.000
REMARK SMILES COc1cc([C@H]2[NH2+]CCC3=c4ccccc4=N[C@H]32)ccc1OCC(=O)OCCOCCOCCOCCOC(=O)c1ccc(-c2c3nc(c(-c4ccccc4)c4ccc([nH]4)c(-c4ccccc4)c4nc(c(-c5ccccc5)c5ccc2[nH]5)C=C4)C=C3)cc1
REMARK SMILES IDX 31 1 30 2 29 3 28 4 27 5 26 6 24 7 25 8 23 9 22 10 21 11
REMARK SMILES IDX 3 12 4 13 5 14 20 15 19 16 2 17 1 18 6 19 7 20 18 21 8 22
REMARK SMILES IDX 10 25 17 26 9 27 11 28 16 29 12 30 15 31 13 32 14 33 32 34
REMARK SMILES IDX 33 35 34 36 35 37 36 38 37 39 38 40 39 41 40 42 41 43 42 44
REMARK SMILES IDX 88 45 43 46 87 47 44 48 45 49 46 50 81 51 47 52 86 53 80 54
REMARK SMILES IDX 82 55 48 56 85 57 79 58 78 59 49 61 71 62 56 63 70 64 57 65
REMARK SMILES IDX 60 66 69 67 83 68 58 69 59 70 68 72 84 73 61 74 50 75 51 76
REMARK SMILES IDX 55 77 52 78 54 79 53 80 72 81 73 82 77 83 74 84 76 85 75 86
REMARK SMILES IDX 62 87 63 88 67 89 64 90 66 91 65 92
REMARK H PARENT 7 23 7 24 82 60 60 71
REMARK Flexibility Score: inf
ROOT
ATOM      1  C   UNL A   1      40.536  21.654  26.602  1.00  0.00     0.188 C 
ENDROOT
BRANCH   1   2
ATOM      2  C   UNL A   1      39.162  22.323  26.456  1.00  0.00     0.188 C 
BRANCH   2   3
ATOM      3  O   UNL A   1      38.288  21.926  25.421  1.00  0.00    -0.376 OA
BRANCH   3   4
ATOM      4  C   UNL A   1      36.900  22.130  25.583  1.00  0.00     0.202 C 
BRANCH   4   5
ATOM      5  C   UNL A   1      35.864  21.117  25.049  1.00  0.00     0.261 C 
BRANCH   5   6
ATOM      6  O   UNL A   1      34.545  21.597  24.724  1.00  0.00    -0.461 OA
BRANCH   6   7
ATOM      7  C   UNL A   1      33.578  21.491  25.678  1.00  0.00     0.344 C 
ATOM      8  O   UNL A   1      33.800  21.386  26.878  1.00  0.00    -0.248 OA
BRANCH   7   9
ATOM      9  C   UNL A   1      32.150  21.466  25.076  1.00  0.00     0.352 C 
BRANCH   9  10
ATOM     10  O   UNL A   1      31.133  22.425  25.212  1.00  0.00    -0.478 OA
BRANCH  10  11
ATOM     11  C   UNL A   1      30.893  23.724  24.917  1.00  0.00     0.162 A 
ATOM     12  C   UNL A   1      30.919  24.952  25.578  1.00  0.00     0.161 A 
ATOM     13  C   UNL A   1      30.788  26.175  24.808  1.00  0.00     0.060 A 
ATOM     14  C   UNL A   1      30.632  26.237  23.400  1.00  0.00     0.016 A 
ATOM     15  C   UNL A   1      30.672  23.796  23.526  1.00  0.00     0.051 A 
ATOM     16  C   UNL A   1      30.563  24.994  22.795  1.00  0.00     0.014 A 
BRANCH  12  17
ATOM     17  O   UNL A   1      31.145  25.268  26.887  1.00  0.00    -0.493 OA
ATOM     18  C   UNL A   1      31.448  26.584  27.296  1.00  0.00     0.278 C 
ENDBRANCH  12  17
BRANCH  14  19
ATOM     19  C   UNL A   1      30.563  27.599  22.635  1.00  0.00     0.243 C 
ATOM     20  N   UNL A   1      29.157  28.066  22.645  1.00  0.00    -0.338 N 
ATOM     21  C   UNL A   1      31.559  28.801  22.957  1.00  0.00     0.196 C 
ATOM     22  C   UNL A   1      28.796  29.462  22.893  1.00  0.00     0.265 C 
ATOM     23  H   UNL A   1      28.682  27.518  23.362  1.00  0.00     0.346 HD
ATOM     24  H   UNL A   1      28.890  27.951  21.667  1.00  0.00     0.346 HD
ATOM     25  C   UNL A   1      31.032  29.690  24.045  1.00  0.00    -0.025 C 
ATOM     26  N   UNL A   1      32.920  28.403  23.411  1.00  0.00    -0.270 NA
ATOM     27  C   UNL A   1      29.698  30.308  23.828  1.00  0.00     0.095 C 
ATOM     28  C   UNL A   1      31.845  29.700  25.096  1.00  0.00     0.001 A 
ATOM     29  C   UNL A   1      32.996  28.926  24.602  1.00  0.00     0.066 A 
ATOM     30  C   UNL A   1      31.796  30.219  26.424  1.00  0.00     0.010 A 
ATOM     31  C   UNL A   1      34.118  28.748  25.552  1.00  0.00     0.028 A 
ATOM     32  C   UNL A   1      32.818  29.954  27.255  1.00  0.00     0.001 A 
ATOM     33  C   UNL A   1      33.990  29.221  26.804  1.00  0.00     0.002 A 
ENDBRANCH  14  19
ENDBRANCH  10  11
ENDBRANCH   9  10
ENDBRANCH   7   9
ENDBRANCH   6   7
ENDBRANCH   5   6
ENDBRANCH   4   5
ENDBRANCH   3   4
ENDBRANCH   2   3
ENDBRANCH   1   2
BRANCH   1  34
ATOM     34  O   UNL A   1      40.701  20.679  27.603  1.00  0.00    -0.377 OA
BRANCH  34  35
ATOM     35  C   UNL A   1      41.837  19.840  27.602  1.00  0.00     0.188 C 
BRANCH  35  36
ATOM     36  C   UNL A   1      42.101  18.795  26.506  1.00  0.00     0.188 C 
BRANCH  36  37
ATOM     37  O   UNL A   1      42.662  19.267  25.301  1.00  0.00    -0.376 OA
BRANCH  37  38
ATOM     38  C   UNL A   1      43.856  20.028  25.335  1.00  0.00     0.202 C 
BRANCH  38  39
ATOM     39  C   UNL A   1      43.732  21.507  24.976  1.00  0.00     0.261 C 
BRANCH  39  40
ATOM     40  O   UNL A   1      44.090  22.391  26.014  1.00  0.00    -0.460 OA
BRANCH  40  41
ATOM     41  C   UNL A   1      45.378  22.765  26.077  1.00  0.00     0.338 C 
ATOM     42  O   UNL A   1      46.392  22.164  25.789  1.00  0.00    -0.246 OA
BRANCH  41  43
ATOM     43  C   UNL A   1      45.252  24.161  26.442  1.00  0.00     0.060 A 
ATOM     44  C   UNL A   1      45.644  24.539  27.725  1.00  0.00     0.016 A 
ATOM     45  C   UNL A   1      44.969  25.082  25.425  1.00  0.00     0.016 A 
ATOM     46  C   UNL A   1      45.735  25.886  28.003  1.00  0.00     0.010 A 
ATOM     47  C   UNL A   1      45.056  26.426  25.706  1.00  0.00     0.010 A 
ATOM     48  C   UNL A   1      45.409  26.814  27.002  1.00  0.00    -0.014 A 
BRANCH  48  49
ATOM     49  C   UNL A   1      45.234  28.209  27.391  1.00  0.00     0.031 A 
ATOM     50  C   UNL A   1      43.900  28.591  27.940  1.00  0.00     0.074 A 
ATOM     51  C   UNL A   1      46.271  29.049  27.295  1.00  0.00     0.049 A 
ATOM     52  N   UNL A   1      43.525  29.718  28.475  1.00  0.00    -0.248 NA
ATOM     53  C   UNL A   1      42.844  27.560  27.887  1.00  0.00     0.031 C 
ATOM     54  C   UNL A   1      47.594  28.706  26.769  1.00  0.00     0.029 A 
ATOM     55  N   UNL A   1      46.375  30.357  27.660  1.00  0.00    -0.354 N 
ATOM     56  C   UNL A   1      42.200  29.525  28.837  1.00  0.00     0.074 A 
ATOM     57  C   UNL A   1      41.817  28.198  28.419  1.00  0.00     0.031 C 
ATOM     58  C   UNL A   1      48.390  29.783  26.869  1.00  0.00     0.029 A 
ATOM     59  C   UNL A   1      47.622  30.883  27.446  1.00  0.00     0.049 A 
ATOM     60  H   UNL A   1      45.628  30.874  28.040  1.00  0.00     0.167 HD
ATOM     61  C   UNL A   1      41.386  30.390  29.480  1.00  0.00     0.031 A 
ATOM     62  C   UNL A   1      48.073  32.121  27.703  1.00  0.00     0.031 A 
ATOM     63  C   UNL A   1      41.797  31.719  29.834  1.00  0.00     0.049 A 
ATOM     64  C   UNL A   1      47.125  33.084  28.363  1.00  0.00     0.074 A 
ATOM     65  C   UNL A   1      41.077  32.706  30.476  1.00  0.00     0.029 A 
ATOM     66  N   UNL A   1      43.053  32.245  29.556  1.00  0.00    -0.354 N 
ATOM     67  N   UNL A   1      45.885  32.890  28.749  1.00  0.00    -0.248 NA
ATOM     68  C   UNL A   1      47.643  34.427  28.639  1.00  0.00     0.031 C 
ATOM     69  C   UNL A   1      41.878  33.853  30.528  1.00  0.00     0.029 A 
ATOM     70  C   UNL A   1      43.122  33.557  29.985  1.00  0.00     0.049 A 
ATOM     71  H   UNL A   1      43.786  31.756  29.117  1.00  0.00     0.167 HD
ATOM     72  C   UNL A   1      45.478  34.079  29.336  1.00  0.00     0.074 A 
ATOM     73  C   UNL A   1      46.618  34.977  29.274  1.00  0.00     0.031 C 
ATOM     74  C   UNL A   1      44.278  34.411  29.879  1.00  0.00     0.031 A 
BRANCH  61  75
ATOM     75  C   UNL A   1      39.987  29.928  29.770  1.00  0.00    -0.014 A 
ATOM     76  C   UNL A   1      39.581  29.592  31.074  1.00  0.00     0.009 A 
ATOM     77  C   UNL A   1      39.066  29.801  28.722  1.00  0.00     0.009 A 
ATOM     78  C   UNL A   1      38.293  29.106  31.312  1.00  0.00     0.001 A 
ATOM     79  C   UNL A   1      37.770  29.343  28.967  1.00  0.00     0.001 A 
ATOM     80  C   UNL A   1      37.387  28.987  30.259  1.00  0.00     0.000 A 
ENDBRANCH  61  75
BRANCH  62  81
ATOM     81  C   UNL A   1      49.468  32.492  27.356  1.00  0.00    -0.014 A 
ATOM     82  C   UNL A   1      49.769  33.103  26.130  1.00  0.00     0.009 A 
ATOM     83  C   UNL A   1      50.510  32.255  28.268  1.00  0.00     0.009 A 
ATOM     84  C   UNL A   1      51.087  33.445  25.814  1.00  0.00     0.001 A 
ATOM     85  C   UNL A   1      51.821  32.625  27.963  1.00  0.00     0.001 A 
ATOM     86  C   UNL A   1      52.110  33.211  26.732  1.00  0.00     0.000 A 
ENDBRANCH  62  81
BRANCH  74  87
ATOM     87  C   UNL A   1      44.167  35.793  30.456  1.00  0.00    -0.014 A 
ATOM     88  C   UNL A   1      43.778  36.885  29.667  1.00  0.00     0.009 A 
ATOM     89  C   UNL A   1      44.434  35.994  31.820  1.00  0.00     0.009 A 
ATOM     90  C   UNL A   1      43.708  38.163  30.221  1.00  0.00     0.001 A 
ATOM     91  C   UNL A   1      44.325  37.266  32.380  1.00  0.00     0.001 A 
ATOM     92  C   UNL A   1      43.977  38.350  31.577  1.00  0.00     0.000 A 
ENDBRANCH  74  87
ENDBRANCH  48  49
ENDBRANCH  41  43
ENDBRANCH  40  41
ENDBRANCH  39  40
ENDBRANCH  38  39
ENDBRANCH  37  38
ENDBRANCH  36  37
ENDBRANCH  35  36
ENDBRANCH  34  35
ENDBRANCH   1  34
TORSDOF 24
ENDMDL
MODEL 2
REMARK VINA RESULT:      -9.0      2.465      6.943
REMARK SMILES COc1cc([C@H]2[NH2+]CCC3=c4ccccc4=N[C@H]32)ccc1OCC(=O)OCCOCCOCCOCCOC(=O)c1ccc(-c2c3nc(c(-c4ccccc4)c4ccc([nH]4)c(-c4ccccc4)c4nc(c(-c5ccccc5)c5ccc2[nH]5)C=C4)C=C3)cc1
REMARK SMILES IDX 31 1 30 2 29 3 28 4 27 5 26 6 24 7 25 8 23 9 22 10 21 11
REMARK SMILES IDX 3 12 4 13 5 14 20 15 19 16 2 17 1 18 6 19 7 20 18 21 8 22
REMARK SMILES IDX 10 25 17 26 9 27 11 28 16 29 12 30 15 31 13 32 14 33 32 34
REMARK SMILES IDX 33 35 34 36 35 37 36 38 37 39 38 40 39 41 40 42 41 43 42 44
REMARK SMILES IDX 88 45 43 46 87 47 44 48 45 49 46 50 81 51 47 52 86 53 80 54
REMARK SMILES IDX 82 55 48 56 85 57 79 58 78 59 49 61 71 62 56 63 70 64 57 65
REMARK SMILES IDX 60 66 69 67 83 68 58 69 59 70 68 72 84 73 61 74 50 75 51 76
REMARK SMILES IDX 55 77 52 78 54 79 53 80 72 81 73 82 77 83 74 84 76 85 75 86
REMARK SMILES IDX 62 87 63 88 67 89 64 90 66 91 65 92
REMARK H PARENT 7 23 7 24 82 60 60 71
REMARK Flexibility Score: inf
ROOT
ATOM      1  C   UNL A   1      45.507  22.533  24.488  1.00  0.00     0.188 C 
ENDROOT
BRANCH   1   2
ATOM      2  C   UNL A   1      44.821  21.161  24.527  1.00  0.00     0.188 C 
BRANCH   2   3
ATOM      3  O   UNL A   1      43.459  21.059  24.885  1.00  0.00    -0.376 OA
BRANCH   3   4
ATOM      4  C   UNL A   1      43.123  20.586  26.172  1.00  0.00     0.202 C 
BRANCH   4   5
ATOM      5  C   UNL A   1      41.812  19.814  26.435  1.00  0.00     0.261 C 
BRANCH   5   6
ATOM      6  O   UNL A   1      40.596  20.314  25.847  1.00  0.00    -0.461 OA
BRANCH   6   7
ATOM      7  C   UNL A   1      39.925  21.296  26.513  1.00  0.00     0.344 C 
ATOM      8  O   UNL A   1      40.174  21.645  27.661  1.00  0.00    -0.248 OA
BRANCH   7   9
ATOM      9  C   UNL A   1      38.768  21.897  25.677  1.00  0.00     0.352 C 
BRANCH   9  10
ATOM     10  O   UNL A   1      37.538  22.399  26.132  1.00  0.00    -0.478 OA
BRANCH  10  11
ATOM     11  C   UNL A   1      36.316  22.730  25.651  1.00  0.00     0.162 A 
ATOM     12  C   UNL A   1      35.050  23.011  26.163  1.00  0.00     0.161 A 
ATOM     13  C   UNL A   1      34.029  23.542  25.278  1.00  0.00     0.060 A 
ATOM     14  C   UNL A   1      34.208  23.810  23.897  1.00  0.00     0.016 A 
ATOM     15  C   UNL A   1      36.463  22.939  24.263  1.00  0.00     0.051 A 
ATOM     16  C   UNL A   1      35.465  23.470  23.426  1.00  0.00     0.014 A 
BRANCH  12  17
ATOM     17  O   UNL A   1      34.561  22.968  27.437  1.00  0.00    -0.493 OA
ATOM     18  C   UNL A   1      33.384  22.262  27.762  1.00  0.00     0.278 C 
ENDBRANCH  12  17
BRANCH  14  19
ATOM     19  C   UNL A   1      33.077  24.445  23.024  1.00  0.00     0.243 C 
ATOM     20  N   UNL A   1      31.913  23.527  23.035  1.00  0.00    -0.338 N 
ATOM     21  C   UNL A   1      32.606  25.955  23.219  1.00  0.00     0.196 C 
ATOM     22  C   UNL A   1      30.539  24.006  23.177  1.00  0.00     0.265 C 
ATOM     23  H   UNL A   1      32.070  22.880  23.808  1.00  0.00     0.346 HD
ATOM     24  H   UNL A   1      31.915  23.174  22.078  1.00  0.00     0.346 HD
ATOM     25  C   UNL A   1      31.517  26.076  24.244  1.00  0.00    -0.025 C 
ATOM     26  N   UNL A   1      33.662  26.905  23.665  1.00  0.00    -0.270 NA
ATOM     27  C   UNL A   1      30.279  25.286  24.014  1.00  0.00     0.095 C 
ATOM     28  C   UNL A   1      31.899  26.832  25.266  1.00  0.00     0.001 A 
ATOM     29  C   UNL A   1      33.205  27.336  24.807  1.00  0.00     0.066 A 
ATOM     30  C   UNL A   1      31.369  27.166  26.548  1.00  0.00     0.010 A 
ATOM     31  C   UNL A   1      33.919  28.240  25.736  1.00  0.00     0.028 A 
ATOM     32  C   UNL A   1      32.107  27.931  27.369  1.00  0.00     0.001 A 
ATOM     33  C   UNL A   1      33.388  28.478  26.948  1.00  0.00     0.002 A 
ENDBRANCH  14  19
ENDBRANCH  10  11
ENDBRANCH   9  10
ENDBRANCH   7   9
ENDBRANCH   6   7
ENDBRANCH   5   6
ENDBRANCH   4   5
ENDBRANCH   3   4
ENDBRANCH   2   3
ENDBRANCH   1   2
BRANCH   1  34
ATOM     34  O   UNL A   1      44.741  23.651  24.109  1.00  0.00    -0.377 OA
BRANCH  34  35
ATOM     35  C   UNL A   1      44.413  24.645  25.058  1.00  0.00     0.188 C 
BRANCH  35  36
ATOM     36  C   UNL A   1      43.730  24.327  26.398  1.00  0.00     0.188 C 
BRANCH  36  37
ATOM     37  O   UNL A   1      42.372  23.949  26.344  1.00  0.00    -0.376 OA
BRANCH  37  38
ATOM     38  C   UNL A   1      41.374  24.864  26.760  1.00  0.00     0.202 C 
BRANCH  38  39
ATOM     39  C   UNL A   1      41.172  25.015  28.265  1.00  0.00     0.261 C 
BRANCH  39  40
ATOM     40  O   UNL A   1      41.540  26.274  28.780  1.00  0.00    -0.460 OA
BRANCH  40  41
ATOM     41  C   UNL A   1      40.905  27.345  28.279  1.00  0.00     0.338 C 
ATOM     42  O   UNL A   1      39.727  27.539  28.064  1.00  0.00    -0.246 OA
BRANCH  41  43
ATOM     43  C   UNL A   1      41.988  28.303  28.192  1.00  0.00     0.060 A 
ATOM     44  C   UNL A   1      42.208  28.932  26.968  1.00  0.00     0.016 A 
ATOM     45  C   UNL A   1      42.597  28.713  29.384  1.00  0.00     0.016 A 
ATOM     46  C   UNL A   1      43.084  29.997  26.935  1.00  0.00     0.010 A 
ATOM     47  C   UNL A   1      43.475  29.773  29.350  1.00  0.00     0.010 A 
ATOM     48  C   UNL A   1      43.733  30.384  28.118  1.00  0.00    -0.014 A 
BRANCH  48  49
ATOM     49  C   UNL A   1      44.855  31.309  28.013  1.00  0.00     0.031 A 
ATOM     50  C   UNL A   1      46.200  30.709  27.770  1.00  0.00     0.074 A 
ATOM     51  C   UNL A   1      44.625  32.625  28.079  1.00  0.00     0.049 A 
ATOM     52  N   UNL A   1      47.328  31.304  27.509  1.00  0.00    -0.248 NA
ATOM     53  C   UNL A   1      46.284  29.236  27.818  1.00  0.00     0.031 C 
ATOM     54  C   UNL A   1      43.319  33.248  28.309  1.00  0.00     0.029 A 
ATOM     55  N   UNL A   1      45.484  33.673  27.936  1.00  0.00    -0.354 N 
ATOM     56  C   UNL A   1      48.250  30.280  27.346  1.00  0.00     0.074 A 
ATOM     57  C   UNL A   1      47.568  29.031  27.585  1.00  0.00     0.031 C 
ATOM     58  C   UNL A   1      43.464  34.582  28.267  1.00  0.00     0.029 A 
ATOM     59  C   UNL A   1      44.870  34.895  28.027  1.00  0.00     0.049 A 
ATOM     60  H   UNL A   1      46.450  33.563  27.782  1.00  0.00     0.167 HD
ATOM     61  C   UNL A   1      49.553  30.389  27.009  1.00  0.00     0.031 A 
ATOM     62  C   UNL A   1      45.406  36.120  27.918  1.00  0.00     0.031 A 
ATOM     63  C   UNL A   1      50.200  31.657  26.828  1.00  0.00     0.049 A 
ATOM     64  C   UNL A   1      46.874  36.212  27.604  1.00  0.00     0.074 A 
ATOM     65  C   UNL A   1      51.515  31.919  26.498  1.00  0.00     0.029 A 
ATOM     66  N   UNL A   1      49.565  32.884  26.981  1.00  0.00    -0.354 N 
ATOM     67  N   UNL A   1      47.740  35.245  27.403  1.00  0.00    -0.248 NA
ATOM     68  C   UNL A   1      47.435  37.561  27.484  1.00  0.00     0.031 C 
ATOM     69  C   UNL A   1      51.689  33.308  26.514  1.00  0.00     0.029 A 
ATOM     70  C   UNL A   1      50.467  33.911  26.781  1.00  0.00     0.049 A 
ATOM     71  H   UNL A   1      48.613  33.003  27.199  1.00  0.00     0.167 HD
ATOM     72  C   UNL A   1      48.945  35.865  27.108  1.00  0.00     0.074 A 
ATOM     73  C   UNL A   1      48.685  37.294  27.135  1.00  0.00     0.031 C 
ATOM     74  C   UNL A   1      50.158  35.318  26.840  1.00  0.00     0.031 A 
BRANCH  61  75
ATOM     75  C   UNL A   1      50.336  29.114  26.880  1.00  0.00    -0.014 A 
ATOM     76  C   UNL A   1      50.374  28.395  25.673  1.00  0.00     0.009 A 
ATOM     77  C   UNL A   1      51.027  28.608  27.990  1.00  0.00     0.009 A 
ATOM     78  C   UNL A   1      51.058  27.180  25.592  1.00  0.00     0.001 A 
ATOM     79  C   UNL A   1      51.736  27.409  27.899  1.00  0.00     0.001 A 
ATOM     80  C   UNL A   1      51.743  26.691  26.704  1.00  0.00     0.000 A 
ENDBRANCH  61  75
BRANCH  62  81
ATOM     81  C   UNL A   1      44.554  37.324  28.086  1.00  0.00    -0.014 A 
ATOM     82  C   UNL A   1      43.879  37.890  26.995  1.00  0.00     0.009 A 
ATOM     83  C   UNL A   1      44.395  37.905  29.355  1.00  0.00     0.009 A 
ATOM     84  C   UNL A   1      43.082  39.025  27.166  1.00  0.00     0.001 A 
ATOM     85  C   UNL A   1      43.574  39.021  29.529  1.00  0.00     0.001 A 
ATOM     86  C   UNL A   1      42.927  39.586  28.433  1.00  0.00     0.000 A 
ENDBRANCH  62  81
BRANCH  74  87
ATOM     87  C   UNL A   1      51.271  36.279  26.539  1.00  0.00    -0.014 A 
ATOM     88  C   UNL A   1      51.556  36.678  25.224  1.00  0.00     0.009 A 
ATOM     89  C   UNL A   1      52.030  36.809  27.595  1.00  0.00     0.009 A 
ATOM     90  C   UNL A   1      52.612  37.552  24.968  1.00  0.00     0.001 A 
ATOM     91  C   UNL A   1      53.060  37.713  27.338  1.00  0.00     0.001 A 
ATOM     92  C   UNL A   1      53.359  38.071  26.025  1.00  0.00     0.000 A 
ENDBRANCH  74  87
ENDBRANCH  48  49
ENDBRANCH  41  43
ENDBRANCH  40  41
ENDBRANCH  39  40
ENDBRANCH  38  39
ENDBRANCH  37  38
ENDBRANCH  36  37
ENDBRANCH  35  36
ENDBRANCH  34  35
ENDBRANCH   1  34
TORSDOF 24
ENDMDL
MODEL 3
REMARK VINA RESULT:      -9.0      6.013      9.712
REMARK SMILES COc1cc([C@H]2[NH2+]CCC3=c4ccccc4=N[C@H]32)ccc1OCC(=O)OCCOCCOCCOCCOC(=O)c1ccc(-c2c3nc(c(-c4ccccc4)c4ccc([nH]4)c(-c4ccccc4)c4nc(c(-c5ccccc5)c5ccc2[nH]5)C=C4)C=C3)cc1
REMARK SMILES IDX 31 1 30 2 29 3 28 4 27 5 26 6 24 7 25 8 23 9 22 10 21 11
REMARK SMILES IDX 3 12 4 13 5 14 20 15 19 16 2 17 1 18 6 19 7 20 18 21 8 22
REMARK SMILES IDX 10 25 17 26 9 27 11 28 16 29 12 30 15 31 13 32 14 33 32 34
REMARK SMILES IDX 33 35 34 36 35 37 36 38 37 39 38 40 39 41 40 42 41 43 42 44
REMARK SMILES IDX 88 45 43 46 87 47 44 48 45 49 46 50 81 51 47 52 86 53 80 54
REMARK SMILES IDX 82 55 48 56 85 57 79 58 78 59 49 61 71 62 56 63 70 64 57 65
REMARK SMILES IDX 60 66 69 67 83 68 58 69 59 70 68 72 84 73 61 74 50 75 51 76
REMARK SMILES IDX 55 77 52 78 54 79 53 80 72 81 73 82 77 83 74 84 76 85 75 86
REMARK SMILES IDX 62 87 63 88 67 89 64 90 66 91 65 92
REMARK H PARENT 7 23 7 24 82 60 60 71
REMARK Flexibility Score: inf
ROOT
ATOM      1  C   UNL A   1      45.653  22.702  24.662  1.00  0.00     0.188 C 
ENDROOT
BRANCH   1   2
ATOM      2  C   UNL A   1      44.895  21.374  24.525  1.00  0.00     0.188 C 
BRANCH   2   3
ATOM      3  O   UNL A   1      43.538  21.290  24.906  1.00  0.00    -0.376 OA
BRANCH   3   4
ATOM      4  C   UNL A   1      43.210  20.693  26.143  1.00  0.00     0.202 C 
BRANCH   4   5
ATOM      5  C   UNL A   1      41.842  20.016  26.379  1.00  0.00     0.261 C 
BRANCH   5   6
ATOM      6  O   UNL A   1      40.663  20.664  25.863  1.00  0.00    -0.461 OA
BRANCH   6   7
ATOM      7  C   UNL A   1      40.034  21.569  26.665  1.00  0.00     0.344 C 
ATOM      8  O   UNL A   1      40.278  21.724  27.855  1.00  0.00    -0.248 OA
BRANCH   7   9
ATOM      9  C   UNL A   1      38.928  22.356  25.917  1.00  0.00     0.352 C 
BRANCH   9  10
ATOM     10  O   UNL A   1      37.613  22.615  26.335  1.00  0.00    -0.478 OA
BRANCH  10  11
ATOM     11  C   UNL A   1      36.392  22.869  25.807  1.00  0.00     0.162 A 
ATOM     12  C   UNL A   1      35.073  22.942  26.253  1.00  0.00     0.161 A 
ATOM     13  C   UNL A   1      34.052  23.465  25.363  1.00  0.00     0.060 A 
ATOM     14  C   UNL A   1      34.282  23.924  24.041  1.00  0.00     0.016 A 
ATOM     15  C   UNL A   1      36.597  23.266  24.469  1.00  0.00     0.051 A 
ATOM     16  C   UNL A   1      35.596  23.786  23.629  1.00  0.00     0.014 A 
BRANCH  12  17
ATOM     17  O   UNL A   1      34.516  22.685  27.473  1.00  0.00    -0.493 OA
ATOM     18  C   UNL A   1      33.136  22.439  27.627  1.00  0.00     0.278 C 
ENDBRANCH  12  17
BRANCH  14  19
ATOM     19  C   UNL A   1      33.138  24.536  23.169  1.00  0.00     0.243 C 
ATOM     20  N   UNL A   1      31.985  23.607  23.198  1.00  0.00    -0.338 N 
ATOM     21  C   UNL A   1      32.653  26.044  23.347  1.00  0.00     0.196 C 
ATOM     22  C   UNL A   1      30.606  24.074  23.343  1.00  0.00     0.265 C 
ATOM     23  H   UNL A   1      32.153  22.971  23.978  1.00  0.00     0.346 HD
ATOM     24  H   UNL A   1      31.984  23.243  22.246  1.00  0.00     0.346 HD
ATOM     25  C   UNL A   1      31.569  26.166  24.378  1.00  0.00    -0.025 C 
ATOM     26  N   UNL A   1      33.702  27.010  23.776  1.00  0.00    -0.270 NA
ATOM     27  C   UNL A   1      30.338  25.361  24.165  1.00  0.00     0.095 C 
ATOM     28  C   UNL A   1      31.950  26.939  25.389  1.00  0.00     0.001 A 
ATOM     29  C   UNL A   1      33.248  27.450  24.915  1.00  0.00     0.066 A 
ATOM     30  C   UNL A   1      31.424  27.283  26.669  1.00  0.00     0.010 A 
ATOM     31  C   UNL A   1      33.958  28.373  25.828  1.00  0.00     0.028 A 
ATOM     32  C   UNL A   1      32.160  28.066  27.477  1.00  0.00     0.001 A 
ATOM     33  C   UNL A   1      33.432  28.620  27.040  1.00  0.00     0.002 A 
ENDBRANCH  14  19
ENDBRANCH  10  11
ENDBRANCH   9  10
ENDBRANCH   7   9
ENDBRANCH   6   7
ENDBRANCH   5   6
ENDBRANCH   4   5
ENDBRANCH   3   4
ENDBRANCH   2   3
ENDBRANCH   1   2
BRANCH   1  34
ATOM     34  O   UNL A   1      45.024  23.877  24.212  1.00  0.00    -0.377 OA
BRANCH  34  35
ATOM     35  C   UNL A   1      44.463  24.786  25.138  1.00  0.00     0.188 C 
BRANCH  35  36
ATOM     36  C   UNL A   1      42.968  24.794  25.497  1.00  0.00     0.188 C 
BRANCH  36  37
ATOM     37  O   UNL A   1      42.185  25.820  24.927  1.00  0.00    -0.376 OA
BRANCH  37  38
ATOM     38  C   UNL A   1      41.873  26.970  25.692  1.00  0.00     0.202 C 
BRANCH  38  39
ATOM     39  C   UNL A   1      40.775  26.814  26.741  1.00  0.00     0.261 C 
BRANCH  39  40
ATOM     40  O   UNL A   1      41.236  26.427  28.015  1.00  0.00    -0.460 OA
BRANCH  40  41
ATOM     41  C   UNL A   1      41.387  27.399  28.928  1.00  0.00     0.338 C 
ATOM     42  O   UNL A   1      40.653  28.314  29.240  1.00  0.00    -0.246 OA
BRANCH  41  43
ATOM     43  C   UNL A   1      42.614  26.990  29.580  1.00  0.00     0.060 A 
ATOM     44  C   UNL A   1      43.217  27.886  30.462  1.00  0.00     0.016 A 
ATOM     45  C   UNL A   1      42.998  25.647  29.472  1.00  0.00     0.016 A 
ATOM     46  C   UNL A   1      44.252  27.426  31.246  1.00  0.00     0.010 A 
ATOM     47  C   UNL A   1      44.036  25.190  30.252  1.00  0.00     0.010 A 
ATOM     48  C   UNL A   1      44.672  26.093  31.109  1.00  0.00    -0.014 A 
BRANCH  48  49
ATOM     49  C   UNL A   1      45.936  25.706  31.726  1.00  0.00     0.031 A 
ATOM     50  C   UNL A   1      47.167  25.876  30.900  1.00  0.00     0.074 A 
ATOM     51  C   UNL A   1      45.940  25.282  32.996  1.00  0.00     0.049 A 
ATOM     52  N   UNL A   1      48.414  25.734  31.247  1.00  0.00    -0.248 NA
ATOM     53  C   UNL A   1      46.967  26.267  29.490  1.00  0.00     0.031 C 
ATOM     54  C   UNL A   1      44.754  25.111  33.837  1.00  0.00     0.029 A 
ATOM     55  N   UNL A   1      46.984  24.940  33.801  1.00  0.00    -0.354 N 
ATOM     56  C   UNL A   1      49.145  26.035  30.107  1.00  0.00     0.074 A 
ATOM     57  C   UNL A   1      48.210  26.317  29.045  1.00  0.00     0.031 C 
ATOM     58  C   UNL A   1      45.145  24.716  35.059  1.00  0.00     0.029 A 
ATOM     59  C   UNL A   1      46.600  24.591  35.069  1.00  0.00     0.049 A 
ATOM     60  H   UNL A   1      47.922  24.944  33.502  1.00  0.00     0.167 HD
ATOM     61  C   UNL A   1      50.489  26.082  29.977  1.00  0.00     0.031 A 
ATOM     62  C   UNL A   1      47.361  24.222  36.111  1.00  0.00     0.031 A 
ATOM     63  C   UNL A   1      51.380  25.747  31.050  1.00  0.00     0.049 A 
ATOM     64  C   UNL A   1      48.852  24.223  35.919  1.00  0.00     0.074 A 
ATOM     65  C   UNL A   1      52.760  25.739  31.059  1.00  0.00     0.029 A 
ATOM     66  N   UNL A   1      50.962  25.342  32.312  1.00  0.00    -0.354 N 
ATOM     67  N   UNL A   1      49.550  24.552  34.856  1.00  0.00    -0.248 NA
ATOM     68  C   UNL A   1      49.662  23.821  37.073  1.00  0.00     0.031 C 
ATOM     69  C   UNL A   1      53.176  25.267  32.310  1.00  0.00     0.029 A 
ATOM     70  C   UNL A   1      52.057  25.052  33.103  1.00  0.00     0.049 A 
ATOM     71  H   UNL A   1      50.022  25.273  32.601  1.00  0.00     0.167 HD
ATOM     72  C   UNL A   1      50.882  24.421  35.217  1.00  0.00     0.074 A 
ATOM     73  C   UNL A   1      50.889  24.004  36.609  1.00  0.00     0.031 C 
ATOM     74  C   UNL A   1      52.004  24.621  34.478  1.00  0.00     0.031 A 
BRANCH  61  75
ATOM     75  C   UNL A   1      51.033  26.453  28.628  1.00  0.00    -0.014 A 
ATOM     76  C   UNL A   1      51.460  27.761  28.343  1.00  0.00     0.009 A 
ATOM     77  C   UNL A   1      51.098  25.486  27.615  1.00  0.00     0.009 A 
ATOM     78  C   UNL A   1      51.907  28.099  27.063  1.00  0.00     0.001 A 
ATOM     79  C   UNL A   1      51.573  25.818  26.345  1.00  0.00     0.001 A 
ATOM     80  C   UNL A   1      51.968  27.125  26.067  1.00  0.00     0.000 A 
ENDBRANCH  61  75
BRANCH  62  81
ATOM     81  C   UNL A   1      46.727  23.848  37.400  1.00  0.00    -0.014 A 
ATOM     82  C   UNL A   1      46.339  24.828  38.326  1.00  0.00     0.009 A 
ATOM     83  C   UNL A   1      46.486  22.498  37.705  1.00  0.00     0.009 A 
ATOM     84  C   UNL A   1      45.747  24.464  39.538  1.00  0.00     0.001 A 
ATOM     85  C   UNL A   1      45.867  22.138  38.903  1.00  0.00     0.001 A 
ATOM     86  C   UNL A   1      45.507  23.121  39.823  1.00  0.00     0.000 A 
ENDBRANCH  62  81
BRANCH  74  87
ATOM     87  C   UNL A   1      53.313  24.408  35.182  1.00  0.00    -0.014 A 
ATOM     88  C   UNL A   1      53.982  25.466  35.815  1.00  0.00     0.009 A 
ATOM     89  C   UNL A   1      53.869  23.119  35.229  1.00  0.00     0.009 A 
ATOM     90  C   UNL A   1      55.210  25.247  36.440  1.00  0.00     0.001 A 
ATOM     91  C   UNL A   1      55.078  22.897  35.888  1.00  0.00     0.001 A 
ATOM     92  C   UNL A   1      55.753  23.963  36.478  1.00  0.00     0.000 A 
ENDBRANCH  74  87
ENDBRANCH  48  49
ENDBRANCH  41  43
ENDBRANCH  40  41
ENDBRANCH  39  40
ENDBRANCH  38  39
ENDBRANCH  37  38
ENDBRANCH  36  37
ENDBRANCH  35  36
ENDBRANCH  34  35
ENDBRANCH   1  34
TORSDOF 24
ENDMDL
