MODEL 1
REMARK VINA RESULT:      -8.5      0.000      0.000
REMARK SMILES O=C(COCCNC(=O)c1cnn(-c2ccccc2)c1)OCCOCCOCCOCCOC(=O)c1ccc(-c2c3nc(c(-c4ccccc4)c4ccc([nH]4)c(-c4ccccc4)c4nc(c(-c5ccccc5)c5ccc2[nH]5)C=C4)C=C3)cc1
REMARK SMILES IDX 25 1 24 2 23 3 22 4 21 5 2 6 1 7 3 8 4 9 5 10 6 11 7 12 8 13
REMARK SMILES IDX 9 15 10 16 11 17 20 18 12 19 13 20 14 21 15 22 19 23 16 24
REMARK SMILES IDX 18 25 17 26 26 27 27 28 28 29 29 30 30 31 31 32 32 33 33 34
REMARK SMILES IDX 34 35 35 36 36 37 37 38 83 39 38 40 82 41 39 42 40 43 41 44
REMARK SMILES IDX 76 45 42 46 81 47 75 48 77 49 43 50 80 51 74 52 73 53 44 55
REMARK SMILES IDX 66 56 51 57 65 58 52 59 55 60 64 61 78 62 53 63 54 64 63 66
REMARK SMILES IDX 79 67 56 68 45 69 46 70 50 71 47 72 49 73 48 74 67 75 68 76
REMARK SMILES IDX 72 77 69 78 71 79 70 80 57 81 58 82 62 83 59 84 61 85 60 86
REMARK H PARENT 7 14 77 54 55 65
REMARK Flexibility Score: inf
ROOT
ATOM      1  C   UNL A   1      39.866  21.440  26.539  1.00  0.00     0.188 C 
ENDROOT
BRANCH   1   2
ATOM      2  O   UNL A   1      38.790  21.968  25.785  1.00  0.00    -0.376 OA
BRANCH   2   3
ATOM      3  C   UNL A   1      37.616  21.287  25.377  1.00  0.00     0.202 C 
BRANCH   3   4
ATOM      4  C   UNL A   1      36.746  21.736  24.200  1.00  0.00     0.261 C 
BRANCH   4   5
ATOM      5  O   UNL A   1      35.510  22.370  24.515  1.00  0.00    -0.462 OA
BRANCH   5   6
ATOM      6  C   UNL A   1      34.947  23.321  23.730  1.00  0.00     0.332 C 
ATOM      7  O   UNL A   1      34.952  23.165  22.510  1.00  0.00    -0.250 OA
BRANCH   6   8
ATOM      8  C   UNL A   1      34.466  24.622  24.394  1.00  0.00     0.282 C 
BRANCH   8   9
ATOM      9  O   UNL A   1      33.673  25.506  23.625  1.00  0.00    -0.368 OA
BRANCH   9  10
ATOM     10  C   UNL A   1      32.482  25.985  24.246  1.00  0.00     0.182 C 
BRANCH  10  11
ATOM     11  C   UNL A   1      32.575  26.027  25.777  1.00  0.00     0.144 C 
BRANCH  11  12
ATOM     12  N   UNL A   1      31.325  25.696  26.450  1.00  0.00    -0.350 N 
ATOM     13  C   UNL A   1      30.731  24.468  26.588  1.00  0.00     0.254 C 
ATOM     14  H   UNL A   1      30.845  26.452  26.860  1.00  0.00     0.163 HD
ATOM     15  O   UNL A   1      29.541  24.410  26.902  1.00  0.00    -0.269 OA
BRANCH  13  16
ATOM     16  C   UNL A   1      31.538  23.291  26.378  1.00  0.00     0.078 A 
ATOM     17  C   UNL A   1      32.607  22.809  27.153  1.00  0.00     0.149 A 
ATOM     18  C   UNL A   1      31.375  22.327  25.404  1.00  0.00     0.128 A 
ATOM     19  N   UNL A   1      33.094  21.653  26.706  1.00  0.00    -0.176 NA
ATOM     20  N   UNL A   1      32.350  21.373  25.602  1.00  0.00    -0.240 N 
BRANCH  20  21
ATOM     21  C   UNL A   1      32.641  20.231  24.809  1.00  0.00     0.065 A 
ATOM     22  C   UNL A   1      32.196  20.190  23.478  1.00  0.00     0.028 A 
ATOM     23  C   UNL A   1      33.341  19.139  25.338  1.00  0.00     0.028 A 
ATOM     24  C   UNL A   1      32.456  19.074  22.683  1.00  0.00     0.002 A 
ATOM     25  C   UNL A   1      33.577  18.015  24.542  1.00  0.00     0.002 A 
ATOM     26  C   UNL A   1      33.141  17.984  23.217  1.00  0.00     0.000 A 
ENDBRANCH  20  21
ENDBRANCH  13  16
ENDBRANCH  11  12
ENDBRANCH  10  11
ENDBRANCH   9  10
ENDBRANCH   8   9
ENDBRANCH   6   8
ENDBRANCH   5   6
ENDBRANCH   4   5
ENDBRANCH   3   4
ENDBRANCH   2   3
ENDBRANCH   1   2
BRANCH   1  27
ATOM     27  C   UNL A   1      41.045  20.663  25.915  1.00  0.00     0.188 C 
BRANCH  27  28
ATOM     28  O   UNL A   1      42.003  20.022  26.736  1.00  0.00    -0.377 OA
BRANCH  28  29
ATOM     29  C   UNL A   1      42.721  18.974  26.132  1.00  0.00     0.188 C 
BRANCH  29  30
ATOM     30  C   UNL A   1      43.779  19.459  25.119  1.00  0.00     0.188 C 
BRANCH  30  31
ATOM     31  O   UNL A   1      44.639  20.573  25.348  1.00  0.00    -0.376 OA
BRANCH  31  32
ATOM     32  C   UNL A   1      44.676  21.731  24.524  1.00  0.00     0.202 C 
BRANCH  32  33
ATOM     33  C   UNL A   1      43.586  22.804  24.584  1.00  0.00     0.261 C 
BRANCH  33  34
ATOM     34  O   UNL A   1      43.914  23.887  25.429  1.00  0.00    -0.460 OA
BRANCH  34  35
ATOM     35  C   UNL A   1      42.847  24.539  25.907  1.00  0.00     0.338 C 
ATOM     36  O   UNL A   1      41.732  24.073  26.147  1.00  0.00    -0.246 OA
BRANCH  35  37
ATOM     37  C   UNL A   1      43.180  25.952  26.073  1.00  0.00     0.060 A 
ATOM     38  C   UNL A   1      44.002  26.262  27.158  1.00  0.00     0.016 A 
ATOM     39  C   UNL A   1      42.464  26.930  25.367  1.00  0.00     0.016 A 
ATOM     40  C   UNL A   1      43.858  27.497  27.733  1.00  0.00     0.010 A 
ATOM     41  C   UNL A   1      42.304  28.158  25.954  1.00  0.00     0.010 A 
ATOM     42  C   UNL A   1      42.913  28.369  27.188  1.00  0.00    -0.014 A 
BRANCH  42  43
ATOM     43  C   UNL A   1      42.514  29.484  28.006  1.00  0.00     0.031 A 
ATOM     44  C   UNL A   1      43.521  30.543  28.126  1.00  0.00     0.074 A 
ATOM     45  C   UNL A   1      41.296  29.548  28.570  1.00  0.00     0.049 A 
ATOM     46  N   UNL A   1      44.219  30.844  29.167  1.00  0.00    -0.248 NA
ATOM     47  C   UNL A   1      43.886  31.263  26.901  1.00  0.00     0.031 C 
ATOM     48  C   UNL A   1      40.119  28.724  28.280  1.00  0.00     0.029 A 
ATOM     49  N   UNL A   1      40.831  30.464  29.458  1.00  0.00    -0.354 N 
ATOM     50  C   UNL A   1      44.993  31.926  28.779  1.00  0.00     0.074 A 
ATOM     51  C   UNL A   1      44.887  32.019  27.344  1.00  0.00     0.031 C 
ATOM     52  C   UNL A   1      39.027  29.324  28.807  1.00  0.00     0.029 A 
ATOM     53  C   UNL A   1      39.452  30.491  29.566  1.00  0.00     0.049 A 
ATOM     54  H   UNL A   1      41.422  31.056  29.979  1.00  0.00     0.167 HD
ATOM     55  C   UNL A   1      45.451  32.829  29.684  1.00  0.00     0.031 A 
ATOM     56  C   UNL A   1      38.723  31.460  30.165  1.00  0.00     0.031 A 
ATOM     57  C   UNL A   1      45.369  32.340  31.036  1.00  0.00     0.049 A 
ATOM     58  C   UNL A   1      39.625  32.231  31.054  1.00  0.00     0.074 A 
ATOM     59  C   UNL A   1      45.898  31.262  31.716  1.00  0.00     0.029 A 
ATOM     60  N   UNL A   1      44.342  32.817  31.814  1.00  0.00    -0.354 N 
ATOM     61  N   UNL A   1      40.125  31.765  32.163  1.00  0.00    -0.248 NA
ATOM     62  C   UNL A   1      40.305  33.401  30.516  1.00  0.00     0.031 C 
ATOM     63  C   UNL A   1      44.896  30.881  32.654  1.00  0.00     0.029 A 
ATOM     64  C   UNL A   1      43.820  31.760  32.515  1.00  0.00     0.049 A 
ATOM     65  H   UNL A   1      44.033  33.751  31.861  1.00  0.00     0.167 HD
ATOM     66  C   UNL A   1      41.406  32.295  32.230  1.00  0.00     0.074 A 
ATOM     67  C   UNL A   1      41.410  33.391  31.267  1.00  0.00     0.031 C 
ATOM     68  C   UNL A   1      42.418  31.615  32.845  1.00  0.00     0.031 A 
BRANCH  55  69
ATOM     69  C   UNL A   1      45.574  34.293  29.363  1.00  0.00    -0.014 A 
ATOM     70  C   UNL A   1      44.405  35.048  29.194  1.00  0.00     0.009 A 
ATOM     71  C   UNL A   1      46.784  34.892  28.959  1.00  0.00     0.009 A 
ATOM     72  C   UNL A   1      44.442  36.315  28.603  1.00  0.00     0.001 A 
ATOM     73  C   UNL A   1      46.832  36.175  28.415  1.00  0.00     0.001 A 
ATOM     74  C   UNL A   1      45.655  36.877  28.213  1.00  0.00     0.000 A 
ENDBRANCH  55  69
BRANCH  56  75
ATOM     75  C   UNL A   1      37.362  31.922  29.826  1.00  0.00    -0.014 A 
ATOM     76  C   UNL A   1      36.951  32.005  28.487  1.00  0.00     0.009 A 
ATOM     77  C   UNL A   1      36.378  32.049  30.823  1.00  0.00     0.009 A 
ATOM     78  C   UNL A   1      35.599  32.171  28.161  1.00  0.00     0.001 A 
ATOM     79  C   UNL A   1      35.030  32.226  30.498  1.00  0.00     0.001 A 
ATOM     80  C   UNL A   1      34.639  32.271  29.165  1.00  0.00     0.000 A 
ENDBRANCH  56  75
BRANCH  68  81
ATOM     81  C   UNL A   1      42.049  30.435  33.709  1.00  0.00    -0.014 A 
ATOM     82  C   UNL A   1      41.773  29.160  33.184  1.00  0.00     0.009 A 
ATOM     83  C   UNL A   1      42.113  30.578  35.104  1.00  0.00     0.009 A 
ATOM     84  C   UNL A   1      41.527  28.073  34.029  1.00  0.00     0.001 A 
ATOM     85  C   UNL A   1      41.891  29.487  35.948  1.00  0.00     0.001 A 
ATOM     86  C   UNL A   1      41.590  28.238  35.410  1.00  0.00     0.000 A 
ENDBRANCH  68  81
ENDBRANCH  42  43
ENDBRANCH  35  37
ENDBRANCH  34  35
ENDBRANCH  33  34
ENDBRANCH  32  33
ENDBRANCH  31  32
ENDBRANCH  30  31
ENDBRANCH  29  30
ENDBRANCH  28  29
ENDBRANCH  27  28
ENDBRANCH   1  27
TORSDOF 26
ENDMDL
MODEL 2
REMARK VINA RESULT:      -8.5      4.042      9.220
REMARK SMILES O=C(COCCNC(=O)c1cnn(-c2ccccc2)c1)OCCOCCOCCOCCOC(=O)c1ccc(-c2c3nc(c(-c4ccccc4)c4ccc([nH]4)c(-c4ccccc4)c4nc(c(-c5ccccc5)c5ccc2[nH]5)C=C4)C=C3)cc1
REMARK SMILES IDX 25 1 24 2 23 3 22 4 21 5 2 6 1 7 3 8 4 9 5 10 6 11 7 12 8 13
REMARK SMILES IDX 9 15 10 16 11 17 20 18 12 19 13 20 14 21 15 22 19 23 16 24
REMARK SMILES IDX 18 25 17 26 26 27 27 28 28 29 29 30 30 31 31 32 32 33 33 34
REMARK SMILES IDX 34 35 35 36 36 37 37 38 83 39 38 40 82 41 39 42 40 43 41 44
REMARK SMILES IDX 76 45 42 46 81 47 75 48 77 49 43 50 80 51 74 52 73 53 44 55
REMARK SMILES IDX 66 56 51 57 65 58 52 59 55 60 64 61 78 62 53 63 54 64 63 66
REMARK SMILES IDX 79 67 56 68 45 69 46 70 50 71 47 72 49 73 48 74 67 75 68 76
REMARK SMILES IDX 72 77 69 78 71 79 70 80 57 81 58 82 62 83 59 84 61 85 60 86
REMARK H PARENT 7 14 77 54 55 65
REMARK Flexibility Score: inf
ROOT
ATOM      1  C   UNL A   1      34.920  32.843  30.170  1.00  0.00     0.188 C 
ENDROOT
BRANCH   1   2
ATOM      2  O   UNL A   1      34.187  33.467  29.130  1.00  0.00    -0.376 OA
BRANCH   2   3
ATOM      3  C   UNL A   1      33.718  32.867  27.936  1.00  0.00     0.202 C 
BRANCH   3   4
ATOM      4  C   UNL A   1      33.904  31.384  27.606  1.00  0.00     0.261 C 
BRANCH   4   5
ATOM      5  O   UNL A   1      32.723  30.619  27.379  1.00  0.00    -0.462 OA
BRANCH   5   6
ATOM      6  C   UNL A   1      32.004  30.695  26.233  1.00  0.00     0.332 C 
ATOM      7  O   UNL A   1      31.143  31.566  26.126  1.00  0.00    -0.250 OA
BRANCH   6   8
ATOM      8  C   UNL A   1      32.196  29.591  25.180  1.00  0.00     0.282 C 
BRANCH   8   9
ATOM      9  O   UNL A   1      31.052  29.124  24.491  1.00  0.00    -0.368 OA
BRANCH   9  10
ATOM     10  C   UNL A   1      31.078  27.759  24.079  1.00  0.00     0.182 C 
BRANCH  10  11
ATOM     11  C   UNL A   1      30.496  27.542  22.676  1.00  0.00     0.144 C 
BRANCH  11  12
ATOM     12  N   UNL A   1      31.501  27.236  21.665  1.00  0.00    -0.350 N 
ATOM     13  C   UNL A   1      32.471  26.267  21.693  1.00  0.00     0.254 C 
ATOM     14  H   UNL A   1      31.481  27.798  20.856  1.00  0.00     0.163 HD
ATOM     15  O   UNL A   1      33.422  26.349  20.916  1.00  0.00    -0.269 OA
BRANCH  13  16
ATOM     16  C   UNL A   1      32.320  25.176  22.625  1.00  0.00     0.078 A 
ATOM     17  C   UNL A   1      31.288  24.224  22.704  1.00  0.00     0.149 A 
ATOM     18  C   UNL A   1      33.212  24.777  23.598  1.00  0.00     0.128 A 
ATOM     19  N   UNL A   1      31.493  23.312  23.651  1.00  0.00    -0.176 NA
ATOM     20  N   UNL A   1      32.671  23.677  24.228  1.00  0.00    -0.240 N 
BRANCH  20  21
ATOM     21  C   UNL A   1      33.177  22.962  25.345  1.00  0.00     0.065 A 
ATOM     22  C   UNL A   1      32.835  21.609  25.505  1.00  0.00     0.028 A 
ATOM     23  C   UNL A   1      33.988  23.587  26.300  1.00  0.00     0.028 A 
ATOM     24  C   UNL A   1      33.307  20.889  26.602  1.00  0.00     0.002 A 
ATOM     25  C   UNL A   1      34.438  22.864  27.409  1.00  0.00     0.002 A 
ATOM     26  C   UNL A   1      34.103  21.517  27.557  1.00  0.00     0.000 A 
ENDBRANCH  20  21
ENDBRANCH  13  16
ENDBRANCH  11  12
ENDBRANCH  10  11
ENDBRANCH   9  10
ENDBRANCH   8   9
ENDBRANCH   6   8
ENDBRANCH   5   6
ENDBRANCH   4   5
ENDBRANCH   3   4
ENDBRANCH   2   3
ENDBRANCH   1   2
BRANCH   1  27
ATOM     27  C   UNL A   1      34.572  32.991  31.667  1.00  0.00     0.188 C 
BRANCH  27  28
ATOM     28  O   UNL A   1      34.784  34.217  32.340  1.00  0.00    -0.377 OA
BRANCH  28  29
ATOM     29  C   UNL A   1      34.583  34.192  33.732  1.00  0.00     0.188 C 
BRANCH  29  30
ATOM     30  C   UNL A   1      35.886  33.996  34.536  1.00  0.00     0.188 C 
BRANCH  30  31
ATOM     31  O   UNL A   1      37.153  33.739  33.935  1.00  0.00    -0.376 OA
BRANCH  31  32
ATOM     32  C   UNL A   1      37.667  32.435  33.691  1.00  0.00     0.202 C 
BRANCH  32  33
ATOM     33  C   UNL A   1      37.917  31.915  32.274  1.00  0.00     0.261 C 
BRANCH  33  34
ATOM     34  O   UNL A   1      38.110  30.517  32.217  1.00  0.00    -0.460 OA
BRANCH  34  35
ATOM     35  C   UNL A   1      37.219  29.881  31.447  1.00  0.00     0.338 C 
ATOM     36  O   UNL A   1      35.994  29.867  31.577  1.00  0.00    -0.246 OA
BRANCH  35  37
ATOM     37  C   UNL A   1      37.926  29.133  30.409  1.00  0.00     0.060 A 
ATOM     38  C   UNL A   1      38.394  27.871  30.779  1.00  0.00     0.016 A 
ATOM     39  C   UNL A   1      38.354  29.784  29.243  1.00  0.00     0.016 A 
ATOM     40  C   UNL A   1      39.521  27.403  30.156  1.00  0.00     0.010 A 
ATOM     41  C   UNL A   1      39.493  29.326  28.634  1.00  0.00     0.010 A 
ATOM     42  C   UNL A   1      40.116  28.210  29.183  1.00  0.00    -0.014 A 
BRANCH  42  43
ATOM     43  C   UNL A   1      41.471  27.888  28.816  1.00  0.00     0.031 A 
ATOM     44  C   UNL A   1      41.628  26.598  28.137  1.00  0.00     0.074 A 
ATOM     45  C   UNL A   1      42.488  28.734  29.050  1.00  0.00     0.049 A 
ATOM     46  N   UNL A   1      42.171  25.528  28.605  1.00  0.00    -0.248 NA
ATOM     47  C   UNL A   1      40.982  26.448  26.828  1.00  0.00     0.031 C 
ATOM     48  C   UNL A   1      42.420  30.148  29.431  1.00  0.00     0.029 A 
ATOM     49  N   UNL A   1      43.817  28.515  28.877  1.00  0.00    -0.354 N 
ATOM     50  C   UNL A   1      42.101  24.607  27.572  1.00  0.00     0.074 A 
ATOM     51  C   UNL A   1      41.206  25.158  26.586  1.00  0.00     0.031 C 
ATOM     52  C   UNL A   1      43.634  30.711  29.234  1.00  0.00     0.029 A 
ATOM     53  C   UNL A   1      44.575  29.672  28.841  1.00  0.00     0.049 A 
ATOM     54  H   UNL A   1      44.205  27.615  28.786  1.00  0.00     0.167 HD
ATOM     55  C   UNL A   1      42.987  23.582  27.476  1.00  0.00     0.031 A 
ATOM     56  C   UNL A   1      45.860  29.764  28.428  1.00  0.00     0.031 A 
ATOM     57  C   UNL A   1      43.705  23.362  28.704  1.00  0.00     0.049 A 
ATOM     58  C   UNL A   1      46.448  28.403  28.450  1.00  0.00     0.074 A 
ATOM     59  C   UNL A   1      43.348  23.045  29.999  1.00  0.00     0.029 A 
ATOM     60  N   UNL A   1      44.998  23.825  28.766  1.00  0.00    -0.354 N 
ATOM     61  N   UNL A   1      46.728  27.751  29.542  1.00  0.00    -0.248 NA
ATOM     62  C   UNL A   1      46.367  27.585  27.248  1.00  0.00     0.031 C 
ATOM     63  C   UNL A   1      44.284  23.731  30.826  1.00  0.00     0.029 A 
ATOM     64  C   UNL A   1      45.176  24.410  29.994  1.00  0.00     0.049 A 
ATOM     65  H   UNL A   1      45.676  23.751  28.056  1.00  0.00     0.167 HD
ATOM     66  C   UNL A   1      46.435  26.425  29.254  1.00  0.00     0.074 A 
ATOM     67  C   UNL A   1      46.346  26.368  27.799  1.00  0.00     0.031 C 
ATOM     68  C   UNL A   1      46.009  25.570  30.230  1.00  0.00     0.031 A 
BRANCH  55  69
ATOM     69  C   UNL A   1      43.482  23.073  26.151  1.00  0.00    -0.014 A 
ATOM     70  C   UNL A   1      43.547  21.688  25.940  1.00  0.00     0.009 A 
ATOM     71  C   UNL A   1      44.137  23.893  25.209  1.00  0.00     0.009 A 
ATOM     72  C   UNL A   1      44.272  21.153  24.871  1.00  0.00     0.001 A 
ATOM     73  C   UNL A   1      44.819  23.365  24.113  1.00  0.00     0.001 A 
ATOM     74  C   UNL A   1      44.908  21.991  23.959  1.00  0.00     0.000 A 
ENDBRANCH  55  69
BRANCH  56  75
ATOM     75  C   UNL A   1      46.531  30.906  27.774  1.00  0.00    -0.014 A 
ATOM     76  C   UNL A   1      45.960  31.517  26.648  1.00  0.00     0.009 A 
ATOM     77  C   UNL A   1      47.609  31.558  28.398  1.00  0.00     0.009 A 
ATOM     78  C   UNL A   1      46.428  32.754  26.188  1.00  0.00     0.001 A 
ATOM     79  C   UNL A   1      48.085  32.787  27.933  1.00  0.00     0.001 A 
ATOM     80  C   UNL A   1      47.482  33.393  26.837  1.00  0.00     0.000 A 
ENDBRANCH  56  75
BRANCH  68  81
ATOM     81  C   UNL A   1      46.161  26.009  31.665  1.00  0.00    -0.014 A 
ATOM     82  C   UNL A   1      47.292  25.699  32.442  1.00  0.00     0.009 A 
ATOM     83  C   UNL A   1      45.198  26.874  32.207  1.00  0.00     0.009 A 
ATOM     84  C   UNL A   1      47.432  26.206  33.738  1.00  0.00     0.001 A 
ATOM     85  C   UNL A   1      45.350  27.399  33.493  1.00  0.00     0.001 A 
ATOM     86  C   UNL A   1      46.462  27.059  34.261  1.00  0.00     0.000 A 
ENDBRANCH  68  81
ENDBRANCH  42  43
ENDBRANCH  35  37
ENDBRANCH  34  35
ENDBRANCH  33  34
ENDBRANCH  32  33
ENDBRANCH  31  32
ENDBRANCH  30  31
ENDBRANCH  29  30
ENDBRANCH  28  29
ENDBRANCH  27  28
ENDBRANCH   1  27
TORSDOF 26
ENDMDL
MODEL 3
REMARK VINA RESULT:      -8.3      3.750      8.786
REMARK SMILES O=C(COCCNC(=O)c1cnn(-c2ccccc2)c1)OCCOCCOCCOCCOC(=O)c1ccc(-c2c3nc(c(-c4ccccc4)c4ccc([nH]4)c(-c4ccccc4)c4nc(c(-c5ccccc5)c5ccc2[nH]5)C=C4)C=C3)cc1
REMARK SMILES IDX 25 1 24 2 23 3 22 4 21 5 2 6 1 7 3 8 4 9 5 10 6 11 7 12 8 13
REMARK SMILES IDX 9 15 10 16 11 17 20 18 12 19 13 20 14 21 15 22 19 23 16 24
REMARK SMILES IDX 18 25 17 26 26 27 27 28 28 29 29 30 30 31 31 32 32 33 33 34
REMARK SMILES IDX 34 35 35 36 36 37 37 38 83 39 38 40 82 41 39 42 40 43 41 44
REMARK SMILES IDX 76 45 42 46 81 47 75 48 77 49 43 50 80 51 74 52 73 53 44 55
REMARK SMILES IDX 66 56 51 57 65 58 52 59 55 60 64 61 78 62 53 63 54 64 63 66
REMARK SMILES IDX 79 67 56 68 45 69 46 70 50 71 47 72 49 73 48 74 67 75 68 76
REMARK SMILES IDX 72 77 69 78 71 79 70 80 57 81 58 82 62 83 59 84 61 85 60 86
REMARK H PARENT 7 14 77 54 55 65
REMARK Flexibility Score: inf
ROOT
ATOM      1  C   UNL A   1      34.920  32.435  29.850  1.00  0.00     0.188 C 
ENDROOT
BRANCH   1   2
ATOM      2  O   UNL A   1      34.384  32.843  28.604  1.00  0.00    -0.376 OA
BRANCH   2   3
ATOM      3  C   UNL A   1      33.961  32.008  27.540  1.00  0.00     0.202 C 
BRANCH   3   4
ATOM      4  C   UNL A   1      33.916  30.481  27.633  1.00  0.00     0.261 C 
BRANCH   4   5
ATOM      5  O   UNL A   1      32.712  29.843  27.215  1.00  0.00    -0.462 OA
BRANCH   5   6
ATOM      6  C   UNL A   1      32.392  29.653  25.912  1.00  0.00     0.332 C 
ATOM      7  O   UNL A   1      31.388  30.199  25.460  1.00  0.00    -0.250 OA
BRANCH   6   8
ATOM      8  C   UNL A   1      33.217  28.640  25.101  1.00  0.00     0.282 C 
BRANCH   8   9
ATOM      9  O   UNL A   1      32.544  27.862  24.129  1.00  0.00    -0.368 OA
BRANCH   9  10
ATOM     10  C   UNL A   1      32.729  26.451  24.213  1.00  0.00     0.182 C 
BRANCH  10  11
ATOM     11  C   UNL A   1      33.406  26.008  25.517  1.00  0.00     0.144 C 
BRANCH  11  12
ATOM     12  N   UNL A   1      32.486  25.426  26.487  1.00  0.00    -0.350 N 
ATOM     13  C   UNL A   1      32.061  24.126  26.584  1.00  0.00     0.254 C 
ATOM     14  H   UNL A   1      32.123  26.046  27.160  1.00  0.00     0.163 HD
ATOM     15  O   UNL A   1      31.057  23.872  27.250  1.00  0.00    -0.269 OA
BRANCH  13  16
ATOM     16  C   UNL A   1      32.828  23.104  25.913  1.00  0.00     0.078 A 
ATOM     17  C   UNL A   1      34.163  23.153  25.475  1.00  0.00     0.149 A 
ATOM     18  C   UNL A   1      32.434  21.813  25.630  1.00  0.00     0.128 A 
ATOM     19  N   UNL A   1      34.579  22.005  24.946  1.00  0.00    -0.176 NA
ATOM     20  N   UNL A   1      33.495  21.185  25.012  1.00  0.00    -0.240 N 
BRANCH  20  21
ATOM     21  C   UNL A   1      33.547  19.877  24.462  1.00  0.00     0.065 A 
ATOM     22  C   UNL A   1      32.516  19.451  23.609  1.00  0.00     0.028 A 
ATOM     23  C   UNL A   1      34.593  19.000  24.774  1.00  0.00     0.028 A 
ATOM     24  C   UNL A   1      32.537  18.166  23.068  1.00  0.00     0.002 A 
ATOM     25  C   UNL A   1      34.595  17.705  24.245  1.00  0.00     0.002 A 
ATOM     26  C   UNL A   1      33.572  17.291  23.390  1.00  0.00     0.000 A 
ENDBRANCH  20  21
ENDBRANCH  13  16
ENDBRANCH  11  12
ENDBRANCH  10  11
ENDBRANCH   9  10
ENDBRANCH   8   9
ENDBRANCH   6   8
ENDBRANCH   5   6
ENDBRANCH   4   5
ENDBRANCH   3   4
ENDBRANCH   2   3
ENDBRANCH   1   2
BRANCH   1  27
ATOM     27  C   UNL A   1      34.457  33.009  31.207  1.00  0.00     0.188 C 
BRANCH  27  28
ATOM     28  O   UNL A   1      34.898  34.281  31.641  1.00  0.00    -0.377 OA
BRANCH  28  29
ATOM     29  C   UNL A   1      34.607  34.603  32.979  1.00  0.00     0.188 C 
BRANCH  29  30
ATOM     30  C   UNL A   1      35.769  34.297  33.949  1.00  0.00     0.188 C 
BRANCH  30  31
ATOM     31  O   UNL A   1      37.043  33.816  33.528  1.00  0.00    -0.376 OA
BRANCH  31  32
ATOM     32  C   UNL A   1      37.377  32.437  33.425  1.00  0.00     0.202 C 
BRANCH  32  33
ATOM     33  C   UNL A   1      37.831  31.810  32.104  1.00  0.00     0.261 C 
BRANCH  33  34
ATOM     34  O   UNL A   1      37.950  30.404  32.165  1.00  0.00    -0.460 OA
BRANCH  34  35
ATOM     35  C   UNL A   1      37.127  29.758  31.330  1.00  0.00     0.338 C 
ATOM     36  O   UNL A   1      35.898  29.706  31.383  1.00  0.00    -0.246 OA
BRANCH  35  37
ATOM     37  C   UNL A   1      37.919  29.052  30.324  1.00  0.00     0.060 A 
ATOM     38  C   UNL A   1      38.462  27.830  30.723  1.00  0.00     0.016 A 
ATOM     39  C   UNL A   1      38.339  29.720  29.165  1.00  0.00     0.016 A 
ATOM     40  C   UNL A   1      39.638  27.436  30.143  1.00  0.00     0.010 A 
ATOM     41  C   UNL A   1      39.527  29.338  28.598  1.00  0.00     0.010 A 
ATOM     42  C   UNL A   1      40.208  28.274  29.181  1.00  0.00    -0.014 A 
BRANCH  42  43
ATOM     43  C   UNL A   1      41.593  28.044  28.861  1.00  0.00     0.031 A 
ATOM     44  C   UNL A   1      41.851  26.803  28.125  1.00  0.00     0.074 A 
ATOM     45  C   UNL A   1      42.550  28.929  29.186  1.00  0.00     0.049 A 
ATOM     46  N   UNL A   1      42.432  25.739  28.563  1.00  0.00    -0.248 NA
ATOM     47  C   UNL A   1      41.273  26.690  26.781  1.00  0.00     0.031 C 
ATOM     48  C   UNL A   1      42.387  30.315  29.636  1.00  0.00     0.029 A 
ATOM     49  N   UNL A   1      43.896  28.791  29.065  1.00  0.00    -0.354 N 
ATOM     50  C   UNL A   1      42.458  24.873  27.481  1.00  0.00     0.074 A 
ATOM     51  C   UNL A   1      41.578  25.429  26.483  1.00  0.00     0.031 C 
ATOM     52  C   UNL A   1      43.577  30.951  29.526  1.00  0.00     0.029 A 
ATOM     53  C   UNL A   1      44.590  29.987  29.124  1.00  0.00     0.049 A 
ATOM     54  H   UNL A   1      44.337  27.919  28.946  1.00  0.00     0.167 HD
ATOM     55  C   UNL A   1      43.403  23.904  27.374  1.00  0.00     0.031 A 
ATOM     56  C   UNL A   1      45.885  30.169  28.777  1.00  0.00     0.031 A 
ATOM     57  C   UNL A   1      44.078  23.655  28.622  1.00  0.00     0.049 A 
ATOM     58  C   UNL A   1      46.546  28.841  28.758  1.00  0.00     0.074 A 
ATOM     59  C   UNL A   1      43.682  23.251  29.880  1.00  0.00     0.029 A 
ATOM     60  N   UNL A   1      45.339  24.182  28.769  1.00  0.00    -0.354 N 
ATOM     61  N   UNL A   1      46.813  28.147  29.826  1.00  0.00    -0.248 NA
ATOM     62  C   UNL A   1      46.563  28.086  27.512  1.00  0.00     0.031 C 
ATOM     63  C   UNL A   1      44.540  23.940  30.785  1.00  0.00     0.029 A 
ATOM     64  C   UNL A   1      45.430  24.709  30.032  1.00  0.00     0.049 A 
ATOM     65  H   UNL A   1      46.051  24.183  28.088  1.00  0.00     0.167 HD
ATOM     66  C   UNL A   1      46.607  26.825  29.456  1.00  0.00     0.074 A 
ATOM     67  C   UNL A   1      46.585  26.842  27.998  1.00  0.00     0.031 C 
ATOM     68  C   UNL A   1      46.186  25.897  30.366  1.00  0.00     0.031 A 
BRANCH  55  69
ATOM     69  C   UNL A   1      43.984  23.494  26.049  1.00  0.00    -0.014 A 
ATOM     70  C   UNL A   1      43.442  22.382  25.389  1.00  0.00     0.009 A 
ATOM     71  C   UNL A   1      45.209  23.991  25.560  1.00  0.00     0.009 A 
ATOM     72  C   UNL A   1      44.118  21.771  24.328  1.00  0.00     0.001 A 
ATOM     73  C   UNL A   1      45.862  23.416  24.471  1.00  0.00     0.001 A 
ATOM     74  C   UNL A   1      45.328  22.288  23.871  1.00  0.00     0.000 A 
ENDBRANCH  55  69
BRANCH  56  75
ATOM     75  C   UNL A   1      46.519  31.378  28.215  1.00  0.00    -0.014 A 
ATOM     76  C   UNL A   1      46.183  31.826  26.929  1.00  0.00     0.009 A 
ATOM     77  C   UNL A   1      47.275  32.238  29.033  1.00  0.00     0.009 A 
ATOM     78  C   UNL A   1      46.559  33.103  26.493  1.00  0.00     0.001 A 
ATOM     79  C   UNL A   1      47.659  33.508  28.595  1.00  0.00     0.001 A 
ATOM     80  C   UNL A   1      47.287  33.946  27.330  1.00  0.00     0.000 A 
ENDBRANCH  56  75
BRANCH  68  81
ATOM     81  C   UNL A   1      46.250  26.265  31.827  1.00  0.00    -0.014 A 
ATOM     82  C   UNL A   1      45.244  27.005  32.473  1.00  0.00     0.009 A 
ATOM     83  C   UNL A   1      47.289  25.734  32.608  1.00  0.00     0.009 A 
ATOM     84  C   UNL A   1      45.300  27.243  33.850  1.00  0.00     0.001 A 
ATOM     85  C   UNL A   1      47.332  25.951  33.987  1.00  0.00     0.001 A 
ATOM     86  C   UNL A   1      46.342  26.712  34.606  1.00  0.00     0.000 A 
ENDBRANCH  68  81
ENDBRANCH  42  43
ENDBRANCH  35  37
ENDBRANCH  34  35
ENDBRANCH  33  34
ENDBRANCH  32  33
ENDBRANCH  31  32
ENDBRANCH  30  31
ENDBRANCH  29  30
ENDBRANCH  28  29
ENDBRANCH  27  28
ENDBRANCH   1  27
TORSDOF 26
ENDMDL
