MODEL 1
REMARK VINA RESULT:      -8.1      0.000      0.000
REMARK SMILES CC[C@@](C[C@@H]1CCOC1)(C(=O)OCCOCCOCCOCCOC(=O)c1ccc(-c2c3nc(c(-c4ccccc4)c4ccc([nH]4)c(-c4ccccc4)c4nc(c(-c5ccccc5)c5ccc2[nH]5)C=C4)C=C3)cc1)c1ccccc1
REMARK SMILES IDX 18 1 17 2 16 3 15 4 14 5 13 6 12 7 10 8 11 9 3 10 2 11 1 12
REMARK SMILES IDX 4 13 5 14 6 15 9 16 7 17 8 18 75 19 76 20 80 21 77 22 79 23
REMARK SMILES IDX 78 24 19 25 20 26 21 27 22 28 23 29 24 30 25 31 26 32 27 33
REMARK SMILES IDX 28 34 74 35 29 36 73 37 30 38 31 39 32 40 67 41 33 42 72 43
REMARK SMILES IDX 66 44 68 45 34 46 71 47 65 48 64 49 35 51 57 52 42 53 56 54
REMARK SMILES IDX 43 55 46 56 55 57 69 58 44 59 45 60 54 62 70 63 47 64 36 65
REMARK SMILES IDX 37 66 41 67 38 68 40 69 39 70 58 71 59 72 63 73 60 74 62 75
REMARK SMILES IDX 61 76 48 77 49 78 53 79 50 80 52 81 51 82
REMARK H PARENT 68 50 46 61
REMARK Flexibility Score: inf
ROOT
ATOM      1  O   UNL A   1      32.082  29.282  26.287  1.00  0.00    -0.377 OA
ENDROOT
BRANCH   1   2
ATOM      2  C   UNL A   1      31.731  27.928  26.523  1.00  0.00     0.188 C 
BRANCH   2   3
ATOM      3  C   UNL A   1      32.606  26.768  26.023  1.00  0.00     0.188 C 
BRANCH   3   4
ATOM      4  O   UNL A   1      33.686  27.126  25.197  1.00  0.00    -0.376 OA
BRANCH   4   5
ATOM      5  C   UNL A   1      33.549  27.114  23.790  1.00  0.00     0.202 C 
BRANCH   5   6
ATOM      6  C   UNL A   1      33.425  25.847  22.929  1.00  0.00     0.261 C 
BRANCH   6   7
ATOM      7  O   UNL A   1      33.022  24.614  23.552  1.00  0.00    -0.463 OA
BRANCH   7   8
ATOM      8  C   UNL A   1      33.909  23.604  23.455  1.00  0.00     0.316 C 
ATOM      9  O   UNL A   1      34.493  23.367  22.395  1.00  0.00    -0.251 OA
BRANCH   8  10
ATOM     10  C   UNL A   1      34.083  22.676  24.719  1.00  0.00     0.093 C 
BRANCH  10  11
ATOM     11  C   UNL A   1      33.372  22.913  26.103  1.00  0.00     0.020 C 
ATOM     12  C   UNL A   1      31.832  22.954  26.033  1.00  0.00     0.005 C 
ENDBRANCH  10  11
BRANCH  10  13
ATOM     13  C   UNL A   1      33.494  21.339  24.135  1.00  0.00     0.029 C 
BRANCH  13  14
ATOM     14  C   UNL A   1      33.729  19.970  24.892  1.00  0.00     0.019 C 
ATOM     15  C   UNL A   1      33.723  18.762  23.954  1.00  0.00     0.034 C 
ATOM     16  C   UNL A   1      32.853  19.468  26.056  1.00  0.00     0.163 C 
ATOM     17  C   UNL A   1      32.469  18.006  24.316  1.00  0.00     0.160 C 
ATOM     18  O   UNL A   1      32.317  18.181  25.718  1.00  0.00    -0.381 OA
ENDBRANCH  13  14
ENDBRANCH  10  13
BRANCH  10  19
ATOM     19  C   UNL A   1      35.650  22.704  24.967  1.00  0.00    -0.031 A 
ATOM     20  C   UNL A   1      36.456  21.548  24.820  1.00  0.00     0.005 A 
ATOM     21  C   UNL A   1      36.277  23.819  25.553  1.00  0.00     0.005 A 
ATOM     22  C   UNL A   1      37.781  21.491  25.267  1.00  0.00     0.000 A 
ATOM     23  C   UNL A   1      37.598  23.757  26.019  1.00  0.00     0.000 A 
ATOM     24  C   UNL A   1      38.348  22.593  25.884  1.00  0.00     0.000 A 
ENDBRANCH  10  19
ENDBRANCH   8  10
ENDBRANCH   7   8
ENDBRANCH   6   7
ENDBRANCH   5   6
ENDBRANCH   4   5
ENDBRANCH   3   4
ENDBRANCH   2   3
ENDBRANCH   1   2
BRANCH   1  25
ATOM     25  C   UNL A   1      32.887  29.988  27.223  1.00  0.00     0.188 C 
BRANCH  25  26
ATOM     26  C   UNL A   1      34.422  29.858  27.180  1.00  0.00     0.188 C 
BRANCH  26  27
ATOM     27  O   UNL A   1      35.126  30.938  27.762  1.00  0.00    -0.376 OA
BRANCH  27  28
ATOM     28  C   UNL A   1      35.904  30.696  28.923  1.00  0.00     0.202 C 
BRANCH  28  29
ATOM     29  C   UNL A   1      35.677  31.570  30.168  1.00  0.00     0.261 C 
BRANCH  29  30
ATOM     30  O   UNL A   1      36.840  31.913  30.940  1.00  0.00    -0.460 OA
BRANCH  30  31
ATOM     31  C   UNL A   1      37.585  30.911  31.446  1.00  0.00     0.338 C 
ATOM     32  O   UNL A   1      37.191  29.904  32.013  1.00  0.00    -0.246 OA
BRANCH  31  33
ATOM     33  C   UNL A   1      38.982  31.147  31.038  1.00  0.00     0.060 A 
ATOM     34  C   UNL A   1      39.838  31.859  31.890  1.00  0.00     0.016 A 
ATOM     35  C   UNL A   1      39.440  30.667  29.809  1.00  0.00     0.016 A 
ATOM     36  C   UNL A   1      41.146  32.130  31.496  1.00  0.00     0.010 A 
ATOM     37  C   UNL A   1      40.743  30.963  29.404  1.00  0.00     0.010 A 
ATOM     38  C   UNL A   1      41.587  31.729  30.229  1.00  0.00    -0.014 A 
BRANCH  38  39
ATOM     39  C   UNL A   1      42.836  32.299  29.676  1.00  0.00     0.031 A 
ATOM     40  C   UNL A   1      42.822  33.739  29.239  1.00  0.00     0.074 A 
ATOM     41  C   UNL A   1      43.961  31.571  29.581  1.00  0.00     0.049 A 
ATOM     42  N   UNL A   1      43.765  34.445  28.671  1.00  0.00    -0.248 NA
ATOM     43  C   UNL A   1      41.572  34.481  29.477  1.00  0.00     0.031 C 
ATOM     44  C   UNL A   1      44.117  30.187  30.023  1.00  0.00     0.029 A 
ATOM     45  N   UNL A   1      45.190  31.905  29.070  1.00  0.00    -0.354 N 
ATOM     46  C   UNL A   1      43.218  35.707  28.472  1.00  0.00     0.074 A 
ATOM     47  C   UNL A   1      41.855  35.662  28.950  1.00  0.00     0.031 C 
ATOM     48  C   UNL A   1      45.370  29.784  29.750  1.00  0.00     0.029 A 
ATOM     49  C   UNL A   1      46.089  30.867  29.081  1.00  0.00     0.049 A 
ATOM     50  H   UNL A   1      45.406  32.802  28.727  1.00  0.00     0.167 HD
ATOM     51  C   UNL A   1      43.802  36.808  27.942  1.00  0.00     0.031 A 
ATOM     52  C   UNL A   1      47.337  30.794  28.580  1.00  0.00     0.031 A 
ATOM     53  C   UNL A   1      45.151  36.843  27.447  1.00  0.00     0.049 A 
ATOM     54  C   UNL A   1      47.932  32.005  27.907  1.00  0.00     0.074 A 
ATOM     55  C   UNL A   1      45.839  37.908  26.893  1.00  0.00     0.029 A 
ATOM     56  N   UNL A   1      46.015  35.758  27.437  1.00  0.00    -0.354 N 
ATOM     57  N   UNL A   1      47.415  33.198  27.738  1.00  0.00    -0.248 NA
ATOM     58  C   UNL A   1      49.290  31.857  27.362  1.00  0.00     0.031 C 
ATOM     59  C   UNL A   1      47.096  37.450  26.487  1.00  0.00     0.029 A 
ATOM     60  C   UNL A   1      47.219  36.121  26.859  1.00  0.00     0.049 A 
ATOM     61  H   UNL A   1      45.803  34.864  27.789  1.00  0.00     0.167 HD
ATOM     62  C   UNL A   1      48.394  33.950  27.098  1.00  0.00     0.074 A 
ATOM     63  C   UNL A   1      49.540  33.083  26.925  1.00  0.00     0.031 C 
ATOM     64  C   UNL A   1      48.350  35.245  26.693  1.00  0.00     0.031 A 
BRANCH  51  65
ATOM     65  C   UNL A   1      42.960  38.050  27.833  1.00  0.00    -0.014 A 
ATOM     66  C   UNL A   1      42.921  39.004  28.863  1.00  0.00     0.009 A 
ATOM     67  C   UNL A   1      42.207  38.277  26.670  1.00  0.00     0.009 A 
ATOM     68  C   UNL A   1      42.116  40.139  28.745  1.00  0.00     0.001 A 
ATOM     69  C   UNL A   1      41.430  39.430  26.542  1.00  0.00     0.001 A 
ATOM     70  C   UNL A   1      41.377  40.354  27.583  1.00  0.00     0.000 A 
ENDBRANCH  51  65
BRANCH  52  71
ATOM     71  C   UNL A   1      48.102  29.521  28.664  1.00  0.00    -0.014 A 
ATOM     72  C   UNL A   1      48.946  29.259  29.755  1.00  0.00     0.009 A 
ATOM     73  C   UNL A   1      48.010  28.568  27.637  1.00  0.00     0.009 A 
ATOM     74  C   UNL A   1      49.701  28.084  29.800  1.00  0.00     0.001 A 
ATOM     75  C   UNL A   1      48.740  27.380  27.701  1.00  0.00     0.001 A 
ATOM     76  C   UNL A   1      49.594  27.143  28.777  1.00  0.00     0.000 A 
ENDBRANCH  52  71
BRANCH  64  77
ATOM     77  C   UNL A   1      49.592  35.817  26.064  1.00  0.00    -0.014 A 
ATOM     78  C   UNL A   1      49.714  35.959  24.673  1.00  0.00     0.009 A 
ATOM     79  C   UNL A   1      50.639  36.265  26.887  1.00  0.00     0.009 A 
ATOM     80  C   UNL A   1      50.875  36.504  24.118  1.00  0.00     0.001 A 
ATOM     81  C   UNL A   1      51.782  36.841  26.331  1.00  0.00     0.001 A 
ATOM     82  C   UNL A   1      51.904  36.949  24.947  1.00  0.00     0.000 A 
ENDBRANCH  64  77
ENDBRANCH  38  39
ENDBRANCH  31  33
ENDBRANCH  30  31
ENDBRANCH  29  30
ENDBRANCH  28  29
ENDBRANCH  27  28
ENDBRANCH  26  27
ENDBRANCH  25  26
ENDBRANCH   1  25
TORSDOF 24
ENDMDL
MODEL 2
REMARK VINA RESULT:      -7.9      5.994      9.423
REMARK SMILES CC[C@@](C[C@@H]1CCOC1)(C(=O)OCCOCCOCCOCCOC(=O)c1ccc(-c2c3nc(c(-c4ccccc4)c4ccc([nH]4)c(-c4ccccc4)c4nc(c(-c5ccccc5)c5ccc2[nH]5)C=C4)C=C3)cc1)c1ccccc1
REMARK SMILES IDX 18 1 17 2 16 3 15 4 14 5 13 6 12 7 10 8 11 9 3 10 2 11 1 12
REMARK SMILES IDX 4 13 5 14 6 15 9 16 7 17 8 18 75 19 76 20 80 21 77 22 79 23
REMARK SMILES IDX 78 24 19 25 20 26 21 27 22 28 23 29 24 30 25 31 26 32 27 33
REMARK SMILES IDX 28 34 74 35 29 36 73 37 30 38 31 39 32 40 67 41 33 42 72 43
REMARK SMILES IDX 66 44 68 45 34 46 71 47 65 48 64 49 35 51 57 52 42 53 56 54
REMARK SMILES IDX 43 55 46 56 55 57 69 58 44 59 45 60 54 62 70 63 47 64 36 65
REMARK SMILES IDX 37 66 41 67 38 68 40 69 39 70 58 71 59 72 63 73 60 74 62 75
REMARK SMILES IDX 61 76 48 77 49 78 53 79 50 80 52 81 51 82
REMARK H PARENT 68 50 46 61
REMARK Flexibility Score: inf
ROOT
ATOM      1  O   UNL A   1      40.702  22.072  27.894  1.00  0.00    -0.377 OA
ENDROOT
BRANCH   1   2
ATOM      2  C   UNL A   1      40.291  22.886  26.807  1.00  0.00     0.188 C 
BRANCH   2   3
ATOM      3  C   UNL A   1      39.274  24.024  26.989  1.00  0.00     0.188 C 
BRANCH   3   4
ATOM      4  O   UNL A   1      37.939  23.708  26.681  1.00  0.00    -0.376 OA
BRANCH   4   5
ATOM      5  C   UNL A   1      37.636  22.819  25.625  1.00  0.00     0.202 C 
BRANCH   5   6
ATOM      6  C   UNL A   1      36.751  23.159  24.415  1.00  0.00     0.261 C 
BRANCH   6   7
ATOM      7  O   UNL A   1      35.643  24.061  24.590  1.00  0.00    -0.463 OA
BRANCH   7   8
ATOM      8  C   UNL A   1      34.635  23.911  23.709  1.00  0.00     0.316 C 
ATOM      9  O   UNL A   1      34.799  23.304  22.648  1.00  0.00    -0.251 OA
BRANCH   8  10
ATOM     10  C   UNL A   1      33.274  24.635  24.044  1.00  0.00     0.093 C 
BRANCH  10  11
ATOM     11  C   UNL A   1      31.888  24.270  23.394  1.00  0.00     0.020 C 
ATOM     12  C   UNL A   1      30.689  25.060  23.957  1.00  0.00     0.005 C 
ENDBRANCH  10  11
BRANCH  10  13
ATOM     13  C   UNL A   1      33.163  24.274  25.571  1.00  0.00     0.029 C 
BRANCH  13  14
ATOM     14  C   UNL A   1      32.629  22.854  26.016  1.00  0.00     0.019 C 
ATOM     15  C   UNL A   1      32.854  22.572  27.502  1.00  0.00     0.034 C 
ATOM     16  C   UNL A   1      33.074  21.526  25.373  1.00  0.00     0.163 C 
ATOM     17  C   UNL A   1      33.890  21.476  27.529  1.00  0.00     0.160 C 
ATOM     18  O   UNL A   1      33.613  20.671  26.390  1.00  0.00    -0.381 OA
ENDBRANCH  13  14
ENDBRANCH  10  13
BRANCH  10  19
ATOM     19  C   UNL A   1      33.586  26.153  23.701  1.00  0.00    -0.031 A 
ATOM     20  C   UNL A   1      33.595  27.162  24.696  1.00  0.00     0.005 A 
ATOM     21  C   UNL A   1      33.652  26.603  22.370  1.00  0.00     0.005 A 
ATOM     22  C   UNL A   1      33.622  28.526  24.386  1.00  0.00     0.000 A 
ATOM     23  C   UNL A   1      33.660  27.970  22.057  1.00  0.00     0.000 A 
ATOM     24  C   UNL A   1      33.637  28.932  23.061  1.00  0.00     0.000 A 
ENDBRANCH  10  19
ENDBRANCH   8  10
ENDBRANCH   7   8
ENDBRANCH   6   7
ENDBRANCH   5   6
ENDBRANCH   4   5
ENDBRANCH   3   4
ENDBRANCH   2   3
ENDBRANCH   1   2
BRANCH   1  25
ATOM     25  C   UNL A   1      42.057  22.084  28.326  1.00  0.00     0.188 C 
BRANCH  25  26
ATOM     26  C   UNL A   1      43.146  22.737  27.452  1.00  0.00     0.188 C 
BRANCH  26  27
ATOM     27  O   UNL A   1      43.380  22.091  26.215  1.00  0.00    -0.376 OA
BRANCH  27  28
ATOM     28  C   UNL A   1      43.754  22.879  25.098  1.00  0.00     0.202 C 
BRANCH  28  29
ATOM     29  C   UNL A   1      43.950  24.394  25.284  1.00  0.00     0.261 C 
BRANCH  29  30
ATOM     30  O   UNL A   1      42.762  25.187  25.434  1.00  0.00    -0.460 OA
BRANCH  30  31
ATOM     31  C   UNL A   1      42.897  26.525  25.520  1.00  0.00     0.338 C 
ATOM     32  O   UNL A   1      42.808  27.341  24.616  1.00  0.00    -0.246 OA
BRANCH  31  33
ATOM     33  C   UNL A   1      42.999  26.871  26.950  1.00  0.00     0.060 A 
ATOM     34  C   UNL A   1      44.110  27.593  27.406  1.00  0.00     0.016 A 
ATOM     35  C   UNL A   1      41.996  26.474  27.836  1.00  0.00     0.016 A 
ATOM     36  C   UNL A   1      44.242  27.885  28.762  1.00  0.00     0.010 A 
ATOM     37  C   UNL A   1      42.143  26.744  29.198  1.00  0.00     0.010 A 
ATOM     38  C   UNL A   1      43.285  27.415  29.670  1.00  0.00    -0.014 A 
BRANCH  38  39
ATOM     39  C   UNL A   1      43.588  27.423  31.119  1.00  0.00     0.031 A 
ATOM     40  C   UNL A   1      43.391  28.708  31.875  1.00  0.00     0.074 A 
ATOM     41  C   UNL A   1      44.007  26.317  31.756  1.00  0.00     0.049 A 
ATOM     42  N   UNL A   1      43.643  28.983  33.129  1.00  0.00    -0.248 NA
ATOM     43  C   UNL A   1      42.833  29.837  31.111  1.00  0.00     0.031 C 
ATOM     44  C   UNL A   1      44.180  24.999  31.147  1.00  0.00     0.029 A 
ATOM     45  N   UNL A   1      44.369  26.135  33.067  1.00  0.00    -0.354 N 
ATOM     46  C   UNL A   1      43.288  30.316  33.298  1.00  0.00     0.074 A 
ATOM     47  C   UNL A   1      42.833  30.802  32.015  1.00  0.00     0.031 C 
ATOM     48  C   UNL A   1      44.630  24.145  32.083  1.00  0.00     0.029 A 
ATOM     49  C   UNL A   1      44.812  24.865  33.343  1.00  0.00     0.049 A 
ATOM     50  H   UNL A   1      44.316  26.847  33.745  1.00  0.00     0.167 HD
ATOM     51  C   UNL A   1      43.332  31.067  34.423  1.00  0.00     0.031 A 
ATOM     52  C   UNL A   1      45.332  24.354  34.475  1.00  0.00     0.031 A 
ATOM     53  C   UNL A   1      43.806  30.586  35.692  1.00  0.00     0.049 A 
ATOM     54  C   UNL A   1      45.463  25.237  35.690  1.00  0.00     0.074 A 
ATOM     55  C   UNL A   1      43.889  31.265  36.895  1.00  0.00     0.029 A 
ATOM     56  N   UNL A   1      44.287  29.305  35.920  1.00  0.00    -0.354 N 
ATOM     57  N   UNL A   1      45.110  26.490  35.846  1.00  0.00    -0.248 NA
ATOM     58  C   UNL A   1      46.058  24.628  36.889  1.00  0.00     0.031 C 
ATOM     59  C   UNL A   1      44.484  30.415  37.833  1.00  0.00     0.029 A 
ATOM     60  C   UNL A   1      44.698  29.183  37.236  1.00  0.00     0.049 A 
ATOM     61  H   UNL A   1      44.329  28.590  35.245  1.00  0.00     0.167 HD
ATOM     62  C   UNL A   1      45.408  26.809  37.166  1.00  0.00     0.074 A 
ATOM     63  C   UNL A   1      45.957  25.612  37.770  1.00  0.00     0.031 C 
ATOM     64  C   UNL A   1      45.242  27.985  37.822  1.00  0.00     0.031 A 
BRANCH  51  65
ATOM     65  C   UNL A   1      42.895  32.502  34.313  1.00  0.00    -0.014 A 
ATOM     66  C   UNL A   1      43.804  33.524  33.993  1.00  0.00     0.009 A 
ATOM     67  C   UNL A   1      41.546  32.833  34.514  1.00  0.00     0.009 A 
ATOM     68  C   UNL A   1      43.376  34.851  33.916  1.00  0.00     0.001 A 
ATOM     69  C   UNL A   1      41.116  34.157  34.402  1.00  0.00     0.001 A 
ATOM     70  C   UNL A   1      42.033  35.165  34.114  1.00  0.00     0.000 A 
ENDBRANCH  51  65
BRANCH  52  71
ATOM     71  C   UNL A   1      45.803  22.943  34.510  1.00  0.00    -0.014 A 
ATOM     72  C   UNL A   1      44.898  21.887  34.703  1.00  0.00     0.009 A 
ATOM     73  C   UNL A   1      47.168  22.646  34.374  1.00  0.00     0.009 A 
ATOM     74  C   UNL A   1      45.356  20.569  34.787  1.00  0.00     0.001 A 
ATOM     75  C   UNL A   1      47.619  21.326  34.425  1.00  0.00     0.001 A 
ATOM     76  C   UNL A   1      46.713  20.288  34.642  1.00  0.00     0.000 A 
ENDBRANCH  52  71
BRANCH  64  77
ATOM     77  C   UNL A   1      45.612  28.026  39.280  1.00  0.00    -0.014 A 
ATOM     78  C   UNL A   1      44.770  27.493  40.268  1.00  0.00     0.009 A 
ATOM     79  C   UNL A   1      46.851  28.566  39.662  1.00  0.00     0.009 A 
ATOM     80  C   UNL A   1      45.146  27.536  41.614  1.00  0.00     0.001 A 
ATOM     81  C   UNL A   1      47.238  28.576  41.003  1.00  0.00     0.001 A 
ATOM     82  C   UNL A   1      46.381  28.072  41.978  1.00  0.00     0.000 A 
ENDBRANCH  64  77
ENDBRANCH  38  39
ENDBRANCH  31  33
ENDBRANCH  30  31
ENDBRANCH  29  30
ENDBRANCH  28  29
ENDBRANCH  27  28
ENDBRANCH  26  27
ENDBRANCH  25  26
ENDBRANCH   1  25
TORSDOF 24
ENDMDL
MODEL 3
REMARK VINA RESULT:      -7.9      3.898      7.477
REMARK SMILES CC[C@@](C[C@@H]1CCOC1)(C(=O)OCCOCCOCCOCCOC(=O)c1ccc(-c2c3nc(c(-c4ccccc4)c4ccc([nH]4)c(-c4ccccc4)c4nc(c(-c5ccccc5)c5ccc2[nH]5)C=C4)C=C3)cc1)c1ccccc1
REMARK SMILES IDX 18 1 17 2 16 3 15 4 14 5 13 6 12 7 10 8 11 9 3 10 2 11 1 12
REMARK SMILES IDX 4 13 5 14 6 15 9 16 7 17 8 18 75 19 76 20 80 21 77 22 79 23
REMARK SMILES IDX 78 24 19 25 20 26 21 27 22 28 23 29 24 30 25 31 26 32 27 33
REMARK SMILES IDX 28 34 74 35 29 36 73 37 30 38 31 39 32 40 67 41 33 42 72 43
REMARK SMILES IDX 66 44 68 45 34 46 71 47 65 48 64 49 35 51 57 52 42 53 56 54
REMARK SMILES IDX 43 55 46 56 55 57 69 58 44 59 45 60 54 62 70 63 47 64 36 65
REMARK SMILES IDX 37 66 41 67 38 68 40 69 39 70 58 71 59 72 63 73 60 74 62 75
REMARK SMILES IDX 61 76 48 77 49 78 53 79 50 80 52 81 51 82
REMARK H PARENT 68 50 46 61
REMARK Flexibility Score: inf
ROOT
ATOM      1  O   UNL A   1      39.144  23.096  26.208  1.00  0.00    -0.377 OA
ENDROOT
BRANCH   1   2
ATOM      2  C   UNL A   1      39.901  22.028  26.754  1.00  0.00     0.188 C 
BRANCH   2   3
ATOM      3  C   UNL A   1      41.272  21.633  26.182  1.00  0.00     0.188 C 
BRANCH   3   4
ATOM      4  O   UNL A   1      42.347  22.469  26.534  1.00  0.00    -0.376 OA
BRANCH   4   5
ATOM      5  C   UNL A   1      43.456  22.614  25.670  1.00  0.00     0.202 C 
BRANCH   5   6
ATOM      6  C   UNL A   1      44.925  22.445  26.090  1.00  0.00     0.261 C 
BRANCH   6   7
ATOM      7  O   UNL A   1      45.739  23.618  26.276  1.00  0.00    -0.463 OA
BRANCH   7   8
ATOM      8  C   UNL A   1      45.784  24.091  27.536  1.00  0.00     0.316 C 
ATOM      9  O   UNL A   1      45.325  23.443  28.480  1.00  0.00    -0.251 OA
BRANCH   8  10
ATOM     10  C   UNL A   1      46.348  25.551  27.736  1.00  0.00     0.093 C 
BRANCH  10  11
ATOM     11  C   UNL A   1      47.837  25.885  28.122  1.00  0.00     0.020 C 
ATOM     12  C   UNL A   1      48.853  24.779  27.774  1.00  0.00     0.005 C 
ENDBRANCH  10  11
BRANCH  10  13
ATOM     13  C   UNL A   1      46.126  26.110  26.283  1.00  0.00     0.029 C 
BRANCH  13  14
ATOM     14  C   UNL A   1      47.295  26.867  25.534  1.00  0.00     0.019 C 
ATOM     15  C   UNL A   1      46.880  28.246  25.019  1.00  0.00     0.034 C 
ATOM     16  C   UNL A   1      48.054  26.295  24.321  1.00  0.00     0.163 C 
ATOM     17  C   UNL A   1      46.876  28.107  23.518  1.00  0.00     0.160 C 
ATOM     18  O   UNL A   1      47.939  27.209  23.222  1.00  0.00    -0.381 OA
ENDBRANCH  13  14
ENDBRANCH  10  13
BRANCH  10  19
ATOM     19  C   UNL A   1      45.408  26.144  28.869  1.00  0.00    -0.031 A 
ATOM     20  C   UNL A   1      45.767  26.108  30.239  1.00  0.00     0.005 A 
ATOM     21  C   UNL A   1      44.086  26.534  28.590  1.00  0.00     0.005 A 
ATOM     22  C   UNL A   1      44.858  26.396  31.264  1.00  0.00     0.000 A 
ATOM     23  C   UNL A   1      43.169  26.804  29.616  1.00  0.00     0.000 A 
ATOM     24  C   UNL A   1      43.551  26.729  30.952  1.00  0.00     0.000 A 
ENDBRANCH  10  19
ENDBRANCH   8  10
ENDBRANCH   7   8
ENDBRANCH   6   7
ENDBRANCH   5   6
ENDBRANCH   4   5
ENDBRANCH   3   4
ENDBRANCH   2   3
ENDBRANCH   1   2
BRANCH   1  25
ATOM     25  C   UNL A   1      38.962  24.297  26.947  1.00  0.00     0.188 C 
BRANCH  25  26
ATOM     26  C   UNL A   1      40.112  24.865  27.801  1.00  0.00     0.188 C 
BRANCH  26  27
ATOM     27  O   UNL A   1      39.704  25.713  28.857  1.00  0.00    -0.376 OA
BRANCH  27  28
ATOM     28  C   UNL A   1      39.245  27.018  28.543  1.00  0.00     0.202 C 
BRANCH  28  29
ATOM     29  C   UNL A   1      38.642  27.886  29.661  1.00  0.00     0.261 C 
BRANCH  29  30
ATOM     30  O   UNL A   1      39.512  28.236  30.749  1.00  0.00    -0.460 OA
BRANCH  30  31
ATOM     31  C   UNL A   1      39.680  29.542  31.034  1.00  0.00     0.338 C 
ATOM     32  O   UNL A   1      38.957  30.255  31.712  1.00  0.00    -0.246 OA
BRANCH  31  33
ATOM     33  C   UNL A   1      41.006  29.940  30.527  1.00  0.00     0.060 A 
ATOM     34  C   UNL A   1      41.971  30.419  31.425  1.00  0.00     0.016 A 
ATOM     35  C   UNL A   1      41.290  29.844  29.163  1.00  0.00     0.016 A 
ATOM     36  C   UNL A   1      43.212  30.844  30.954  1.00  0.00     0.010 A 
ATOM     37  C   UNL A   1      42.524  30.294  28.690  1.00  0.00     0.010 A 
ATOM     38  C   UNL A   1      43.472  30.832  29.578  1.00  0.00    -0.014 A 
BRANCH  38  39
ATOM     39  C   UNL A   1      44.631  31.586  29.049  1.00  0.00     0.031 A 
ATOM     40  C   UNL A   1      44.454  33.055  28.776  1.00  0.00     0.074 A 
ATOM     41  C   UNL A   1      45.818  30.993  28.834  1.00  0.00     0.049 A 
ATOM     42  N   UNL A   1      45.295  33.912  28.258  1.00  0.00    -0.248 NA
ATOM     43  C   UNL A   1      43.149  33.633  29.139  1.00  0.00     0.031 C 
ATOM     44  C   UNL A   1      46.131  29.593  29.113  1.00  0.00     0.029 A 
ATOM     45  N   UNL A   1      46.983  31.506  28.320  1.00  0.00    -0.354 N 
ATOM     46  C   UNL A   1      44.617  35.124  28.221  1.00  0.00     0.074 A 
ATOM     47  C   UNL A   1      43.288  34.887  28.739  1.00  0.00     0.031 C 
ATOM     48  C   UNL A   1      47.404  29.354  28.753  1.00  0.00     0.029 A 
ATOM     49  C   UNL A   1      47.980  30.572  28.184  1.00  0.00     0.049 A 
ATOM     50  H   UNL A   1      47.092  32.452  28.073  1.00  0.00     0.167 HD
ATOM     51  C   UNL A   1      45.063  36.330  27.797  1.00  0.00     0.031 A 
ATOM     52  C   UNL A   1      49.205  30.684  27.635  1.00  0.00     0.031 A 
ATOM     53  C   UNL A   1      46.377  36.559  27.263  1.00  0.00     0.049 A 
ATOM     54  C   UNL A   1      49.644  32.015  27.081  1.00  0.00     0.074 A 
ATOM     55  C   UNL A   1      46.929  37.743  26.807  1.00  0.00     0.029 A 
ATOM     56  N   UNL A   1      47.343  35.577  27.101  1.00  0.00    -0.354 N 
ATOM     57  N   UNL A   1      49.004  33.159  27.064  1.00  0.00    -0.248 NA
ATOM     58  C   UNL A   1      50.983  32.069  26.476  1.00  0.00     0.031 C 
ATOM     59  C   UNL A   1      48.205  37.465  26.309  1.00  0.00     0.029 A 
ATOM     60  C   UNL A   1      48.478  36.123  26.525  1.00  0.00     0.049 A 
ATOM     61  H   UNL A   1      47.238  34.633  27.358  1.00  0.00     0.167 HD
ATOM     62  C   UNL A   1      49.873  34.074  26.479  1.00  0.00     0.074 A 
ATOM     63  C   UNL A   1      51.090  33.353  26.169  1.00  0.00     0.031 C 
ATOM     64  C   UNL A   1      49.682  35.392  26.223  1.00  0.00     0.031 A 
BRANCH  51  65
ATOM     65  C   UNL A   1      44.097  37.483  27.857  1.00  0.00    -0.014 A 
ATOM     66  C   UNL A   1      43.177  37.724  26.825  1.00  0.00     0.009 A 
ATOM     67  C   UNL A   1      44.099  38.331  28.975  1.00  0.00     0.009 A 
ATOM     68  C   UNL A   1      42.304  38.812  26.895  1.00  0.00     0.001 A 
ATOM     69  C   UNL A   1      43.202  39.398  29.059  1.00  0.00     0.001 A 
ATOM     70  C   UNL A   1      42.314  39.644  28.014  1.00  0.00     0.000 A 
ENDBRANCH  51  65
BRANCH  52  71
ATOM     71  C   UNL A   1      50.096  29.496  27.549  1.00  0.00    -0.014 A 
ATOM     72  C   UNL A   1      50.206  28.764  26.356  1.00  0.00     0.009 A 
ATOM     73  C   UNL A   1      50.825  29.072  28.671  1.00  0.00     0.009 A 
ATOM     74  C   UNL A   1      51.005  27.618  26.300  1.00  0.00     0.001 A 
ATOM     75  C   UNL A   1      51.649  27.947  28.602  1.00  0.00     0.001 A 
ATOM     76  C   UNL A   1      51.730  27.214  27.419  1.00  0.00     0.000 A 
ENDBRANCH  52  71
BRANCH  64  77
ATOM     77  C   UNL A   1      50.830  36.155  25.619  1.00  0.00    -0.014 A 
ATOM     78  C   UNL A   1      51.096  36.116  24.241  1.00  0.00     0.009 A 
ATOM     79  C   UNL A   1      51.629  36.965  26.442  1.00  0.00     0.009 A 
ATOM     80  C   UNL A   1      52.163  36.843  23.707  1.00  0.00     0.001 A 
ATOM     81  C   UNL A   1      52.672  37.718  25.900  1.00  0.00     0.001 A 
ATOM     82  C   UNL A   1      52.946  37.646  24.535  1.00  0.00     0.000 A 
ENDBRANCH  64  77
ENDBRANCH  38  39
ENDBRANCH  31  33
ENDBRANCH  30  31
ENDBRANCH  29  30
ENDBRANCH  28  29
ENDBRANCH  27  28
ENDBRANCH  26  27
ENDBRANCH  25  26
ENDBRANCH   1  25
TORSDOF 24
ENDMDL
