MODEL 1
REMARK VINA RESULT:      -9.0      0.000      0.000
REMARK SMILES CC1(C(=O)N[C@H](C(=O)OCCOCCOCCOCCOC(=O)c2ccc(-c3c4nc(c(-c5ccccc5)c5ccc([nH]5)c(-c5ccccc5)c5nc(c(-c6ccccc6)c6ccc3[nH]6)C=C5)C=C4)cc2)C2CC2)CCCC1
REMARK SMILES IDX 15 1 14 2 13 3 12 4 11 5 10 6 9 7 7 8 8 9 6 10 5 11 3 12
REMARK SMILES IDX 4 13 2 15 1 16 75 17 78 18 76 19 77 20 72 21 73 22 74 23
REMARK SMILES IDX 16 24 17 25 18 26 19 27 20 28 21 29 22 30 23 31 24 32 25 33
REMARK SMILES IDX 71 34 26 35 70 36 27 37 28 38 29 39 64 40 30 41 69 42 63 43
REMARK SMILES IDX 65 44 31 45 68 46 62 47 61 48 32 50 54 51 39 52 53 53 40 54
REMARK SMILES IDX 43 55 52 56 66 57 41 58 42 59 51 61 67 62 44 63 33 64 34 65
REMARK SMILES IDX 38 66 35 67 37 68 36 69 55 70 56 71 60 72 57 73 59 74 58 75
REMARK SMILES IDX 45 76 46 77 50 78 47 79 49 80 48 81
REMARK H PARENT 5 14 65 49 43 60
REMARK Flexibility Score: inf
ROOT
ATOM      1  O   UNL A   1      41.502  20.245  26.858  1.00  0.00    -0.377 OA
ENDROOT
BRANCH   1   2
ATOM      2  C   UNL A   1      40.876  21.317  26.188  1.00  0.00     0.188 C 
BRANCH   2   3
ATOM      3  C   UNL A   1      39.915  22.181  27.014  1.00  0.00     0.188 C 
BRANCH   3   4
ATOM      4  O   UNL A   1      39.752  23.549  26.696  1.00  0.00    -0.376 OA
BRANCH   4   5
ATOM      5  C   UNL A   1      38.432  24.037  26.503  1.00  0.00     0.202 C 
BRANCH   5   6
ATOM      6  C   UNL A   1      37.518  23.302  25.497  1.00  0.00     0.261 C 
BRANCH   6   7
ATOM      7  O   UNL A   1      36.214  23.888  25.218  1.00  0.00    -0.462 OA
BRANCH   7   8
ATOM      8  C   UNL A   1      35.227  23.015  24.879  1.00  0.00     0.329 C 
ATOM      9  O   UNL A   1      35.424  21.998  24.215  1.00  0.00    -0.250 OA
BRANCH   8  10
ATOM     10  C   UNL A   1      33.766  23.415  25.329  1.00  0.00     0.195 C 
BRANCH  10  11
ATOM     11  N   UNL A   1      32.699  23.602  24.330  1.00  0.00    -0.342 N 
ATOM     12  C   UNL A   1      31.724  24.534  24.105  1.00  0.00     0.226 C 
ATOM     13  O   UNL A   1      30.894  24.210  23.244  1.00  0.00    -0.274 OA
ATOM     14  H   UNL A   1      32.686  22.880  23.660  1.00  0.00     0.164 HD
BRANCH  12  15
ATOM     15  C   UNL A   1      31.577  25.916  24.823  1.00  0.00     0.046 C 
ATOM     16  C   UNL A   1      30.371  26.707  24.321  1.00  0.00     0.022 C 
ATOM     17  C   UNL A   1      32.866  26.777  24.618  1.00  0.00     0.016 C 
ATOM     18  C   UNL A   1      31.601  25.811  26.344  1.00  0.00     0.016 C 
ATOM     19  C   UNL A   1      33.010  27.692  25.842  1.00  0.00     0.001 C 
ATOM     20  C   UNL A   1      32.048  27.156  26.892  1.00  0.00     0.001 C 
ENDBRANCH  12  15
ENDBRANCH  10  11
BRANCH  10  21
ATOM     21  C   UNL A   1      33.345  22.336  26.331  1.00  0.00     0.023 C 
ATOM     22  C   UNL A   1      34.258  21.982  27.477  1.00  0.00     0.007 C 
ATOM     23  C   UNL A   1      32.905  22.566  27.760  1.00  0.00     0.007 C 
ENDBRANCH  10  21
ENDBRANCH   8  10
ENDBRANCH   7   8
ENDBRANCH   6   7
ENDBRANCH   5   6
ENDBRANCH   4   5
ENDBRANCH   3   4
ENDBRANCH   2   3
ENDBRANCH   1   2
BRANCH   1  24
ATOM     24  C   UNL A   1      41.788  19.094  26.082  1.00  0.00     0.188 C 
BRANCH  24  25
ATOM     25  C   UNL A   1      43.284  18.995  25.768  1.00  0.00     0.188 C 
BRANCH  25  26
ATOM     26  O   UNL A   1      43.767  19.596  24.563  1.00  0.00    -0.376 OA
BRANCH  26  27
ATOM     27  C   UNL A   1      44.879  20.488  24.611  1.00  0.00     0.202 C 
BRANCH  27  28
ATOM     28  C   UNL A   1      44.511  21.956  24.774  1.00  0.00     0.261 C 
BRANCH  28  29
ATOM     29  O   UNL A   1      44.428  22.266  26.166  1.00  0.00    -0.460 OA
BRANCH  29  30
ATOM     30  C   UNL A   1      45.210  23.284  26.580  1.00  0.00     0.338 C 
ATOM     31  O   UNL A   1      46.383  23.491  26.308  1.00  0.00    -0.246 OA
BRANCH  30  32
ATOM     32  C   UNL A   1      44.329  24.267  27.228  1.00  0.00     0.060 A 
ATOM     33  C   UNL A   1      44.600  25.630  27.034  1.00  0.00     0.016 A 
ATOM     34  C   UNL A   1      43.230  23.852  27.985  1.00  0.00     0.016 A 
ATOM     35  C   UNL A   1      43.789  26.587  27.620  1.00  0.00     0.010 A 
ATOM     36  C   UNL A   1      42.440  24.806  28.608  1.00  0.00     0.010 A 
ATOM     37  C   UNL A   1      42.755  26.167  28.461  1.00  0.00    -0.014 A 
BRANCH  37  38
ATOM     38  C   UNL A   1      42.226  27.118  29.448  1.00  0.00     0.031 A 
ATOM     39  C   UNL A   1      42.959  27.211  30.753  1.00  0.00     0.074 A 
ATOM     40  C   UNL A   1      41.139  27.852  29.179  1.00  0.00     0.049 A 
ATOM     41  N   UNL A   1      42.654  27.881  31.830  1.00  0.00    -0.248 NA
ATOM     42  C   UNL A   1      44.202  26.423  30.863  1.00  0.00     0.031 C 
ATOM     43  C   UNL A   1      40.408  27.857  27.913  1.00  0.00     0.029 A 
ATOM     44  N   UNL A   1      40.452  28.725  29.976  1.00  0.00    -0.354 N 
ATOM     45  C   UNL A   1      43.655  27.581  32.746  1.00  0.00     0.074 A 
ATOM     46  C   UNL A   1      44.560  26.650  32.116  1.00  0.00     0.031 C 
ATOM     47  C   UNL A   1      39.354  28.682  28.027  1.00  0.00     0.029 A 
ATOM     48  C   UNL A   1      39.320  29.224  29.384  1.00  0.00     0.049 A 
ATOM     49  H   UNL A   1      40.740  28.970  30.884  1.00  0.00     0.167 HD
ATOM     50  C   UNL A   1      43.798  28.045  34.007  1.00  0.00     0.031 A 
ATOM     51  C   UNL A   1      38.356  30.002  29.907  1.00  0.00     0.031 A 
ATOM     52  C   UNL A   1      42.863  28.946  34.618  1.00  0.00     0.049 A 
ATOM     53  C   UNL A   1      38.496  30.445  31.339  1.00  0.00     0.074 A 
ATOM     54  C   UNL A   1      42.893  29.495  35.884  1.00  0.00     0.029 A 
ATOM     55  N   UNL A   1      41.716  29.419  33.994  1.00  0.00    -0.354 N 
ATOM     56  N   UNL A   1      39.451  30.177  32.199  1.00  0.00    -0.248 NA
ATOM     57  C   UNL A   1      37.431  31.304  31.869  1.00  0.00     0.031 C 
ATOM     58  C   UNL A   1      41.728  30.251  36.050  1.00  0.00     0.029 A 
ATOM     59  C   UNL A   1      41.013  30.235  34.860  1.00  0.00     0.049 A 
ATOM     60  H   UNL A   1      41.444  29.206  33.073  1.00  0.00     0.167 HD
ATOM     61  C   UNL A   1      39.123  30.862  33.361  1.00  0.00     0.074 A 
ATOM     62  C   UNL A   1      37.884  31.566  33.088  1.00  0.00     0.031 C 
ATOM     63  C   UNL A   1      39.782  30.916  34.545  1.00  0.00     0.031 A 
BRANCH  50  64
ATOM     64  C   UNL A   1      44.966  27.532  34.803  1.00  0.00    -0.014 A 
ATOM     65  C   UNL A   1      46.175  28.243  34.880  1.00  0.00     0.009 A 
ATOM     66  C   UNL A   1      44.857  26.308  35.482  1.00  0.00     0.009 A 
ATOM     67  C   UNL A   1      47.262  27.719  35.584  1.00  0.00     0.001 A 
ATOM     68  C   UNL A   1      45.933  25.804  36.213  1.00  0.00     0.001 A 
ATOM     69  C   UNL A   1      47.138  26.504  36.255  1.00  0.00     0.000 A 
ENDBRANCH  50  64
BRANCH  51  70
ATOM     70  C   UNL A   1      37.186  30.390  29.080  1.00  0.00    -0.014 A 
ATOM     71  C   UNL A   1      36.212  29.444  28.729  1.00  0.00     0.009 A 
ATOM     72  C   UNL A   1      37.026  31.718  28.649  1.00  0.00     0.009 A 
ATOM     73  C   UNL A   1      35.115  29.814  27.946  1.00  0.00     0.001 A 
ATOM     74  C   UNL A   1      35.914  32.091  27.891  1.00  0.00     0.001 A 
ATOM     75  C   UNL A   1      34.964  31.137  27.533  1.00  0.00     0.000 A 
ENDBRANCH  51  70
BRANCH  63  76
ATOM     76  C   UNL A   1      39.203  31.804  35.611  1.00  0.00    -0.014 A 
ATOM     77  C   UNL A   1      38.298  31.314  36.563  1.00  0.00     0.009 A 
ATOM     78  C   UNL A   1      39.623  33.141  35.692  1.00  0.00     0.009 A 
ATOM     79  C   UNL A   1      37.796  32.158  37.554  1.00  0.00     0.001 A 
ATOM     80  C   UNL A   1      39.149  33.971  36.705  1.00  0.00     0.001 A 
ATOM     81  C   UNL A   1      38.227  33.483  37.628  1.00  0.00     0.000 A 
ENDBRANCH  63  76
ENDBRANCH  37  38
ENDBRANCH  30  32
ENDBRANCH  29  30
ENDBRANCH  28  29
ENDBRANCH  27  28
ENDBRANCH  26  27
ENDBRANCH  25  26
ENDBRANCH  24  25
ENDBRANCH   1  24
TORSDOF 23
ENDMDL
MODEL 2
REMARK VINA RESULT:      -8.6      2.421      8.416
REMARK SMILES CC1(C(=O)N[C@H](C(=O)OCCOCCOCCOCCOC(=O)c2ccc(-c3c4nc(c(-c5ccccc5)c5ccc([nH]5)c(-c5ccccc5)c5nc(c(-c6ccccc6)c6ccc3[nH]6)C=C5)C=C4)cc2)C2CC2)CCCC1
REMARK SMILES IDX 15 1 14 2 13 3 12 4 11 5 10 6 9 7 7 8 8 9 6 10 5 11 3 12
REMARK SMILES IDX 4 13 2 15 1 16 75 17 78 18 76 19 77 20 72 21 73 22 74 23
REMARK SMILES IDX 16 24 17 25 18 26 19 27 20 28 21 29 22 30 23 31 24 32 25 33
REMARK SMILES IDX 71 34 26 35 70 36 27 37 28 38 29 39 64 40 30 41 69 42 63 43
REMARK SMILES IDX 65 44 31 45 68 46 62 47 61 48 32 50 54 51 39 52 53 53 40 54
REMARK SMILES IDX 43 55 52 56 66 57 41 58 42 59 51 61 67 62 44 63 33 64 34 65
REMARK SMILES IDX 38 66 35 67 37 68 36 69 55 70 56 71 60 72 57 73 59 74 58 75
REMARK SMILES IDX 45 76 46 77 50 78 47 79 49 80 48 81
REMARK H PARENT 5 14 65 49 43 60
REMARK Flexibility Score: inf
ROOT
ATOM      1  O   UNL A   1      33.404  26.501  25.475  1.00  0.00    -0.377 OA
ENDROOT
BRANCH   1   2
ATOM      2  C   UNL A   1      32.146  25.959  25.134  1.00  0.00     0.188 C 
BRANCH   2   3
ATOM      3  C   UNL A   1      31.164  25.719  26.287  1.00  0.00     0.188 C 
BRANCH   3   4
ATOM      4  O   UNL A   1      30.285  24.612  26.241  1.00  0.00    -0.376 OA
BRANCH   4   5
ATOM      5  C   UNL A   1      30.784  23.346  26.652  1.00  0.00     0.202 C 
BRANCH   5   6
ATOM      6  C   UNL A   1      30.711  22.170  25.653  1.00  0.00     0.261 C 
BRANCH   6   7
ATOM      7  O   UNL A   1      31.901  21.879  24.866  1.00  0.00    -0.462 OA
BRANCH   7   8
ATOM      8  C   UNL A   1      32.830  21.081  25.459  1.00  0.00     0.329 C 
ATOM      9  O   UNL A   1      33.036  21.072  26.672  1.00  0.00    -0.250 OA
BRANCH   8  10
ATOM     10  C   UNL A   1      33.704  20.195  24.485  1.00  0.00     0.195 C 
BRANCH  10  11
ATOM     11  N   UNL A   1      35.063  19.775  24.870  1.00  0.00    -0.342 N 
ATOM     12  C   UNL A   1      36.279  20.390  24.981  1.00  0.00     0.226 C 
ATOM     13  O   UNL A   1      37.230  19.616  25.158  1.00  0.00    -0.274 OA
ATOM     14  H   UNL A   1      35.105  18.820  25.105  1.00  0.00     0.164 HD
BRANCH  12  15
ATOM     15  C   UNL A   1      36.554  21.928  24.902  1.00  0.00     0.046 C 
ATOM     16  C   UNL A   1      36.333  22.487  23.498  1.00  0.00     0.022 C 
ATOM     17  C   UNL A   1      38.019  22.244  25.346  1.00  0.00     0.016 C 
ATOM     18  C   UNL A   1      35.806  22.729  25.962  1.00  0.00     0.016 C 
ATOM     19  C   UNL A   1      38.024  23.654  25.953  1.00  0.00     0.001 C 
ATOM     20  C   UNL A   1      36.566  24.026  26.181  1.00  0.00     0.001 C 
ENDBRANCH  12  15
ENDBRANCH  10  11
BRANCH  10  21
ATOM     21  C   UNL A   1      32.849  18.957  24.194  1.00  0.00     0.023 C 
ATOM     22  C   UNL A   1      32.373  18.691  22.788  1.00  0.00     0.007 C 
ATOM     23  C   UNL A   1      33.298  17.716  23.456  1.00  0.00     0.007 C 
ENDBRANCH  10  21
ENDBRANCH   8  10
ENDBRANCH   7   8
ENDBRANCH   6   7
ENDBRANCH   5   6
ENDBRANCH   4   5
ENDBRANCH   3   4
ENDBRANCH   2   3
ENDBRANCH   1   2
BRANCH   1  24
ATOM     24  C   UNL A   1      33.963  27.425  24.557  1.00  0.00     0.188 C 
BRANCH  24  25
ATOM     25  C   UNL A   1      32.921  28.449  24.097  1.00  0.00     0.188 C 
BRANCH  25  26
ATOM     26  O   UNL A   1      32.839  29.696  24.793  1.00  0.00    -0.376 OA
BRANCH  26  27
ATOM     27  C   UNL A   1      31.702  29.983  25.604  1.00  0.00     0.202 C 
BRANCH  27  28
ATOM     28  C   UNL A   1      31.883  31.148  26.566  1.00  0.00     0.261 C 
BRANCH  28  29
ATOM     29  O   UNL A   1      32.972  30.863  27.446  1.00  0.00    -0.460 OA
BRANCH  29  30
ATOM     30  C   UNL A   1      33.820  31.888  27.669  1.00  0.00     0.338 C 
ATOM     31  O   UNL A   1      33.553  33.076  27.777  1.00  0.00    -0.246 OA
BRANCH  30  32
ATOM     32  C   UNL A   1      35.122  31.301  28.020  1.00  0.00     0.060 A 
ATOM     33  C   UNL A   1      35.222  29.903  28.088  1.00  0.00     0.016 A 
ATOM     34  C   UNL A   1      36.236  32.115  28.241  1.00  0.00     0.016 A 
ATOM     35  C   UNL A   1      36.432  29.311  28.406  1.00  0.00     0.010 A 
ATOM     36  C   UNL A   1      37.439  31.528  28.602  1.00  0.00     0.010 A 
ATOM     37  C   UNL A   1      37.517  30.132  28.730  1.00  0.00    -0.014 A 
BRANCH  37  38
ATOM     38  C   UNL A   1      38.613  29.562  29.524  1.00  0.00     0.031 A 
ATOM     39  C   UNL A   1      38.723  30.023  30.947  1.00  0.00     0.074 A 
ATOM     40  C   UNL A   1      39.465  28.680  28.985  1.00  0.00     0.049 A 
ATOM     41  N   UNL A   1      39.645  29.766  31.833  1.00  0.00    -0.248 NA
ATOM     42  C   UNL A   1      37.649  30.910  31.433  1.00  0.00     0.031 C 
ATOM     43  C   UNL A   1      39.386  28.143  27.628  1.00  0.00     0.029 A 
ATOM     44  N   UNL A   1      40.579  28.098  29.522  1.00  0.00    -0.354 N 
ATOM     45  C   UNL A   1      39.272  30.475  32.969  1.00  0.00     0.074 A 
ATOM     46  C   UNL A   1      38.059  31.192  32.658  1.00  0.00     0.031 C 
ATOM     47  C   UNL A   1      40.430  27.321  27.429  1.00  0.00     0.029 A 
ATOM     48  C   UNL A   1      41.262  27.312  28.630  1.00  0.00     0.049 A 
ATOM     49  H   UNL A   1      40.863  28.230  30.455  1.00  0.00     0.167 HD
ATOM     50  C   UNL A   1      39.895  30.520  34.167  1.00  0.00     0.031 A 
ATOM     51  C   UNL A   1      42.446  26.691  28.774  1.00  0.00     0.031 A 
ATOM     52  C   UNL A   1      41.119  29.820  34.436  1.00  0.00     0.049 A 
ATOM     53  C   UNL A   1      43.163  26.818  30.092  1.00  0.00     0.074 A 
ATOM     54  C   UNL A   1      41.851  29.777  35.606  1.00  0.00     0.029 A 
ATOM     55  N   UNL A   1      41.794  29.045  33.503  1.00  0.00    -0.354 N 
ATOM     56  N   UNL A   1      42.801  27.471  31.171  1.00  0.00    -0.248 NA
ATOM     57  C   UNL A   1      44.445  26.114  30.215  1.00  0.00     0.031 C 
ATOM     58  C   UNL A   1      43.005  29.027  35.361  1.00  0.00     0.029 A 
ATOM     59  C   UNL A   1      42.952  28.539  34.063  1.00  0.00     0.049 A 
ATOM     60  H   UNL A   1      41.494  28.879  32.581  1.00  0.00     0.167 HD
ATOM     61  C   UNL A   1      43.791  27.230  32.115  1.00  0.00     0.074 A 
ATOM     62  C   UNL A   1      44.763  26.361  31.479  1.00  0.00     0.031 C 
ATOM     63  C   UNL A   1      43.892  27.676  33.392  1.00  0.00     0.031 A 
BRANCH  50  64
ATOM     64  C   UNL A   1      39.291  31.397  35.228  1.00  0.00    -0.014 A 
ATOM     65  C   UNL A   1      38.342  30.904  36.139  1.00  0.00     0.009 A 
ATOM     66  C   UNL A   1      39.671  32.745  35.311  1.00  0.00     0.009 A 
ATOM     67  C   UNL A   1      37.757  31.753  37.082  1.00  0.00     0.001 A 
ATOM     68  C   UNL A   1      39.111  33.583  36.276  1.00  0.00     0.001 A 
ATOM     69  C   UNL A   1      38.147  33.090  37.154  1.00  0.00     0.000 A 
ENDBRANCH  50  64
BRANCH  51  70
ATOM     70  C   UNL A   1      43.021  25.917  27.645  1.00  0.00    -0.014 A 
ATOM     71  C   UNL A   1      42.730  24.554  27.489  1.00  0.00     0.009 A 
ATOM     72  C   UNL A   1      43.853  26.544  26.701  1.00  0.00     0.009 A 
ATOM     73  C   UNL A   1      43.279  23.829  26.427  1.00  0.00     0.001 A 
ATOM     74  C   UNL A   1      44.375  25.824  25.625  1.00  0.00     0.001 A 
ATOM     75  C   UNL A   1      44.095  24.466  25.494  1.00  0.00     0.000 A 
ENDBRANCH  51  70
BRANCH  63  76
ATOM     76  C   UNL A   1      45.064  27.188  34.196  1.00  0.00    -0.014 A 
ATOM     77  C   UNL A   1      46.292  27.865  34.189  1.00  0.00     0.009 A 
ATOM     78  C   UNL A   1      44.909  26.063  35.020  1.00  0.00     0.009 A 
ATOM     79  C   UNL A   1      47.354  27.400  34.965  1.00  0.00     0.001 A 
ATOM     80  C   UNL A   1      45.960  25.622  35.822  1.00  0.00     0.001 A 
ATOM     81  C   UNL A   1      47.185  26.285  35.786  1.00  0.00     0.000 A 
ENDBRANCH  63  76
ENDBRANCH  37  38
ENDBRANCH  30  32
ENDBRANCH  29  30
ENDBRANCH  28  29
ENDBRANCH  27  28
ENDBRANCH  26  27
ENDBRANCH  25  26
ENDBRANCH  24  25
ENDBRANCH   1  24
TORSDOF 23
ENDMDL
MODEL 3
REMARK VINA RESULT:      -8.6      3.050      8.559
REMARK SMILES CC1(C(=O)N[C@H](C(=O)OCCOCCOCCOCCOC(=O)c2ccc(-c3c4nc(c(-c5ccccc5)c5ccc([nH]5)c(-c5ccccc5)c5nc(c(-c6ccccc6)c6ccc3[nH]6)C=C5)C=C4)cc2)C2CC2)CCCC1
REMARK SMILES IDX 15 1 14 2 13 3 12 4 11 5 10 6 9 7 7 8 8 9 6 10 5 11 3 12
REMARK SMILES IDX 4 13 2 15 1 16 75 17 78 18 76 19 77 20 72 21 73 22 74 23
REMARK SMILES IDX 16 24 17 25 18 26 19 27 20 28 21 29 22 30 23 31 24 32 25 33
REMARK SMILES IDX 71 34 26 35 70 36 27 37 28 38 29 39 64 40 30 41 69 42 63 43
REMARK SMILES IDX 65 44 31 45 68 46 62 47 61 48 32 50 54 51 39 52 53 53 40 54
REMARK SMILES IDX 43 55 52 56 66 57 41 58 42 59 51 61 67 62 44 63 33 64 34 65
REMARK SMILES IDX 38 66 35 67 37 68 36 69 55 70 56 71 60 72 57 73 59 74 58 75
REMARK SMILES IDX 45 76 46 77 50 78 47 79 49 80 48 81
REMARK H PARENT 5 14 65 49 43 60
REMARK Flexibility Score: inf
ROOT
ATOM      1  O   UNL A   1      33.293  26.435  25.659  1.00  0.00    -0.377 OA
ENDROOT
BRANCH   1   2
ATOM      2  C   UNL A   1      32.093  26.104  24.995  1.00  0.00     0.188 C 
BRANCH   2   3
ATOM      3  C   UNL A   1      30.804  26.167  25.824  1.00  0.00     0.188 C 
BRANCH   3   4
ATOM      4  O   UNL A   1      29.926  25.059  25.842  1.00  0.00    -0.376 OA
BRANCH   4   5
ATOM      5  C   UNL A   1      30.135  24.057  26.827  1.00  0.00     0.202 C 
BRANCH   5   6
ATOM      6  C   UNL A   1      31.095  22.892  26.497  1.00  0.00     0.261 C 
BRANCH   6   7
ATOM      7  O   UNL A   1      32.518  23.104  26.727  1.00  0.00    -0.462 OA
BRANCH   7   8
ATOM      8  C   UNL A   1      33.323  22.026  26.529  1.00  0.00     0.329 C 
ATOM      9  O   UNL A   1      33.660  21.260  27.431  1.00  0.00    -0.250 OA
BRANCH   8  10
ATOM     10  C   UNL A   1      33.878  21.838  25.061  1.00  0.00     0.195 C 
BRANCH  10  11
ATOM     11  N   UNL A   1      33.020  21.279  24.002  1.00  0.00    -0.342 N 
ATOM     12  C   UNL A   1      32.721  20.024  23.549  1.00  0.00     0.226 C 
ATOM     13  O   UNL A   1      32.082  20.001  22.488  1.00  0.00    -0.274 OA
ATOM     14  H   UNL A   1      32.545  21.980  23.498  1.00  0.00     0.164 HD
BRANCH  12  15
ATOM     15  C   UNL A   1      33.108  18.672  24.234  1.00  0.00     0.046 C 
ATOM     16  C   UNL A   1      32.404  18.477  25.575  1.00  0.00     0.022 C 
ATOM     17  C   UNL A   1      34.653  18.598  24.460  1.00  0.00     0.016 C 
ATOM     18  C   UNL A   1      32.943  17.464  23.319  1.00  0.00     0.016 C 
ATOM     19  C   UNL A   1      35.058  17.118  24.408  1.00  0.00     0.001 C 
ATOM     20  C   UNL A   1      33.865  16.370  23.830  1.00  0.00     0.001 C 
ENDBRANCH  12  15
ENDBRANCH  10  11
BRANCH  10  21
ATOM     21  C   UNL A   1      34.373  23.225  24.639  1.00  0.00     0.023 C 
ATOM     22  C   UNL A   1      35.854  23.505  24.578  1.00  0.00     0.007 C 
ATOM     23  C   UNL A   1      35.032  23.576  23.324  1.00  0.00     0.007 C 
ENDBRANCH  10  21
ENDBRANCH   8  10
ENDBRANCH   7   8
ENDBRANCH   6   7
ENDBRANCH   5   6
ENDBRANCH   4   5
ENDBRANCH   3   4
ENDBRANCH   2   3
ENDBRANCH   1   2
BRANCH   1  24
ATOM     24  C   UNL A   1      34.118  27.401  25.031  1.00  0.00     0.188 C 
BRANCH  24  25
ATOM     25  C   UNL A   1      33.281  28.515  24.395  1.00  0.00     0.188 C 
BRANCH  25  26
ATOM     26  O   UNL A   1      33.100  29.732  25.124  1.00  0.00    -0.376 OA
BRANCH  26  27
ATOM     27  C   UNL A   1      31.853  30.000  25.759  1.00  0.00     0.202 C 
BRANCH  27  28
ATOM     28  C   UNL A   1      31.855  31.209  26.683  1.00  0.00     0.261 C 
BRANCH  28  29
ATOM     29  O   UNL A   1      32.891  31.053  27.656  1.00  0.00    -0.460 OA
BRANCH  29  30
ATOM     30  C   UNL A   1      33.785  32.061  27.716  1.00  0.00     0.338 C 
ATOM     31  O   UNL A   1      33.567  33.263  27.717  1.00  0.00    -0.246 OA
BRANCH  30  32
ATOM     32  C   UNL A   1      35.088  31.460  28.040  1.00  0.00     0.060 A 
ATOM     33  C   UNL A   1      35.174  30.061  28.112  1.00  0.00     0.016 A 
ATOM     34  C   UNL A   1      36.216  32.262  28.232  1.00  0.00     0.016 A 
ATOM     35  C   UNL A   1      36.384  29.457  28.406  1.00  0.00     0.010 A 
ATOM     36  C   UNL A   1      37.421  31.663  28.569  1.00  0.00     0.010 A 
ATOM     37  C   UNL A   1      37.485  30.266  28.702  1.00  0.00    -0.014 A 
BRANCH  37  38
ATOM     38  C   UNL A   1      38.592  29.687  29.474  1.00  0.00     0.031 A 
ATOM     39  C   UNL A   1      38.696  30.098  30.913  1.00  0.00     0.074 A 
ATOM     40  C   UNL A   1      39.458  28.841  28.903  1.00  0.00     0.049 A 
ATOM     41  N   UNL A   1      39.624  29.826  31.788  1.00  0.00    -0.248 NA
ATOM     42  C   UNL A   1      37.607  30.948  31.431  1.00  0.00     0.031 C 
ATOM     43  C   UNL A   1      39.388  28.352  27.526  1.00  0.00     0.029 A 
ATOM     44  N   UNL A   1      40.584  28.259  29.416  1.00  0.00    -0.354 N 
ATOM     45  C   UNL A   1      39.240  30.486  32.949  1.00  0.00     0.074 A 
ATOM     46  C   UNL A   1      38.015  31.193  32.665  1.00  0.00     0.031 C 
ATOM     47  C   UNL A   1      40.445  27.556  27.297  1.00  0.00     0.029 A 
ATOM     48  C   UNL A   1      41.279  27.518  28.496  1.00  0.00     0.049 A 
ATOM     49  H   UNL A   1      40.866  28.362  30.353  1.00  0.00     0.167 HD
ATOM     50  C   UNL A   1      39.864  30.498  34.147  1.00  0.00     0.031 A 
ATOM     51  C   UNL A   1      42.474  26.913  28.617  1.00  0.00     0.031 A 
ATOM     52  C   UNL A   1      41.100  29.810  34.390  1.00  0.00     0.049 A 
ATOM     53  C   UNL A   1      43.190  27.004  29.938  1.00  0.00     0.074 A 
ATOM     54  C   UNL A   1      41.834  29.738  35.557  1.00  0.00     0.029 A 
ATOM     55  N   UNL A   1      41.788  29.082  33.429  1.00  0.00    -0.354 N 
ATOM     56  N   UNL A   1      42.818  27.612  31.040  1.00  0.00    -0.248 NA
ATOM     57  C   UNL A   1      44.485  26.319  30.034  1.00  0.00     0.031 C 
ATOM     58  C   UNL A   1      43.001  29.018  35.284  1.00  0.00     0.029 A 
ATOM     59  C   UNL A   1      42.955  28.576  33.969  1.00  0.00     0.049 A 
ATOM     60  H   UNL A   1      41.489  28.945  32.501  1.00  0.00     0.167 HD
ATOM     61  C   UNL A   1      43.814  27.354  31.974  1.00  0.00     0.074 A 
ATOM     62  C   UNL A   1      44.800  26.525  31.306  1.00  0.00     0.031 C 
ATOM     63  C   UNL A   1      43.909  27.755  33.266  1.00  0.00     0.031 A 
BRANCH  50  64
ATOM     64  C   UNL A   1      39.246  31.326  35.240  1.00  0.00    -0.014 A 
ATOM     65  C   UNL A   1      38.353  30.769  36.171  1.00  0.00     0.009 A 
ATOM     66  C   UNL A   1      39.555  32.691  35.333  1.00  0.00     0.009 A 
ATOM     67  C   UNL A   1      37.753  31.571  37.145  1.00  0.00     0.001 A 
ATOM     68  C   UNL A   1      38.980  33.483  36.328  1.00  0.00     0.001 A 
ATOM     69  C   UNL A   1      38.072  32.925  37.226  1.00  0.00     0.000 A 
ENDBRANCH  50  64
BRANCH  51  70
ATOM     70  C   UNL A   1      43.060  26.191  27.459  1.00  0.00    -0.014 A 
ATOM     71  C   UNL A   1      43.816  26.876  26.497  1.00  0.00     0.009 A 
ATOM     72  C   UNL A   1      42.881  24.805  27.318  1.00  0.00     0.009 A 
ATOM     73  C   UNL A   1      44.361  26.193  25.406  1.00  0.00     0.001 A 
ATOM     74  C   UNL A   1      43.451  24.120  26.242  1.00  0.00     0.001 A 
ATOM     75  C   UNL A   1      44.183  24.816  25.283  1.00  0.00     0.000 A 
ENDBRANCH  51  70
BRANCH  63  76
ATOM     76  C   UNL A   1      45.091  27.259  34.051  1.00  0.00    -0.014 A 
ATOM     77  C   UNL A   1      46.300  27.968  34.084  1.00  0.00     0.009 A 
ATOM     78  C   UNL A   1      44.963  26.090  34.817  1.00  0.00     0.009 A 
ATOM     79  C   UNL A   1      47.371  27.493  34.841  1.00  0.00     0.001 A 
ATOM     80  C   UNL A   1      46.022  25.638  35.602  1.00  0.00     0.001 A 
ATOM     81  C   UNL A   1      47.229  26.334  35.605  1.00  0.00     0.000 A 
ENDBRANCH  63  76
ENDBRANCH  37  38
ENDBRANCH  30  32
ENDBRANCH  29  30
ENDBRANCH  28  29
ENDBRANCH  27  28
ENDBRANCH  26  27
ENDBRANCH  25  26
ENDBRANCH  24  25
ENDBRANCH   1  24
TORSDOF 23
ENDMDL
