MODEL 1
REMARK VINA RESULT:      -9.1      0.000      0.000
REMARK SMILES O=C(OCCOCCOCCOCCOC(=O)[C@H](Cc1cccc(Br)c1)CC1CCC1)c1ccc(-c2c3nc(c(-c4ccccc4)c4ccc([nH]4)c(-c4ccccc4)c4nc(c(-c5ccccc5)c5ccc2[nH]5)C=C4)C=C3)cc1
REMARK SMILES IDX 9 1 8 2 7 3 6 4 5 5 4 6 3 7 2 8 1 9 32 10 33 11 79 12 34 13
REMARK SMILES IDX 78 14 35 15 36 16 37 17 72 18 38 19 77 20 71 21 73 22 39 23
REMARK SMILES IDX 76 24 70 25 69 26 40 28 62 29 47 30 61 31 48 32 51 33 60 34
REMARK SMILES IDX 74 35 49 36 50 37 59 39 75 40 52 41 41 42 42 43 46 44 43 45
REMARK SMILES IDX 45 46 44 47 63 48 64 49 68 50 65 51 67 52 66 53 53 54 54 55
REMARK SMILES IDX 58 56 55 57 57 58 56 59 10 60 11 61 12 62 13 63 14 64 15 65
REMARK SMILES IDX 16 66 17 67 18 68 27 69 28 70 29 71 31 72 30 73 19 74 20 75
REMARK SMILES IDX 21 76 26 77 22 78 24 79 23 80 25 81
REMARK H PARENT 73 27 51 38
REMARK Flexibility Score: inf
ROOT
ATOM      1  O   UNL A   1      40.345  20.981  27.573  1.00  0.00    -0.377 OA
ENDROOT
BRANCH   1   2
ATOM      2  C   UNL A   1      41.630  20.442  27.316  1.00  0.00     0.188 C 
BRANCH   2   3
ATOM      3  C   UNL A   1      41.801  19.764  25.962  1.00  0.00     0.188 C 
BRANCH   3   4
ATOM      4  O   UNL A   1      42.952  20.273  25.283  1.00  0.00    -0.376 OA
BRANCH   4   5
ATOM      5  C   UNL A   1      43.656  21.319  25.961  1.00  0.00     0.202 C 
BRANCH   5   6
ATOM      6  C   UNL A   1      44.377  22.292  25.034  1.00  0.00     0.261 C 
BRANCH   6   7
ATOM      7  O   UNL A   1      45.087  23.326  25.732  1.00  0.00    -0.460 OA
BRANCH   7   8
ATOM      8  C   UNL A   1      44.972  24.671  25.614  1.00  0.00     0.338 C 
ATOM      9  O   UNL A   1      45.610  25.222  24.715  1.00  0.00    -0.246 OA
BRANCH   8  10
ATOM     10  C   UNL A   1      44.149  25.551  26.508  1.00  0.00     0.060 A 
ATOM     11  C   UNL A   1      44.295  26.929  26.668  1.00  0.00     0.016 A 
ATOM     12  C   UNL A   1      43.107  24.925  27.217  1.00  0.00     0.016 A 
ATOM     13  C   UNL A   1      43.478  27.667  27.501  1.00  0.00     0.010 A 
ATOM     14  C   UNL A   1      42.300  25.646  28.102  1.00  0.00     0.010 A 
ATOM     15  C   UNL A   1      42.526  27.015  28.269  1.00  0.00    -0.014 A 
BRANCH  15  16
ATOM     16  C   UNL A   1      42.065  27.752  29.451  1.00  0.00     0.031 A 
ATOM     17  C   UNL A   1      40.738  28.441  29.334  1.00  0.00     0.074 A 
ATOM     18  C   UNL A   1      42.690  27.588  30.628  1.00  0.00     0.049 A 
ATOM     19  N   UNL A   1      40.089  29.152  30.212  1.00  0.00    -0.248 NA
ATOM     20  C   UNL A   1      40.029  28.278  28.049  1.00  0.00     0.031 C 
ATOM     21  C   UNL A   1      43.859  26.733  30.853  1.00  0.00     0.029 A 
ATOM     22  N   UNL A   1      42.391  28.085  31.863  1.00  0.00    -0.354 N 
ATOM     23  C   UNL A   1      38.928  29.563  29.566  1.00  0.00     0.074 A 
ATOM     24  C   UNL A   1      38.950  29.018  28.232  1.00  0.00     0.031 C 
ATOM     25  C   UNL A   1      44.167  26.755  32.160  1.00  0.00     0.029 A 
ATOM     26  C   UNL A   1      43.265  27.678  32.838  1.00  0.00     0.049 A 
ATOM     27  H   UNL A   1      41.623  28.677  32.037  1.00  0.00     0.167 HD
ATOM     28  C   UNL A   1      37.943  30.350  30.052  1.00  0.00     0.031 A 
ATOM     29  C   UNL A   1      43.334  28.057  34.126  1.00  0.00     0.031 A 
ATOM     30  C   UNL A   1      37.974  30.880  31.385  1.00  0.00     0.049 A 
ATOM     31  C   UNL A   1      42.312  29.051  34.605  1.00  0.00     0.074 A 
ATOM     32  C   UNL A   1      37.104  31.762  31.993  1.00  0.00     0.029 A 
ATOM     33  N   UNL A   1      38.954  30.562  32.320  1.00  0.00    -0.354 N 
ATOM     34  N   UNL A   1      41.274  29.543  33.965  1.00  0.00    -0.248 NA
ATOM     35  C   UNL A   1      42.473  29.553  35.973  1.00  0.00     0.031 C 
ATOM     36  C   UNL A   1      37.595  32.026  33.277  1.00  0.00     0.029 A 
ATOM     37  C   UNL A   1      38.726  31.249  33.495  1.00  0.00     0.049 A 
ATOM     38  H   UNL A   1      39.700  29.939  32.165  1.00  0.00     0.167 HD
ATOM     39  C   UNL A   1      40.640  30.391  34.860  1.00  0.00     0.074 A 
ATOM     40  C   UNL A   1      41.408  30.334  36.092  1.00  0.00     0.031 C 
ATOM     41  C   UNL A   1      39.526  31.148  34.691  1.00  0.00     0.031 A 
BRANCH  28  42
ATOM     42  C   UNL A   1      36.872  30.767  29.084  1.00  0.00    -0.014 A 
ATOM     43  C   UNL A   1      36.725  32.096  28.652  1.00  0.00     0.009 A 
ATOM     44  C   UNL A   1      35.924  29.817  28.673  1.00  0.00     0.009 A 
ATOM     45  C   UNL A   1      35.621  32.472  27.879  1.00  0.00     0.001 A 
ATOM     46  C   UNL A   1      34.841  30.188  27.875  1.00  0.00     0.001 A 
ATOM     47  C   UNL A   1      34.680  31.518  27.493  1.00  0.00     0.000 A 
ENDBRANCH  28  42
BRANCH  29  48
ATOM     48  C   UNL A   1      44.424  27.557  35.005  1.00  0.00    -0.014 A 
ATOM     49  C   UNL A   1      44.200  26.509  35.911  1.00  0.00     0.009 A 
ATOM     50  C   UNL A   1      45.706  28.132  34.945  1.00  0.00     0.009 A 
ATOM     51  C   UNL A   1      45.229  26.064  36.750  1.00  0.00     0.001 A 
ATOM     52  C   UNL A   1      46.739  27.665  35.762  1.00  0.00     0.001 A 
ATOM     53  C   UNL A   1      46.496  26.639  36.671  1.00  0.00     0.000 A 
ENDBRANCH  29  48
BRANCH  41  54
ATOM     54  C   UNL A   1      39.050  31.916  35.888  1.00  0.00    -0.014 A 
ATOM     55  C   UNL A   1      38.112  31.378  36.781  1.00  0.00     0.009 A 
ATOM     56  C   UNL A   1      39.598  33.183  36.147  1.00  0.00     0.009 A 
ATOM     57  C   UNL A   1      37.702  32.114  37.893  1.00  0.00     0.001 A 
ATOM     58  C   UNL A   1      39.215  33.899  37.278  1.00  0.00     0.001 A 
ATOM     59  C   UNL A   1      38.259  33.368  38.144  1.00  0.00     0.000 A 
ENDBRANCH  41  54
ENDBRANCH  15  16
ENDBRANCH   8  10
ENDBRANCH   7   8
ENDBRANCH   6   7
ENDBRANCH   5   6
ENDBRANCH   4   5
ENDBRANCH   3   4
ENDBRANCH   2   3
ENDBRANCH   1   2
BRANCH   1  60
ATOM     60  C   UNL A   1      40.089  22.257  27.026  1.00  0.00     0.188 C 
BRANCH  60  61
ATOM     61  C   UNL A   1      38.929  22.508  26.051  1.00  0.00     0.188 C 
BRANCH  61  62
ATOM     62  O   UNL A   1      37.957  21.509  25.852  1.00  0.00    -0.376 OA
BRANCH  62  63
ATOM     63  C   UNL A   1      37.404  21.336  24.556  1.00  0.00     0.202 C 
BRANCH  63  64
ATOM     64  C   UNL A   1      36.442  22.359  23.909  1.00  0.00     0.261 C 
BRANCH  64  65
ATOM     65  O   UNL A   1      35.057  22.308  24.316  1.00  0.00    -0.463 OA
BRANCH  65  66
ATOM     66  C   UNL A   1      34.565  23.346  25.049  1.00  0.00     0.309 C 
ATOM     67  O   UNL A   1      34.763  23.497  26.256  1.00  0.00    -0.252 OA
BRANCH  66  68
ATOM     68  C   UNL A   1      33.792  24.369  24.185  1.00  0.00     0.104 C 
BRANCH  68  69
ATOM     69  C   UNL A   1      32.315  23.966  24.283  1.00  0.00     0.019 C 
BRANCH  69  70
ATOM     70  C   UNL A   1      31.782  23.605  25.664  1.00  0.00    -0.010 C 
ATOM     71  C   UNL A   1      30.552  24.368  26.198  1.00  0.00     0.003 C 
ATOM     72  C   UNL A   1      31.054  22.276  25.969  1.00  0.00     0.003 C 
ATOM     73  C   UNL A   1      30.042  23.061  26.822  1.00  0.00     0.001 C 
ENDBRANCH  69  70
ENDBRANCH  68  69
BRANCH  68  74
ATOM     74  C   UNL A   1      34.162  25.796  24.708  1.00  0.00     0.050 C 
BRANCH  74  75
ATOM     75  C   UNL A   1      33.106  26.884  24.922  1.00  0.00    -0.046 A 
ATOM     76  C   UNL A   1      32.975  27.444  26.207  1.00  0.00     0.004 A 
ATOM     77  C   UNL A   1      32.324  27.444  23.899  1.00  0.00     0.019 A 
ATOM     78  C   UNL A   1      32.064  28.473  26.474  1.00  0.00     0.001 A 
ATOM     79  C   UNL A   1      31.434  28.497  24.162  1.00  0.00     0.018 A 
ATOM     80  C   UNL A   1      31.290  29.004  25.447  1.00  0.00     0.016 A 
ATOM     81  Br  UNL A   1      30.425  29.254  22.749  1.00  0.00    -0.051 Br
ENDBRANCH  74  75
ENDBRANCH  68  74
ENDBRANCH  66  68
ENDBRANCH  65  66
ENDBRANCH  64  65
ENDBRANCH  63  64
ENDBRANCH  62  63
ENDBRANCH  61  62
ENDBRANCH  60  61
ENDBRANCH   1  60
TORSDOF 24
ENDMDL
MODEL 2
REMARK VINA RESULT:      -8.8      4.212      9.204
REMARK SMILES O=C(OCCOCCOCCOCCOC(=O)[C@H](Cc1cccc(Br)c1)CC1CCC1)c1ccc(-c2c3nc(c(-c4ccccc4)c4ccc([nH]4)c(-c4ccccc4)c4nc(c(-c5ccccc5)c5ccc2[nH]5)C=C4)C=C3)cc1
REMARK SMILES IDX 9 1 8 2 7 3 6 4 5 5 4 6 3 7 2 8 1 9 32 10 33 11 79 12 34 13
REMARK SMILES IDX 78 14 35 15 36 16 37 17 72 18 38 19 77 20 71 21 73 22 39 23
REMARK SMILES IDX 76 24 70 25 69 26 40 28 62 29 47 30 61 31 48 32 51 33 60 34
REMARK SMILES IDX 74 35 49 36 50 37 59 39 75 40 52 41 41 42 42 43 46 44 43 45
REMARK SMILES IDX 45 46 44 47 63 48 64 49 68 50 65 51 67 52 66 53 53 54 54 55
REMARK SMILES IDX 58 56 55 57 57 58 56 59 10 60 11 61 12 62 13 63 14 64 15 65
REMARK SMILES IDX 16 66 17 67 18 68 27 69 28 70 29 71 31 72 30 73 19 74 20 75
REMARK SMILES IDX 21 76 26 77 22 78 24 79 23 80 25 81
REMARK H PARENT 73 27 51 38
REMARK Flexibility Score: inf
ROOT
ATOM      1  O   UNL A   1      35.544  31.676  29.499  1.00  0.00    -0.377 OA
ENDROOT
BRANCH   1   2
ATOM      2  C   UNL A   1      34.788  32.633  30.221  1.00  0.00     0.188 C 
BRANCH   2   3
ATOM      3  C   UNL A   1      34.363  33.866  29.434  1.00  0.00     0.188 C 
BRANCH   3   4
ATOM      4  O   UNL A   1      33.308  34.558  30.106  1.00  0.00    -0.376 OA
BRANCH   4   5
ATOM      5  C   UNL A   1      33.165  35.943  29.767  1.00  0.00     0.202 C 
BRANCH   5   6
ATOM      6  C   UNL A   1      32.930  36.859  30.963  1.00  0.00     0.261 C 
BRANCH   6   7
ATOM      7  O   UNL A   1      32.894  36.162  32.217  1.00  0.00    -0.460 OA
BRANCH   7   8
ATOM      8  C   UNL A   1      33.847  36.081  33.178  1.00  0.00     0.338 C 
ATOM      9  O   UNL A   1      33.828  36.926  34.074  1.00  0.00    -0.246 OA
BRANCH   8  10
ATOM     10  C   UNL A   1      34.943  35.057  33.225  1.00  0.00     0.060 A 
ATOM     11  C   UNL A   1      34.900  33.837  33.901  1.00  0.00     0.016 A 
ATOM     12  C   UNL A   1      36.103  35.344  32.482  1.00  0.00     0.016 A 
ATOM     13  C   UNL A   1      35.951  32.941  33.876  1.00  0.00     0.010 A 
ATOM     14  C   UNL A   1      37.196  34.473  32.483  1.00  0.00     0.010 A 
ATOM     15  C   UNL A   1      37.124  33.290  33.223  1.00  0.00    -0.014 A 
BRANCH  15  16
ATOM     16  C   UNL A   1      38.318  32.552  33.649  1.00  0.00     0.031 A 
ATOM     17  C   UNL A   1      38.921  31.619  32.641  1.00  0.00     0.074 A 
ATOM     18  C   UNL A   1      38.954  32.901  34.778  1.00  0.00     0.049 A 
ATOM     19  N   UNL A   1      39.970  30.852  32.740  1.00  0.00    -0.248 NA
ATOM     20  C   UNL A   1      38.262  31.567  31.321  1.00  0.00     0.031 C 
ATOM     21  C   UNL A   1      38.537  33.973  35.686  1.00  0.00     0.029 A 
ATOM     22  N   UNL A   1      40.116  32.432  35.318  1.00  0.00    -0.354 N 
ATOM     23  C   UNL A   1      40.060  30.192  31.519  1.00  0.00     0.074 A 
ATOM     24  C   UNL A   1      38.973  30.650  30.691  1.00  0.00     0.031 C 
ATOM     25  C   UNL A   1      39.448  34.088  36.667  1.00  0.00     0.029 A 
ATOM     26  C   UNL A   1      40.459  33.054  36.491  1.00  0.00     0.049 A 
ATOM     27  H   UNL A   1      40.655  31.718  34.906  1.00  0.00     0.167 HD
ATOM     28  C   UNL A   1      40.967  29.264  31.143  1.00  0.00     0.031 A 
ATOM     29  C   UNL A   1      41.467  32.773  37.336  1.00  0.00     0.031 A 
ATOM     30  C   UNL A   1      42.024  28.830  32.011  1.00  0.00     0.049 A 
ATOM     31  C   UNL A   1      42.377  31.635  36.965  1.00  0.00     0.074 A 
ATOM     32  C   UNL A   1      42.963  27.839  31.813  1.00  0.00     0.029 A 
ATOM     33  N   UNL A   1      42.270  29.383  33.263  1.00  0.00    -0.354 N 
ATOM     34  N   UNL A   1      42.398  30.919  35.862  1.00  0.00    -0.248 NA
ATOM     35  C   UNL A   1      43.392  31.255  37.952  1.00  0.00     0.031 C 
ATOM     36  C   UNL A   1      43.738  27.750  32.976  1.00  0.00     0.029 A 
ATOM     37  C   UNL A   1      43.332  28.738  33.864  1.00  0.00     0.049 A 
ATOM     38  H   UNL A   1      41.761  30.125  33.662  1.00  0.00     0.167 HD
ATOM     39  C   UNL A   1      43.445  30.021  36.009  1.00  0.00     0.074 A 
ATOM     40  C   UNL A   1      44.040  30.297  37.305  1.00  0.00     0.031 C 
ATOM     41  C   UNL A   1      43.883  29.059  35.158  1.00  0.00     0.031 A 
BRANCH  28  42
ATOM     42  C   UNL A   1      40.738  28.595  29.816  1.00  0.00    -0.014 A 
ATOM     43  C   UNL A   1      41.321  29.065  28.627  1.00  0.00     0.009 A 
ATOM     44  C   UNL A   1      39.834  27.523  29.746  1.00  0.00     0.009 A 
ATOM     45  C   UNL A   1      40.957  28.513  27.394  1.00  0.00     0.001 A 
ATOM     46  C   UNL A   1      39.498  26.953  28.518  1.00  0.00     0.001 A 
ATOM     47  C   UNL A   1      40.046  27.460  27.341  1.00  0.00     0.000 A 
ENDBRANCH  28  42
BRANCH  29  48
ATOM     48  C   UNL A   1      41.616  33.522  38.612  1.00  0.00    -0.014 A 
ATOM     49  C   UNL A   1      42.418  34.670  38.688  1.00  0.00     0.009 A 
ATOM     50  C   UNL A   1      40.953  33.086  39.773  1.00  0.00     0.009 A 
ATOM     51  C   UNL A   1      42.568  35.352  39.902  1.00  0.00     0.001 A 
ATOM     52  C   UNL A   1      41.080  33.786  40.975  1.00  0.00     0.001 A 
ATOM     53  C   UNL A   1      41.897  34.912  41.041  1.00  0.00     0.000 A 
ENDBRANCH  29  48
BRANCH  41  54
ATOM     54  C   UNL A   1      45.097  28.289  35.585  1.00  0.00    -0.014 A 
ATOM     55  C   UNL A   1      44.992  27.096  36.315  1.00  0.00     0.009 A 
ATOM     56  C   UNL A   1      46.366  28.749  35.198  1.00  0.00     0.009 A 
ATOM     57  C   UNL A   1      46.141  26.398  36.683  1.00  0.00     0.001 A 
ATOM     58  C   UNL A   1      47.509  28.029  35.534  1.00  0.00     0.001 A 
ATOM     59  C   UNL A   1      47.397  26.860  36.286  1.00  0.00     0.000 A 
ENDBRANCH  41  54
ENDBRANCH  15  16
ENDBRANCH   8  10
ENDBRANCH   7   8
ENDBRANCH   6   7
ENDBRANCH   5   6
ENDBRANCH   4   5
ENDBRANCH   3   4
ENDBRANCH   2   3
ENDBRANCH   1   2
BRANCH   1  60
ATOM     60  C   UNL A   1      35.267  31.583  28.117  1.00  0.00     0.188 C 
BRANCH  60  61
ATOM     61  C   UNL A   1      34.104  30.740  27.575  1.00  0.00     0.188 C 
BRANCH  61  62
ATOM     62  O   UNL A   1      32.859  31.348  27.325  1.00  0.00    -0.376 OA
BRANCH  62  63
ATOM     63  C   UNL A   1      31.808  30.565  26.779  1.00  0.00     0.202 C 
BRANCH  63  64
ATOM     64  C   UNL A   1      31.680  29.043  27.023  1.00  0.00     0.261 C 
BRANCH  64  65
ATOM     65  O   UNL A   1      31.429  28.212  25.869  1.00  0.00    -0.463 OA
BRANCH  65  66
ATOM     66  C   UNL A   1      31.135  26.897  26.076  1.00  0.00     0.309 C 
ATOM     67  O   UNL A   1      30.310  26.493  26.898  1.00  0.00    -0.252 OA
BRANCH  66  68
ATOM     68  C   UNL A   1      31.888  25.960  25.105  1.00  0.00     0.104 C 
BRANCH  68  69
ATOM     69  C   UNL A   1      32.853  26.860  24.322  1.00  0.00     0.019 C 
BRANCH  69  70
ATOM     70  C   UNL A   1      32.772  26.812  22.801  1.00  0.00    -0.010 C 
ATOM     71  C   UNL A   1      33.677  25.814  22.049  1.00  0.00     0.003 C 
ATOM     72  C   UNL A   1      31.556  26.240  22.037  1.00  0.00     0.003 C 
ATOM     73  C   UNL A   1      32.529  25.553  21.064  1.00  0.00     0.001 C 
ENDBRANCH  69  70
ENDBRANCH  68  69
BRANCH  68  74
ATOM     74  C   UNL A   1      32.535  24.822  25.961  1.00  0.00     0.050 C 
BRANCH  74  75
ATOM     75  C   UNL A   1      33.751  24.028  25.475  1.00  0.00    -0.046 A 
ATOM     76  C   UNL A   1      33.577  23.128  24.406  1.00  0.00     0.004 A 
ATOM     77  C   UNL A   1      35.060  24.210  25.950  1.00  0.00     0.019 A 
ATOM     78  C   UNL A   1      34.647  22.397  23.876  1.00  0.00     0.001 A 
ATOM     79  C   UNL A   1      36.136  23.501  25.396  1.00  0.00     0.018 A 
ATOM     80  C   UNL A   1      35.934  22.584  24.371  1.00  0.00     0.016 A 
ATOM     81  Br  UNL A   1      37.893  23.801  26.035  1.00  0.00    -0.051 Br
ENDBRANCH  74  75
ENDBRANCH  68  74
ENDBRANCH  66  68
ENDBRANCH  65  66
ENDBRANCH  64  65
ENDBRANCH  63  64
ENDBRANCH  62  63
ENDBRANCH  61  62
ENDBRANCH  60  61
ENDBRANCH   1  60
TORSDOF 24
ENDMDL
MODEL 3
REMARK VINA RESULT:      -8.2      4.706     10.418
REMARK SMILES O=C(OCCOCCOCCOCCOC(=O)[C@H](Cc1cccc(Br)c1)CC1CCC1)c1ccc(-c2c3nc(c(-c4ccccc4)c4ccc([nH]4)c(-c4ccccc4)c4nc(c(-c5ccccc5)c5ccc2[nH]5)C=C4)C=C3)cc1
REMARK SMILES IDX 9 1 8 2 7 3 6 4 5 5 4 6 3 7 2 8 1 9 32 10 33 11 79 12 34 13
REMARK SMILES IDX 78 14 35 15 36 16 37 17 72 18 38 19 77 20 71 21 73 22 39 23
REMARK SMILES IDX 76 24 70 25 69 26 40 28 62 29 47 30 61 31 48 32 51 33 60 34
REMARK SMILES IDX 74 35 49 36 50 37 59 39 75 40 52 41 41 42 42 43 46 44 43 45
REMARK SMILES IDX 45 46 44 47 63 48 64 49 68 50 65 51 67 52 66 53 53 54 54 55
REMARK SMILES IDX 58 56 55 57 57 58 56 59 10 60 11 61 12 62 13 63 14 64 15 65
REMARK SMILES IDX 16 66 17 67 18 68 27 69 28 70 29 71 31 72 30 73 19 74 20 75
REMARK SMILES IDX 21 76 26 77 22 78 24 79 23 80 25 81
REMARK H PARENT 73 27 51 38
REMARK Flexibility Score: inf
ROOT
ATOM      1  O   UNL A   1      32.835  31.939  27.190  1.00  0.00    -0.377 OA
ENDROOT
BRANCH   1   2
ATOM      2  C   UNL A   1      33.907  32.109  28.100  1.00  0.00     0.188 C 
BRANCH   2   3
ATOM      3  C   UNL A   1      33.944  33.443  28.834  1.00  0.00     0.188 C 
BRANCH   3   4
ATOM      4  O   UNL A   1      35.183  33.607  29.528  1.00  0.00    -0.376 OA
BRANCH   4   5
ATOM      5  C   UNL A   1      35.092  33.616  30.958  1.00  0.00     0.202 C 
BRANCH   5   6
ATOM      6  C   UNL A   1      34.779  32.256  31.574  1.00  0.00     0.261 C 
BRANCH   6   7
ATOM      7  O   UNL A   1      35.506  31.998  32.784  1.00  0.00    -0.460 OA
BRANCH   7   8
ATOM      8  C   UNL A   1      36.743  32.417  33.145  1.00  0.00     0.338 C 
ATOM      9  O   UNL A   1      36.842  33.084  34.176  1.00  0.00    -0.246 OA
BRANCH   8  10
ATOM     10  C   UNL A   1      38.004  32.157  32.374  1.00  0.00     0.060 A 
ATOM     11  C   UNL A   1      38.335  32.697  31.131  1.00  0.00     0.016 A 
ATOM     12  C   UNL A   1      38.953  31.318  32.987  1.00  0.00     0.016 A 
ATOM     13  C   UNL A   1      39.530  32.418  30.498  1.00  0.00     0.010 A 
ATOM     14  C   UNL A   1      40.146  30.984  32.341  1.00  0.00     0.010 A 
ATOM     15  C   UNL A   1      40.405  31.508  31.072  1.00  0.00    -0.014 A 
BRANCH  15  16
ATOM     16  C   UNL A   1      41.366  30.897  30.148  1.00  0.00     0.031 A 
ATOM     17  C   UNL A   1      42.702  31.570  30.033  1.00  0.00     0.074 A 
ATOM     18  C   UNL A   1      41.131  29.674  29.648  1.00  0.00     0.049 A 
ATOM     19  N   UNL A   1      43.735  31.250  29.305  1.00  0.00    -0.248 NA
ATOM     20  C   UNL A   1      42.911  32.758  30.885  1.00  0.00     0.031 C 
ATOM     21  C   UNL A   1      39.939  28.865  29.919  1.00  0.00     0.029 A 
ATOM     22  N   UNL A   1      41.909  28.878  28.858  1.00  0.00    -0.354 N 
ATOM     23  C   UNL A   1      44.689  32.226  29.573  1.00  0.00     0.074 A 
ATOM     24  C   UNL A   1      44.125  33.141  30.533  1.00  0.00     0.031 C 
ATOM     25  C   UNL A   1      40.078  27.673  29.314  1.00  0.00     0.029 A 
ATOM     26  C   UNL A   1      41.325  27.673  28.560  1.00  0.00     0.049 A 
ATOM     27  H   UNL A   1      42.800  29.143  28.534  1.00  0.00     0.167 HD
ATOM     28  C   UNL A   1      45.923  32.349  29.036  1.00  0.00     0.031 A 
ATOM     29  C   UNL A   1      41.755  26.705  27.732  1.00  0.00     0.031 A 
ATOM     30  C   UNL A   1      46.435  31.417  28.072  1.00  0.00     0.049 A 
ATOM     31  C   UNL A   1      43.066  26.934  27.031  1.00  0.00     0.074 A 
ATOM     32  C   UNL A   1      47.622  31.453  27.370  1.00  0.00     0.029 A 
ATOM     33  N   UNL A   1      45.761  30.267  27.678  1.00  0.00    -0.354 N 
ATOM     34  N   UNL A   1      43.925  27.917  27.184  1.00  0.00    -0.248 NA
ATOM     35  C   UNL A   1      43.463  25.934  26.035  1.00  0.00     0.031 C 
ATOM     36  C   UNL A   1      47.636  30.354  26.503  1.00  0.00     0.029 A 
ATOM     37  C   UNL A   1      46.494  29.593  26.722  1.00  0.00     0.049 A 
ATOM     38  H   UNL A   1      44.888  29.975  28.029  1.00  0.00     0.167 HD
ATOM     39  C   UNL A   1      44.979  27.641  26.327  1.00  0.00     0.074 A 
ATOM     40  C   UNL A   1      44.652  26.389  25.666  1.00  0.00     0.031 C 
ATOM     41  C   UNL A   1      46.117  28.347  26.101  1.00  0.00     0.031 A 
BRANCH  28  42
ATOM     42  C   UNL A   1      46.692  33.591  29.388  1.00  0.00    -0.014 A 
ATOM     43  C   UNL A   1      47.235  33.803  30.666  1.00  0.00     0.009 A 
ATOM     44  C   UNL A   1      46.788  34.620  28.437  1.00  0.00     0.009 A 
ATOM     45  C   UNL A   1      47.803  35.037  30.999  1.00  0.00     0.001 A 
ATOM     46  C   UNL A   1      47.385  35.838  28.761  1.00  0.00     0.001 A 
ATOM     47  C   UNL A   1      47.876  36.053  30.048  1.00  0.00     0.000 A 
ENDBRANCH  28  42
BRANCH  29  48
ATOM     48  C   UNL A   1      40.922  25.500  27.479  1.00  0.00    -0.014 A 
ATOM     49  C   UNL A   1      41.257  24.258  28.040  1.00  0.00     0.009 A 
ATOM     50  C   UNL A   1      39.779  25.584  26.666  1.00  0.00     0.009 A 
ATOM     51  C   UNL A   1      40.478  23.126  27.775  1.00  0.00     0.001 A 
ATOM     52  C   UNL A   1      38.985  24.459  26.427  1.00  0.00     0.001 A 
ATOM     53  C   UNL A   1      39.342  23.229  26.974  1.00  0.00     0.000 A 
ENDBRANCH  29  48
BRANCH  41  54
ATOM     54  C   UNL A   1      47.104  27.740  25.150  1.00  0.00    -0.014 A 
ATOM     55  C   UNL A   1      47.070  28.020  23.776  1.00  0.00     0.009 A 
ATOM     56  C   UNL A   1      48.120  26.913  25.658  1.00  0.00     0.009 A 
ATOM     57  C   UNL A   1      48.013  27.450  22.922  1.00  0.00     0.001 A 
ATOM     58  C   UNL A   1      49.082  26.376  24.807  1.00  0.00     0.001 A 
ATOM     59  C   UNL A   1      49.022  26.636  23.439  1.00  0.00     0.000 A 
ENDBRANCH  41  54
ENDBRANCH  15  16
ENDBRANCH   8  10
ENDBRANCH   7   8
ENDBRANCH   6   7
ENDBRANCH   5   6
ENDBRANCH   4   5
ENDBRANCH   3   4
ENDBRANCH   2   3
ENDBRANCH   1   2
BRANCH   1  60
ATOM     60  C   UNL A   1      32.367  30.617  27.024  1.00  0.00     0.188 C 
BRANCH  60  61
ATOM     61  C   UNL A   1      33.316  29.410  27.043  1.00  0.00     0.188 C 
BRANCH  61  62
ATOM     62  O   UNL A   1      32.792  28.108  26.925  1.00  0.00    -0.376 OA
BRANCH  62  63
ATOM     63  C   UNL A   1      33.070  27.359  25.752  1.00  0.00     0.202 C 
BRANCH  63  64
ATOM     64  C   UNL A   1      32.172  26.198  25.264  1.00  0.00     0.261 C 
BRANCH  64  65
ATOM     65  O   UNL A   1      32.418  24.893  25.833  1.00  0.00    -0.463 OA
BRANCH  65  66
ATOM     66  C   UNL A   1      32.095  23.797  25.091  1.00  0.00     0.309 C 
ATOM     67  O   UNL A   1      31.048  23.678  24.451  1.00  0.00    -0.252 OA
BRANCH  66  68
ATOM     68  C   UNL A   1      33.224  22.742  25.067  1.00  0.00     0.104 C 
BRANCH  68  69
ATOM     69  C   UNL A   1      34.391  23.363  25.847  1.00  0.00     0.019 C 
BRANCH  69  70
ATOM     70  C   UNL A   1      35.797  22.913  25.473  1.00  0.00    -0.010 C 
ATOM     71  C   UNL A   1      36.180  21.437  25.701  1.00  0.00     0.003 C 
ATOM     72  C   UNL A   1      36.282  22.783  24.010  1.00  0.00     0.003 C 
ATOM     73  C   UNL A   1      36.982  21.467  24.393  1.00  0.00     0.001 C 
ENDBRANCH  69  70
ENDBRANCH  68  69
BRANCH  68  74
ATOM     74  C   UNL A   1      32.633  21.412  25.638  1.00  0.00     0.050 C 
BRANCH  74  75
ATOM     75  C   UNL A   1      32.697  20.093  24.863  1.00  0.00    -0.046 A 
ATOM     76  C   UNL A   1      32.421  20.116  23.482  1.00  0.00     0.004 A 
ATOM     77  C   UNL A   1      33.118  18.869  25.410  1.00  0.00     0.019 A 
ATOM     78  C   UNL A   1      32.500  18.961  22.695  1.00  0.00     0.001 A 
ATOM     79  C   UNL A   1      33.227  17.720  24.612  1.00  0.00     0.018 A 
ATOM     80  C   UNL A   1      32.907  17.757  23.260  1.00  0.00     0.016 A 
ATOM     81  Br  UNL A   1      33.836  16.097  25.375  1.00  0.00    -0.051 Br
ENDBRANCH  74  75
ENDBRANCH  68  74
ENDBRANCH  66  68
ENDBRANCH  65  66
ENDBRANCH  64  65
ENDBRANCH  63  64
ENDBRANCH  62  63
ENDBRANCH  61  62
ENDBRANCH  60  61
ENDBRANCH   1  60
TORSDOF 24
ENDMDL
