MODEL 1
REMARK VINA RESULT:     -13.0      0.000      0.000
REMARK SMILES Cc1c(NC(=O)[C@@H]2CC=CC[C@@H]2C(=O)OCCOCCOCCOCCOC(=O)c2ccc(-c3c4nc(c(-c5ccccc5)c5ccc([nH]5)c(-c5ccccc5)c5nc(c(-c6ccccc6)c6ccc3[nH]6)C=C5)C=C4)cc2)cccc1C(=O)N1CCOCC1
REMARK SMILES IDX 20 1 19 2 18 3 17 4 16 5 15 6 13 7 14 8 12 9 7 10 8 11 9 12
REMARK SMILES IDX 11 13 10 14 5 15 4 16 6 18 3 19 1 20 2 21 81 22 78 23 80 24
REMARK SMILES IDX 79 25 82 26 83 27 84 28 85 29 89 30 86 31 88 32 87 33 21 34
REMARK SMILES IDX 22 35 23 36 24 37 25 38 26 39 27 40 28 41 29 42 30 43 31 44
REMARK SMILES IDX 77 45 32 46 76 47 33 48 34 49 35 50 70 51 36 52 75 53 69 54
REMARK SMILES IDX 71 55 37 56 74 57 68 58 67 59 38 61 60 62 45 63 59 64 46 65
REMARK SMILES IDX 49 66 58 67 72 68 47 69 48 70 57 72 73 73 50 74 39 75 40 76
REMARK SMILES IDX 44 77 41 78 43 79 42 80 61 81 62 82 66 83 63 84 65 85 64 86
REMARK SMILES IDX 51 87 52 88 56 89 53 90 55 91 54 92
REMARK H PARENT 4 17 71 60 49 71
REMARK Flexibility Score: inf
ROOT
ATOM      1  C   UNL A   1      42.059  21.157  26.478  1.00  0.00     0.188 C 
ENDROOT
BRANCH   1   2
ATOM      2  C   UNL A   1      40.399  20.852  26.407  1.00  0.00     0.188 C 
BRANCH   2   3
ATOM      3  O   UNL A   1      39.023  21.717  25.667  1.00  0.00    -0.376 OA
BRANCH   3   4
ATOM      4  C   UNL A   1      38.198  23.276  25.957  1.00  0.00     0.202 C 
BRANCH   4   5
ATOM      5  C   UNL A   1      36.332  23.733  25.978  1.00  0.00     0.261 C 
BRANCH   5   6
ATOM      6  O   UNL A   1      35.277  24.337  24.623  1.00  0.00    -0.463 OA
BRANCH   6   7
ATOM      7  C   UNL A   1      34.177  25.194  24.239  1.00  0.00     0.310 C 
ATOM      8  O   UNL A   1      33.823  25.445  23.071  1.00  0.00    -0.252 OA
BRANCH   7   9
ATOM      9  C   UNL A   1      33.001  25.825  25.210  1.00  0.00     0.116 C 
ATOM     10  C   UNL A   1      31.472  26.181  25.103  1.00  0.00     0.097 C 
ATOM     11  C   UNL A   1      31.155  27.646  24.691  1.00  0.00     0.041 C 
ATOM     12  C   UNL A   1      31.942  28.641  25.478  1.00  0.00    -0.030 C 
ATOM     13  C   UNL A   1      33.651  26.926  26.155  1.00  0.00     0.043 C 
ATOM     14  C   UNL A   1      33.043  28.307  26.155  1.00  0.00    -0.030 C 
BRANCH  10  15
ATOM     15  C   UNL A   1      30.696  25.028  24.512  1.00  0.00     0.228 C 
ATOM     16  N   UNL A   1      30.847  23.726  24.842  1.00  0.00    -0.326 N 
ATOM     17  H   UNL A   1      30.140  23.173  24.438  1.00  0.00     0.169 HD
ATOM     18  O   UNL A   1      29.857  25.231  23.627  1.00  0.00    -0.274 OA
BRANCH  16  19
ATOM     19  C   UNL A   1      31.731  22.940  25.599  1.00  0.00     0.044 A 
ATOM     20  C   UNL A   1      32.134  21.680  23.458  1.00  0.00     0.047 C 
ATOM     21  C   UNL A   1      32.504  21.982  24.889  1.00  0.00    -0.015 A 
ATOM     22  C   UNL A   1      33.517  21.269  25.563  1.00  0.00     0.045 A 
ATOM     23  C   UNL A   1      31.917  23.093  26.973  1.00  0.00     0.026 A 
ATOM     24  C   UNL A   1      33.606  21.375  26.962  1.00  0.00     0.014 A 
ATOM     25  C   UNL A   1      32.793  22.260  27.665  1.00  0.00     0.003 A 
BRANCH  22  26
ATOM     26  C   UNL A   1      34.402  20.243  24.937  1.00  0.00     0.254 C 
ATOM     27  O   UNL A   1      35.551  20.605  24.667  1.00  0.00    -0.269 OA
ATOM     28  N   UNL A   1      33.978  18.941  24.692  1.00  0.00    -0.334 N 
ATOM     29  C   UNL A   1      32.604  18.430  24.567  1.00  0.00     0.148 C 
ATOM     30  C   UNL A   1      34.994  17.936  24.375  1.00  0.00     0.148 C 
ATOM     31  C   UNL A   1      32.434  17.090  25.315  1.00  0.00     0.181 C 
ATOM     32  C   UNL A   1      34.769  16.699  25.243  1.00  0.00     0.181 C 
ATOM     33  O   UNL A   1      33.467  16.145  24.990  1.00  0.00    -0.378 OA
ENDBRANCH  22  26
ENDBRANCH  16  19
ENDBRANCH  10  15
ENDBRANCH   7   9
ENDBRANCH   6   7
ENDBRANCH   5   6
ENDBRANCH   4   5
ENDBRANCH   3   4
ENDBRANCH   2   3
ENDBRANCH   1   2
BRANCH   1  34
ATOM     34  O   UNL A   1      42.986  21.480  25.417  1.00  0.00    -0.377 OA
BRANCH  34  35
ATOM     35  C   UNL A   1      44.325  21.029  25.259  1.00  0.00     0.188 C 
BRANCH  35  36
ATOM     36  C   UNL A   1      45.348  22.021  24.796  1.00  0.00     0.188 C 
BRANCH  36  37
ATOM     37  O   UNL A   1      46.028  22.454  25.957  1.00  0.00    -0.376 OA
BRANCH  37  38
ATOM     38  C   UNL A   1      45.851  23.823  26.251  1.00  0.00     0.202 C 
BRANCH  38  39
ATOM     39  C   UNL A   1      44.672  24.032  27.200  1.00  0.00     0.261 C 
BRANCH  39  40
ATOM     40  O   UNL A   1      43.925  25.188  26.755  1.00  0.00    -0.460 OA
BRANCH  40  41
ATOM     41  C   UNL A   1      42.900  24.928  25.887  1.00  0.00     0.338 C 
ATOM     42  O   UNL A   1      43.012  24.690  24.706  1.00  0.00    -0.246 OA
BRANCH  41  43
ATOM     43  C   UNL A   1      41.618  25.336  26.532  1.00  0.00     0.060 A 
ATOM     44  C   UNL A   1      41.060  26.572  26.267  1.00  0.00     0.016 A 
ATOM     45  C   UNL A   1      41.051  24.641  27.569  1.00  0.00     0.016 A 
ATOM     46  C   UNL A   1      40.335  27.236  27.287  1.00  0.00     0.010 A 
ATOM     47  C   UNL A   1      40.266  25.345  28.510  1.00  0.00     0.010 A 
ATOM     48  C   UNL A   1      40.275  26.778  28.610  1.00  0.00    -0.014 A 
BRANCH  48  49
ATOM     49  C   UNL A   1      40.508  27.894  30.059  1.00  0.00     0.031 A 
ATOM     50  C   UNL A   1      39.193  29.057  30.993  1.00  0.00     0.074 A 
ATOM     51  C   UNL A   1      41.875  27.947  30.247  1.00  0.00     0.049 A 
ATOM     52  N   UNL A   1      39.132  30.407  30.806  1.00  0.00    -0.248 NA
ATOM     53  C   UNL A   1      37.670  28.924  31.475  1.00  0.00     0.031 C 
ATOM     54  C   UNL A   1      42.566  28.481  31.363  1.00  0.00     0.029 A 
ATOM     55  N   UNL A   1      42.959  27.727  29.392  1.00  0.00    -0.354 N 
ATOM     56  C   UNL A   1      38.027  31.137  31.134  1.00  0.00     0.074 A 
ATOM     57  C   UNL A   1      37.070  30.125  31.372  1.00  0.00     0.031 C 
ATOM     58  C   UNL A   1      43.732  29.032  31.018  1.00  0.00     0.029 A 
ATOM     59  C   UNL A   1      43.955  28.652  29.672  1.00  0.00     0.049 A 
ATOM     60  H   UNL A   1      43.008  27.028  28.701  1.00  0.00     0.167 HD
ATOM     61  C   UNL A   1      38.003  32.510  31.224  1.00  0.00     0.031 A 
ATOM     62  C   UNL A   1      44.788  29.260  28.817  1.00  0.00     0.031 A 
ATOM     63  C   UNL A   1      39.342  33.152  31.271  1.00  0.00     0.049 A 
ATOM     64  C   UNL A   1      44.589  30.762  28.915  1.00  0.00     0.074 A 
ATOM     65  C   UNL A   1      40.124  33.503  32.365  1.00  0.00     0.029 A 
ATOM     66  N   UNL A   1      40.195  33.290  30.169  1.00  0.00    -0.354 N 
ATOM     67  N   UNL A   1      43.487  31.345  29.358  1.00  0.00    -0.248 NA
ATOM     68  C   UNL A   1      45.647  31.724  28.647  1.00  0.00     0.031 C 
ATOM     69  C   UNL A   1      41.485  33.557  31.949  1.00  0.00     0.029 A 
ATOM     70  C   UNL A   1      41.543  33.396  30.569  1.00  0.00     0.049 A 
ATOM     71  H   UNL A   1      39.891  33.313  29.234  1.00  0.00     0.167 HD
ATOM     72  C   UNL A   1      43.640  32.716  29.374  1.00  0.00     0.074 A 
ATOM     73  C   UNL A   1      45.043  32.876  28.985  1.00  0.00     0.031 C 
ATOM     74  C   UNL A   1      42.675  33.667  29.652  1.00  0.00     0.031 A 
BRANCH  61  75
ATOM     75  C   UNL A   1      36.719  33.169  31.731  1.00  0.00    -0.014 A 
ATOM     76  C   UNL A   1      36.408  33.217  33.102  1.00  0.00     0.009 A 
ATOM     77  C   UNL A   1      35.729  33.670  30.859  1.00  0.00     0.009 A 
ATOM     78  C   UNL A   1      35.133  33.592  33.561  1.00  0.00     0.001 A 
ATOM     79  C   UNL A   1      34.436  33.996  31.307  1.00  0.00     0.001 A 
ATOM     80  C   UNL A   1      34.131  33.933  32.660  1.00  0.00     0.000 A 
ENDBRANCH  61  75
BRANCH  62  81
ATOM     81  C   UNL A   1      45.348  28.248  27.868  1.00  0.00    -0.014 A 
ATOM     82  C   UNL A   1      45.270  28.663  26.504  1.00  0.00     0.009 A 
ATOM     83  C   UNL A   1      46.437  27.440  28.223  1.00  0.00     0.009 A 
ATOM     84  C   UNL A   1      46.357  28.518  25.628  1.00  0.00     0.001 A 
ATOM     85  C   UNL A   1      47.503  27.247  27.315  1.00  0.00     0.001 A 
ATOM     86  C   UNL A   1      47.493  27.844  26.051  1.00  0.00     0.000 A 
ENDBRANCH  62  81
BRANCH  74  87
ATOM     87  C   UNL A   1      42.779  35.112  29.165  1.00  0.00    -0.014 A 
ATOM     88  C   UNL A   1      42.070  35.641  28.078  1.00  0.00     0.009 A 
ATOM     89  C   UNL A   1      43.504  36.049  29.939  1.00  0.00     0.009 A 
ATOM     90  C   UNL A   1      42.111  37.004  27.761  1.00  0.00     0.001 A 
ATOM     91  C   UNL A   1      43.496  37.418  29.669  1.00  0.00     0.001 A 
ATOM     92  C   UNL A   1      42.804  37.895  28.569  1.00  0.00     0.000 A 
ENDBRANCH  74  87
ENDBRANCH  48  49
ENDBRANCH  41  43
ENDBRANCH  40  41
ENDBRANCH  39  40
ENDBRANCH  38  39
ENDBRANCH  37  38
ENDBRANCH  36  37
ENDBRANCH  35  36
ENDBRANCH  34  35
ENDBRANCH   1  34
TORSDOF 23
ENDMDL
MODEL 2
REMARK VINA RESULT:     -12.5      5.010      9.893
REMARK SMILES Cc1c(NC(=O)[C@@H]2CC=CC[C@@H]2C(=O)OCCOCCOCCOCCOC(=O)c2ccc(-c3c4nc(c(-c5ccccc5)c5ccc([nH]5)c(-c5ccccc5)c5nc(c(-c6ccccc6)c6ccc3[nH]6)C=C5)C=C4)cc2)cccc1C(=O)N1CCOCC1
REMARK SMILES IDX 20 1 19 2 18 3 17 4 16 5 15 6 13 7 14 8 12 9 7 10 8 11 9 12
REMARK SMILES IDX 11 13 10 14 5 15 4 16 6 18 3 19 1 20 2 21 81 22 78 23 80 24
REMARK SMILES IDX 79 25 82 26 83 27 84 28 85 29 89 30 86 31 88 32 87 33 21 34
REMARK SMILES IDX 22 35 23 36 24 37 25 38 26 39 27 40 28 41 29 42 30 43 31 44
REMARK SMILES IDX 77 45 32 46 76 47 33 48 34 49 35 50 70 51 36 52 75 53 69 54
REMARK SMILES IDX 71 55 37 56 74 57 68 58 67 59 38 61 60 62 45 63 59 64 46 65
REMARK SMILES IDX 49 66 58 67 72 68 47 69 48 70 57 72 73 73 50 74 39 75 40 76
REMARK SMILES IDX 44 77 41 78 43 79 42 80 61 81 62 82 66 83 63 84 65 85 64 86
REMARK SMILES IDX 51 87 52 88 56 89 53 90 55 91 54 92
REMARK H PARENT 4 17 71 60 49 71
REMARK Flexibility Score: inf
ROOT
ATOM      1  C   UNL A   1      41.878  19.685  26.584  1.00  0.00     0.188 C 
ENDROOT
BRANCH   1   2
ATOM      2  C   UNL A   1      40.410  20.488  26.820  1.00  0.00     0.188 C 
BRANCH   2   3
ATOM      3  O   UNL A   1      39.457  21.621  25.822  1.00  0.00    -0.376 OA
BRANCH   3   4
ATOM      4  C   UNL A   1      38.503  23.099  26.136  1.00  0.00     0.202 C 
BRANCH   4   5
ATOM      5  C   UNL A   1      36.874  23.744  25.346  1.00  0.00     0.261 C 
BRANCH   5   6
ATOM      6  O   UNL A   1      35.922  23.066  23.950  1.00  0.00    -0.463 OA
BRANCH   6   7
ATOM      7  C   UNL A   1      34.637  22.986  23.290  1.00  0.00     0.310 C 
ATOM      8  O   UNL A   1      34.398  23.334  22.119  1.00  0.00    -0.252 OA
BRANCH   7   9
ATOM      9  C   UNL A   1      33.280  22.207  23.815  1.00  0.00     0.116 C 
ATOM     10  C   UNL A   1      32.854  21.306  25.032  1.00  0.00     0.097 C 
ATOM     11  C   UNL A   1      32.983  19.774  24.805  1.00  0.00     0.041 C 
ATOM     12  C   UNL A   1      32.388  19.338  23.508  1.00  0.00    -0.030 C 
ATOM     13  C   UNL A   1      32.480  21.662  22.553  1.00  0.00     0.043 C 
ATOM     14  C   UNL A   1      32.138  20.194  22.513  1.00  0.00    -0.030 C 
BRANCH  10  15
ATOM     15  C   UNL A   1      33.285  21.932  26.337  1.00  0.00     0.228 C 
ATOM     16  N   UNL A   1      32.696  22.993  26.934  1.00  0.00    -0.326 N 
ATOM     17  H   UNL A   1      33.055  23.133  27.839  1.00  0.00     0.169 HD
ATOM     18  O   UNL A   1      34.272  21.496  26.940  1.00  0.00    -0.274 OA
BRANCH  16  19
ATOM     19  C   UNL A   1      31.717  23.950  26.624  1.00  0.00     0.044 A 
ATOM     20  C   UNL A   1      33.652  25.486  26.143  1.00  0.00     0.047 C 
ATOM     21  C   UNL A   1      32.175  25.182  26.085  1.00  0.00    -0.015 A 
ATOM     22  C   UNL A   1      31.238  26.125  25.611  1.00  0.00     0.045 A 
ATOM     23  C   UNL A   1      30.348  23.728  26.769  1.00  0.00     0.026 A 
ATOM     24  C   UNL A   1      29.872  25.911  25.865  1.00  0.00     0.014 A 
ATOM     25  C   UNL A   1      29.432  24.734  26.465  1.00  0.00     0.003 A 
BRANCH  22  26
ATOM     26  C   UNL A   1      31.584  27.449  25.017  1.00  0.00     0.254 C 
ATOM     27  O   UNL A   1      31.382  28.437  25.729  1.00  0.00    -0.269 OA
ATOM     28  N   UNL A   1      32.131  27.576  23.744  1.00  0.00    -0.334 N 
ATOM     29  C   UNL A   1      32.084  26.623  22.624  1.00  0.00     0.148 C 
ATOM     30  C   UNL A   1      32.722  28.864  23.376  1.00  0.00     0.148 C 
ATOM     31  C   UNL A   1      33.453  26.520  21.918  1.00  0.00     0.181 C 
ATOM     32  C   UNL A   1      34.107  28.629  22.774  1.00  0.00     0.181 C 
ATOM     33  O   UNL A   1      34.005  27.808  21.599  1.00  0.00    -0.378 OA
ENDBRANCH  22  26
ENDBRANCH  16  19
ENDBRANCH  10  15
ENDBRANCH   7   9
ENDBRANCH   6   7
ENDBRANCH   5   6
ENDBRANCH   4   5
ENDBRANCH   3   4
ENDBRANCH   2   3
ENDBRANCH   1   2
BRANCH   1  34
ATOM     34  O   UNL A   1      42.522  19.278  25.355  1.00  0.00    -0.377 OA
BRANCH  34  35
ATOM     35  C   UNL A   1      43.810  18.698  25.195  1.00  0.00     0.188 C 
BRANCH  35  36
ATOM     36  C   UNL A   1      44.707  19.266  24.137  1.00  0.00     0.188 C 
BRANCH  36  37
ATOM     37  O   UNL A   1      45.901  19.640  24.794  1.00  0.00    -0.376 OA
BRANCH  37  38
ATOM     38  C   UNL A   1      46.249  20.998  24.627  1.00  0.00     0.202 C 
BRANCH  38  39
ATOM     39  C   UNL A   1      45.712  21.848  25.777  1.00  0.00     0.261 C 
BRANCH  39  40
ATOM     40  O   UNL A   1      44.976  22.961  25.219  1.00  0.00    -0.460 OA
BRANCH  40  41
ATOM     41  C   UNL A   1      43.628  22.954  25.457  1.00  0.00     0.338 C 
ATOM     42  O   UNL A   1      42.780  22.488  24.730  1.00  0.00    -0.246 OA
BRANCH  41  43
ATOM     43  C   UNL A   1      43.337  23.918  26.559  1.00  0.00     0.060 A 
ATOM     44  C   UNL A   1      43.141  25.258  26.286  1.00  0.00     0.016 A 
ATOM     45  C   UNL A   1      43.472  23.597  27.884  1.00  0.00     0.016 A 
ATOM     46  C   UNL A   1      43.552  26.224  27.237  1.00  0.00     0.010 A 
ATOM     47  C   UNL A   1      43.801  24.621  28.801  1.00  0.00     0.010 A 
ATOM     48  C   UNL A   1      44.290  25.906  28.386  1.00  0.00    -0.014 A 
BRANCH  48  49
ATOM     49  C   UNL A   1      45.765  26.875  28.919  1.00  0.00     0.031 A 
ATOM     50  C   UNL A   1      47.513  27.137  28.008  1.00  0.00     0.074 A 
ATOM     51  C   UNL A   1      45.505  27.218  30.232  1.00  0.00     0.049 A 
ATOM     52  N   UNL A   1      48.647  26.470  28.372  1.00  0.00    -0.248 NA
ATOM     53  C   UNL A   1      48.003  27.418  26.508  1.00  0.00     0.031 C 
ATOM     54  C   UNL A   1      46.212  28.151  31.029  1.00  0.00     0.029 A 
ATOM     55  N   UNL A   1      44.682  26.658  31.214  1.00  0.00    -0.354 N 
ATOM     56  C   UNL A   1      49.722  26.357  27.540  1.00  0.00     0.074 A 
ATOM     57  C   UNL A   1      49.187  26.808  26.312  1.00  0.00     0.031 C 
ATOM     58  C   UNL A   1      46.242  27.797  32.316  1.00  0.00     0.029 A 
ATOM     59  C   UNL A   1      45.328  26.722  32.440  1.00  0.00     0.049 A 
ATOM     60  H   UNL A   1      43.787  26.279  31.059  1.00  0.00     0.167 HD
ATOM     61  C   UNL A   1      50.972  25.944  27.940  1.00  0.00     0.031 A 
ATOM     62  C   UNL A   1      45.303  25.830  33.439  1.00  0.00     0.031 A 
ATOM     63  C   UNL A   1      51.183  25.942  29.410  1.00  0.00     0.049 A 
ATOM     64  C   UNL A   1      46.718  25.353  33.712  1.00  0.00     0.074 A 
ATOM     65  C   UNL A   1      51.697  26.933  30.238  1.00  0.00     0.029 A 
ATOM     66  N   UNL A   1      50.645  24.993  30.288  1.00  0.00    -0.354 N 
ATOM     67  N   UNL A   1      47.707  25.399  32.834  1.00  0.00    -0.248 NA
ATOM     68  C   UNL A   1      47.169  24.906  35.022  1.00  0.00     0.031 C 
ATOM     69  C   UNL A   1      51.206  26.718  31.557  1.00  0.00     0.029 A 
ATOM     70  C   UNL A   1      50.518  25.511  31.594  1.00  0.00     0.049 A 
ATOM     71  H   UNL A   1      50.390  24.080  30.027  1.00  0.00     0.167 HD
ATOM     72  C   UNL A   1      48.878  24.943  33.404  1.00  0.00     0.074 A 
ATOM     73  C   UNL A   1      48.481  24.720  34.796  1.00  0.00     0.031 C 
ATOM     74  C   UNL A   1      50.090  24.724  32.774  1.00  0.00     0.031 A 
BRANCH  61  75
ATOM     75  C   UNL A   1      52.103  25.996  26.911  1.00  0.00    -0.014 A 
ATOM     76  C   UNL A   1      52.944  27.118  26.800  1.00  0.00     0.009 A 
ATOM     77  C   UNL A   1      52.305  24.980  25.954  1.00  0.00     0.009 A 
ATOM     78  C   UNL A   1      53.818  27.286  25.710  1.00  0.00     0.001 A 
ATOM     79  C   UNL A   1      53.137  25.164  24.834  1.00  0.00     0.001 A 
ATOM     80  C   UNL A   1      53.877  26.331  24.701  1.00  0.00     0.000 A 
ENDBRANCH  61  75
BRANCH  62  81
ATOM     81  C   UNL A   1      43.892  25.395  33.679  1.00  0.00    -0.014 A 
ATOM     82  C   UNL A   1      43.764  23.981  33.834  1.00  0.00     0.009 A 
ATOM     83  C   UNL A   1      42.996  26.195  34.403  1.00  0.00     0.009 A 
ATOM     84  C   UNL A   1      42.988  23.421  34.860  1.00  0.00     0.001 A 
ATOM     85  C   UNL A   1      42.171  25.617  35.394  1.00  0.00     0.001 A 
ATOM     86  C   UNL A   1      42.222  24.247  35.669  1.00  0.00     0.000 A 
ENDBRANCH  62  81
BRANCH  74  87
ATOM     87  C   UNL A   1      51.146  23.770  33.330  1.00  0.00    -0.014 A 
ATOM     88  C   UNL A   1      51.186  22.391  33.083  1.00  0.00     0.009 A 
ATOM     89  C   UNL A   1      52.268  24.303  34.009  1.00  0.00     0.009 A 
ATOM     90  C   UNL A   1      52.252  21.592  33.516  1.00  0.00     0.001 A 
ATOM     91  C   UNL A   1      53.364  23.526  34.384  1.00  0.00     0.001 A 
ATOM     92  C   UNL A   1      53.350  22.162  34.145  1.00  0.00     0.000 A 
ENDBRANCH  74  87
ENDBRANCH  48  49
ENDBRANCH  41  43
ENDBRANCH  40  41
ENDBRANCH  39  40
ENDBRANCH  38  39
ENDBRANCH  37  38
ENDBRANCH  36  37
ENDBRANCH  35  36
ENDBRANCH  34  35
ENDBRANCH   1  34
TORSDOF 23
ENDMDL
MODEL 3
REMARK VINA RESULT:     -11.6      5.298     10.268
REMARK SMILES Cc1c(NC(=O)[C@@H]2CC=CC[C@@H]2C(=O)OCCOCCOCCOCCOC(=O)c2ccc(-c3c4nc(c(-c5ccccc5)c5ccc([nH]5)c(-c5ccccc5)c5nc(c(-c6ccccc6)c6ccc3[nH]6)C=C5)C=C4)cc2)cccc1C(=O)N1CCOCC1
REMARK SMILES IDX 20 1 19 2 18 3 17 4 16 5 15 6 13 7 14 8 12 9 7 10 8 11 9 12
REMARK SMILES IDX 11 13 10 14 5 15 4 16 6 18 3 19 1 20 2 21 81 22 78 23 80 24
REMARK SMILES IDX 79 25 82 26 83 27 84 28 85 29 89 30 86 31 88 32 87 33 21 34
REMARK SMILES IDX 22 35 23 36 24 37 25 38 26 39 27 40 28 41 29 42 30 43 31 44
REMARK SMILES IDX 77 45 32 46 76 47 33 48 34 49 35 50 70 51 36 52 75 53 69 54
REMARK SMILES IDX 71 55 37 56 74 57 68 58 67 59 38 61 60 62 45 63 59 64 46 65
REMARK SMILES IDX 49 66 58 67 72 68 47 69 48 70 57 72 73 73 50 74 39 75 40 76
REMARK SMILES IDX 44 77 41 78 43 79 42 80 61 81 62 82 66 83 63 84 65 85 64 86
REMARK SMILES IDX 51 87 52 88 56 89 53 90 55 91 54 92
REMARK H PARENT 4 17 71 60 49 71
REMARK Flexibility Score: inf
ROOT
ATOM      1  C   UNL A   1      41.876  19.518  26.345  1.00  0.00     0.188 C 
ENDROOT
BRANCH   1   2
ATOM      2  C   UNL A   1      40.355  20.226  26.543  1.00  0.00     0.188 C 
BRANCH   2   3
ATOM      3  O   UNL A   1      39.480  21.517  25.671  1.00  0.00    -0.376 OA
BRANCH   3   4
ATOM      4  C   UNL A   1      38.483  22.921  26.148  1.00  0.00     0.202 C 
BRANCH   4   5
ATOM      5  C   UNL A   1      36.858  23.627  25.403  1.00  0.00     0.261 C 
BRANCH   5   6
ATOM      6  O   UNL A   1      35.904  23.053  23.963  1.00  0.00    -0.463 OA
BRANCH   6   7
ATOM      7  C   UNL A   1      34.606  22.968  23.330  1.00  0.00     0.310 C 
ATOM      8  O   UNL A   1      34.338  23.329  22.169  1.00  0.00    -0.252 OA
BRANCH   7   9
ATOM      9  C   UNL A   1      33.268  22.169  23.873  1.00  0.00     0.116 C 
ATOM     10  C   UNL A   1      32.870  21.269  25.100  1.00  0.00     0.097 C 
ATOM     11  C   UNL A   1      33.025  19.738  24.883  1.00  0.00     0.041 C 
ATOM     12  C   UNL A   1      32.424  19.282  23.595  1.00  0.00    -0.030 C 
ATOM     13  C   UNL A   1      32.466  21.601  22.623  1.00  0.00     0.043 C 
ATOM     14  C   UNL A   1      32.150  20.127  22.597  1.00  0.00    -0.030 C 
BRANCH  10  15
ATOM     15  C   UNL A   1      33.303  21.912  26.397  1.00  0.00     0.228 C 
ATOM     16  N   UNL A   1      32.710  22.975  26.985  1.00  0.00    -0.326 N 
ATOM     17  H   UNL A   1      33.072  23.128  27.887  1.00  0.00     0.169 HD
ATOM     18  O   UNL A   1      34.295  21.489  27.000  1.00  0.00    -0.274 OA
BRANCH  16  19
ATOM     19  C   UNL A   1      31.724  23.923  26.669  1.00  0.00     0.044 A 
ATOM     20  C   UNL A   1      33.647  25.488  26.232  1.00  0.00     0.047 C 
ATOM     21  C   UNL A   1      32.174  25.167  26.148  1.00  0.00    -0.015 A 
ATOM     22  C   UNL A   1      31.234  26.102  25.668  1.00  0.00     0.045 A 
ATOM     23  C   UNL A   1      30.355  23.683  26.790  1.00  0.00     0.026 A 
ATOM     24  C   UNL A   1      29.867  25.869  25.900  1.00  0.00     0.014 A 
ATOM     25  C   UNL A   1      29.432  24.681  26.481  1.00  0.00     0.003 A 
BRANCH  22  26
ATOM     26  C   UNL A   1      31.572  27.436  25.093  1.00  0.00     0.254 C 
ATOM     27  O   UNL A   1      31.374  28.411  25.821  1.00  0.00    -0.269 OA
ATOM     28  N   UNL A   1      32.107  27.584  23.816  1.00  0.00    -0.334 N 
ATOM     29  C   UNL A   1      32.052  26.648  22.683  1.00  0.00     0.148 C 
ATOM     30  C   UNL A   1      32.693  28.878  23.464  1.00  0.00     0.148 C 
ATOM     31  C   UNL A   1      33.415  26.559  21.963  1.00  0.00     0.181 C 
ATOM     32  C   UNL A   1      34.074  28.656  22.846  1.00  0.00     0.181 C 
ATOM     33  O   UNL A   1      33.962  27.853  21.659  1.00  0.00    -0.378 OA
ENDBRANCH  22  26
ENDBRANCH  16  19
ENDBRANCH  10  15
ENDBRANCH   7   9
ENDBRANCH   6   7
ENDBRANCH   5   6
ENDBRANCH   4   5
ENDBRANCH   3   4
ENDBRANCH   2   3
ENDBRANCH   1   2
BRANCH   1  34
ATOM     34  O   UNL A   1      42.623  19.253  25.136  1.00  0.00    -0.377 OA
BRANCH  34  35
ATOM     35  C   UNL A   1      43.903  18.646  25.015  1.00  0.00     0.188 C 
BRANCH  35  36
ATOM     36  C   UNL A   1      44.831  19.173  23.963  1.00  0.00     0.188 C 
BRANCH  36  37
ATOM     37  O   UNL A   1      46.027  19.518  24.631  1.00  0.00    -0.376 OA
BRANCH  37  38
ATOM     38  C   UNL A   1      46.549  20.778  24.265  1.00  0.00     0.202 C 
BRANCH  38  39
ATOM     39  C   UNL A   1      46.074  21.869  25.224  1.00  0.00     0.261 C 
BRANCH  39  40
ATOM     40  O   UNL A   1      45.389  22.886  24.458  1.00  0.00    -0.460 OA
BRANCH  40  41
ATOM     41  C   UNL A   1      44.111  23.166  24.861  1.00  0.00     0.338 C 
ATOM     42  O   UNL A   1      43.105  22.634  24.451  1.00  0.00    -0.246 OA
BRANCH  41  43
ATOM     43  C   UNL A   1      44.122  24.460  25.604  1.00  0.00     0.060 A 
ATOM     44  C   UNL A   1      43.639  25.613  25.014  1.00  0.00     0.016 A 
ATOM     45  C   UNL A   1      44.799  24.637  26.782  1.00  0.00     0.016 A 
ATOM     46  C   UNL A   1      44.232  26.856  25.340  1.00  0.00     0.010 A 
ATOM     47  C   UNL A   1      45.295  25.923  27.094  1.00  0.00     0.010 A 
ATOM     48  C   UNL A   1      45.391  26.974  26.120  1.00  0.00    -0.014 A 
BRANCH  48  49
ATOM     49  C   UNL A   1      46.795  28.074  25.654  1.00  0.00     0.031 A 
ATOM     50  C   UNL A   1      47.751  28.251  23.920  1.00  0.00     0.074 A 
ATOM     51  C   UNL A   1      47.228  28.617  26.848  1.00  0.00     0.049 A 
ATOM     52  N   UNL A   1      48.978  27.697  23.689  1.00  0.00    -0.248 NA
ATOM     53  C   UNL A   1      47.337  28.301  22.372  1.00  0.00     0.031 C 
ATOM     54  C   UNL A   1      48.131  29.696  27.020  1.00  0.00     0.029 A 
ATOM     55  N   UNL A   1      47.123  28.194  28.177  1.00  0.00    -0.354 N 
ATOM     56  C   UNL A   1      49.455  27.492  22.427  1.00  0.00     0.074 A 
ATOM     57  C   UNL A   1      48.303  27.714  21.640  1.00  0.00     0.031 C 
ATOM     58  C   UNL A   1      48.878  29.558  28.118  1.00  0.00     0.029 A 
ATOM     59  C   UNL A   1      48.306  28.484  28.841  1.00  0.00     0.049 A 
ATOM     60  H   UNL A   1      46.335  27.761  28.576  1.00  0.00     0.167 HD
ATOM     61  C   UNL A   1      50.768  27.198  22.133  1.00  0.00     0.031 A 
ATOM     62  C   UNL A   1      48.921  27.766  29.792  1.00  0.00     0.031 A 
ATOM     63  C   UNL A   1      51.722  27.446  23.244  1.00  0.00     0.049 A 
ATOM     64  C   UNL A   1      50.312  27.396  29.310  1.00  0.00     0.074 A 
ATOM     65  C   UNL A   1      52.470  28.579  23.540  1.00  0.00     0.029 A 
ATOM     66  N   UNL A   1      51.848  26.633  24.377  1.00  0.00    -0.354 N 
ATOM     67  N   UNL A   1      50.674  27.337  28.039  1.00  0.00    -0.248 NA
ATOM     68  C   UNL A   1      51.436  27.188  30.211  1.00  0.00     0.031 C 
ATOM     69  C   UNL A   1      52.781  28.564  24.930  1.00  0.00     0.029 A 
ATOM     70  C   UNL A   1      52.368  27.353  25.473  1.00  0.00     0.049 A 
ATOM     71  H   UNL A   1      51.606  25.680  24.405  1.00  0.00     0.167 HD
ATOM     72  C   UNL A   1      52.014  27.026  27.935  1.00  0.00     0.074 A 
ATOM     73  C   UNL A   1      52.442  27.019  29.335  1.00  0.00     0.031 C 
ATOM     74  C   UNL A   1      52.727  26.755  26.780  1.00  0.00     0.031 A 
BRANCH  61  75
ATOM     75  C   UNL A   1      51.168  27.126  20.659  1.00  0.00    -0.014 A 
ATOM     76  C   UNL A   1      51.572  28.271  19.949  1.00  0.00     0.009 A 
ATOM     77  C   UNL A   1      51.060  25.941  19.901  1.00  0.00     0.009 A 
ATOM     78  C   UNL A   1      51.703  28.269  18.548  1.00  0.00     0.001 A 
ATOM     79  C   UNL A   1      51.138  25.943  18.496  1.00  0.00     0.001 A 
ATOM     80  C   UNL A   1      51.437  27.117  17.817  1.00  0.00     0.000 A 
ENDBRANCH  61  75
BRANCH  62  81
ATOM     81  C   UNL A   1      47.914  27.323  30.806  1.00  0.00    -0.014 A 
ATOM     82  C   UNL A   1      48.048  25.945  31.155  1.00  0.00     0.009 A 
ATOM     83  C   UNL A   1      47.460  28.189  31.810  1.00  0.00     0.009 A 
ATOM     84  C   UNL A   1      48.006  25.517  32.491  1.00  0.00     0.001 A 
ATOM     85  C   UNL A   1      47.361  27.738  33.145  1.00  0.00     0.001 A 
ATOM     86  C   UNL A   1      47.703  26.428  33.493  1.00  0.00     0.000 A 
ENDBRANCH  62  81
BRANCH  74  87
ATOM     87  C   UNL A   1      54.024  25.946  26.785  1.00  0.00    -0.014 A 
ATOM     88  C   UNL A   1      55.128  26.212  27.605  1.00  0.00     0.009 A 
ATOM     89  C   UNL A   1      54.087  24.742  26.042  1.00  0.00     0.009 A 
ATOM     90  C   UNL A   1      56.237  25.357  27.654  1.00  0.00     0.001 A 
ATOM     91  C   UNL A   1      55.158  23.853  26.136  1.00  0.00     0.001 A 
ATOM     92  C   UNL A   1      56.241  24.168  26.938  1.00  0.00     0.000 A 
ENDBRANCH  74  87
ENDBRANCH  48  49
ENDBRANCH  41  43
ENDBRANCH  40  41
ENDBRANCH  39  40
ENDBRANCH  38  39
ENDBRANCH  37  38
ENDBRANCH  36  37
ENDBRANCH  35  36
ENDBRANCH  34  35
ENDBRANCH   1  34
TORSDOF 23
ENDMDL
