MODEL 1
REMARK VINA RESULT:      -8.6      0.000      0.000
REMARK SMILES COC(=O)c1c(-c2ccccc2Cl)csc1NC(=O)[C@@H]1[C@@H]2CC[C@@H](C2)[C@@H]1C(=O)OCCOCCOCCOCCOC(=O)c1ccc(-c2c3nc(c(-c4ccccc4)c4ccc([nH]4)c(-c4ccccc4)c4nc(c(-c5ccccc5)c5ccc2[nH]5)C=C4)C=C3)cc1
REMARK SMILES IDX 34 1 33 2 32 3 31 4 30 5 29 6 27 7 28 8 26 9 20 10 21 11
REMARK SMILES IDX 22 12 25 13 24 14 23 15 18 16 17 17 19 19 16 20 5 21 6 22
REMARK SMILES IDX 14 23 15 24 3 25 4 26 2 27 1 28 7 29 8 30 12 31 9 32 11 33
REMARK SMILES IDX 13 34 10 35 35 36 36 37 37 38 38 39 39 40 40 41 41 42 42 43
REMARK SMILES IDX 43 44 44 45 45 46 91 47 46 48 90 49 47 50 48 51 49 52 84 53
REMARK SMILES IDX 50 54 89 55 83 56 85 57 51 58 88 59 82 60 81 61 52 63 74 64
REMARK SMILES IDX 59 65 73 66 60 67 63 68 72 69 86 70 61 71 62 72 71 74 87 75
REMARK SMILES IDX 64 76 53 77 54 78 58 79 55 80 57 81 56 82 75 83 76 84 80 85
REMARK SMILES IDX 77 86 79 87 78 88 65 89 66 90 70 91 67 92 69 93 68 94
REMARK H PARENT 17 18 85 62 63 73
REMARK Flexibility Score: inf
ROOT
ATOM      1  C   UNL A   1      36.053  31.293  29.099  1.00  0.00     0.188 C 
ENDROOT
BRANCH   1   2
ATOM      2  C   UNL A   1      34.595  31.164  28.615  1.00  0.00     0.188 C 
BRANCH   2   3
ATOM      3  O   UNL A   1      34.503  30.941  27.205  1.00  0.00    -0.376 OA
BRANCH   3   4
ATOM      4  C   UNL A   1      33.712  29.825  26.793  1.00  0.00     0.202 C 
BRANCH   4   5
ATOM      5  C   UNL A   1      34.371  28.435  26.755  1.00  0.00     0.261 C 
BRANCH   5   6
ATOM      6  O   UNL A   1      33.407  27.437  26.369  1.00  0.00    -0.463 OA
BRANCH   6   7
ATOM      7  C   UNL A   1      33.007  27.273  25.095  1.00  0.00     0.310 C 
ATOM      8  O   UNL A   1      33.671  26.747  24.214  1.00  0.00    -0.252 OA
BRANCH   7   9
ATOM      9  C   UNL A   1      31.669  27.974  24.889  1.00  0.00     0.115 C 
ATOM     10  C   UNL A   1      30.296  27.348  24.487  1.00  0.00     0.096 C 
ATOM     11  C   UNL A   1      29.727  28.401  23.490  1.00  0.00     0.003 C 
ATOM     12  C   UNL A   1      30.462  28.362  22.149  1.00  0.00     0.005 C 
ATOM     13  C   UNL A   1      30.274  29.713  24.071  1.00  0.00     0.009 C 
ATOM     14  C   UNL A   1      31.731  29.249  24.001  1.00  0.00     0.004 C 
ATOM     15  C   UNL A   1      31.845  28.936  22.501  1.00  0.00     0.005 C 
BRANCH  10  16
ATOM     16  C   UNL A   1      29.732  25.922  24.230  1.00  0.00     0.229 C 
ATOM     17  N   UNL A   1      30.281  24.685  24.354  1.00  0.00    -0.317 N 
ATOM     18  H   UNL A   1      29.737  23.984  23.926  1.00  0.00     0.170 HD
ATOM     19  O   UNL A   1      28.588  25.886  23.728  1.00  0.00    -0.274 OA
BRANCH  17  20
ATOM     20  C   UNL A   1      31.420  24.184  24.940  1.00  0.00     0.110 A 
ATOM     21  C   UNL A   1      32.516  23.528  24.379  1.00  0.00     0.102 A 
ATOM     22  C   UNL A   1      33.585  23.438  25.365  1.00  0.00     0.011 A 
ATOM     23  C   UNL A   1      33.173  23.897  26.597  1.00  0.00     0.076 A 
ATOM     24  S   UNL A   1      31.522  24.131  26.606  1.00  0.00    -0.125 S 
BRANCH  21  25
ATOM     25  C   UNL A   1      32.542  23.011  23.014  1.00  0.00     0.341 C 
ATOM     26  O   UNL A   1      33.255  23.477  22.129  1.00  0.00    -0.246 OA
BRANCH  25  27
ATOM     27  O   UNL A   1      31.606  22.040  22.823  1.00  0.00    -0.465 OA
ATOM     28  C   UNL A   1      32.005  20.913  22.042  1.00  0.00     0.282 C 
ENDBRANCH  25  27
ENDBRANCH  21  25
BRANCH  22  29
ATOM     29  C   UNL A   1      34.985  23.049  25.253  1.00  0.00     0.002 A 
ATOM     30  C   UNL A   1      35.965  24.035  25.430  1.00  0.00     0.010 A 
ATOM     31  C   UNL A   1      35.374  21.695  25.187  1.00  0.00     0.048 A 
ATOM     32  C   UNL A   1      37.303  23.672  25.597  1.00  0.00     0.001 A 
ATOM     33  C   UNL A   1      36.707  21.340  25.384  1.00  0.00     0.021 A 
ATOM     34  Cl  UNL A   1      34.249  20.409  24.893  1.00  0.00    -0.084 Cl
ATOM     35  C   UNL A   1      37.668  22.326  25.599  1.00  0.00     0.002 A 
ENDBRANCH  22  29
ENDBRANCH  17  20
ENDBRANCH  10  16
ENDBRANCH   7   9
ENDBRANCH   6   7
ENDBRANCH   5   6
ENDBRANCH   4   5
ENDBRANCH   3   4
ENDBRANCH   2   3
ENDBRANCH   1   2
BRANCH   1  36
ATOM     36  O   UNL A   1      36.089  31.627  30.482  1.00  0.00    -0.377 OA
BRANCH  36  37
ATOM     37  C   UNL A   1      34.990  32.410  30.932  1.00  0.00     0.188 C 
BRANCH  37  38
ATOM     38  C   UNL A   1      34.983  32.954  32.378  1.00  0.00     0.188 C 
BRANCH  38  39
ATOM     39  O   UNL A   1      35.517  34.274  32.498  1.00  0.00    -0.376 OA
BRANCH  39  40
ATOM     40  C   UNL A   1      36.849  34.413  32.973  1.00  0.00     0.202 C 
BRANCH  40  41
ATOM     41  C   UNL A   1      37.920  34.031  31.943  1.00  0.00     0.261 C 
BRANCH  41  42
ATOM     42  O   UNL A   1      38.943  33.152  32.435  1.00  0.00    -0.460 OA
BRANCH  42  43
ATOM     43  C   UNL A   1      40.176  33.672  32.624  1.00  0.00     0.338 C 
ATOM     44  O   UNL A   1      40.494  34.563  33.389  1.00  0.00    -0.246 OA
BRANCH  43  45
ATOM     45  C   UNL A   1      41.133  32.803  31.907  1.00  0.00     0.060 A 
ATOM     46  C   UNL A   1      41.933  31.933  32.660  1.00  0.00     0.016 A 
ATOM     47  C   UNL A   1      41.193  32.795  30.510  1.00  0.00     0.016 A 
ATOM     48  C   UNL A   1      42.822  31.074  32.016  1.00  0.00     0.010 A 
ATOM     49  C   UNL A   1      42.103  31.957  29.868  1.00  0.00     0.010 A 
ATOM     50  C   UNL A   1      42.945  31.123  30.622  1.00  0.00    -0.014 A 
BRANCH  50  51
ATOM     51  C   UNL A   1      44.136  30.521  29.983  1.00  0.00     0.031 A 
ATOM     52  C   UNL A   1      44.046  29.076  29.580  1.00  0.00     0.074 A 
ATOM     53  C   UNL A   1      45.254  31.228  29.747  1.00  0.00     0.049 A 
ATOM     54  N   UNL A   1      44.936  28.317  28.995  1.00  0.00    -0.248 NA
ATOM     55  C   UNL A   1      42.771  28.397  29.875  1.00  0.00     0.031 C 
ATOM     56  C   UNL A   1      45.445  32.645  30.046  1.00  0.00     0.029 A 
ATOM     57  N   UNL A   1      46.443  30.832  29.191  1.00  0.00    -0.354 N 
ATOM     58  C   UNL A   1      44.323  27.080  28.841  1.00  0.00     0.074 A 
ATOM     59  C   UNL A   1      43.005  27.176  29.427  1.00  0.00     0.031 C 
ATOM     60  C   UNL A   1      46.686  33.002  29.664  1.00  0.00     0.029 A 
ATOM     61  C   UNL A   1      47.378  31.835  29.122  1.00  0.00     0.049 A 
ATOM     62  H   UNL A   1      46.610  29.916  28.871  1.00  0.00     0.167 HD
ATOM     63  C   UNL A   1      44.810  25.961  28.259  1.00  0.00     0.031 A 
ATOM     64  C   UNL A   1      48.648  31.801  28.677  1.00  0.00     0.031 A 
ATOM     65  C   UNL A   1      46.137  25.845  27.724  1.00  0.00     0.049 A 
ATOM     66  C   UNL A   1      49.212  30.509  28.144  1.00  0.00     0.074 A 
ATOM     67  C   UNL A   1      46.736  24.751  27.129  1.00  0.00     0.029 A 
ATOM     68  N   UNL A   1      47.078  26.863  27.742  1.00  0.00    -0.354 N 
ATOM     69  N   UNL A   1      48.619  29.351  27.980  1.00  0.00    -0.248 NA
ATOM     70  C   UNL A   1      50.625  30.524  27.735  1.00  0.00     0.031 C 
ATOM     71  C   UNL A   1      48.061  25.091  26.832  1.00  0.00     0.029 A 
ATOM     72  C   UNL A   1      48.266  26.414  27.193  1.00  0.00     0.049 A 
ATOM     73  H   UNL A   1      46.924  27.770  28.094  1.00  0.00     0.167 HD
ATOM     74  C   UNL A   1      49.574  28.511  27.420  1.00  0.00     0.074 A 
ATOM     75  C   UNL A   1      50.784  29.293  27.270  1.00  0.00     0.031 C 
ATOM     76  C   UNL A   1      49.459  27.209  27.057  1.00  0.00     0.031 A 
BRANCH  63  77
ATOM     77  C   UNL A   1      43.897  24.769  28.225  1.00  0.00    -0.014 A 
ATOM     78  C   UNL A   1      43.027  24.554  27.143  1.00  0.00     0.009 A 
ATOM     79  C   UNL A   1      43.882  23.871  29.301  1.00  0.00     0.009 A 
ATOM     80  C   UNL A   1      42.128  23.485  27.162  1.00  0.00     0.001 A 
ATOM     81  C   UNL A   1      43.003  22.788  29.304  1.00  0.00     0.001 A 
ATOM     82  C   UNL A   1      42.119  22.603  28.242  1.00  0.00     0.000 A 
ENDBRANCH  63  77
BRANCH  64  83
ATOM     83  C   UNL A   1      49.485  33.029  28.712  1.00  0.00    -0.014 A 
ATOM     84  C   UNL A   1      49.456  33.938  27.643  1.00  0.00     0.009 A 
ATOM     85  C   UNL A   1      50.332  33.288  29.801  1.00  0.00     0.009 A 
ATOM     86  C   UNL A   1      50.273  35.073  27.657  1.00  0.00     0.001 A 
ATOM     87  C   UNL A   1      51.129  34.434  29.822  1.00  0.00     0.001 A 
ATOM     88  C   UNL A   1      51.104  35.322  28.747  1.00  0.00     0.000 A 
ENDBRANCH  64  83
BRANCH  76  89
ATOM     89  C   UNL A   1      50.659  26.559  26.430  1.00  0.00    -0.014 A 
ATOM     90  C   UNL A   1      50.885  26.624  25.046  1.00  0.00     0.009 A 
ATOM     91  C   UNL A   1      51.603  25.914  27.245  1.00  0.00     0.009 A 
ATOM     92  C   UNL A   1      52.021  26.033  24.490  1.00  0.00     0.001 A 
ATOM     93  C   UNL A   1      52.750  25.347  26.689  1.00  0.00     0.001 A 
ATOM     94  C   UNL A   1      52.954  25.400  25.312  1.00  0.00     0.000 A 
ENDBRANCH  76  89
ENDBRANCH  50  51
ENDBRANCH  43  45
ENDBRANCH  42  43
ENDBRANCH  41  42
ENDBRANCH  40  41
ENDBRANCH  39  40
ENDBRANCH  38  39
ENDBRANCH  37  38
ENDBRANCH  36  37
ENDBRANCH   1  36
TORSDOF 25
ENDMDL
MODEL 2
REMARK VINA RESULT:      -8.4      1.401      5.304
REMARK SMILES COC(=O)c1c(-c2ccccc2Cl)csc1NC(=O)[C@@H]1[C@@H]2CC[C@@H](C2)[C@@H]1C(=O)OCCOCCOCCOCCOC(=O)c1ccc(-c2c3nc(c(-c4ccccc4)c4ccc([nH]4)c(-c4ccccc4)c4nc(c(-c5ccccc5)c5ccc2[nH]5)C=C4)C=C3)cc1
REMARK SMILES IDX 34 1 33 2 32 3 31 4 30 5 29 6 27 7 28 8 26 9 20 10 21 11
REMARK SMILES IDX 22 12 25 13 24 14 23 15 18 16 17 17 19 19 16 20 5 21 6 22
REMARK SMILES IDX 14 23 15 24 3 25 4 26 2 27 1 28 7 29 8 30 12 31 9 32 11 33
REMARK SMILES IDX 13 34 10 35 35 36 36 37 37 38 38 39 39 40 40 41 41 42 42 43
REMARK SMILES IDX 43 44 44 45 45 46 91 47 46 48 90 49 47 50 48 51 49 52 84 53
REMARK SMILES IDX 50 54 89 55 83 56 85 57 51 58 88 59 82 60 81 61 52 63 74 64
REMARK SMILES IDX 59 65 73 66 60 67 63 68 72 69 86 70 61 71 62 72 71 74 87 75
REMARK SMILES IDX 64 76 53 77 54 78 58 79 55 80 57 81 56 82 75 83 76 84 80 85
REMARK SMILES IDX 77 86 79 87 78 88 65 89 66 90 70 91 67 92 69 93 68 94
REMARK H PARENT 17 18 85 62 63 73
REMARK Flexibility Score: inf
ROOT
ATOM      1  C   UNL A   1      36.242  31.235  29.053  1.00  0.00     0.188 C 
ENDROOT
BRANCH   1   2
ATOM      2  C   UNL A   1      34.762  31.018  28.680  1.00  0.00     0.188 C 
BRANCH   2   3
ATOM      3  O   UNL A   1      34.555  30.966  27.265  1.00  0.00    -0.376 OA
BRANCH   3   4
ATOM      4  C   UNL A   1      33.822  29.841  26.776  1.00  0.00     0.202 C 
BRANCH   4   5
ATOM      5  C   UNL A   1      34.464  28.447  26.882  1.00  0.00     0.261 C 
BRANCH   5   6
ATOM      6  O   UNL A   1      33.509  27.430  26.526  1.00  0.00    -0.463 OA
BRANCH   6   7
ATOM      7  C   UNL A   1      33.144  27.195  25.252  1.00  0.00     0.310 C 
ATOM      8  O   UNL A   1      33.840  26.639  24.415  1.00  0.00    -0.252 OA
BRANCH   7   9
ATOM      9  C   UNL A   1      31.798  27.858  24.979  1.00  0.00     0.115 C 
ATOM     10  C   UNL A   1      30.471  27.198  24.488  1.00  0.00     0.096 C 
ATOM     11  C   UNL A   1      29.929  28.250  23.475  1.00  0.00     0.003 C 
ATOM     12  C   UNL A   1      30.741  28.256  22.179  1.00  0.00     0.005 C 
ATOM     13  C   UNL A   1      30.399  29.568  24.108  1.00  0.00     0.009 C 
ATOM     14  C   UNL A   1      31.872  29.149  24.116  1.00  0.00     0.004 C 
ATOM     15  C   UNL A   1      32.083  28.865  22.620  1.00  0.00     0.005 C 
BRANCH  10  16
ATOM     16  C   UNL A   1      29.968  25.760  24.177  1.00  0.00     0.229 C 
ATOM     17  N   UNL A   1      30.555  24.540  24.293  1.00  0.00    -0.317 N 
ATOM     18  H   UNL A   1      30.053  23.831  23.830  1.00  0.00     0.170 HD
ATOM     19  O   UNL A   1      28.845  25.697  23.633  1.00  0.00    -0.274 OA
BRANCH  17  20
ATOM     20  C   UNL A   1      31.690  24.065  24.909  1.00  0.00     0.110 A 
ATOM     21  C   UNL A   1      32.852  23.513  24.370  1.00  0.00     0.102 A 
ATOM     22  C   UNL A   1      33.870  23.414  25.408  1.00  0.00     0.011 A 
ATOM     23  C   UNL A   1      33.366  23.762  26.642  1.00  0.00     0.076 A 
ATOM     24  S   UNL A   1      31.705  23.902  26.571  1.00  0.00    -0.125 S 
BRANCH  21  25
ATOM     25  C   UNL A   1      32.982  23.094  22.978  1.00  0.00     0.341 C 
ATOM     26  O   UNL A   1      33.898  23.461  22.246  1.00  0.00    -0.246 OA
BRANCH  25  27
ATOM     27  O   UNL A   1      31.915  22.353  22.570  1.00  0.00    -0.465 OA
ATOM     28  C   UNL A   1      32.050  20.934  22.662  1.00  0.00     0.282 C 
ENDBRANCH  25  27
ENDBRANCH  21  25
BRANCH  22  29
ATOM     29  C   UNL A   1      35.295  23.114  25.351  1.00  0.00     0.002 A 
ATOM     30  C   UNL A   1      36.204  24.148  25.615  1.00  0.00     0.010 A 
ATOM     31  C   UNL A   1      35.768  21.789  25.252  1.00  0.00     0.048 A 
ATOM     32  C   UNL A   1      37.551  23.857  25.835  1.00  0.00     0.001 A 
ATOM     33  C   UNL A   1      37.110  21.505  25.501  1.00  0.00     0.021 A 
ATOM     34  Cl  UNL A   1      34.739  20.452  24.852  1.00  0.00    -0.084 Cl
ATOM     35  C   UNL A   1      37.997  22.536  25.803  1.00  0.00     0.002 A 
ENDBRANCH  22  29
ENDBRANCH  17  20
ENDBRANCH  10  16
ENDBRANCH   7   9
ENDBRANCH   6   7
ENDBRANCH   5   6
ENDBRANCH   4   5
ENDBRANCH   3   4
ENDBRANCH   2   3
ENDBRANCH   1   2
BRANCH   1  36
ATOM     36  O   UNL A   1      36.373  31.460  30.452  1.00  0.00    -0.377 OA
BRANCH  36  37
ATOM     37  C   UNL A   1      35.273  32.134  31.050  1.00  0.00     0.188 C 
BRANCH  37  38
ATOM     38  C   UNL A   1      35.412  32.700  32.481  1.00  0.00     0.188 C 
BRANCH  38  39
ATOM     39  O   UNL A   1      35.534  34.122  32.527  1.00  0.00    -0.376 OA
BRANCH  39  40
ATOM     40  C   UNL A   1      36.805  34.673  32.843  1.00  0.00     0.202 C 
BRANCH  40  41
ATOM     41  C   UNL A   1      37.875  34.423  31.773  1.00  0.00     0.261 C 
BRANCH  41  42
ATOM     42  O   UNL A   1      38.974  33.602  32.200  1.00  0.00    -0.460 OA
BRANCH  42  43
ATOM     43  C   UNL A   1      40.041  34.224  32.749  1.00  0.00     0.338 C 
ATOM     44  O   UNL A   1      40.050  34.970  33.711  1.00  0.00    -0.246 OA
BRANCH  43  45
ATOM     45  C   UNL A   1      41.252  33.651  32.125  1.00  0.00     0.060 A 
ATOM     46  C   UNL A   1      41.141  33.100  30.842  1.00  0.00     0.016 A 
ATOM     47  C   UNL A   1      42.494  33.719  32.766  1.00  0.00     0.016 A 
ATOM     48  C   UNL A   1      42.269  32.582  30.208  1.00  0.00     0.010 A 
ATOM     49  C   UNL A   1      43.617  33.175  32.143  1.00  0.00     0.010 A 
ATOM     50  C   UNL A   1      43.498  32.572  30.880  1.00  0.00    -0.014 A 
BRANCH  50  51
ATOM     51  C   UNL A   1      44.580  31.689  30.391  1.00  0.00     0.031 A 
ATOM     52  C   UNL A   1      45.642  32.312  29.530  1.00  0.00     0.074 A 
ATOM     53  C   UNL A   1      44.635  30.385  30.709  1.00  0.00     0.049 A 
ATOM     54  N   UNL A   1      46.699  31.767  28.986  1.00  0.00    -0.248 NA
ATOM     55  C   UNL A   1      45.491  33.751  29.250  1.00  0.00     0.031 C 
ATOM     56  C   UNL A   1      43.694  29.678  31.573  1.00  0.00     0.029 A 
ATOM     57  N   UNL A   1      45.541  29.427  30.333  1.00  0.00    -0.354 N 
ATOM     58  C   UNL A   1      47.342  32.798  28.314  1.00  0.00     0.074 A 
ATOM     59  C   UNL A   1      46.541  33.989  28.483  1.00  0.00     0.031 C 
ATOM     60  C   UNL A   1      44.076  28.390  31.664  1.00  0.00     0.029 A 
ATOM     61  C   UNL A   1      45.268  28.182  30.845  1.00  0.00     0.049 A 
ATOM     62  H   UNL A   1      46.313  29.613  29.752  1.00  0.00     0.167 HD
ATOM     63  C   UNL A   1      48.502  32.763  27.619  1.00  0.00     0.031 A 
ATOM     64  C   UNL A   1      45.911  27.014  30.660  1.00  0.00     0.031 A 
ATOM     65  C   UNL A   1      49.272  31.571  27.403  1.00  0.00     0.049 A 
ATOM     66  C   UNL A   1      47.134  26.972  29.781  1.00  0.00     0.074 A 
ATOM     67  C   UNL A   1      50.453  31.422  26.699  1.00  0.00     0.029 A 
ATOM     68  N   UNL A   1      48.922  30.317  27.876  1.00  0.00    -0.354 N 
ATOM     69  N   UNL A   1      47.749  27.955  29.170  1.00  0.00    -0.248 NA
ATOM     70  C   UNL A   1      47.749  25.653  29.569  1.00  0.00     0.031 C 
ATOM     71  C   UNL A   1      50.790  30.063  26.703  1.00  0.00     0.029 A 
ATOM     72  C   UNL A   1      49.848  29.379  27.455  1.00  0.00     0.049 A 
ATOM     73  H   UNL A   1      48.130  30.122  28.429  1.00  0.00     0.167 HD
ATOM     74  C   UNL A   1      48.840  27.382  28.528  1.00  0.00     0.074 A 
ATOM     75  C   UNL A   1      48.804  25.965  28.827  1.00  0.00     0.031 C 
ATOM     76  C   UNL A   1      49.791  27.974  27.763  1.00  0.00     0.031 A 
BRANCH  63  77
ATOM     77  C   UNL A   1      48.962  34.056  27.011  1.00  0.00    -0.014 A 
ATOM     78  C   UNL A   1      49.746  34.962  27.744  1.00  0.00     0.009 A 
ATOM     79  C   UNL A   1      48.579  34.388  25.704  1.00  0.00     0.009 A 
ATOM     80  C   UNL A   1      50.100  36.196  27.193  1.00  0.00     0.001 A 
ATOM     81  C   UNL A   1      48.957  35.609  25.147  1.00  0.00     0.001 A 
ATOM     82  C   UNL A   1      49.707  36.517  25.894  1.00  0.00     0.000 A 
ENDBRANCH  63  77
BRANCH  64  83
ATOM     83  C   UNL A   1      45.417  25.777  31.320  1.00  0.00    -0.014 A 
ATOM     84  C   UNL A   1      44.577  24.890  30.628  1.00  0.00     0.009 A 
ATOM     85  C   UNL A   1      45.763  25.486  32.648  1.00  0.00     0.009 A 
ATOM     86  C   UNL A   1      44.079  23.747  31.259  1.00  0.00     0.001 A 
ATOM     87  C   UNL A   1      45.283  24.331  33.270  1.00  0.00     0.001 A 
ATOM     88  C   UNL A   1      44.436  23.466  32.577  1.00  0.00     0.000 A 
ENDBRANCH  64  83
BRANCH  76  89
ATOM     89  C   UNL A   1      50.889  27.100  27.227  1.00  0.00    -0.014 A 
ATOM     90  C   UNL A   1      52.071  26.886  27.952  1.00  0.00     0.009 A 
ATOM     91  C   UNL A   1      50.713  26.442  25.999  1.00  0.00     0.009 A 
ATOM     92  C   UNL A   1      53.067  26.050  27.444  1.00  0.00     0.001 A 
ATOM     93  C   UNL A   1      51.699  25.586  25.507  1.00  0.00     0.001 A 
ATOM     94  C   UNL A   1      52.878  25.398  26.225  1.00  0.00     0.000 A 
ENDBRANCH  76  89
ENDBRANCH  50  51
ENDBRANCH  43  45
ENDBRANCH  42  43
ENDBRANCH  41  42
ENDBRANCH  40  41
ENDBRANCH  39  40
ENDBRANCH  38  39
ENDBRANCH  37  38
ENDBRANCH  36  37
ENDBRANCH   1  36
TORSDOF 25
ENDMDL
MODEL 3
REMARK VINA RESULT:      -8.3      6.652     14.515
REMARK SMILES COC(=O)c1c(-c2ccccc2Cl)csc1NC(=O)[C@@H]1[C@@H]2CC[C@@H](C2)[C@@H]1C(=O)OCCOCCOCCOCCOC(=O)c1ccc(-c2c3nc(c(-c4ccccc4)c4ccc([nH]4)c(-c4ccccc4)c4nc(c(-c5ccccc5)c5ccc2[nH]5)C=C4)C=C3)cc1
REMARK SMILES IDX 34 1 33 2 32 3 31 4 30 5 29 6 27 7 28 8 26 9 20 10 21 11
REMARK SMILES IDX 22 12 25 13 24 14 23 15 18 16 17 17 19 19 16 20 5 21 6 22
REMARK SMILES IDX 14 23 15 24 3 25 4 26 2 27 1 28 7 29 8 30 12 31 9 32 11 33
REMARK SMILES IDX 13 34 10 35 35 36 36 37 37 38 38 39 39 40 40 41 41 42 42 43
REMARK SMILES IDX 43 44 44 45 45 46 91 47 46 48 90 49 47 50 48 51 49 52 84 53
REMARK SMILES IDX 50 54 89 55 83 56 85 57 51 58 88 59 82 60 81 61 52 63 74 64
REMARK SMILES IDX 59 65 73 66 60 67 63 68 72 69 86 70 61 71 62 72 71 74 87 75
REMARK SMILES IDX 64 76 53 77 54 78 58 79 55 80 57 81 56 82 75 83 76 84 80 85
REMARK SMILES IDX 77 86 79 87 78 88 65 89 66 90 70 91 67 92 69 93 68 94
REMARK H PARENT 17 18 85 62 63 73
REMARK Flexibility Score: inf
ROOT
ATOM      1  C   UNL A   1      48.221  27.792  27.499  1.00  0.00     0.188 C 
ENDROOT
BRANCH   1   2
ATOM      2  C   UNL A   1      48.813  29.074  26.879  1.00  0.00     0.188 C 
BRANCH   2   3
ATOM      3  O   UNL A   1      47.807  30.030  26.531  1.00  0.00    -0.376 OA
BRANCH   3   4
ATOM      4  C   UNL A   1      46.628  30.027  27.338  1.00  0.00     0.202 C 
BRANCH   4   5
ATOM      5  C   UNL A   1      45.282  30.351  26.668  1.00  0.00     0.261 C 
BRANCH   5   6
ATOM      6  O   UNL A   1      44.717  31.548  27.238  1.00  0.00    -0.463 OA
BRANCH   6   7
ATOM      7  C   UNL A   1      44.545  32.676  26.526  1.00  0.00     0.310 C 
ATOM      8  O   UNL A   1      44.920  32.841  25.374  1.00  0.00    -0.252 OA
BRANCH   7   9
ATOM      9  C   UNL A   1      43.949  33.756  27.422  1.00  0.00     0.115 C 
ATOM     10  C   UNL A   1      44.268  35.284  27.446  1.00  0.00     0.096 C 
ATOM     11  C   UNL A   1      44.276  35.601  28.971  1.00  0.00     0.003 C 
ATOM     12  C   UNL A   1      45.522  35.038  29.657  1.00  0.00     0.005 C 
ATOM     13  C   UNL A   1      43.205  34.635  29.499  1.00  0.00     0.009 C 
ATOM     14  C   UNL A   1      43.907  33.396  28.934  1.00  0.00     0.004 C 
ATOM     15  C   UNL A   1      45.274  33.520  29.624  1.00  0.00     0.005 C 
BRANCH  10  16
ATOM     16  C   UNL A   1      45.151  36.271  26.630  1.00  0.00     0.229 C 
ATOM     17  N   UNL A   1      45.123  37.622  26.490  1.00  0.00    -0.317 N 
ATOM     18  H   UNL A   1      45.689  37.938  25.748  1.00  0.00     0.170 HD
ATOM     19  O   UNL A   1      45.997  35.733  25.885  1.00  0.00    -0.274 OA
BRANCH  17  20
ATOM     20  C   UNL A   1      44.488  38.652  27.145  1.00  0.00     0.110 A 
ATOM     21  C   UNL A   1      44.918  39.460  28.197  1.00  0.00     0.102 A 
ATOM     22  C   UNL A   1      43.999  40.579  28.358  1.00  0.00     0.011 A 
ATOM     23  C   UNL A   1      42.906  40.455  27.528  1.00  0.00     0.076 A 
ATOM     24  S   UNL A   1      42.872  38.937  26.837  1.00  0.00    -0.125 S 
BRANCH  21  25
ATOM     25  C   UNL A   1      46.104  39.183  29.002  1.00  0.00     0.341 C 
ATOM     26  O   UNL A   1      46.056  38.852  30.184  1.00  0.00    -0.246 OA
BRANCH  25  27
ATOM     27  O   UNL A   1      47.252  39.447  28.319  1.00  0.00    -0.465 OA
ATOM     28  C   UNL A   1      48.401  39.774  29.101  1.00  0.00     0.282 C 
ENDBRANCH  25  27
ENDBRANCH  21  25
BRANCH  22  29
ATOM     29  C   UNL A   1      44.079  41.803  29.146  1.00  0.00     0.002 A 
ATOM     30  C   UNL A   1      43.664  41.760  30.484  1.00  0.00     0.010 A 
ATOM     31  C   UNL A   1      44.751  42.947  28.668  1.00  0.00     0.048 A 
ATOM     32  C   UNL A   1      43.967  42.816  31.345  1.00  0.00     0.001 A 
ATOM     33  C   UNL A   1      45.074  43.984  29.542  1.00  0.00     0.021 A 
ATOM     34  Cl  UNL A   1      45.235  43.129  27.013  1.00  0.00    -0.084 Cl
ATOM     35  C   UNL A   1      44.692  43.913  30.880  1.00  0.00     0.002 A 
ENDBRANCH  22  29
ENDBRANCH  17  20
ENDBRANCH  10  16
ENDBRANCH   7   9
ENDBRANCH   6   7
ENDBRANCH   5   6
ENDBRANCH   4   5
ENDBRANCH   3   4
ENDBRANCH   2   3
ENDBRANCH   1   2
BRANCH   1  36
ATOM     36  O   UNL A   1      48.673  26.644  26.790  1.00  0.00    -0.377 OA
BRANCH  36  37
ATOM     37  C   UNL A   1      47.637  25.779  26.341  1.00  0.00     0.188 C 
BRANCH  37  38
ATOM     38  C   UNL A   1      47.447  25.540  24.826  1.00  0.00     0.188 C 
BRANCH  38  39
ATOM     39  O   UNL A   1      46.261  24.812  24.504  1.00  0.00    -0.376 OA
BRANCH  39  40
ATOM     40  C   UNL A   1      46.296  23.396  24.615  1.00  0.00     0.202 C 
BRANCH  40  41
ATOM     41  C   UNL A   1      44.958  22.714  24.305  1.00  0.00     0.261 C 
BRANCH  41  42
ATOM     42  O   UNL A   1      43.813  23.579  24.360  1.00  0.00    -0.460 OA
BRANCH  42  43
ATOM     43  C   UNL A   1      42.788  23.209  25.160  1.00  0.00     0.338 C 
ATOM     44  O   UNL A   1      42.350  22.087  25.330  1.00  0.00    -0.246 OA
BRANCH  43  45
ATOM     45  C   UNL A   1      42.435  24.379  25.991  1.00  0.00     0.060 A 
ATOM     46  C   UNL A   1      42.483  25.651  25.403  1.00  0.00     0.016 A 
ATOM     47  C   UNL A   1      41.994  24.220  27.309  1.00  0.00     0.016 A 
ATOM     48  C   UNL A   1      42.123  26.773  26.146  1.00  0.00     0.010 A 
ATOM     49  C   UNL A   1      41.661  25.347  28.060  1.00  0.00     0.010 A 
ATOM     50  C   UNL A   1      41.762  26.627  27.492  1.00  0.00    -0.014 A 
BRANCH  50  51
ATOM     51  C   UNL A   1      41.767  27.816  28.372  1.00  0.00     0.031 A 
ATOM     52  C   UNL A   1      43.020  28.087  29.157  1.00  0.00     0.074 A 
ATOM     53  C   UNL A   1      40.711  28.641  28.464  1.00  0.00     0.049 A 
ATOM     54  N   UNL A   1      43.289  29.061  29.986  1.00  0.00    -0.248 NA
ATOM     55  C   UNL A   1      44.121  27.125  28.975  1.00  0.00     0.031 C 
ATOM     56  C   UNL A   1      39.462  28.513  27.718  1.00  0.00     0.029 A 
ATOM     57  N   UNL A   1      40.536  29.761  29.234  1.00  0.00    -0.354 N 
ATOM     58  C   UNL A   1      44.591  28.836  30.412  1.00  0.00     0.074 A 
ATOM     59  C   UNL A   1      45.045  27.616  29.783  1.00  0.00     0.031 C 
ATOM     60  C   UNL A   1      38.645  29.524  28.068  1.00  0.00     0.029 A 
ATOM     61  C   UNL A   1      39.305  30.350  29.077  1.00  0.00     0.049 A 
ATOM     62  H   UNL A   1      41.227  30.112  29.841  1.00  0.00     0.167 HD
ATOM     63  C   UNL A   1      45.350  29.581  31.248  1.00  0.00     0.031 A 
ATOM     64  C   UNL A   1      38.779  31.427  29.690  1.00  0.00     0.031 A 
ATOM     65  C   UNL A   1      44.886  30.762  31.916  1.00  0.00     0.049 A 
ATOM     66  C   UNL A   1      39.598  32.171  30.713  1.00  0.00     0.074 A 
ATOM     67  C   UNL A   1      45.567  31.581  32.798  1.00  0.00     0.029 A 
ATOM     68  N   UNL A   1      43.607  31.281  31.787  1.00  0.00    -0.354 N 
ATOM     69  N   UNL A   1      40.837  31.966  31.090  1.00  0.00    -0.248 NA
ATOM     70  C   UNL A   1      38.942  33.298  31.391  1.00  0.00     0.031 C 
ATOM     71  C   UNL A   1      44.681  32.569  33.244  1.00  0.00     0.029 A 
ATOM     72  C   UNL A   1      43.468  32.395  32.597  1.00  0.00     0.049 A 
ATOM     73  H   UNL A   1      42.902  30.912  31.207  1.00  0.00     0.167 HD
ATOM     74  C   UNL A   1      41.119  32.955  32.025  1.00  0.00     0.074 A 
ATOM     75  C   UNL A   1      39.922  33.762  32.154  1.00  0.00     0.031 C 
ATOM     76  C   UNL A   1      42.266  33.181  32.712  1.00  0.00     0.031 A 
BRANCH  63  77
ATOM     77  C   UNL A   1      46.745  29.089  31.508  1.00  0.00    -0.014 A 
ATOM     78  C   UNL A   1      47.828  29.544  30.739  1.00  0.00     0.009 A 
ATOM     79  C   UNL A   1      46.973  28.135  32.510  1.00  0.00     0.009 A 
ATOM     80  C   UNL A   1      49.107  29.019  30.940  1.00  0.00     0.001 A 
ATOM     81  C   UNL A   1      48.256  27.633  32.727  1.00  0.00     0.001 A 
ATOM     82  C   UNL A   1      49.319  28.065  31.935  1.00  0.00     0.000 A 
ENDBRANCH  63  77
BRANCH  64  83
ATOM     83  C   UNL A   1      37.401  31.876  29.360  1.00  0.00    -0.014 A 
ATOM     84  C   UNL A   1      36.295  31.311  30.013  1.00  0.00     0.009 A 
ATOM     85  C   UNL A   1      37.183  32.854  28.377  1.00  0.00     0.009 A 
ATOM     86  C   UNL A   1      34.997  31.704  29.675  1.00  0.00     0.001 A 
ATOM     87  C   UNL A   1      35.886  33.261  28.057  1.00  0.00     0.001 A 
ATOM     88  C   UNL A   1      34.794  32.681  28.701  1.00  0.00     0.000 A 
ENDBRANCH  64  83
BRANCH  76  89
ATOM     89  C   UNL A   1      42.296  34.364  33.636  1.00  0.00    -0.014 A 
ATOM     90  C   UNL A   1      42.725  35.625  33.194  1.00  0.00     0.009 A 
ATOM     91  C   UNL A   1      41.840  34.224  34.957  1.00  0.00     0.009 A 
ATOM     92  C   UNL A   1      42.721  36.716  34.066  1.00  0.00     0.001 A 
ATOM     93  C   UNL A   1      41.813  35.321  35.817  1.00  0.00     0.001 A 
ATOM     94  C   UNL A   1      42.260  36.564  35.374  1.00  0.00     0.000 A 
ENDBRANCH  76  89
ENDBRANCH  50  51
ENDBRANCH  43  45
ENDBRANCH  42  43
ENDBRANCH  41  42
ENDBRANCH  40  41
ENDBRANCH  39  40
ENDBRANCH  38  39
ENDBRANCH  37  38
ENDBRANCH  36  37
ENDBRANCH   1  36
TORSDOF 25
ENDMDL
