MODEL 1
REMARK VINA RESULT:      -9.0      0.000      0.000
REMARK SMILES CCCc1c(C(=O)OCCOCCOCCOCCOC(=O)c2ccc(-c3c4nc(c(-c5ccccc5)c5ccc([nH]5)c(-c5ccccc5)c5nc(c(-c6ccccc6)c6ccc3[nH]6)C=C5)C=C4)cc2)nnn1-c1cc(OC)ccc1F
REMARK SMILES IDX 14 1 13 2 12 3 11 4 10 5 9 6 8 7 6 8 7 9 5 10 4 11 73 12
REMARK SMILES IDX 71 13 72 14 3 15 2 16 1 17 74 18 75 19 81 20 76 21 80 22
REMARK SMILES IDX 82 23 79 24 77 25 78 26 15 27 16 28 17 29 18 30 19 31 20 32
REMARK SMILES IDX 21 33 22 34 23 35 24 36 70 37 25 38 69 39 26 40 27 41 28 42
REMARK SMILES IDX 63 43 29 44 68 45 62 46 64 47 30 48 67 49 61 50 60 51 31 53
REMARK SMILES IDX 53 54 38 55 52 56 39 57 42 58 51 59 65 60 40 61 41 62 50 64
REMARK SMILES IDX 66 65 43 66 32 67 33 68 37 69 34 70 36 71 35 72 54 73 55 74
REMARK SMILES IDX 59 75 56 76 58 77 57 78 44 79 45 80 49 81 46 82 48 83 47 84
REMARK H PARENT 64 52 42 63
REMARK Flexibility Score: inf
ROOT
ATOM      1  O   UNL A   1      34.105  25.918  26.042  1.00  0.00    -0.377 OA
ENDROOT
BRANCH   1   2
ATOM      2  C   UNL A   1      34.512  24.865  25.174  1.00  0.00     0.188 C 
BRANCH   2   3
ATOM      3  C   UNL A   1      35.816  24.071  25.414  1.00  0.00     0.188 C 
BRANCH   3   4
ATOM      4  O   UNL A   1      35.594  22.754  25.870  1.00  0.00    -0.376 OA
BRANCH   4   5
ATOM      5  C   UNL A   1      35.703  21.657  24.996  1.00  0.00     0.202 C 
BRANCH   5   6
ATOM      6  C   UNL A   1      35.288  20.251  25.455  1.00  0.00     0.261 C 
BRANCH   6   7
ATOM      7  O   UNL A   1      34.484  19.489  24.551  1.00  0.00    -0.458 OA
BRANCH   7   8
ATOM      8  C   UNL A   1      33.135  19.543  24.734  1.00  0.00     0.360 C 
ATOM      9  O   UNL A   1      32.528  18.832  25.523  1.00  0.00    -0.244 OA
BRANCH   8  10
ATOM     10  C   UNL A   1      32.520  20.643  23.995  1.00  0.00     0.194 A 
ATOM     11  C   UNL A   1      32.083  21.894  24.424  1.00  0.00     0.080 A 
ATOM     12  N   UNL A   1      31.669  22.496  23.241  1.00  0.00    -0.214 N 
ATOM     13  N   UNL A   1      32.149  20.473  22.680  1.00  0.00    -0.122 NA
ATOM     14  N   UNL A   1      31.525  21.568  22.274  1.00  0.00    -0.061 NA
BRANCH  11  15
ATOM     15  C   UNL A   1      31.926  22.498  25.791  1.00  0.00     0.059 C 
BRANCH  15  16
ATOM     16  C   UNL A   1      30.514  22.496  26.377  1.00  0.00     0.003 C 
ATOM     17  C   UNL A   1      29.994  23.896  26.693  1.00  0.00     0.004 C 
ENDBRANCH  15  16
ENDBRANCH  11  15
BRANCH  12  18
ATOM     18  C   UNL A   1      31.734  23.846  22.880  1.00  0.00     0.106 A 
ATOM     19  C   UNL A   1      30.699  24.729  23.202  1.00  0.00     0.078 A 
ATOM     20  C   UNL A   1      32.842  24.284  22.159  1.00  0.00     0.149 A 
ATOM     21  C   UNL A   1      30.840  26.086  22.887  1.00  0.00     0.121 A 
ATOM     22  C   UNL A   1      32.979  25.625  21.836  1.00  0.00     0.045 A 
ATOM     23  F   UNL A   1      33.790  23.425  21.761  1.00  0.00    -0.205 F 
ATOM     24  C   UNL A   1      31.991  26.531  22.222  1.00  0.00     0.049 A 
BRANCH  21  25
ATOM     25  O   UNL A   1      29.805  26.885  23.291  1.00  0.00    -0.497 OA
ATOM     26  C   UNL A   1      30.073  28.282  23.382  1.00  0.00     0.278 C 
ENDBRANCH  21  25
ENDBRANCH  12  18
ENDBRANCH   8  10
ENDBRANCH   7   8
ENDBRANCH   6   7
ENDBRANCH   5   6
ENDBRANCH   4   5
ENDBRANCH   3   4
ENDBRANCH   2   3
ENDBRANCH   1   2
BRANCH   1  27
ATOM     27  C   UNL A   1      33.120  26.865  25.642  1.00  0.00     0.188 C 
BRANCH  27  28
ATOM     28  C   UNL A   1      31.828  27.116  26.459  1.00  0.00     0.188 C 
BRANCH  28  29
ATOM     29  O   UNL A   1      31.644  28.437  26.926  1.00  0.00    -0.376 OA
BRANCH  29  30
ATOM     30  C   UNL A   1      32.702  29.231  27.417  1.00  0.00     0.202 C 
BRANCH  30  31
ATOM     31  C   UNL A   1      32.684  30.744  27.249  1.00  0.00     0.261 C 
BRANCH  31  32
ATOM     32  O   UNL A   1      33.951  31.348  27.088  1.00  0.00    -0.460 OA
BRANCH  32  33
ATOM     33  C   UNL A   1      34.605  31.578  28.242  1.00  0.00     0.338 C 
ATOM     34  O   UNL A   1      34.181  32.111  29.247  1.00  0.00    -0.246 OA
BRANCH  33  35
ATOM     35  C   UNL A   1      36.003  31.212  28.028  1.00  0.00     0.060 A 
ATOM     36  C   UNL A   1      36.263  29.911  27.601  1.00  0.00     0.016 A 
ATOM     37  C   UNL A   1      36.993  32.044  28.575  1.00  0.00     0.016 A 
ATOM     38  C   UNL A   1      37.482  29.364  27.925  1.00  0.00     0.010 A 
ATOM     39  C   UNL A   1      38.196  31.489  28.921  1.00  0.00     0.010 A 
ATOM     40  C   UNL A   1      38.387  30.135  28.667  1.00  0.00    -0.014 A 
BRANCH  40  41
ATOM     41  C   UNL A   1      39.622  29.516  29.082  1.00  0.00     0.031 A 
ATOM     42  C   UNL A   1      39.741  29.455  30.550  1.00  0.00     0.074 A 
ATOM     43  C   UNL A   1      40.496  28.977  28.213  1.00  0.00     0.049 A 
ATOM     44  N   UNL A   1      40.537  30.150  31.289  1.00  0.00    -0.248 NA
ATOM     45  C   UNL A   1      38.725  28.693  31.295  1.00  0.00     0.031 C 
ATOM     46  C   UNL A   1      40.323  28.763  26.774  1.00  0.00     0.029 A 
ATOM     47  N   UNL A   1      41.699  28.396  28.467  1.00  0.00    -0.354 N 
ATOM     48  C   UNL A   1      40.284  29.728  32.585  1.00  0.00     0.074 A 
ATOM     49  C   UNL A   1      39.029  29.022  32.550  1.00  0.00     0.031 C 
ATOM     50  C   UNL A   1      41.262  27.891  26.341  1.00  0.00     0.029 A 
ATOM     51  C   UNL A   1      42.170  27.592  27.437  1.00  0.00     0.049 A 
ATOM     52  H   UNL A   1      42.193  28.533  29.308  1.00  0.00     0.167 HD
ATOM     53  C   UNL A   1      41.288  29.690  33.500  1.00  0.00     0.031 A 
ATOM     54  C   UNL A   1      43.183  26.692  27.519  1.00  0.00     0.031 A 
ATOM     55  C   UNL A   1      42.406  30.508  33.097  1.00  0.00     0.049 A 
ATOM     56  C   UNL A   1      43.993  27.034  28.711  1.00  0.00     0.074 A 
ATOM     57  C   UNL A   1      42.572  31.840  32.771  1.00  0.00     0.029 A 
ATOM     58  N   UNL A   1      43.501  29.854  32.587  1.00  0.00    -0.354 N 
ATOM     59  N   UNL A   1      44.735  28.100  28.790  1.00  0.00    -0.248 NA
ATOM     60  C   UNL A   1      43.637  26.428  29.984  1.00  0.00     0.031 C 
ATOM     61  C   UNL A   1      43.519  31.849  31.705  1.00  0.00     0.029 A 
ATOM     62  C   UNL A   1      43.939  30.536  31.484  1.00  0.00     0.049 A 
ATOM     63  H   UNL A   1      43.904  29.033  32.954  1.00  0.00     0.167 HD
ATOM     64  C   UNL A   1      44.536  28.566  30.081  1.00  0.00     0.074 A 
ATOM     65  C   UNL A   1      43.954  27.435  30.804  1.00  0.00     0.031 C 
ATOM     66  C   UNL A   1      44.585  29.904  30.354  1.00  0.00     0.031 A 
BRANCH  53  67
ATOM     67  C   UNL A   1      41.442  28.532  34.458  1.00  0.00    -0.014 A 
ATOM     68  C   UNL A   1      41.792  28.810  35.789  1.00  0.00     0.009 A 
ATOM     69  C   UNL A   1      41.553  27.190  34.042  1.00  0.00     0.009 A 
ATOM     70  C   UNL A   1      42.302  27.811  36.626  1.00  0.00     0.001 A 
ATOM     71  C   UNL A   1      42.017  26.182  34.887  1.00  0.00     0.001 A 
ATOM     72  C   UNL A   1      42.421  26.500  36.173  1.00  0.00     0.000 A 
ENDBRANCH  53  67
BRANCH  54  73
ATOM     73  C   UNL A   1      43.338  25.392  26.829  1.00  0.00    -0.014 A 
ATOM     74  C   UNL A   1      42.448  24.336  27.093  1.00  0.00     0.009 A 
ATOM     75  C   UNL A   1      44.168  25.277  25.701  1.00  0.00     0.009 A 
ATOM     76  C   UNL A   1      42.356  23.236  26.230  1.00  0.00     0.001 A 
ATOM     77  C   UNL A   1      44.082  24.175  24.843  1.00  0.00     0.001 A 
ATOM     78  C   UNL A   1      43.160  23.164  25.097  1.00  0.00     0.000 A 
ENDBRANCH  54  73
BRANCH  66  79
ATOM     79  C   UNL A   1      45.157  30.815  29.291  1.00  0.00    -0.014 A 
ATOM     80  C   UNL A   1      46.511  31.192  29.228  1.00  0.00     0.009 A 
ATOM     81  C   UNL A   1      44.306  31.234  28.258  1.00  0.00     0.009 A 
ATOM     82  C   UNL A   1      46.982  32.008  28.194  1.00  0.00     0.001 A 
ATOM     83  C   UNL A   1      44.782  32.027  27.211  1.00  0.00     0.001 A 
ATOM     84  C   UNL A   1      46.115  32.425  27.186  1.00  0.00     0.000 A 
ENDBRANCH  66  79
ENDBRANCH  40  41
ENDBRANCH  33  35
ENDBRANCH  32  33
ENDBRANCH  31  32
ENDBRANCH  30  31
ENDBRANCH  29  30
ENDBRANCH  28  29
ENDBRANCH  27  28
ENDBRANCH   1  27
TORSDOF 24
ENDMDL
MODEL 2
REMARK VINA RESULT:      -9.0      1.950      2.689
REMARK SMILES CCCc1c(C(=O)OCCOCCOCCOCCOC(=O)c2ccc(-c3c4nc(c(-c5ccccc5)c5ccc([nH]5)c(-c5ccccc5)c5nc(c(-c6ccccc6)c6ccc3[nH]6)C=C5)C=C4)cc2)nnn1-c1cc(OC)ccc1F
REMARK SMILES IDX 14 1 13 2 12 3 11 4 10 5 9 6 8 7 6 8 7 9 5 10 4 11 73 12
REMARK SMILES IDX 71 13 72 14 3 15 2 16 1 17 74 18 75 19 81 20 76 21 80 22
REMARK SMILES IDX 82 23 79 24 77 25 78 26 15 27 16 28 17 29 18 30 19 31 20 32
REMARK SMILES IDX 21 33 22 34 23 35 24 36 70 37 25 38 69 39 26 40 27 41 28 42
REMARK SMILES IDX 63 43 29 44 68 45 62 46 64 47 30 48 67 49 61 50 60 51 31 53
REMARK SMILES IDX 53 54 38 55 52 56 39 57 42 58 51 59 65 60 40 61 41 62 50 64
REMARK SMILES IDX 66 65 43 66 32 67 33 68 37 69 34 70 36 71 35 72 54 73 55 74
REMARK SMILES IDX 59 75 56 76 58 77 57 78 44 79 45 80 49 81 46 82 48 83 47 84
REMARK H PARENT 64 52 42 63
REMARK Flexibility Score: inf
ROOT
ATOM      1  O   UNL A   1      32.833  27.214  26.769  1.00  0.00    -0.377 OA
ENDROOT
BRANCH   1   2
ATOM      2  C   UNL A   1      33.969  26.965  25.948  1.00  0.00     0.188 C 
BRANCH   2   3
ATOM      3  C   UNL A   1      34.284  25.554  25.402  1.00  0.00     0.188 C 
BRANCH   3   4
ATOM      4  O   UNL A   1      33.717  24.516  26.171  1.00  0.00    -0.376 OA
BRANCH   4   5
ATOM      5  C   UNL A   1      34.427  23.328  26.420  1.00  0.00     0.202 C 
BRANCH   5   6
ATOM      6  C   UNL A   1      34.226  22.098  25.522  1.00  0.00     0.261 C 
BRANCH   6   7
ATOM      7  O   UNL A   1      34.423  22.286  24.118  1.00  0.00    -0.458 OA
BRANCH   7   8
ATOM      8  C   UNL A   1      33.320  22.182  23.324  1.00  0.00     0.360 C 
ATOM      9  O   UNL A   1      32.663  21.156  23.208  1.00  0.00    -0.244 OA
BRANCH   8  10
ATOM     10  C   UNL A   1      32.929  23.465  22.748  1.00  0.00     0.194 A 
ATOM     11  C   UNL A   1      31.814  24.265  22.984  1.00  0.00     0.080 A 
ATOM     12  N   UNL A   1      32.060  25.378  22.189  1.00  0.00    -0.214 N 
ATOM     13  N   UNL A   1      33.640  24.000  21.697  1.00  0.00    -0.122 NA
ATOM     14  N   UNL A   1      33.028  25.102  21.292  1.00  0.00    -0.061 NA
BRANCH  11  15
ATOM     15  C   UNL A   1      30.550  24.037  23.766  1.00  0.00     0.059 C 
BRANCH  15  16
ATOM     16  C   UNL A   1      30.632  24.277  25.274  1.00  0.00     0.003 C 
ATOM     17  C   UNL A   1      29.984  25.590  25.708  1.00  0.00     0.004 C 
ENDBRANCH  15  16
ENDBRANCH  11  15
BRANCH  12  18
ATOM     18  C   UNL A   1      31.719  26.714  22.426  1.00  0.00     0.106 A 
ATOM     19  C   UNL A   1      30.386  27.134  22.397  1.00  0.00     0.078 A 
ATOM     20  C   UNL A   1      32.745  27.626  22.659  1.00  0.00     0.149 A 
ATOM     21  C   UNL A   1      30.084  28.464  22.714  1.00  0.00     0.121 A 
ATOM     22  C   UNL A   1      32.451  28.946  22.963  1.00  0.00     0.045 A 
ATOM     23  F   UNL A   1      34.030  27.252  22.591  1.00  0.00    -0.205 F 
ATOM     24  C   UNL A   1      31.119  29.360  23.016  1.00  0.00     0.049 A 
BRANCH  21  25
ATOM     25  O   UNL A   1      28.751  28.771  22.717  1.00  0.00    -0.497 OA
ATOM     26  C   UNL A   1      28.369  29.969  22.046  1.00  0.00     0.278 C 
ENDBRANCH  21  25
ENDBRANCH  12  18
ENDBRANCH   8  10
ENDBRANCH   7   8
ENDBRANCH   6   7
ENDBRANCH   5   6
ENDBRANCH   4   5
ENDBRANCH   3   4
ENDBRANCH   2   3
ENDBRANCH   1   2
BRANCH   1  27
ATOM     27  C   UNL A   1      32.122  28.446  26.693  1.00  0.00     0.188 C 
BRANCH  27  28
ATOM     28  C   UNL A   1      32.696  29.773  27.250  1.00  0.00     0.188 C 
BRANCH  28  29
ATOM     29  O   UNL A   1      34.013  30.088  26.848  1.00  0.00    -0.376 OA
BRANCH  29  30
ATOM     30  C   UNL A   1      34.701  31.232  27.305  1.00  0.00     0.202 C 
BRANCH  30  31
ATOM     31  C   UNL A   1      34.382  31.843  28.662  1.00  0.00     0.261 C 
BRANCH  31  32
ATOM     32  O   UNL A   1      35.474  32.445  29.325  1.00  0.00    -0.460 OA
BRANCH  32  33
ATOM     33  C   UNL A   1      35.966  31.724  30.350  1.00  0.00     0.338 C 
ATOM     34  O   UNL A   1      35.746  31.866  31.536  1.00  0.00    -0.246 OA
BRANCH  33  35
ATOM     35  C   UNL A   1      36.965  30.812  29.798  1.00  0.00     0.060 A 
ATOM     36  C   UNL A   1      36.715  29.446  29.919  1.00  0.00     0.016 A 
ATOM     37  C   UNL A   1      38.236  31.328  29.500  1.00  0.00     0.016 A 
ATOM     38  C   UNL A   1      37.798  28.600  29.953  1.00  0.00     0.010 A 
ATOM     39  C   UNL A   1      39.314  30.487  29.561  1.00  0.00     0.010 A 
ATOM     40  C   UNL A   1      39.084  29.152  29.872  1.00  0.00    -0.014 A 
BRANCH  40  41
ATOM     41  C   UNL A   1      40.212  28.262  30.006  1.00  0.00     0.031 A 
ATOM     42  C   UNL A   1      40.729  28.233  31.385  1.00  0.00     0.074 A 
ATOM     43  C   UNL A   1      40.654  27.489  28.998  1.00  0.00     0.049 A 
ATOM     44  N   UNL A   1      41.839  28.737  31.804  1.00  0.00    -0.248 NA
ATOM     45  C   UNL A   1      39.824  27.778  32.454  1.00  0.00     0.031 C 
ATOM     46  C   UNL A   1      40.032  27.266  27.690  1.00  0.00     0.029 A 
ATOM     47  N   UNL A   1      41.714  26.638  28.982  1.00  0.00    -0.354 N 
ATOM     48  C   UNL A   1      41.879  28.445  33.158  1.00  0.00     0.074 A 
ATOM     49  C   UNL A   1      40.541  28.071  33.538  1.00  0.00     0.031 C 
ATOM     50  C   UNL A   1      40.584  26.172  27.119  1.00  0.00     0.029 A 
ATOM     51  C   UNL A   1      41.675  25.701  27.957  1.00  0.00     0.049 A 
ATOM     52  H   UNL A   1      42.446  26.681  29.639  1.00  0.00     0.167 HD
ATOM     53  C   UNL A   1      43.068  28.195  33.769  1.00  0.00     0.031 A 
ATOM     54  C   UNL A   1      42.438  24.582  27.861  1.00  0.00     0.031 A 
ATOM     55  C   UNL A   1      44.178  28.693  32.994  1.00  0.00     0.049 A 
ATOM     56  C   UNL A   1      43.611  24.760  28.748  1.00  0.00     0.074 A 
ATOM     57  C   UNL A   1      44.542  29.928  32.493  1.00  0.00     0.029 A 
ATOM     58  N   UNL A   1      44.903  27.767  32.284  1.00  0.00    -0.354 N 
ATOM     59  N   UNL A   1      44.566  25.610  28.509  1.00  0.00    -0.248 NA
ATOM     60  C   UNL A   1      43.506  24.313  30.128  1.00  0.00     0.031 C 
ATOM     61  C   UNL A   1      45.120  29.658  31.217  1.00  0.00     0.029 A 
ATOM     62  C   UNL A   1      45.150  28.274  31.036  1.00  0.00     0.049 A 
ATOM     63  H   UNL A   1      45.197  26.887  32.616  1.00  0.00     0.167 HD
ATOM     64  C   UNL A   1      44.856  26.163  29.747  1.00  0.00     0.074 A 
ATOM     65  C   UNL A   1      44.265  25.242  30.718  1.00  0.00     0.031 C 
ATOM     66  C   UNL A   1      45.283  27.457  29.850  1.00  0.00     0.031 A 
BRANCH  53  67
ATOM     67  C   UNL A   1      43.223  27.075  34.770  1.00  0.00    -0.014 A 
ATOM     68  C   UNL A   1      43.362  25.764  34.288  1.00  0.00     0.009 A 
ATOM     69  C   UNL A   1      42.939  27.216  36.144  1.00  0.00     0.009 A 
ATOM     70  C   UNL A   1      43.146  24.660  35.121  1.00  0.00     0.001 A 
ATOM     71  C   UNL A   1      42.769  26.119  36.988  1.00  0.00     0.001 A 
ATOM     72  C   UNL A   1      42.843  24.838  36.468  1.00  0.00     0.000 A 
ENDBRANCH  53  67
BRANCH  54  73
ATOM     73  C   UNL A   1      42.089  23.257  27.301  1.00  0.00    -0.014 A 
ATOM     74  C   UNL A   1      42.905  22.660  26.324  1.00  0.00     0.009 A 
ATOM     75  C   UNL A   1      41.126  22.448  27.929  1.00  0.00     0.009 A 
ATOM     76  C   UNL A   1      42.797  21.294  26.030  1.00  0.00     0.001 A 
ATOM     77  C   UNL A   1      41.013  21.086  27.630  1.00  0.00     0.001 A 
ATOM     78  C   UNL A   1      41.863  20.505  26.694  1.00  0.00     0.000 A 
ENDBRANCH  54  73
BRANCH  66  79
ATOM     79  C   UNL A   1      45.718  28.154  28.581  1.00  0.00    -0.014 A 
ATOM     80  C   UNL A   1      47.063  28.350  28.216  1.00  0.00     0.009 A 
ATOM     81  C   UNL A   1      44.723  28.545  27.673  1.00  0.00     0.009 A 
ATOM     82  C   UNL A   1      47.396  28.969  27.006  1.00  0.00     0.001 A 
ATOM     83  C   UNL A   1      45.056  29.139  26.454  1.00  0.00     0.001 A 
ATOM     84  C   UNL A   1      46.390  29.363  26.126  1.00  0.00     0.000 A 
ENDBRANCH  66  79
ENDBRANCH  40  41
ENDBRANCH  33  35
ENDBRANCH  32  33
ENDBRANCH  31  32
ENDBRANCH  30  31
ENDBRANCH  29  30
ENDBRANCH  28  29
ENDBRANCH  27  28
ENDBRANCH   1  27
TORSDOF 24
ENDMDL
MODEL 3
REMARK VINA RESULT:      -8.9      2.108      4.495
REMARK SMILES CCCc1c(C(=O)OCCOCCOCCOCCOC(=O)c2ccc(-c3c4nc(c(-c5ccccc5)c5ccc([nH]5)c(-c5ccccc5)c5nc(c(-c6ccccc6)c6ccc3[nH]6)C=C5)C=C4)cc2)nnn1-c1cc(OC)ccc1F
REMARK SMILES IDX 14 1 13 2 12 3 11 4 10 5 9 6 8 7 6 8 7 9 5 10 4 11 73 12
REMARK SMILES IDX 71 13 72 14 3 15 2 16 1 17 74 18 75 19 81 20 76 21 80 22
REMARK SMILES IDX 82 23 79 24 77 25 78 26 15 27 16 28 17 29 18 30 19 31 20 32
REMARK SMILES IDX 21 33 22 34 23 35 24 36 70 37 25 38 69 39 26 40 27 41 28 42
REMARK SMILES IDX 63 43 29 44 68 45 62 46 64 47 30 48 67 49 61 50 60 51 31 53
REMARK SMILES IDX 53 54 38 55 52 56 39 57 42 58 51 59 65 60 40 61 41 62 50 64
REMARK SMILES IDX 66 65 43 66 32 67 33 68 37 69 34 70 36 71 35 72 54 73 55 74
REMARK SMILES IDX 59 75 56 76 58 77 57 78 44 79 45 80 49 81 46 82 48 83 47 84
REMARK H PARENT 64 52 42 63
REMARK Flexibility Score: inf
ROOT
ATOM      1  O   UNL A   1      32.620  32.361  27.919  1.00  0.00    -0.377 OA
ENDROOT
BRANCH   1   2
ATOM      2  C   UNL A   1      33.012  31.383  26.962  1.00  0.00     0.188 C 
BRANCH   2   3
ATOM      3  C   UNL A   1      32.294  30.018  26.854  1.00  0.00     0.188 C 
BRANCH   3   4
ATOM      4  O   UNL A   1      31.815  29.738  25.558  1.00  0.00    -0.376 OA
BRANCH   4   5
ATOM      5  C   UNL A   1      31.655  28.412  25.115  1.00  0.00     0.202 C 
BRANCH   5   6
ATOM      6  C   UNL A   1      31.838  27.239  26.090  1.00  0.00     0.261 C 
BRANCH   6   7
ATOM      7  O   UNL A   1      30.647  26.627  26.592  1.00  0.00    -0.458 OA
BRANCH   7   8
ATOM      8  C   UNL A   1      30.121  25.609  25.853  1.00  0.00     0.360 C 
ATOM      9  O   UNL A   1      29.203  25.754  25.058  1.00  0.00    -0.244 OA
BRANCH   8  10
ATOM     10  C   UNL A   1      30.873  24.367  26.008  1.00  0.00     0.194 A 
ATOM     11  C   UNL A   1      31.392  23.494  25.055  1.00  0.00     0.080 A 
ATOM     12  N   UNL A   1      32.055  22.551  25.832  1.00  0.00    -0.214 N 
ATOM     13  N   UNL A   1      31.040  23.808  27.255  1.00  0.00    -0.122 NA
ATOM     14  N   UNL A   1      31.656  22.645  27.116  1.00  0.00    -0.061 NA
BRANCH  11  15
ATOM     15  C   UNL A   1      31.233  23.412  23.562  1.00  0.00     0.059 C 
BRANCH  15  16
ATOM     16  C   UNL A   1      32.422  23.886  22.726  1.00  0.00     0.003 C 
ATOM     17  C   UNL A   1      33.201  25.022  23.383  1.00  0.00     0.004 C 
ENDBRANCH  15  16
ENDBRANCH  11  15
BRANCH  12  18
ATOM     18  C   UNL A   1      33.226  21.845  25.537  1.00  0.00     0.106 A 
ATOM     19  C   UNL A   1      34.483  22.367  25.854  1.00  0.00     0.078 A 
ATOM     20  C   UNL A   1      33.111  20.618  24.887  1.00  0.00     0.149 A 
ATOM     21  C   UNL A   1      35.623  21.593  25.609  1.00  0.00     0.121 A 
ATOM     22  C   UNL A   1      34.239  19.854  24.633  1.00  0.00     0.045 A 
ATOM     23  F   UNL A   1      31.917  20.156  24.492  1.00  0.00    -0.205 F 
ATOM     24  C   UNL A   1      35.494  20.329  25.016  1.00  0.00     0.049 A 
BRANCH  21  25
ATOM     25  O   UNL A   1      36.805  22.160  26.003  1.00  0.00    -0.497 OA
ATOM     26  C   UNL A   1      37.286  23.248  25.218  1.00  0.00     0.278 C 
ENDBRANCH  21  25
ENDBRANCH  12  18
ENDBRANCH   8  10
ENDBRANCH   7   8
ENDBRANCH   6   7
ENDBRANCH   5   6
ENDBRANCH   4   5
ENDBRANCH   3   4
ENDBRANCH   2   3
ENDBRANCH   1   2
BRANCH   1  27
ATOM     27  C   UNL A   1      32.743  33.754  27.645  1.00  0.00     0.188 C 
BRANCH  27  28
ATOM     28  C   UNL A   1      33.518  34.719  28.576  1.00  0.00     0.188 C 
BRANCH  28  29
ATOM     29  O   UNL A   1      34.926  34.594  28.555  1.00  0.00    -0.376 OA
BRANCH  29  30
ATOM     30  C   UNL A   1      35.666  34.083  29.641  1.00  0.00     0.202 C 
BRANCH  30  31
ATOM     31  C   UNL A   1      35.165  32.880  30.429  1.00  0.00     0.261 C 
BRANCH  31  32
ATOM     32  O   UNL A   1      35.151  31.658  29.723  1.00  0.00    -0.460 OA
BRANCH  32  33
ATOM     33  C   UNL A   1      36.207  31.476  28.909  1.00  0.00     0.338 C 
ATOM     34  O   UNL A   1      36.282  31.709  27.719  1.00  0.00    -0.246 OA
BRANCH  33  35
ATOM     35  C   UNL A   1      37.235  30.783  29.681  1.00  0.00     0.060 A 
ATOM     36  C   UNL A   1      38.516  31.334  29.675  1.00  0.00     0.016 A 
ATOM     37  C   UNL A   1      36.978  29.464  30.086  1.00  0.00     0.016 A 
ATOM     38  C   UNL A   1      39.578  30.484  29.874  1.00  0.00     0.010 A 
ATOM     39  C   UNL A   1      38.038  28.613  30.256  1.00  0.00     0.010 A 
ATOM     40  C   UNL A   1      39.318  29.120  30.063  1.00  0.00    -0.014 A 
BRANCH  40  41
ATOM     41  C   UNL A   1      40.445  28.226  30.174  1.00  0.00     0.031 A 
ATOM     42  C   UNL A   1      41.022  28.235  31.530  1.00  0.00     0.074 A 
ATOM     43  C   UNL A   1      40.838  27.418  29.173  1.00  0.00     0.049 A 
ATOM     44  N   UNL A   1      42.153  28.743  31.884  1.00  0.00    -0.248 NA
ATOM     45  C   UNL A   1      40.162  27.819  32.651  1.00  0.00     0.031 C 
ATOM     46  C   UNL A   1      40.158  27.161  27.901  1.00  0.00     0.029 A 
ATOM     47  N   UNL A   1      41.891  26.559  29.137  1.00  0.00    -0.354 N 
ATOM     48  C   UNL A   1      42.250  28.491  33.244  1.00  0.00     0.074 A 
ATOM     49  C   UNL A   1      40.928  28.140  33.693  1.00  0.00     0.031 C 
ATOM     50  C   UNL A   1      40.678  26.045  27.340  1.00  0.00     0.029 A 
ATOM     51  C   UNL A   1      41.801  25.592  28.144  1.00  0.00     0.049 A 
ATOM     52  H   UNL A   1      42.651  26.617  29.760  1.00  0.00     0.167 HD
ATOM     53  C   UNL A   1      43.463  28.251  33.811  1.00  0.00     0.031 A 
ATOM     54  C   UNL A   1      42.551  24.464  28.049  1.00  0.00     0.031 A 
ATOM     55  C   UNL A   1      44.541  28.716  32.973  1.00  0.00     0.049 A 
ATOM     56  C   UNL A   1      43.763  24.660  28.878  1.00  0.00     0.074 A 
ATOM     57  C   UNL A   1      44.891  29.932  32.419  1.00  0.00     0.029 A 
ATOM     58  N   UNL A   1      45.229  27.763  32.260  1.00  0.00    -0.354 N 
ATOM     59  N   UNL A   1      44.713  25.495  28.572  1.00  0.00    -0.248 NA
ATOM     60  C   UNL A   1      43.716  24.257  30.275  1.00  0.00     0.031 C 
ATOM     61  C   UNL A   1      45.411  29.619  31.128  1.00  0.00     0.029 A 
ATOM     62  C   UNL A   1      45.424  28.230  30.988  1.00  0.00     0.049 A 
ATOM     63  H   UNL A   1      45.530  26.892  32.607  1.00  0.00     0.167 HD
ATOM     64  C   UNL A   1      45.060  26.083  29.779  1.00  0.00     0.074 A 
ATOM     65  C   UNL A   1      44.506  25.197  30.803  1.00  0.00     0.031 C 
ATOM     66  C   UNL A   1      45.500  27.376  29.823  1.00  0.00     0.031 A 
BRANCH  53  67
ATOM     67  C   UNL A   1      43.654  27.161  34.838  1.00  0.00    -0.014 A 
ATOM     68  C   UNL A   1      43.519  25.825  34.426  1.00  0.00     0.009 A 
ATOM     69  C   UNL A   1      43.662  27.396  36.228  1.00  0.00     0.009 A 
ATOM     70  C   UNL A   1      43.320  24.798  35.356  1.00  0.00     0.001 A 
ATOM     71  C   UNL A   1      43.509  26.369  37.160  1.00  0.00     0.001 A 
ATOM     72  C   UNL A   1      43.308  25.072  36.721  1.00  0.00     0.000 A 
ENDBRANCH  53  67
BRANCH  54  73
ATOM     73  C   UNL A   1      42.169  23.126  27.546  1.00  0.00    -0.014 A 
ATOM     74  C   UNL A   1      40.962  22.531  27.952  1.00  0.00     0.009 A 
ATOM     75  C   UNL A   1      42.837  22.561  26.446  1.00  0.00     0.009 A 
ATOM     76  C   UNL A   1      40.419  21.447  27.248  1.00  0.00     0.001 A 
ATOM     77  C   UNL A   1      42.299  21.474  25.748  1.00  0.00     0.001 A 
ATOM     78  C   UNL A   1      41.079  20.931  26.137  1.00  0.00     0.000 A 
ENDBRANCH  54  73
BRANCH  66  79
ATOM     79  C   UNL A   1      45.883  28.030  28.515  1.00  0.00    -0.014 A 
ATOM     80  C   UNL A   1      44.970  28.689  27.671  1.00  0.00     0.009 A 
ATOM     81  C   UNL A   1      47.243  28.060  28.169  1.00  0.00     0.009 A 
ATOM     82  C   UNL A   1      45.400  29.308  26.493  1.00  0.00     0.001 A 
ATOM     83  C   UNL A   1      47.674  28.701  27.006  1.00  0.00     0.001 A 
ATOM     84  C   UNL A   1      46.753  29.313  26.161  1.00  0.00     0.000 A 
ENDBRANCH  66  79
ENDBRANCH  40  41
ENDBRANCH  33  35
ENDBRANCH  32  33
ENDBRANCH  31  32
ENDBRANCH  30  31
ENDBRANCH  29  30
ENDBRANCH  28  29
ENDBRANCH  27  28
ENDBRANCH   1  27
TORSDOF 24
ENDMDL
