MODEL 1
REMARK VINA RESULT:      -9.7      0.000      0.000
REMARK SMILES C[C@@H](C(=O)OCCOCCOCCOCCOC(=O)c1ccc(-c2c3nc(c(-c4ccccc4)c4ccc([nH]4)c(-c4ccccc4)c4nc(c(-c5ccccc5)c5ccc2[nH]5)C=C4)C=C3)cc1)c1ccc(Cc2cccs2)cc1F
REMARK SMILES IDX 10 1 9 2 8 3 7 4 6 5 5 6 3 7 4 8 2 9 1 10 68 11 69 12 79 13
REMARK SMILES IDX 70 14 78 15 80 16 71 17 72 18 73 19 74 20 77 21 75 22 76 23
REMARK SMILES IDX 11 24 12 25 13 26 14 27 15 28 16 29 17 30 18 31 19 32 20 33
REMARK SMILES IDX 21 34 67 35 22 36 66 37 23 38 24 39 25 40 60 41 26 42 65 43
REMARK SMILES IDX 59 44 61 45 27 46 64 47 58 48 57 49 28 51 50 52 35 53 49 54
REMARK SMILES IDX 36 55 39 56 48 57 62 58 37 59 38 60 47 62 63 63 40 64 29 65
REMARK SMILES IDX 30 66 34 67 31 68 33 69 32 70 51 71 52 72 56 73 53 74 55 75
REMARK SMILES IDX 54 76 41 77 42 78 46 79 43 80 45 81 44 82
REMARK H PARENT 61 50 39 61
REMARK Flexibility Score: inf
ROOT
ATOM      1  C   UNL A   1      33.569  34.083  28.253  1.00  0.00     0.188 C 
ENDROOT
BRANCH   1   2
ATOM      2  C   UNL A   1      33.134  32.630  28.005  1.00  0.00     0.188 C 
BRANCH   2   3
ATOM      3  O   UNL A   1      33.957  31.828  27.182  1.00  0.00    -0.376 OA
BRANCH   3   4
ATOM      4  C   UNL A   1      34.482  30.592  27.643  1.00  0.00     0.202 C 
BRANCH   4   5
ATOM      5  C   UNL A   1      34.143  29.194  27.078  1.00  0.00     0.261 C 
BRANCH   5   6
ATOM      6  O   UNL A   1      33.013  28.526  27.646  1.00  0.00    -0.463 OA
BRANCH   6   7
ATOM      7  C   UNL A   1      32.090  28.010  26.801  1.00  0.00     0.313 C 
ATOM      8  O   UNL A   1      31.059  27.454  27.168  1.00  0.00    -0.252 OA
BRANCH   7   9
ATOM      9  C   UNL A   1      32.411  28.291  25.326  1.00  0.00     0.129 C 
ATOM     10  C   UNL A   1      31.405  29.271  24.696  1.00  0.00     0.025 C 
BRANCH   9  11
ATOM     11  C   UNL A   1      32.766  27.033  24.522  1.00  0.00     0.002 A 
ATOM     12  C   UNL A   1      31.993  26.662  23.407  1.00  0.00     0.008 A 
ATOM     13  C   UNL A   1      33.776  26.139  24.903  1.00  0.00     0.127 A 
ATOM     14  C   UNL A   1      32.214  25.465  22.720  1.00  0.00     0.004 A 
ATOM     15  C   UNL A   1      33.976  24.916  24.245  1.00  0.00     0.043 A 
ATOM     16  F   UNL A   1      34.574  26.416  25.943  1.00  0.00    -0.207 F 
ATOM     17  C   UNL A   1      33.169  24.547  23.164  1.00  0.00    -0.040 A 
BRANCH  17  18
ATOM     18  C   UNL A   1      33.278  23.182  22.515  1.00  0.00     0.082 C 
BRANCH  18  19
ATOM     19  C   UNL A   1      33.240  22.042  23.510  1.00  0.00     0.009 A 
ATOM     20  C   UNL A   1      32.194  21.189  23.818  1.00  0.00     0.016 A 
ATOM     21  S   UNL A   1      34.642  21.638  24.416  1.00  0.00    -0.149 S 
ATOM     22  C   UNL A   1      32.534  20.231  24.815  1.00  0.00     0.012 A 
ATOM     23  C   UNL A   1      33.843  20.355  25.217  1.00  0.00     0.065 A 
ENDBRANCH  18  19
ENDBRANCH  17  18
ENDBRANCH   9  11
ENDBRANCH   7   9
ENDBRANCH   6   7
ENDBRANCH   5   6
ENDBRANCH   4   5
ENDBRANCH   3   4
ENDBRANCH   2   3
ENDBRANCH   1   2
BRANCH   1  24
ATOM     24  O   UNL A   1      32.580  34.923  28.819  1.00  0.00    -0.377 OA
BRANCH  24  25
ATOM     25  C   UNL A   1      32.931  36.256  29.167  1.00  0.00     0.188 C 
BRANCH  25  26
ATOM     26  C   UNL A   1      33.114  36.681  30.641  1.00  0.00     0.188 C 
BRANCH  26  27
ATOM     27  O   UNL A   1      32.567  35.789  31.598  1.00  0.00    -0.376 OA
BRANCH  27  28
ATOM     28  C   UNL A   1      33.451  35.054  32.429  1.00  0.00     0.202 C 
BRANCH  28  29
ATOM     29  C   UNL A   1      34.675  34.402  31.766  1.00  0.00     0.261 C 
BRANCH  29  30
ATOM     30  O   UNL A   1      34.829  32.987  31.965  1.00  0.00    -0.460 OA
BRANCH  30  31
ATOM     31  C   UNL A   1      35.762  32.568  32.842  1.00  0.00     0.338 C 
ATOM     32  O   UNL A   1      35.739  32.679  34.057  1.00  0.00    -0.246 OA
BRANCH  31  33
ATOM     33  C   UNL A   1      36.752  31.764  32.098  1.00  0.00     0.060 A 
ATOM     34  C   UNL A   1      37.741  31.074  32.812  1.00  0.00     0.016 A 
ATOM     35  C   UNL A   1      36.705  31.690  30.704  1.00  0.00     0.016 A 
ATOM     36  C   UNL A   1      38.714  30.342  32.130  1.00  0.00     0.010 A 
ATOM     37  C   UNL A   1      37.692  30.974  30.022  1.00  0.00     0.010 A 
ATOM     38  C   UNL A   1      38.723  30.329  30.729  1.00  0.00    -0.014 A 
BRANCH  38  39
ATOM     39  C   UNL A   1      39.915  29.823  30.007  1.00  0.00     0.031 A 
ATOM     40  C   UNL A   1      41.077  30.757  29.810  1.00  0.00     0.074 A 
ATOM     41  C   UNL A   1      39.982  28.559  29.555  1.00  0.00     0.049 A 
ATOM     42  N   UNL A   1      42.202  30.564  29.169  1.00  0.00    -0.248 NA
ATOM     43  C   UNL A   1      40.952  32.094  30.417  1.00  0.00     0.031 C 
ATOM     44  C   UNL A   1      38.950  27.539  29.727  1.00  0.00     0.029 A 
ATOM     45  N   UNL A   1      40.972  27.923  28.847  1.00  0.00    -0.354 N 
ATOM     46  C   UNL A   1      42.912  31.752  29.290  1.00  0.00     0.074 A 
ATOM     47  C   UNL A   1      42.079  32.672  30.033  1.00  0.00     0.031 C 
ATOM     48  C   UNL A   1      39.356  26.405  29.129  1.00  0.00     0.029 A 
ATOM     49  C   UNL A   1      40.657  26.632  28.501  1.00  0.00     0.049 A 
ATOM     50  H   UNL A   1      41.826  28.351  28.610  1.00  0.00     0.167 HD
ATOM     51  C   UNL A   1      44.148  32.052  28.829  1.00  0.00     0.031 A 
ATOM     52  C   UNL A   1      41.330  25.745  27.741  1.00  0.00     0.031 A 
ATOM     53  C   UNL A   1      44.969  31.146  28.070  1.00  0.00     0.049 A 
ATOM     54  C   UNL A   1      42.665  26.134  27.156  1.00  0.00     0.074 A 
ATOM     55  C   UNL A   1      46.238  31.354  27.559  1.00  0.00     0.029 A 
ATOM     56  N   UNL A   1      44.594  29.863  27.704  1.00  0.00    -0.354 N 
ATOM     57  N   UNL A   1      43.335  27.253  27.292  1.00  0.00    -0.248 NA
ATOM     58  C   UNL A   1      43.338  25.130  26.318  1.00  0.00     0.031 C 
ATOM     59  C   UNL A   1      46.605  30.220  26.830  1.00  0.00     0.029 A 
ATOM     60  C   UNL A   1      45.597  29.277  26.949  1.00  0.00     0.049 A 
ATOM     61  H   UNL A   1      43.743  29.431  27.946  1.00  0.00     0.167 HD
ATOM     62  C   UNL A   1      44.520  27.075  26.586  1.00  0.00     0.074 A 
ATOM     63  C   UNL A   1      44.484  25.736  26.037  1.00  0.00     0.031 C 
ATOM     64  C   UNL A   1      45.547  27.942  26.410  1.00  0.00     0.031 A 
BRANCH  51  65
ATOM     65  C   UNL A   1      44.670  33.437  29.099  1.00  0.00    -0.014 A 
ATOM     66  C   UNL A   1      44.438  34.494  28.205  1.00  0.00     0.009 A 
ATOM     67  C   UNL A   1      45.384  33.692  30.280  1.00  0.00     0.009 A 
ATOM     68  C   UNL A   1      44.942  35.769  28.471  1.00  0.00     0.001 A 
ATOM     69  C   UNL A   1      45.858  34.975  30.560  1.00  0.00     0.001 A 
ATOM     70  C   UNL A   1      45.646  36.010  29.650  1.00  0.00     0.000 A 
ENDBRANCH  51  65
BRANCH  52  71
ATOM     71  C   UNL A   1      40.745  24.407  27.456  1.00  0.00    -0.014 A 
ATOM     72  C   UNL A   1      41.306  23.243  28.002  1.00  0.00     0.009 A 
ATOM     73  C   UNL A   1      39.633  24.286  26.605  1.00  0.00     0.009 A 
ATOM     74  C   UNL A   1      40.786  21.986  27.680  1.00  0.00     0.001 A 
ATOM     75  C   UNL A   1      39.095  23.032  26.311  1.00  0.00     0.001 A 
ATOM     76  C   UNL A   1      39.678  21.882  26.840  1.00  0.00     0.000 A 
ENDBRANCH  52  71
BRANCH  64  77
ATOM     77  C   UNL A   1      46.741  27.457  25.632  1.00  0.00    -0.014 A 
ATOM     78  C   UNL A   1      47.747  26.683  26.232  1.00  0.00     0.009 A 
ATOM     79  C   UNL A   1      46.834  27.742  24.259  1.00  0.00     0.009 A 
ATOM     80  C   UNL A   1      48.839  26.238  25.482  1.00  0.00     0.001 A 
ATOM     81  C   UNL A   1      47.908  27.266  23.506  1.00  0.00     0.001 A 
ATOM     82  C   UNL A   1      48.915  26.525  24.120  1.00  0.00     0.000 A 
ENDBRANCH  64  77
ENDBRANCH  38  39
ENDBRANCH  31  33
ENDBRANCH  30  31
ENDBRANCH  29  30
ENDBRANCH  28  29
ENDBRANCH  27  28
ENDBRANCH  26  27
ENDBRANCH  25  26
ENDBRANCH  24  25
ENDBRANCH   1  24
TORSDOF 23
ENDMDL
MODEL 2
REMARK VINA RESULT:      -8.8      5.548     11.974
REMARK SMILES C[C@@H](C(=O)OCCOCCOCCOCCOC(=O)c1ccc(-c2c3nc(c(-c4ccccc4)c4ccc([nH]4)c(-c4ccccc4)c4nc(c(-c5ccccc5)c5ccc2[nH]5)C=C4)C=C3)cc1)c1ccc(Cc2cccs2)cc1F
REMARK SMILES IDX 10 1 9 2 8 3 7 4 6 5 5 6 3 7 4 8 2 9 1 10 68 11 69 12 79 13
REMARK SMILES IDX 70 14 78 15 80 16 71 17 72 18 73 19 74 20 77 21 75 22 76 23
REMARK SMILES IDX 11 24 12 25 13 26 14 27 15 28 16 29 17 30 18 31 19 32 20 33
REMARK SMILES IDX 21 34 67 35 22 36 66 37 23 38 24 39 25 40 60 41 26 42 65 43
REMARK SMILES IDX 59 44 61 45 27 46 64 47 58 48 57 49 28 51 50 52 35 53 49 54
REMARK SMILES IDX 36 55 39 56 48 57 62 58 37 59 38 60 47 62 63 63 40 64 29 65
REMARK SMILES IDX 30 66 34 67 31 68 33 69 32 70 51 71 52 72 56 73 53 74 55 75
REMARK SMILES IDX 54 76 41 77 42 78 46 79 43 80 45 81 44 82
REMARK H PARENT 61 50 39 61
REMARK Flexibility Score: inf
ROOT
ATOM      1  C   UNL A   1      41.808  19.504  26.046  1.00  0.00     0.188 C 
ENDROOT
BRANCH   1   2
ATOM      2  C   UNL A   1      41.731  20.028  27.489  1.00  0.00     0.188 C 
BRANCH   2   3
ATOM      3  O   UNL A   1      40.624  20.834  27.839  1.00  0.00    -0.376 OA
BRANCH   3   4
ATOM      4  C   UNL A   1      40.096  21.795  26.938  1.00  0.00     0.202 C 
BRANCH   4   5
ATOM      5  C   UNL A   1      40.476  23.292  26.881  1.00  0.00     0.261 C 
BRANCH   5   6
ATOM      6  O   UNL A   1      41.796  23.638  27.309  1.00  0.00    -0.463 OA
BRANCH   6   7
ATOM      7  C   UNL A   1      41.977  24.844  27.897  1.00  0.00     0.313 C 
ATOM      8  O   UNL A   1      42.763  25.048  28.817  1.00  0.00    -0.252 OA
BRANCH   7   9
ATOM      9  C   UNL A   1      41.175  25.964  27.218  1.00  0.00     0.129 C 
ATOM     10  C   UNL A   1      41.874  26.481  25.948  1.00  0.00     0.025 C 
BRANCH   9  11
ATOM     11  C   UNL A   1      40.627  27.010  28.196  1.00  0.00     0.002 A 
ATOM     12  C   UNL A   1      41.216  28.285  28.276  1.00  0.00     0.008 A 
ATOM     13  C   UNL A   1      39.614  26.735  29.125  1.00  0.00     0.127 A 
ATOM     14  C   UNL A   1      40.821  29.223  29.233  1.00  0.00     0.004 A 
ATOM     15  C   UNL A   1      39.241  27.656  30.116  1.00  0.00     0.043 A 
ATOM     16  F   UNL A   1      38.983  25.554  29.114  1.00  0.00    -0.207 F 
ATOM     17  C   UNL A   1      39.868  28.903  30.204  1.00  0.00    -0.040 A 
BRANCH  17  18
ATOM     18  C   UNL A   1      39.577  29.867  31.337  1.00  0.00     0.082 C 
BRANCH  18  19
ATOM     19  C   UNL A   1      38.495  30.871  31.003  1.00  0.00     0.009 A 
ATOM     20  C   UNL A   1      38.624  32.161  30.519  1.00  0.00     0.016 A 
ATOM     21  S   UNL A   1      36.839  30.450  31.178  1.00  0.00    -0.149 S 
ATOM     22  C   UNL A   1      37.372  32.810  30.325  1.00  0.00     0.012 A 
ATOM     23  C   UNL A   1      36.316  31.985  30.632  1.00  0.00     0.065 A 
ENDBRANCH  18  19
ENDBRANCH  17  18
ENDBRANCH   9  11
ENDBRANCH   7   9
ENDBRANCH   6   7
ENDBRANCH   5   6
ENDBRANCH   4   5
ENDBRANCH   3   4
ENDBRANCH   2   3
ENDBRANCH   1   2
BRANCH   1  24
ATOM     24  O   UNL A   1      42.943  19.921  25.310  1.00  0.00    -0.377 OA
BRANCH  24  25
ATOM     25  C   UNL A   1      43.626  21.101  25.715  1.00  0.00     0.188 C 
BRANCH  25  26
ATOM     26  C   UNL A   1      45.060  21.407  25.228  1.00  0.00     0.188 C 
BRANCH  26  27
ATOM     27  O   UNL A   1      45.204  22.614  24.498  1.00  0.00    -0.376 OA
BRANCH  27  28
ATOM     28  C   UNL A   1      46.413  23.346  24.622  1.00  0.00     0.202 C 
BRANCH  28  29
ATOM     29  C   UNL A   1      46.320  24.880  24.620  1.00  0.00     0.261 C 
BRANCH  29  30
ATOM     30  O   UNL A   1      47.447  25.588  25.164  1.00  0.00    -0.460 OA
BRANCH  30  31
ATOM     31  C   UNL A   1      47.714  25.442  26.476  1.00  0.00     0.338 C 
ATOM     32  O   UNL A   1      48.555  24.719  26.986  1.00  0.00    -0.246 OA
BRANCH  31  33
ATOM     33  C   UNL A   1      46.938  26.462  27.210  1.00  0.00     0.060 A 
ATOM     34  C   UNL A   1      47.606  27.306  28.107  1.00  0.00     0.016 A 
ATOM     35  C   UNL A   1      45.561  26.585  27.014  1.00  0.00     0.016 A 
ATOM     36  C   UNL A   1      46.889  28.249  28.844  1.00  0.00     0.010 A 
ATOM     37  C   UNL A   1      44.842  27.516  27.769  1.00  0.00     0.010 A 
ATOM     38  C   UNL A   1      45.496  28.325  28.715  1.00  0.00    -0.014 A 
BRANCH  38  39
ATOM     39  C   UNL A   1      44.706  29.093  29.708  1.00  0.00     0.031 A 
ATOM     40  C   UNL A   1      44.289  28.399  30.975  1.00  0.00     0.074 A 
ATOM     41  C   UNL A   1      44.385  30.383  29.507  1.00  0.00     0.049 A 
ATOM     42  N   UNL A   1      43.555  28.843  31.963  1.00  0.00    -0.248 NA
ATOM     43  C   UNL A   1      44.763  27.016  31.150  1.00  0.00     0.031 C 
ATOM     44  C   UNL A   1      44.773  31.186  28.349  1.00  0.00     0.029 A 
ATOM     45  N   UNL A   1      43.644  31.242  30.282  1.00  0.00    -0.354 N 
ATOM     46  C   UNL A   1      43.473  27.793  32.871  1.00  0.00     0.074 A 
ATOM     47  C   UNL A   1      44.201  26.681  32.301  1.00  0.00     0.031 C 
ATOM     48  C   UNL A   1      44.256  32.419  28.484  1.00  0.00     0.029 A 
ATOM     49  C   UNL A   1      43.471  32.481  29.716  1.00  0.00     0.049 A 
ATOM     50  H   UNL A   1      43.273  30.993  31.159  1.00  0.00     0.167 HD
ATOM     51  C   UNL A   1      42.852  27.757  34.073  1.00  0.00     0.031 A 
ATOM     52  C   UNL A   1      42.740  33.534  30.133  1.00  0.00     0.031 A 
ATOM     53  C   UNL A   1      42.109  28.855  34.630  1.00  0.00     0.049 A 
ATOM     54  C   UNL A   1      41.977  33.438  31.430  1.00  0.00     0.074 A 
ATOM     55  C   UNL A   1      41.445  28.919  35.843  1.00  0.00     0.029 A 
ATOM     56  N   UNL A   1      41.921  30.078  34.006  1.00  0.00    -0.354 N 
ATOM     57  N   UNL A   1      41.923  32.449  32.289  1.00  0.00    -0.248 NA
ATOM     58  C   UNL A   1      41.181  34.613  31.819  1.00  0.00     0.031 C 
ATOM     59  C   UNL A   1      40.803  30.158  35.923  1.00  0.00     0.029 A 
ATOM     60  C   UNL A   1      41.128  30.894  34.795  1.00  0.00     0.049 A 
ATOM     61  H   UNL A   1      42.298  30.330  33.131  1.00  0.00     0.167 HD
ATOM     62  C   UNL A   1      41.116  32.892  33.331  1.00  0.00     0.074 A 
ATOM     63  C   UNL A   1      40.717  34.245  33.005  1.00  0.00     0.031 C 
ATOM     64  C   UNL A   1      40.740  32.239  34.458  1.00  0.00     0.031 A 
BRANCH  51  65
ATOM     65  C   UNL A   1      42.918  26.469  34.847  1.00  0.00    -0.014 A 
ATOM     66  C   UNL A   1      41.898  25.509  34.758  1.00  0.00     0.009 A 
ATOM     67  C   UNL A   1      44.032  26.202  35.658  1.00  0.00     0.009 A 
ATOM     68  C   UNL A   1      41.976  24.324  35.495  1.00  0.00     0.001 A 
ATOM     69  C   UNL A   1      44.123  25.004  36.368  1.00  0.00     0.001 A 
ATOM     70  C   UNL A   1      43.090  24.071  36.294  1.00  0.00     0.000 A 
ENDBRANCH  51  65
BRANCH  52  71
ATOM     71  C   UNL A   1      42.662  34.766  29.303  1.00  0.00    -0.014 A 
ATOM     72  C   UNL A   1      43.595  35.802  29.458  1.00  0.00     0.009 A 
ATOM     73  C   UNL A   1      41.626  34.925  28.367  1.00  0.00     0.009 A 
ATOM     74  C   UNL A   1      43.477  36.981  28.717  1.00  0.00     0.001 A 
ATOM     75  C   UNL A   1      41.530  36.090  27.603  1.00  0.00     0.001 A 
ATOM     76  C   UNL A   1      42.448  37.122  27.786  1.00  0.00     0.000 A 
ENDBRANCH  52  71
BRANCH  64  77
ATOM     77  C   UNL A   1      39.893  32.992  35.448  1.00  0.00    -0.014 A 
ATOM     78  C   UNL A   1      38.491  32.907  35.433  1.00  0.00     0.009 A 
ATOM     79  C   UNL A   1      40.513  33.763  36.445  1.00  0.00     0.009 A 
ATOM     80  C   UNL A   1      37.730  33.610  36.371  1.00  0.00     0.001 A 
ATOM     81  C   UNL A   1      39.751  34.435  37.402  1.00  0.00     0.001 A 
ATOM     82  C   UNL A   1      38.361  34.367  37.357  1.00  0.00     0.000 A 
ENDBRANCH  64  77
ENDBRANCH  38  39
ENDBRANCH  31  33
ENDBRANCH  30  31
ENDBRANCH  29  30
ENDBRANCH  28  29
ENDBRANCH  27  28
ENDBRANCH  26  27
ENDBRANCH  25  26
ENDBRANCH  24  25
ENDBRANCH   1  24
TORSDOF 23
ENDMDL
MODEL 3
REMARK VINA RESULT:      -8.1      4.340      7.571
REMARK SMILES C[C@@H](C(=O)OCCOCCOCCOCCOC(=O)c1ccc(-c2c3nc(c(-c4ccccc4)c4ccc([nH]4)c(-c4ccccc4)c4nc(c(-c5ccccc5)c5ccc2[nH]5)C=C4)C=C3)cc1)c1ccc(Cc2cccs2)cc1F
REMARK SMILES IDX 10 1 9 2 8 3 7 4 6 5 5 6 3 7 4 8 2 9 1 10 68 11 69 12 79 13
REMARK SMILES IDX 70 14 78 15 80 16 71 17 72 18 73 19 74 20 77 21 75 22 76 23
REMARK SMILES IDX 11 24 12 25 13 26 14 27 15 28 16 29 17 30 18 31 19 32 20 33
REMARK SMILES IDX 21 34 67 35 22 36 66 37 23 38 24 39 25 40 60 41 26 42 65 43
REMARK SMILES IDX 59 44 61 45 27 46 64 47 58 48 57 49 28 51 50 52 35 53 49 54
REMARK SMILES IDX 36 55 39 56 48 57 62 58 37 59 38 60 47 62 63 63 40 64 29 65
REMARK SMILES IDX 30 66 34 67 31 68 33 69 32 70 51 71 52 72 56 73 53 74 55 75
REMARK SMILES IDX 54 76 41 77 42 78 46 79 43 80 45 81 44 82
REMARK H PARENT 61 50 39 61
REMARK Flexibility Score: inf
ROOT
ATOM      1  C   UNL A   1      34.643  34.235  30.387  1.00  0.00     0.188 C 
ENDROOT
BRANCH   1   2
ATOM      2  C   UNL A   1      35.827  33.276  30.186  1.00  0.00     0.188 C 
BRANCH   2   3
ATOM      3  O   UNL A   1      35.551  31.891  30.127  1.00  0.00    -0.376 OA
BRANCH   3   4
ATOM      4  C   UNL A   1      36.032  31.087  29.060  1.00  0.00     0.202 C 
BRANCH   4   5
ATOM      5  C   UNL A   1      37.498  30.649  28.843  1.00  0.00     0.261 C 
BRANCH   5   6
ATOM      6  O   UNL A   1      38.150  30.010  29.944  1.00  0.00    -0.463 OA
BRANCH   6   7
ATOM      7  C   UNL A   1      37.516  28.975  30.543  1.00  0.00     0.313 C 
ATOM      8  O   UNL A   1      36.317  28.966  30.808  1.00  0.00    -0.252 OA
BRANCH   7   9
ATOM      9  C   UNL A   1      38.430  27.761  30.758  1.00  0.00     0.129 C 
ATOM     10  C   UNL A   1      38.638  27.456  32.253  1.00  0.00     0.025 C 
BRANCH   9  11
ATOM     11  C   UNL A   1      39.672  27.757  29.858  1.00  0.00     0.002 A 
ATOM     12  C   UNL A   1      40.526  28.874  29.823  1.00  0.00     0.008 A 
ATOM     13  C   UNL A   1      39.963  26.724  28.956  1.00  0.00     0.127 A 
ATOM     14  C   UNL A   1      41.600  28.954  28.932  1.00  0.00     0.004 A 
ATOM     15  C   UNL A   1      41.013  26.816  28.030  1.00  0.00     0.043 A 
ATOM     16  F   UNL A   1      39.214  25.613  28.929  1.00  0.00    -0.207 F 
ATOM     17  C   UNL A   1      41.825  27.953  27.984  1.00  0.00    -0.040 A 
BRANCH  17  18
ATOM     18  C   UNL A   1      42.884  28.136  26.915  1.00  0.00     0.082 C 
BRANCH  18  19
ATOM     19  C   UNL A   1      43.486  26.830  26.441  1.00  0.00     0.009 A 
ATOM     20  C   UNL A   1      44.475  26.063  27.029  1.00  0.00     0.016 A 
ATOM     21  S   UNL A   1      42.914  26.088  25.001  1.00  0.00    -0.149 S 
ATOM     22  C   UNL A   1      44.784  24.889  26.285  1.00  0.00     0.012 A 
ATOM     23  C   UNL A   1      43.996  24.773  25.164  1.00  0.00     0.065 A 
ENDBRANCH  18  19
ENDBRANCH  17  18
ENDBRANCH   9  11
ENDBRANCH   7   9
ENDBRANCH   6   7
ENDBRANCH   5   6
ENDBRANCH   4   5
ENDBRANCH   3   4
ENDBRANCH   2   3
ENDBRANCH   1   2
BRANCH   1  24
ATOM     24  O   UNL A   1      33.750  33.885  31.427  1.00  0.00    -0.377 OA
BRANCH  24  25
ATOM     25  C   UNL A   1      33.403  34.870  32.392  1.00  0.00     0.188 C 
BRANCH  25  26
ATOM     26  C   UNL A   1      34.412  35.953  32.835  1.00  0.00     0.188 C 
BRANCH  26  27
ATOM     27  O   UNL A   1      35.600  35.461  33.433  1.00  0.00    -0.376 OA
BRANCH  27  28
ATOM     28  C   UNL A   1      35.512  34.353  34.315  1.00  0.00     0.202 C 
BRANCH  28  29
ATOM     29  C   UNL A   1      36.715  34.074  35.231  1.00  0.00     0.261 C 
BRANCH  29  30
ATOM     30  O   UNL A   1      37.029  32.692  35.467  1.00  0.00    -0.460 OA
BRANCH  30  31
ATOM     31  C   UNL A   1      38.092  32.407  36.245  1.00  0.00     0.338 C 
ATOM     32  O   UNL A   1      38.162  32.489  37.461  1.00  0.00    -0.246 OA
BRANCH  31  33
ATOM     33  C   UNL A   1      39.121  31.782  35.391  1.00  0.00     0.060 A 
ATOM     34  C   UNL A   1      40.470  32.076  35.629  1.00  0.00     0.016 A 
ATOM     35  C   UNL A   1      38.759  30.911  34.362  1.00  0.00     0.016 A 
ATOM     36  C   UNL A   1      41.460  31.533  34.810  1.00  0.00     0.010 A 
ATOM     37  C   UNL A   1      39.750  30.384  33.529  1.00  0.00     0.010 A 
ATOM     38  C   UNL A   1      41.100  30.723  33.725  1.00  0.00    -0.014 A 
BRANCH  38  39
ATOM     39  C   UNL A   1      42.104  30.404  32.680  1.00  0.00     0.031 A 
ATOM     40  C   UNL A   1      42.786  29.065  32.734  1.00  0.00     0.074 A 
ATOM     41  C   UNL A   1      42.390  31.268  31.690  1.00  0.00     0.049 A 
ATOM     42  N   UNL A   1      43.730  28.581  31.968  1.00  0.00    -0.248 NA
ATOM     43  C   UNL A   1      42.345  28.148  33.799  1.00  0.00     0.031 C 
ATOM     44  C   UNL A   1      41.763  32.573  31.493  1.00  0.00     0.029 A 
ATOM     45  N   UNL A   1      43.298  31.170  30.664  1.00  0.00    -0.354 N 
ATOM     46  C   UNL A   1      44.000  27.310  32.462  1.00  0.00     0.074 A 
ATOM     47  C   UNL A   1      43.147  27.112  33.613  1.00  0.00     0.031 C 
ATOM     48  C   UNL A   1      42.313  33.162  30.417  1.00  0.00     0.029 A 
ATOM     49  C   UNL A   1      43.356  32.292  29.874  1.00  0.00     0.049 A 
ATOM     50  H   UNL A   1      43.853  30.373  30.510  1.00  0.00     0.167 HD
ATOM     51  C   UNL A   1      44.874  26.388  31.998  1.00  0.00     0.031 A 
ATOM     52  C   UNL A   1      44.176  32.592  28.848  1.00  0.00     0.031 A 
ATOM     53  C   UNL A   1      45.740  26.593  30.867  1.00  0.00     0.049 A 
ATOM     54  C   UNL A   1      45.211  31.586  28.408  1.00  0.00     0.074 A 
ATOM     55  C   UNL A   1      46.660  25.717  30.317  1.00  0.00     0.029 A 
ATOM     56  N   UNL A   1      45.798  27.759  30.121  1.00  0.00    -0.354 N 
ATOM     57  N   UNL A   1      45.443  30.380  28.869  1.00  0.00    -0.248 NA
ATOM     58  C   UNL A   1      46.090  31.982  27.297  1.00  0.00     0.031 C 
ATOM     59  C   UNL A   1      47.321  26.378  29.277  1.00  0.00     0.029 A 
ATOM     60  C   UNL A   1      46.760  27.637  29.132  1.00  0.00     0.049 A 
ATOM     61  H   UNL A   1      45.238  28.554  30.271  1.00  0.00     0.167 HD
ATOM     62  C   UNL A   1      46.470  29.865  28.087  1.00  0.00     0.074 A 
ATOM     63  C   UNL A   1      46.804  30.881  27.111  1.00  0.00     0.031 C 
ATOM     64  C   UNL A   1      47.081  28.657  28.166  1.00  0.00     0.031 A 
BRANCH  51  65
ATOM     65  C   UNL A   1      44.967  25.085  32.745  1.00  0.00    -0.014 A 
ATOM     66  C   UNL A   1      45.848  24.922  33.826  1.00  0.00     0.009 A 
ATOM     67  C   UNL A   1      44.139  24.013  32.377  1.00  0.00     0.009 A 
ATOM     68  C   UNL A   1      45.924  23.699  34.497  1.00  0.00     0.001 A 
ATOM     69  C   UNL A   1      44.194  22.803  33.071  1.00  0.00     0.001 A 
ATOM     70  C   UNL A   1      45.094  22.644  34.123  1.00  0.00     0.000 A 
ENDBRANCH  51  65
BRANCH  52  71
ATOM     71  C   UNL A   1      44.083  33.917  28.177  1.00  0.00    -0.014 A 
ATOM     72  C   UNL A   1      43.379  34.069  26.974  1.00  0.00     0.009 A 
ATOM     73  C   UNL A   1      44.730  35.036  28.727  1.00  0.00     0.009 A 
ATOM     74  C   UNL A   1      43.348  35.304  26.320  1.00  0.00     0.001 A 
ATOM     75  C   UNL A   1      44.670  36.278  28.090  1.00  0.00     0.001 A 
ATOM     76  C   UNL A   1      43.988  36.408  26.882  1.00  0.00     0.000 A 
ENDBRANCH  52  71
BRANCH  64  77
ATOM     77  C   UNL A   1      48.140  28.344  27.144  1.00  0.00    -0.014 A 
ATOM     78  C   UNL A   1      47.826  27.722  25.925  1.00  0.00     0.009 A 
ATOM     79  C   UNL A   1      49.470  28.723  27.387  1.00  0.00     0.009 A 
ATOM     80  C   UNL A   1      48.828  27.452  24.990  1.00  0.00     0.001 A 
ATOM     81  C   UNL A   1      50.463  28.485  26.435  1.00  0.00     0.001 A 
ATOM     82  C   UNL A   1      50.143  27.839  25.243  1.00  0.00     0.000 A 
ENDBRANCH  64  77
ENDBRANCH  38  39
ENDBRANCH  31  33
ENDBRANCH  30  31
ENDBRANCH  29  30
ENDBRANCH  28  29
ENDBRANCH  27  28
ENDBRANCH  26  27
ENDBRANCH  25  26
ENDBRANCH  24  25
ENDBRANCH   1  24
TORSDOF 23
ENDMDL
