MODEL 1
REMARK VINA RESULT:      -9.0      0.000      0.000
REMARK SMILES CC[C@H]1CC[C@](Cc2cccc(OC)n2)(C(=O)OCCOCCOCCOCCOC(=O)c2ccc(-c3c4nc(c(-c5ccccc5)c5ccc([nH]5)c(-c5ccccc5)c5nc(c(-c6ccccc6)c6ccc3[nH]6)C=C5)C=C4)cc2)C1
REMARK SMILES IDX 23 1 22 2 21 3 20 4 19 5 18 6 16 7 17 8 6 9 3 10 4 11 81 12
REMARK SMILES IDX 5 13 2 14 1 15 7 16 8 17 9 18 15 19 10 20 12 21 11 22 13 23
REMARK SMILES IDX 14 24 24 25 25 26 26 27 27 28 28 29 29 30 30 31 31 32 32 33
REMARK SMILES IDX 33 34 34 35 80 36 35 37 79 38 36 39 37 40 38 41 73 42 39 43
REMARK SMILES IDX 78 44 72 45 74 46 40 47 77 48 71 49 70 50 41 52 63 53 48 54
REMARK SMILES IDX 62 55 49 56 52 57 61 58 75 59 50 60 51 61 60 63 76 64 53 65
REMARK SMILES IDX 42 66 43 67 47 68 44 69 46 70 45 71 64 72 65 73 69 74 66 75
REMARK SMILES IDX 68 76 67 77 54 78 55 79 59 80 56 81 58 82 57 83
REMARK H PARENT 74 51 52 62
REMARK Flexibility Score: inf
ROOT
ATOM      1  C   UNL A   1      32.839  29.558  25.011  1.00  0.00     0.188 C 
ENDROOT
BRANCH   1   2
ATOM      2  C   UNL A   1      31.310  29.394  24.926  1.00  0.00     0.188 C 
BRANCH   2   3
ATOM      3  O   UNL A   1      30.820  29.487  23.600  1.00  0.00    -0.376 OA
BRANCH   3   4
ATOM      4  C   UNL A   1      30.102  28.370  23.111  1.00  0.00     0.202 C 
BRANCH   4   5
ATOM      5  C   UNL A   1      30.870  27.261  22.367  1.00  0.00     0.261 C 
BRANCH   5   6
ATOM      6  O   UNL A   1      32.290  27.125  22.592  1.00  0.00    -0.463 OA
BRANCH   6   7
ATOM      7  C   UNL A   1      32.900  25.973  22.232  1.00  0.00     0.312 C 
ATOM      8  O   UNL A   1      33.267  25.761  21.080  1.00  0.00    -0.252 OA
BRANCH   7   9
ATOM      9  C   UNL A   1      33.096  24.960  23.402  1.00  0.00     0.074 C 
ATOM     10  C   UNL A   1      32.395  24.771  25.817  1.00  0.00    -0.010 C 
ATOM     11  C   UNL A   1      33.714  25.529  25.772  1.00  0.00     0.005 C 
ATOM     12  C   UNL A   1      31.878  24.841  24.361  1.00  0.00     0.022 C 
ATOM     13  C   UNL A   1      34.264  25.369  24.345  1.00  0.00     0.019 C 
BRANCH  10  14
ATOM     14  C   UNL A   1      32.574  23.347  26.355  1.00  0.00     0.000 C 
ATOM     15  C   UNL A   1      33.681  23.187  27.388  1.00  0.00     0.004 C 
ENDBRANCH  10  14
BRANCH   9  16
ATOM     16  C   UNL A   1      33.409  23.666  22.591  1.00  0.00     0.075 C 
BRANCH  16  17
ATOM     17  C   UNL A   1      33.718  22.410  23.341  1.00  0.00     0.046 A 
ATOM     18  C   UNL A   1      32.756  21.425  23.512  1.00  0.00     0.024 A 
ATOM     19  N   UNL A   1      34.964  22.310  23.860  1.00  0.00    -0.219 NA
ATOM     20  C   UNL A   1      33.066  20.339  24.318  1.00  0.00     0.007 A 
ATOM     21  C   UNL A   1      35.266  21.236  24.612  1.00  0.00     0.213 A 
ATOM     22  C   UNL A   1      34.333  20.247  24.890  1.00  0.00     0.068 A 
BRANCH  21  23
ATOM     23  O   UNL A   1      36.547  21.268  25.076  1.00  0.00    -0.481 OA
ATOM     24  C   UNL A   1      37.290  20.067  24.961  1.00  0.00     0.280 C 
ENDBRANCH  21  23
ENDBRANCH  16  17
ENDBRANCH   9  16
ENDBRANCH   7   9
ENDBRANCH   6   7
ENDBRANCH   5   6
ENDBRANCH   4   5
ENDBRANCH   3   4
ENDBRANCH   2   3
ENDBRANCH   1   2
BRANCH   1  25
ATOM     25  O   UNL A   1      33.492  29.485  26.268  1.00  0.00    -0.377 OA
BRANCH  25  26
ATOM     26  C   UNL A   1      33.215  30.474  27.245  1.00  0.00     0.188 C 
BRANCH  26  27
ATOM     27  C   UNL A   1      34.277  31.541  27.587  1.00  0.00     0.188 C 
BRANCH  27  28
ATOM     28  O   UNL A   1      33.766  32.754  28.110  1.00  0.00    -0.376 OA
BRANCH  28  29
ATOM     29  C   UNL A   1      34.663  33.785  28.474  1.00  0.00     0.202 C 
BRANCH  29  30
ATOM     30  C   UNL A   1      34.814  34.107  29.968  1.00  0.00     0.261 C 
BRANCH  30  31
ATOM     31  O   UNL A   1      36.032  33.671  30.584  1.00  0.00    -0.460 OA
BRANCH  31  32
ATOM     32  C   UNL A   1      36.004  32.479  31.211  1.00  0.00     0.338 C 
ATOM     33  O   UNL A   1      35.100  32.021  31.893  1.00  0.00    -0.246 OA
BRANCH  32  34
ATOM     34  C   UNL A   1      37.187  31.715  30.769  1.00  0.00     0.060 A 
ATOM     35  C   UNL A   1      37.945  31.036  31.733  1.00  0.00     0.016 A 
ATOM     36  C   UNL A   1      37.518  31.631  29.415  1.00  0.00     0.016 A 
ATOM     37  C   UNL A   1      39.046  30.283  31.345  1.00  0.00     0.010 A 
ATOM     38  C   UNL A   1      38.648  30.905  29.030  1.00  0.00     0.010 A 
ATOM     39  C   UNL A   1      39.431  30.255  29.999  1.00  0.00    -0.014 A 
BRANCH  39  40
ATOM     40  C   UNL A   1      40.764  29.710  29.660  1.00  0.00     0.031 A 
ATOM     41  C   UNL A   1      40.848  28.303  29.141  1.00  0.00     0.074 A 
ATOM     42  C   UNL A   1      41.868  30.470  29.744  1.00  0.00     0.049 A 
ATOM     43  N   UNL A   1      41.887  27.637  28.710  1.00  0.00    -0.248 NA
ATOM     44  C   UNL A   1      39.585  27.547  29.104  1.00  0.00     0.031 C 
ATOM     45  C   UNL A   1      41.909  31.856  30.204  1.00  0.00     0.029 A 
ATOM     46  N   UNL A   1      43.171  30.173  29.437  1.00  0.00    -0.354 N 
ATOM     47  C   UNL A   1      41.405  26.383  28.355  1.00  0.00     0.074 A 
ATOM     48  C   UNL A   1      39.990  26.371  28.654  1.00  0.00     0.031 C 
ATOM     49  C   UNL A   1      43.181  32.291  30.151  1.00  0.00     0.029 A 
ATOM     50  C   UNL A   1      44.040  31.206  29.679  1.00  0.00     0.049 A 
ATOM     51  H   UNL A   1      43.456  29.302  29.078  1.00  0.00     0.167 HD
ATOM     52  C   UNL A   1      42.080  25.335  27.825  1.00  0.00     0.031 A 
ATOM     53  C   UNL A   1      45.378  31.265  29.547  1.00  0.00     0.031 A 
ATOM     54  C   UNL A   1      43.494  25.341  27.557  1.00  0.00     0.049 A 
ATOM     55  C   UNL A   1      46.119  30.070  29.007  1.00  0.00     0.074 A 
ATOM     56  C   UNL A   1      44.269  24.343  26.995  1.00  0.00     0.029 A 
ATOM     57  N   UNL A   1      44.349  26.392  27.854  1.00  0.00    -0.354 N 
ATOM     58  N   UNL A   1      45.648  28.907  28.623  1.00  0.00    -0.248 NA
ATOM     59  C   UNL A   1      47.575  30.207  28.864  1.00  0.00     0.031 C 
ATOM     60  C   UNL A   1      45.604  24.760  27.023  1.00  0.00     0.029 A 
ATOM     61  C   UNL A   1      45.651  26.051  27.528  1.00  0.00     0.049 A 
ATOM     62  H   UNL A   1      44.071  27.254  28.241  1.00  0.00     0.167 HD
ATOM     63  C   UNL A   1      46.746  28.180  28.178  1.00  0.00     0.074 A 
ATOM     64  C   UNL A   1      47.900  29.047  28.312  1.00  0.00     0.031 C 
ATOM     65  C   UNL A   1      46.796  26.911  27.698  1.00  0.00     0.031 A 
BRANCH  52  66
ATOM     66  C   UNL A   1      41.295  24.078  27.566  1.00  0.00    -0.014 A 
ATOM     67  C   UNL A   1      41.621  22.860  28.185  1.00  0.00     0.009 A 
ATOM     68  C   UNL A   1      40.213  24.114  26.674  1.00  0.00     0.009 A 
ATOM     69  C   UNL A   1      40.911  21.697  27.878  1.00  0.00     0.001 A 
ATOM     70  C   UNL A   1      39.482  22.958  26.395  1.00  0.00     0.001 A 
ATOM     71  C   UNL A   1      39.840  21.748  26.985  1.00  0.00     0.000 A 
ENDBRANCH  52  66
BRANCH  53  72
ATOM     72  C   UNL A   1      46.104  32.497  29.954  1.00  0.00    -0.014 A 
ATOM     73  C   UNL A   1      46.335  33.538  29.043  1.00  0.00     0.009 A 
ATOM     74  C   UNL A   1      46.564  32.636  31.274  1.00  0.00     0.009 A 
ATOM     75  C   UNL A   1      47.026  34.686  29.442  1.00  0.00     0.001 A 
ATOM     76  C   UNL A   1      47.227  33.796  31.677  1.00  0.00     0.001 A 
ATOM     77  C   UNL A   1      47.463  34.817  30.760  1.00  0.00     0.000 A 
ENDBRANCH  53  72
BRANCH  65  78
ATOM     78  C   UNL A   1      48.145  26.396  27.271  1.00  0.00    -0.014 A 
ATOM     79  C   UNL A   1      48.965  25.664  28.148  1.00  0.00     0.009 A 
ATOM     80  C   UNL A   1      48.604  26.642  25.967  1.00  0.00     0.009 A 
ATOM     81  C   UNL A   1      50.234  25.243  27.746  1.00  0.00     0.001 A 
ATOM     82  C   UNL A   1      49.858  26.186  25.555  1.00  0.00     0.001 A 
ATOM     83  C   UNL A   1      50.678  25.503  26.451  1.00  0.00     0.000 A 
ENDBRANCH  65  78
ENDBRANCH  39  40
ENDBRANCH  32  34
ENDBRANCH  31  32
ENDBRANCH  30  31
ENDBRANCH  29  30
ENDBRANCH  28  29
ENDBRANCH  27  28
ENDBRANCH  26  27
ENDBRANCH  25  26
ENDBRANCH   1  25
TORSDOF 24
ENDMDL
MODEL 2
REMARK VINA RESULT:      -9.0      3.424      7.206
REMARK SMILES CC[C@H]1CC[C@](Cc2cccc(OC)n2)(C(=O)OCCOCCOCCOCCOC(=O)c2ccc(-c3c4nc(c(-c5ccccc5)c5ccc([nH]5)c(-c5ccccc5)c5nc(c(-c6ccccc6)c6ccc3[nH]6)C=C5)C=C4)cc2)C1
REMARK SMILES IDX 23 1 22 2 21 3 20 4 19 5 18 6 16 7 17 8 6 9 3 10 4 11 81 12
REMARK SMILES IDX 5 13 2 14 1 15 7 16 8 17 9 18 15 19 10 20 12 21 11 22 13 23
REMARK SMILES IDX 14 24 24 25 25 26 26 27 27 28 28 29 29 30 30 31 31 32 32 33
REMARK SMILES IDX 33 34 34 35 80 36 35 37 79 38 36 39 37 40 38 41 73 42 39 43
REMARK SMILES IDX 78 44 72 45 74 46 40 47 77 48 71 49 70 50 41 52 63 53 48 54
REMARK SMILES IDX 62 55 49 56 52 57 61 58 75 59 50 60 51 61 60 63 76 64 53 65
REMARK SMILES IDX 42 66 43 67 47 68 44 69 46 70 45 71 64 72 65 73 69 74 66 75
REMARK SMILES IDX 68 76 67 77 54 78 55 79 59 80 56 81 58 82 57 83
REMARK H PARENT 74 51 52 62
REMARK Flexibility Score: inf
ROOT
ATOM      1  C   UNL A   1      32.720  28.950  23.907  1.00  0.00     0.188 C 
ENDROOT
BRANCH   1   2
ATOM      2  C   UNL A   1      31.398  28.166  24.009  1.00  0.00     0.188 C 
BRANCH   2   3
ATOM      3  O   UNL A   1      31.287  27.145  23.033  1.00  0.00    -0.376 OA
BRANCH   3   4
ATOM      4  C   UNL A   1      31.389  25.812  23.496  1.00  0.00     0.202 C 
BRANCH   4   5
ATOM      5  C   UNL A   1      32.773  25.272  23.904  1.00  0.00     0.261 C 
BRANCH   5   6
ATOM      6  O   UNL A   1      32.990  23.845  23.911  1.00  0.00    -0.463 OA
BRANCH   6   7
ATOM      7  C   UNL A   1      33.267  23.232  25.085  1.00  0.00     0.312 C 
ATOM      8  O   UNL A   1      32.563  23.379  26.080  1.00  0.00    -0.252 OA
BRANCH   7   9
ATOM      9  C   UNL A   1      34.539  22.332  25.052  1.00  0.00     0.074 C 
ATOM     10  C   UNL A   1      37.039  22.666  25.054  1.00  0.00    -0.010 C 
ATOM     11  C   UNL A   1      36.568  22.676  23.606  1.00  0.00     0.005 C 
ATOM     12  C   UNL A   1      35.742  22.886  25.867  1.00  0.00     0.022 C 
ATOM     13  C   UNL A   1      35.114  22.176  23.615  1.00  0.00     0.019 C 
BRANCH  10  14
ATOM     14  C   UNL A   1      37.789  21.375  25.399  1.00  0.00     0.000 C 
ATOM     15  C   UNL A   1      39.220  21.573  25.878  1.00  0.00     0.004 C 
ENDBRANCH  10  14
BRANCH   9  16
ATOM     16  C   UNL A   1      33.944  21.001  25.604  1.00  0.00     0.075 C 
BRANCH  16  17
ATOM     17  C   UNL A   1      33.585  19.921  24.633  1.00  0.00     0.046 A 
ATOM     18  C   UNL A   1      32.526  20.077  23.751  1.00  0.00     0.024 A 
ATOM     19  N   UNL A   1      34.326  18.790  24.691  1.00  0.00    -0.219 NA
ATOM     20  C   UNL A   1      32.167  18.995  22.960  1.00  0.00     0.007 A 
ATOM     21  C   UNL A   1      33.991  17.758  23.895  1.00  0.00     0.213 A 
ATOM     22  C   UNL A   1      32.899  17.812  23.041  1.00  0.00     0.068 A 
BRANCH  21  23
ATOM     23  O   UNL A   1      34.814  16.684  24.061  1.00  0.00    -0.481 OA
ATOM     24  C   UNL A   1      34.807  16.076  25.342  1.00  0.00     0.280 C 
ENDBRANCH  21  23
ENDBRANCH  16  17
ENDBRANCH   9  16
ENDBRANCH   7   9
ENDBRANCH   6   7
ENDBRANCH   5   6
ENDBRANCH   4   5
ENDBRANCH   3   4
ENDBRANCH   2   3
ENDBRANCH   1   2
BRANCH   1  25
ATOM     25  O   UNL A   1      33.698  28.828  24.925  1.00  0.00    -0.377 OA
BRANCH  25  26
ATOM     26  C   UNL A   1      33.277  28.593  26.258  1.00  0.00     0.188 C 
BRANCH  26  27
ATOM     27  C   UNL A   1      32.732  29.758  27.114  1.00  0.00     0.188 C 
BRANCH  27  28
ATOM     28  O   UNL A   1      31.577  30.394  26.600  1.00  0.00    -0.376 OA
BRANCH  28  29
ATOM     29  C   UNL A   1      31.587  31.794  26.400  1.00  0.00     0.202 C 
BRANCH  29  30
ATOM     30  C   UNL A   1      31.853  32.689  27.619  1.00  0.00     0.261 C 
BRANCH  30  31
ATOM     31  O   UNL A   1      32.966  33.585  27.509  1.00  0.00    -0.460 OA
BRANCH  31  32
ATOM     32  C   UNL A   1      33.255  34.333  28.592  1.00  0.00     0.338 C 
ATOM     33  O   UNL A   1      32.548  35.180  29.118  1.00  0.00    -0.246 OA
BRANCH  32  34
ATOM     34  C   UNL A   1      34.508  33.814  29.171  1.00  0.00     0.060 A 
ATOM     35  C   UNL A   1      35.720  34.136  28.543  1.00  0.00     0.016 A 
ATOM     36  C   UNL A   1      34.494  33.057  30.344  1.00  0.00     0.016 A 
ATOM     37  C   UNL A   1      36.920  33.687  29.082  1.00  0.00     0.010 A 
ATOM     38  C   UNL A   1      35.698  32.575  30.863  1.00  0.00     0.010 A 
ATOM     39  C   UNL A   1      36.910  32.865  30.215  1.00  0.00    -0.014 A 
BRANCH  39  40
ATOM     40  C   UNL A   1      38.157  32.157  30.581  1.00  0.00     0.031 A 
ATOM     41  C   UNL A   1      39.025  32.751  31.653  1.00  0.00     0.074 A 
ATOM     42  C   UNL A   1      38.477  30.978  30.023  1.00  0.00     0.049 A 
ATOM     43  N   UNL A   1      40.118  32.279  32.193  1.00  0.00    -0.248 NA
ATOM     44  C   UNL A   1      38.598  34.054  32.188  1.00  0.00     0.031 C 
ATOM     45  C   UNL A   1      37.700  30.289  28.995  1.00  0.00     0.029 A 
ATOM     46  N   UNL A   1      39.547  30.152  30.254  1.00  0.00    -0.354 N 
ATOM     47  C   UNL A   1      40.513  33.228  33.127  1.00  0.00     0.074 A 
ATOM     48  C   UNL A   1      39.562  34.317  33.055  1.00  0.00     0.031 C 
ATOM     49  C   UNL A   1      38.324  29.140  28.680  1.00  0.00     0.029 A 
ATOM     50  C   UNL A   1      39.552  29.029  29.466  1.00  0.00     0.049 A 
ATOM     51  H   UNL A   1      40.244  30.346  30.921  1.00  0.00     0.167 HD
ATOM     52  C   UNL A   1      41.570  33.197  33.973  1.00  0.00     0.031 A 
ATOM     53  C   UNL A   1      40.453  28.033  29.380  1.00  0.00     0.031 A 
ATOM     54  C   UNL A   1      42.531  32.126  34.020  1.00  0.00     0.049 A 
ATOM     55  C   UNL A   1      41.652  28.043  30.291  1.00  0.00     0.074 A 
ATOM     56  C   UNL A   1      43.622  31.983  34.858  1.00  0.00     0.029 A 
ATOM     57  N   UNL A   1      42.526  31.024  33.178  1.00  0.00    -0.354 N 
ATOM     58  N   UNL A   1      41.989  28.917  31.209  1.00  0.00    -0.248 NA
ATOM     59  C   UNL A   1      42.585  26.914  30.164  1.00  0.00     0.031 C 
ATOM     60  C   UNL A   1      44.321  30.834  34.472  1.00  0.00     0.029 A 
ATOM     61  C   UNL A   1      43.620  30.218  33.446  1.00  0.00     0.049 A 
ATOM     62  H   UNL A   1      41.847  30.842  32.489  1.00  0.00     0.167 HD
ATOM     63  C   UNL A   1      43.161  28.437  31.780  1.00  0.00     0.074 A 
ATOM     64  C   UNL A   1      43.458  27.179  31.124  1.00  0.00     0.031 C 
ATOM     65  C   UNL A   1      43.923  28.985  32.762  1.00  0.00     0.031 A 
BRANCH  52  66
ATOM     66  C   UNL A   1      41.769  34.392  34.864  1.00  0.00    -0.014 A 
ATOM     67  C   UNL A   1      42.308  35.596  34.381  1.00  0.00     0.009 A 
ATOM     68  C   UNL A   1      41.417  34.306  36.220  1.00  0.00     0.009 A 
ATOM     69  C   UNL A   1      42.536  36.669  35.247  1.00  0.00     0.001 A 
ATOM     70  C   UNL A   1      41.612  35.391  37.076  1.00  0.00     0.001 A 
ATOM     71  C   UNL A   1      42.184  36.565  36.593  1.00  0.00     0.000 A 
ENDBRANCH  52  66
BRANCH  53  72
ATOM     72  C   UNL A   1      40.261  26.953  28.377  1.00  0.00    -0.014 A 
ATOM     73  C   UNL A   1      39.486  25.821  28.669  1.00  0.00     0.009 A 
ATOM     74  C   UNL A   1      40.854  27.061  27.108  1.00  0.00     0.009 A 
ATOM     75  C   UNL A   1      39.323  24.812  27.715  1.00  0.00     0.001 A 
ATOM     76  C   UNL A   1      40.664  26.066  26.148  1.00  0.00     0.001 A 
ATOM     77  C   UNL A   1      39.905  24.939  26.454  1.00  0.00     0.000 A 
ENDBRANCH  53  72
BRANCH  65  78
ATOM     78  C   UNL A   1      45.143  28.212  33.190  1.00  0.00    -0.014 A 
ATOM     79  C   UNL A   1      45.079  27.239  34.202  1.00  0.00     0.009 A 
ATOM     80  C   UNL A   1      46.377  28.458  32.568  1.00  0.00     0.009 A 
ATOM     81  C   UNL A   1      46.234  26.574  34.619  1.00  0.00     0.001 A 
ATOM     82  C   UNL A   1      47.523  27.763  32.959  1.00  0.00     0.001 A 
ATOM     83  C   UNL A   1      47.454  26.835  33.997  1.00  0.00     0.000 A 
ENDBRANCH  65  78
ENDBRANCH  39  40
ENDBRANCH  32  34
ENDBRANCH  31  32
ENDBRANCH  30  31
ENDBRANCH  29  30
ENDBRANCH  28  29
ENDBRANCH  27  28
ENDBRANCH  26  27
ENDBRANCH  25  26
ENDBRANCH   1  25
TORSDOF 24
ENDMDL
MODEL 3
REMARK VINA RESULT:      -9.0      3.064      8.730
REMARK SMILES CC[C@H]1CC[C@](Cc2cccc(OC)n2)(C(=O)OCCOCCOCCOCCOC(=O)c2ccc(-c3c4nc(c(-c5ccccc5)c5ccc([nH]5)c(-c5ccccc5)c5nc(c(-c6ccccc6)c6ccc3[nH]6)C=C5)C=C4)cc2)C1
REMARK SMILES IDX 23 1 22 2 21 3 20 4 19 5 18 6 16 7 17 8 6 9 3 10 4 11 81 12
REMARK SMILES IDX 5 13 2 14 1 15 7 16 8 17 9 18 15 19 10 20 12 21 11 22 13 23
REMARK SMILES IDX 14 24 24 25 25 26 26 27 27 28 28 29 29 30 30 31 31 32 32 33
REMARK SMILES IDX 33 34 34 35 80 36 35 37 79 38 36 39 37 40 38 41 73 42 39 43
REMARK SMILES IDX 78 44 72 45 74 46 40 47 77 48 71 49 70 50 41 52 63 53 48 54
REMARK SMILES IDX 62 55 49 56 52 57 61 58 75 59 50 60 51 61 60 63 76 64 53 65
REMARK SMILES IDX 42 66 43 67 47 68 44 69 46 70 45 71 64 72 65 73 69 74 66 75
REMARK SMILES IDX 68 76 67 77 54 78 55 79 59 80 56 81 58 82 57 83
REMARK H PARENT 74 51 52 62
REMARK Flexibility Score: inf
ROOT
ATOM      1  C   UNL A   1      39.406  23.495  26.383  1.00  0.00     0.188 C 
ENDROOT
BRANCH   1   2
ATOM      2  C   UNL A   1      37.961  24.021  26.476  1.00  0.00     0.188 C 
BRANCH   2   3
ATOM      3  O   UNL A   1      37.122  23.506  25.459  1.00  0.00    -0.376 OA
BRANCH   3   4
ATOM      4  C   UNL A   1      36.319  22.392  25.804  1.00  0.00     0.202 C 
BRANCH   4   5
ATOM      5  C   UNL A   1      35.629  21.598  24.678  1.00  0.00     0.261 C 
BRANCH   5   6
ATOM      6  O   UNL A   1      34.294  21.974  24.278  1.00  0.00    -0.463 OA
BRANCH   6   7
ATOM      7  C   UNL A   1      34.132  23.051  23.475  1.00  0.00     0.312 C 
ATOM      8  O   UNL A   1      34.895  23.292  22.544  1.00  0.00    -0.252 OA
BRANCH   7   9
ATOM      9  C   UNL A   1      32.900  23.938  23.834  1.00  0.00     0.074 C 
ATOM     10  C   UNL A   1      31.765  24.759  25.931  1.00  0.00    -0.010 C 
ATOM     11  C   UNL A   1      31.147  23.418  25.561  1.00  0.00     0.005 C 
ATOM     12  C   UNL A   1      33.079  24.799  25.116  1.00  0.00     0.022 C 
ATOM     13  C   UNL A   1      31.633  23.089  24.139  1.00  0.00     0.019 C 
BRANCH  10  14
ATOM     14  C   UNL A   1      30.811  25.924  25.647  1.00  0.00     0.000 C 
ATOM     15  C   UNL A   1      31.245  27.264  26.223  1.00  0.00     0.004 C 
ENDBRANCH  10  14
BRANCH   9  16
ATOM     16  C   UNL A   1      32.765  24.760  22.517  1.00  0.00     0.075 C 
BRANCH  16  17
ATOM     17  C   UNL A   1      32.591  26.243  22.614  1.00  0.00     0.046 A 
ATOM     18  C   UNL A   1      33.624  27.056  23.057  1.00  0.00     0.024 A 
ATOM     19  N   UNL A   1      31.373  26.728  22.279  1.00  0.00    -0.219 NA
ATOM     20  C   UNL A   1      33.363  28.406  23.241  1.00  0.00     0.007 A 
ATOM     21  C   UNL A   1      31.141  28.045  22.427  1.00  0.00     0.213 A 
ATOM     22  C   UNL A   1      32.100  28.909  22.936  1.00  0.00     0.068 A 
BRANCH  21  23
ATOM     23  O   UNL A   1      29.875  28.395  22.061  1.00  0.00    -0.481 OA
ATOM     24  C   UNL A   1      29.119  29.120  23.016  1.00  0.00     0.280 C 
ENDBRANCH  21  23
ENDBRANCH  16  17
ENDBRANCH   9  16
ENDBRANCH   7   9
ENDBRANCH   6   7
ENDBRANCH   5   6
ENDBRANCH   4   5
ENDBRANCH   3   4
ENDBRANCH   2   3
ENDBRANCH   1   2
BRANCH   1  25
ATOM     25  O   UNL A   1      39.841  22.459  27.247  1.00  0.00    -0.377 OA
BRANCH  25  26
ATOM     26  C   UNL A   1      40.876  21.592  26.814  1.00  0.00     0.188 C 
BRANCH  26  27
ATOM     27  C   UNL A   1      40.530  20.291  26.058  1.00  0.00     0.188 C 
BRANCH  27  28
ATOM     28  O   UNL A   1      41.294  19.158  26.427  1.00  0.00    -0.376 OA
BRANCH  28  29
ATOM     29  C   UNL A   1      42.705  19.245  26.432  1.00  0.00     0.202 C 
BRANCH  29  30
ATOM     30  C   UNL A   1      43.464  18.630  25.247  1.00  0.00     0.261 C 
BRANCH  30  31
ATOM     31  O   UNL A   1      43.880  19.546  24.226  1.00  0.00    -0.460 OA
BRANCH  31  32
ATOM     32  C   UNL A   1      45.164  19.952  24.259  1.00  0.00     0.338 C 
ATOM     33  O   UNL A   1      46.135  19.382  23.785  1.00  0.00    -0.246 OA
BRANCH  32  34
ATOM     34  C   UNL A   1      45.183  21.324  24.801  1.00  0.00     0.060 A 
ATOM     35  C   UNL A   1      44.867  22.387  23.943  1.00  0.00     0.016 A 
ATOM     36  C   UNL A   1      45.464  21.557  26.149  1.00  0.00     0.016 A 
ATOM     37  C   UNL A   1      44.847  23.688  24.431  1.00  0.00     0.010 A 
ATOM     38  C   UNL A   1      45.480  22.869  26.629  1.00  0.00     0.010 A 
ATOM     39  C   UNL A   1      45.200  23.939  25.762  1.00  0.00    -0.014 A 
BRANCH  39  40
ATOM     40  C   UNL A   1      45.468  25.336  26.167  1.00  0.00     0.031 A 
ATOM     41  C   UNL A   1      44.331  26.149  26.717  1.00  0.00     0.074 A 
ATOM     42  C   UNL A   1      46.708  25.851  26.114  1.00  0.00     0.049 A 
ATOM     43  N   UNL A   1      44.337  27.362  27.205  1.00  0.00    -0.248 NA
ATOM     44  C   UNL A   1      43.009  25.501  26.716  1.00  0.00     0.031 C 
ATOM     45  C   UNL A   1      47.895  25.151  25.630  1.00  0.00     0.029 A 
ATOM     46  N   UNL A   1      47.167  27.089  26.482  1.00  0.00    -0.354 N 
ATOM     47  C   UNL A   1      43.021  27.625  27.564  1.00  0.00     0.074 A 
ATOM     48  C   UNL A   1      42.241  26.461  27.206  1.00  0.00     0.031 C 
ATOM     49  C   UNL A   1      48.952  25.976  25.726  1.00  0.00     0.029 A 
ATOM     50  C   UNL A   1      48.509  27.265  26.256  1.00  0.00     0.049 A 
ATOM     51  H   UNL A   1      46.590  27.786  26.869  1.00  0.00     0.167 HD
ATOM     52  C   UNL A   1      42.507  28.737  28.142  1.00  0.00     0.031 A 
ATOM     53  C   UNL A   1      49.286  28.348  26.443  1.00  0.00     0.031 A 
ATOM     54  C   UNL A   1      43.281  29.905  28.470  1.00  0.00     0.049 A 
ATOM     55  C   UNL A   1      48.685  29.593  27.037  1.00  0.00     0.074 A 
ATOM     56  C   UNL A   1      42.864  31.072  29.083  1.00  0.00     0.029 A 
ATOM     57  N   UNL A   1      44.630  30.062  28.188  1.00  0.00    -0.354 N 
ATOM     58  N   UNL A   1      47.451  29.815  27.424  1.00  0.00    -0.248 NA
ATOM     59  C   UNL A   1      49.593  30.731  27.238  1.00  0.00     0.031 C 
ATOM     60  C   UNL A   1      43.941  31.964  29.103  1.00  0.00     0.029 A 
ATOM     61  C   UNL A   1      45.052  31.324  28.575  1.00  0.00     0.049 A 
ATOM     62  H   UNL A   1      45.203  29.378  27.772  1.00  0.00     0.167 HD
ATOM     63  C   UNL A   1      47.437  31.110  27.929  1.00  0.00     0.074 A 
ATOM     64  C   UNL A   1      48.794  31.610  27.826  1.00  0.00     0.031 C 
ATOM     65  C   UNL A   1      46.398  31.821  28.436  1.00  0.00     0.031 A 
BRANCH  52  66
ATOM     66  C   UNL A   1      41.023  28.753  28.394  1.00  0.00    -0.014 A 
ATOM     67  C   UNL A   1      40.112  29.201  27.423  1.00  0.00     0.009 A 
ATOM     68  C   UNL A   1      40.530  28.319  29.634  1.00  0.00     0.009 A 
ATOM     69  C   UNL A   1      38.746  29.261  27.708  1.00  0.00     0.001 A 
ATOM     70  C   UNL A   1      39.161  28.346  29.905  1.00  0.00     0.001 A 
ATOM     71  C   UNL A   1      38.272  28.830  28.948  1.00  0.00     0.000 A 
ENDBRANCH  52  66
BRANCH  53  72
ATOM     72  C   UNL A   1      50.717  28.303  26.042  1.00  0.00    -0.014 A 
ATOM     73  C   UNL A   1      51.115  28.609  24.733  1.00  0.00     0.009 A 
ATOM     74  C   UNL A   1      51.699  27.958  26.987  1.00  0.00     0.009 A 
ATOM     75  C   UNL A   1      52.465  28.554  24.374  1.00  0.00     0.001 A 
ATOM     76  C   UNL A   1      53.048  27.933  26.632  1.00  0.00     0.001 A 
ATOM     77  C   UNL A   1      53.430  28.225  25.325  1.00  0.00     0.000 A 
ENDBRANCH  53  72
BRANCH  65  78
ATOM     78  C   UNL A   1      46.699  33.212  28.930  1.00  0.00    -0.014 A 
ATOM     79  C   UNL A   1      46.491  34.341  28.119  1.00  0.00     0.009 A 
ATOM     80  C   UNL A   1      47.195  33.397  30.230  1.00  0.00     0.009 A 
ATOM     81  C   UNL A   1      46.828  35.616  28.580  1.00  0.00     0.001 A 
ATOM     82  C   UNL A   1      47.494  34.677  30.702  1.00  0.00     0.001 A 
ATOM     83  C   UNL A   1      47.327  35.782  29.870  1.00  0.00     0.000 A 
ENDBRANCH  65  78
ENDBRANCH  39  40
ENDBRANCH  32  34
ENDBRANCH  31  32
ENDBRANCH  30  31
ENDBRANCH  29  30
ENDBRANCH  28  29
ENDBRANCH  27  28
ENDBRANCH  26  27
ENDBRANCH  25  26
ENDBRANCH   1  25
TORSDOF 24
ENDMDL
