MODEL 1
REMARK VINA RESULT:      -9.6      0.000      0.000
REMARK SMILES CCCn1cc(S(=O)(=O)N[C@H]2C=C[C@@H](C(=O)OCCOCCOCCOCCOC(=O)c3ccc(-c4c5nc(c(-c6ccccc6)c6ccc([nH]6)c(-c6ccccc6)c6nc(c(-c7ccccc7)c7ccc4[nH]7)C=C6)C=C5)cc3)C2)nc1C
REMARK SMILES IDX 21 1 20 2 19 3 18 4 17 5 15 6 16 7 14 8 11 9 12 10 80 11
REMARK SMILES IDX 13 12 10 13 7 15 8 16 9 17 6 18 4 19 5 20 82 21 81 22 83 23
REMARK SMILES IDX 3 24 2 25 1 26 22 27 23 28 24 29 25 30 26 31 27 32 28 33
REMARK SMILES IDX 29 34 30 35 31 36 32 37 33 38 79 39 34 40 78 41 35 42 36 43
REMARK SMILES IDX 37 44 72 45 38 46 77 47 71 48 73 49 39 50 76 51 70 52 69 53
REMARK SMILES IDX 40 55 62 56 47 57 61 58 48 59 51 60 60 61 74 62 49 63 50 64
REMARK SMILES IDX 59 66 75 67 52 68 41 69 42 70 46 71 43 72 45 73 44 74 63 75
REMARK SMILES IDX 64 76 68 77 65 78 67 79 66 80 53 81 54 82 58 83 55 84 57 85
REMARK SMILES IDX 56 86
REMARK H PARENT 10 14 73 54 51 65
REMARK Flexibility Score: inf
ROOT
ATOM      1  C   UNL A   1      36.063  21.870  24.779  1.00  0.00     0.188 C 
ENDROOT
BRANCH   1   2
ATOM      2  O   UNL A   1      35.536  21.858  26.097  1.00  0.00    -0.376 OA
BRANCH   2   3
ATOM      3  C   UNL A   1      35.208  23.071  26.760  1.00  0.00     0.202 C 
BRANCH   3   4
ATOM      4  C   UNL A   1      34.335  24.156  26.106  1.00  0.00     0.261 C 
BRANCH   4   5
ATOM      5  O   UNL A   1      32.984  24.214  26.577  1.00  0.00    -0.463 OA
BRANCH   5   6
ATOM      6  C   UNL A   1      32.251  23.085  26.489  1.00  0.00     0.312 C 
ATOM      7  O   UNL A   1      32.118  22.269  27.397  1.00  0.00    -0.252 OA
BRANCH   6   8
ATOM      8  C   UNL A   1      31.467  22.975  25.180  1.00  0.00     0.123 C 
ATOM      9  C   UNL A   1      31.866  23.583  22.817  1.00  0.00     0.093 C 
ATOM     10  C   UNL A   1      32.214  22.169  23.095  1.00  0.00    -0.011 C 
ATOM     11  C   UNL A   1      31.462  24.136  24.172  1.00  0.00     0.043 C 
ATOM     12  C   UNL A   1      31.999  21.834  24.371  1.00  0.00    -0.015 C 
BRANCH   9  13
ATOM     13  N   UNL A   1      32.887  24.326  22.079  1.00  0.00    -0.203 NA
ATOM     14  H   UNL A   1      33.660  24.442  22.733  1.00  0.00     0.142 HD
BRANCH  13  15
ATOM     15  S   UNL A   1      32.679  25.845  21.360  1.00  0.00     0.260 S 
ATOM     16  O   UNL A   1      31.920  25.706  20.151  1.00  0.00    -0.205 OA
ATOM     17  O   UNL A   1      34.012  26.430  21.344  1.00  0.00    -0.205 OA
BRANCH  15  18
ATOM     18  C   UNL A   1      31.760  26.882  22.401  1.00  0.00     0.188 A 
ATOM     19  N   UNL A   1      31.051  27.838  24.225  1.00  0.00    -0.334 N 
ATOM     20  C   UNL A   1      32.191  27.375  23.608  1.00  0.00     0.129 A 
ATOM     21  C   UNL A   1      30.106  27.982  23.235  1.00  0.00     0.107 A 
ATOM     22  N   UNL A   1      30.478  27.316  22.155  1.00  0.00    -0.221 NA
ATOM     23  C   UNL A   1      28.851  28.771  23.290  1.00  0.00     0.088 C 
BRANCH  19  24
ATOM     24  C   UNL A   1      31.007  27.926  25.674  1.00  0.00     0.123 C 
BRANCH  24  25
ATOM     25  C   UNL A   1      32.064  28.687  26.460  1.00  0.00     0.018 C 
ATOM     26  C   UNL A   1      33.437  28.031  26.442  1.00  0.00     0.006 C 
ENDBRANCH  24  25
ENDBRANCH  19  24
ENDBRANCH  15  18
ENDBRANCH  13  15
ENDBRANCH   9  13
ENDBRANCH   6   8
ENDBRANCH   5   6
ENDBRANCH   4   5
ENDBRANCH   3   4
ENDBRANCH   2   3
ENDBRANCH   1   2
BRANCH   1  27
ATOM     27  C   UNL A   1      37.548  21.575  24.518  1.00  0.00     0.188 C 
BRANCH  27  28
ATOM     28  O   UNL A   1      38.280  21.093  25.619  1.00  0.00    -0.377 OA
BRANCH  28  29
ATOM     29  C   UNL A   1      39.467  21.787  25.980  1.00  0.00     0.188 C 
BRANCH  29  30
ATOM     30  C   UNL A   1      40.667  21.004  26.573  1.00  0.00     0.188 C 
BRANCH  30  31
ATOM     31  O   UNL A   1      41.068  19.836  25.864  1.00  0.00    -0.376 OA
BRANCH  31  32
ATOM     32  C   UNL A   1      42.204  19.076  26.252  1.00  0.00     0.202 C 
BRANCH  32  33
ATOM     33  C   UNL A   1      43.423  19.016  25.327  1.00  0.00     0.261 C 
BRANCH  33  34
ATOM     34  O   UNL A   1      43.664  20.199  24.593  1.00  0.00    -0.460 OA
BRANCH  34  35
ATOM     35  C   UNL A   1      44.946  20.379  24.228  1.00  0.00     0.338 C 
ATOM     36  O   UNL A   1      45.735  19.525  23.854  1.00  0.00    -0.246 OA
BRANCH  35  37
ATOM     37  C   UNL A   1      45.313  21.766  24.507  1.00  0.00     0.060 A 
ATOM     38  C   UNL A   1      46.124  21.955  25.621  1.00  0.00     0.016 A 
ATOM     39  C   UNL A   1      44.535  22.795  23.950  1.00  0.00     0.016 A 
ATOM     40  C   UNL A   1      45.908  23.083  26.368  1.00  0.00     0.010 A 
ATOM     41  C   UNL A   1      44.315  23.918  24.703  1.00  0.00     0.010 A 
ATOM     42  C   UNL A   1      44.917  23.984  25.953  1.00  0.00    -0.014 A 
BRANCH  42  43
ATOM     43  C   UNL A   1      44.606  25.076  26.839  1.00  0.00     0.031 A 
ATOM     44  C   UNL A   1      45.700  26.060  26.879  1.00  0.00     0.074 A 
ATOM     45  C   UNL A   1      43.445  25.183  27.508  1.00  0.00     0.049 A 
ATOM     46  N   UNL A   1      46.535  26.238  27.844  1.00  0.00    -0.248 NA
ATOM     47  C   UNL A   1      46.045  26.758  25.630  1.00  0.00     0.031 C 
ATOM     48  C   UNL A   1      42.218  24.396  27.360  1.00  0.00     0.029 A 
ATOM     49  N   UNL A   1      43.093  26.118  28.428  1.00  0.00    -0.354 N 
ATOM     50  C   UNL A   1      47.387  27.239  27.406  1.00  0.00     0.074 A 
ATOM     51  C   UNL A   1      47.176  27.367  25.986  1.00  0.00     0.031 C 
ATOM     52  C   UNL A   1      41.198  25.048  27.969  1.00  0.00     0.029 A 
ATOM     53  C   UNL A   1      41.728  26.212  28.660  1.00  0.00     0.049 A 
ATOM     54  H   UNL A   1      43.753  26.683  28.890  1.00  0.00     0.167 HD
ATOM     55  C   UNL A   1      47.951  28.095  28.298  1.00  0.00     0.031 A 
ATOM     56  C   UNL A   1      41.099  27.222  29.316  1.00  0.00     0.031 A 
ATOM     57  C   UNL A   1      47.923  27.562  29.639  1.00  0.00     0.049 A 
ATOM     58  C   UNL A   1      42.117  27.925  30.134  1.00  0.00     0.074 A 
ATOM     59  C   UNL A   1      48.417  26.421  30.243  1.00  0.00     0.029 A 
ATOM     60  N   UNL A   1      46.948  28.042  30.482  1.00  0.00    -0.354 N 
ATOM     61  N   UNL A   1      42.683  27.390  31.177  1.00  0.00    -0.248 NA
ATOM     62  C   UNL A   1      42.848  29.023  29.522  1.00  0.00     0.031 C 
ATOM     63  C   UNL A   1      47.405  26.021  31.166  1.00  0.00     0.029 A 
ATOM     64  C   UNL A   1      46.385  26.974  31.131  1.00  0.00     0.049 A 
ATOM     65  H   UNL A   1      46.698  28.986  30.599  1.00  0.00     0.167 HD
ATOM     66  C   UNL A   1      44.020  27.745  31.068  1.00  0.00     0.074 A 
ATOM     67  C   UNL A   1      44.044  28.832  30.089  1.00  0.00     0.031 C 
ATOM     68  C   UNL A   1      45.004  26.931  31.554  1.00  0.00     0.031 A 
BRANCH  55  69
ATOM     69  C   UNL A   1      48.044  29.574  28.019  1.00  0.00    -0.014 A 
ATOM     70  C   UNL A   1      46.858  30.282  27.773  1.00  0.00     0.009 A 
ATOM     71  C   UNL A   1      49.251  30.224  27.688  1.00  0.00     0.009 A 
ATOM     72  C   UNL A   1      46.880  31.534  27.150  1.00  0.00     0.001 A 
ATOM     73  C   UNL A   1      49.280  31.490  27.106  1.00  0.00     0.001 A 
ATOM     74  C   UNL A   1      48.089  32.132  26.808  1.00  0.00     0.000 A 
ENDBRANCH  55  69
BRANCH  56  75
ATOM     75  C   UNL A   1      39.776  27.828  29.050  1.00  0.00    -0.014 A 
ATOM     76  C   UNL A   1      38.798  27.876  30.060  1.00  0.00     0.009 A 
ATOM     77  C   UNL A   1      39.577  28.629  27.912  1.00  0.00     0.009 A 
ATOM     78  C   UNL A   1      37.694  28.734  29.957  1.00  0.00     0.001 A 
ATOM     79  C   UNL A   1      38.473  29.483  27.807  1.00  0.00     0.001 A 
ATOM     80  C   UNL A   1      37.542  29.549  28.838  1.00  0.00     0.000 A 
ENDBRANCH  56  75
BRANCH  68  81
ATOM     81  C   UNL A   1      44.584  25.764  32.418  1.00  0.00    -0.014 A 
ATOM     82  C   UNL A   1      44.140  25.897  33.747  1.00  0.00     0.009 A 
ATOM     83  C   UNL A   1      44.535  24.492  31.831  1.00  0.00     0.009 A 
ATOM     84  C   UNL A   1      43.711  24.782  34.477  1.00  0.00     0.001 A 
ATOM     85  C   UNL A   1      44.085  23.384  32.550  1.00  0.00     0.001 A 
ATOM     86  C   UNL A   1      43.683  23.526  33.877  1.00  0.00     0.000 A 
ENDBRANCH  68  81
ENDBRANCH  42  43
ENDBRANCH  35  37
ENDBRANCH  34  35
ENDBRANCH  33  34
ENDBRANCH  32  33
ENDBRANCH  31  32
ENDBRANCH  30  31
ENDBRANCH  29  30
ENDBRANCH  28  29
ENDBRANCH  27  28
ENDBRANCH   1  27
TORSDOF 25
ENDMDL
MODEL 2
REMARK VINA RESULT:      -9.4      3.014      4.924
REMARK SMILES CCCn1cc(S(=O)(=O)N[C@H]2C=C[C@@H](C(=O)OCCOCCOCCOCCOC(=O)c3ccc(-c4c5nc(c(-c6ccccc6)c6ccc([nH]6)c(-c6ccccc6)c6nc(c(-c7ccccc7)c7ccc4[nH]7)C=C6)C=C5)cc3)C2)nc1C
REMARK SMILES IDX 21 1 20 2 19 3 18 4 17 5 15 6 16 7 14 8 11 9 12 10 80 11
REMARK SMILES IDX 13 12 10 13 7 15 8 16 9 17 6 18 4 19 5 20 82 21 81 22 83 23
REMARK SMILES IDX 3 24 2 25 1 26 22 27 23 28 24 29 25 30 26 31 27 32 28 33
REMARK SMILES IDX 29 34 30 35 31 36 32 37 33 38 79 39 34 40 78 41 35 42 36 43
REMARK SMILES IDX 37 44 72 45 38 46 77 47 71 48 73 49 39 50 76 51 70 52 69 53
REMARK SMILES IDX 40 55 62 56 47 57 61 58 48 59 51 60 60 61 74 62 49 63 50 64
REMARK SMILES IDX 59 66 75 67 52 68 41 69 42 70 46 71 43 72 45 73 44 74 63 75
REMARK SMILES IDX 64 76 68 77 65 78 67 79 66 80 53 81 54 82 58 83 55 84 57 85
REMARK SMILES IDX 56 86
REMARK H PARENT 10 14 73 54 51 65
REMARK Flexibility Score: inf
ROOT
ATOM      1  C   UNL A   1      42.511  19.447  26.514  1.00  0.00     0.188 C 
ENDROOT
BRANCH   1   2
ATOM      2  O   UNL A   1      41.476  20.269  25.999  1.00  0.00    -0.376 OA
BRANCH   2   3
ATOM      3  C   UNL A   1      40.629  21.005  26.871  1.00  0.00     0.202 C 
BRANCH   3   4
ATOM      4  C   UNL A   1      39.643  22.068  26.356  1.00  0.00     0.261 C 
BRANCH   4   5
ATOM      5  O   UNL A   1      38.439  21.550  25.779  1.00  0.00    -0.463 OA
BRANCH   5   6
ATOM      6  C   UNL A   1      37.408  22.408  25.630  1.00  0.00     0.312 C 
ATOM      7  O   UNL A   1      37.505  23.540  25.165  1.00  0.00    -0.252 OA
BRANCH   6   8
ATOM      8  C   UNL A   1      36.051  21.784  25.966  1.00  0.00     0.123 C 
ATOM      9  C   UNL A   1      33.699  22.209  25.338  1.00  0.00     0.093 C 
ATOM     10  C   UNL A   1      34.323  21.166  24.489  1.00  0.00    -0.011 C 
ATOM     11  C   UNL A   1      34.828  22.674  26.240  1.00  0.00     0.043 C 
ATOM     12  C   UNL A   1      35.595  20.931  24.825  1.00  0.00    -0.015 C 
BRANCH   9  13
ATOM     13  N   UNL A   1      32.977  23.244  24.597  1.00  0.00    -0.203 NA
ATOM     14  H   UNL A   1      32.039  22.869  24.458  1.00  0.00     0.142 HD
BRANCH  13  15
ATOM     15  S   UNL A   1      33.429  23.885  23.097  1.00  0.00     0.260 S 
ATOM     16  O   UNL A   1      32.889  23.074  22.044  1.00  0.00    -0.205 OA
ATOM     17  O   UNL A   1      34.864  24.107  23.209  1.00  0.00    -0.205 OA
BRANCH  15  18
ATOM     18  C   UNL A   1      32.756  25.468  22.892  1.00  0.00     0.188 A 
ATOM     19  N   UNL A   1      32.595  27.640  22.923  1.00  0.00    -0.334 N 
ATOM     20  C   UNL A   1      33.481  26.615  22.680  1.00  0.00     0.129 A 
ATOM     21  C   UNL A   1      31.336  27.088  22.854  1.00  0.00     0.107 A 
ATOM     22  N   UNL A   1      31.415  25.771  22.940  1.00  0.00    -0.221 NA
ATOM     23  C   UNL A   1      30.045  27.798  22.680  1.00  0.00     0.088 C 
BRANCH  19  24
ATOM     24  C   UNL A   1      33.099  28.941  23.324  1.00  0.00     0.123 C 
BRANCH  24  25
ATOM     25  C   UNL A   1      33.235  29.327  24.789  1.00  0.00     0.018 C 
ATOM     26  C   UNL A   1      31.905  29.462  25.518  1.00  0.00     0.006 C 
ENDBRANCH  24  25
ENDBRANCH  19  24
ENDBRANCH  15  18
ENDBRANCH  13  15
ENDBRANCH   9  13
ENDBRANCH   6   8
ENDBRANCH   5   6
ENDBRANCH   4   5
ENDBRANCH   3   4
ENDBRANCH   2   3
ENDBRANCH   1   2
BRANCH   1  27
ATOM     27  C   UNL A   1      43.368  18.576  25.582  1.00  0.00     0.188 C 
BRANCH  27  28
ATOM     28  O   UNL A   1      43.570  19.082  24.285  1.00  0.00    -0.377 OA
BRANCH  28  29
ATOM     29  C   UNL A   1      44.908  19.300  23.860  1.00  0.00     0.188 C 
BRANCH  29  30
ATOM     30  C   UNL A   1      46.038  19.436  24.914  1.00  0.00     0.188 C 
BRANCH  30  31
ATOM     31  O   UNL A   1      46.333  20.757  25.354  1.00  0.00    -0.376 OA
BRANCH  31  32
ATOM     32  C   UNL A   1      45.343  21.775  25.391  1.00  0.00     0.202 C 
BRANCH  32  33
ATOM     33  C   UNL A   1      45.634  23.135  24.751  1.00  0.00     0.261 C 
BRANCH  33  34
ATOM     34  O   UNL A   1      45.331  24.248  25.567  1.00  0.00    -0.460 OA
BRANCH  34  35
ATOM     35  C   UNL A   1      44.077  24.714  25.434  1.00  0.00     0.338 C 
ATOM     36  O   UNL A   1      43.099  24.103  25.034  1.00  0.00    -0.246 OA
BRANCH  35  37
ATOM     37  C   UNL A   1      44.092  26.153  25.697  1.00  0.00     0.060 A 
ATOM     38  C   UNL A   1      44.697  26.534  26.890  1.00  0.00     0.016 A 
ATOM     39  C   UNL A   1      43.181  26.973  25.011  1.00  0.00     0.016 A 
ATOM     40  C   UNL A   1      44.147  27.595  27.559  1.00  0.00     0.010 A 
ATOM     41  C   UNL A   1      42.627  28.028  25.686  1.00  0.00     0.010 A 
ATOM     42  C   UNL A   1      43.040  28.245  26.995  1.00  0.00    -0.014 A 
BRANCH  42  43
ATOM     43  C   UNL A   1      42.389  29.252  27.791  1.00  0.00     0.031 A 
ATOM     44  C   UNL A   1      43.193  30.483  27.860  1.00  0.00     0.074 A 
ATOM     45  C   UNL A   1      41.184  29.082  28.364  1.00  0.00     0.049 A 
ATOM     46  N   UNL A   1      43.869  30.900  28.875  1.00  0.00    -0.248 NA
ATOM     47  C   UNL A   1      43.461  31.202  26.605  1.00  0.00     0.031 C 
ATOM     48  C   UNL A   1      40.211  28.004  28.166  1.00  0.00     0.029 A 
ATOM     49  N   UNL A   1      40.529  29.928  29.200  1.00  0.00    -0.354 N 
ATOM     50  C   UNL A   1      44.477  32.070  28.448  1.00  0.00     0.074 A 
ATOM     51  C   UNL A   1      44.367  32.091  27.011  1.00  0.00     0.031 C 
ATOM     52  C   UNL A   1      39.011  28.396  28.658  1.00  0.00     0.029 A 
ATOM     53  C   UNL A   1      39.169  29.680  29.323  1.00  0.00     0.049 A 
ATOM     54  H   UNL A   1      40.983  30.658  29.680  1.00  0.00     0.167 HD
ATOM     55  C   UNL A   1      44.728  33.071  29.332  1.00  0.00     0.031 A 
ATOM     56  C   UNL A   1      38.252  30.518  29.871  1.00  0.00     0.031 A 
ATOM     57  C   UNL A   1      44.717  32.595  30.694  1.00  0.00     0.049 A 
ATOM     58  C   UNL A   1      38.986  31.485  30.724  1.00  0.00     0.074 A 
ATOM     59  C   UNL A   1      45.427  31.639  31.396  1.00  0.00     0.029 A 
ATOM     60  N   UNL A   1      43.583  32.840  31.432  1.00  0.00    -0.354 N 
ATOM     61  N   UNL A   1      39.574  31.148  31.836  1.00  0.00    -0.248 NA
ATOM     62  C   UNL A   1      39.468  32.712  30.110  1.00  0.00     0.031 C 
ATOM     63  C   UNL A   1      44.470  31.027  32.260  1.00  0.00     0.029 A 
ATOM     64  C   UNL A   1      43.251  31.687  32.095  1.00  0.00     0.049 A 
ATOM     65  H   UNL A   1      43.095  33.693  31.477  1.00  0.00     0.167 HD
ATOM     66  C   UNL A   1      40.783  31.828  31.809  1.00  0.00     0.074 A 
ATOM     67  C   UNL A   1      40.620  32.851  30.776  1.00  0.00     0.031 C 
ATOM     68  C   UNL A   1      41.893  31.309  32.413  1.00  0.00     0.031 A 
BRANCH  55  69
ATOM     69  C   UNL A   1      44.472  34.515  28.978  1.00  0.00    -0.014 A 
ATOM     70  C   UNL A   1      43.142  34.940  28.838  1.00  0.00     0.009 A 
ATOM     71  C   UNL A   1      45.470  35.379  28.484  1.00  0.00     0.009 A 
ATOM     72  C   UNL A   1      42.830  36.125  28.162  1.00  0.00     0.001 A 
ATOM     73  C   UNL A   1      45.166  36.581  27.847  1.00  0.00     0.001 A 
ATOM     74  C   UNL A   1      43.841  36.938  27.659  1.00  0.00     0.000 A 
ENDBRANCH  55  69
BRANCH  56  75
ATOM     75  C   UNL A   1      36.847  30.758  29.472  1.00  0.00    -0.014 A 
ATOM     76  C   UNL A   1      36.057  31.688  30.170  1.00  0.00     0.009 A 
ATOM     77  C   UNL A   1      36.376  30.306  28.228  1.00  0.00     0.009 A 
ATOM     78  C   UNL A   1      34.870  32.186  29.617  1.00  0.00     0.001 A 
ATOM     79  C   UNL A   1      35.188  30.801  27.677  1.00  0.00     0.001 A 
ATOM     80  C   UNL A   1      34.445  31.755  28.363  1.00  0.00     0.000 A 
ENDBRANCH  56  75
BRANCH  68  81
ATOM     81  C   UNL A   1      41.705  30.103  33.306  1.00  0.00    -0.014 A 
ATOM     82  C   UNL A   1      41.632  28.782  32.828  1.00  0.00     0.009 A 
ATOM     83  C   UNL A   1      41.710  30.304  34.694  1.00  0.00     0.009 A 
ATOM     84  C   UNL A   1      41.513  27.703  33.712  1.00  0.00     0.001 A 
ATOM     85  C   UNL A   1      41.616  29.226  35.577  1.00  0.00     0.001 A 
ATOM     86  C   UNL A   1      41.507  27.927  35.086  1.00  0.00     0.000 A 
ENDBRANCH  68  81
ENDBRANCH  42  43
ENDBRANCH  35  37
ENDBRANCH  34  35
ENDBRANCH  33  34
ENDBRANCH  32  33
ENDBRANCH  31  32
ENDBRANCH  30  31
ENDBRANCH  29  30
ENDBRANCH  28  29
ENDBRANCH  27  28
ENDBRANCH   1  27
TORSDOF 25
ENDMDL
MODEL 3
REMARK VINA RESULT:      -9.4      3.774      5.884
REMARK SMILES CCCn1cc(S(=O)(=O)N[C@H]2C=C[C@@H](C(=O)OCCOCCOCCOCCOC(=O)c3ccc(-c4c5nc(c(-c6ccccc6)c6ccc([nH]6)c(-c6ccccc6)c6nc(c(-c7ccccc7)c7ccc4[nH]7)C=C6)C=C5)cc3)C2)nc1C
REMARK SMILES IDX 21 1 20 2 19 3 18 4 17 5 15 6 16 7 14 8 11 9 12 10 80 11
REMARK SMILES IDX 13 12 10 13 7 15 8 16 9 17 6 18 4 19 5 20 82 21 81 22 83 23
REMARK SMILES IDX 3 24 2 25 1 26 22 27 23 28 24 29 25 30 26 31 27 32 28 33
REMARK SMILES IDX 29 34 30 35 31 36 32 37 33 38 79 39 34 40 78 41 35 42 36 43
REMARK SMILES IDX 37 44 72 45 38 46 77 47 71 48 73 49 39 50 76 51 70 52 69 53
REMARK SMILES IDX 40 55 62 56 47 57 61 58 48 59 51 60 60 61 74 62 49 63 50 64
REMARK SMILES IDX 59 66 75 67 52 68 41 69 42 70 46 71 43 72 45 73 44 74 63 75
REMARK SMILES IDX 64 76 68 77 65 78 67 79 66 80 53 81 54 82 58 83 55 84 57 85
REMARK SMILES IDX 56 86
REMARK H PARENT 10 14 73 54 51 65
REMARK Flexibility Score: inf
ROOT
ATOM      1  C   UNL A   1      37.218  22.927  25.281  1.00  0.00     0.188 C 
ENDROOT
BRANCH   1   2
ATOM      2  O   UNL A   1      35.986  22.224  25.276  1.00  0.00    -0.376 OA
BRANCH   2   3
ATOM      3  C   UNL A   1      35.317  21.919  26.492  1.00  0.00     0.202 C 
BRANCH   3   4
ATOM      4  C   UNL A   1      34.397  22.929  27.200  1.00  0.00     0.261 C 
BRANCH   4   5
ATOM      5  O   UNL A   1      33.304  23.411  26.411  1.00  0.00    -0.463 OA
BRANCH   5   6
ATOM      6  C   UNL A   1      32.085  22.886  26.659  1.00  0.00     0.312 C 
ATOM      7  O   UNL A   1      31.551  22.860  27.764  1.00  0.00    -0.252 OA
BRANCH   6   8
ATOM      8  C   UNL A   1      31.349  22.444  25.392  1.00  0.00     0.123 C 
ATOM      9  C   UNL A   1      31.535  22.923  22.975  1.00  0.00     0.093 C 
ATOM     10  C   UNL A   1      32.269  21.693  23.357  1.00  0.00    -0.011 C 
ATOM     11  C   UNL A   1      31.007  23.462  24.292  1.00  0.00     0.043 C 
ATOM     12  C   UNL A   1      32.172  21.429  24.663  1.00  0.00    -0.015 C 
BRANCH   9  13
ATOM     13  N   UNL A   1      32.298  23.852  22.140  1.00  0.00    -0.203 NA
ATOM     14  H   UNL A   1      32.933  23.266  21.599  1.00  0.00     0.142 HD
BRANCH  13  15
ATOM     15  S   UNL A   1      33.245  25.138  22.702  1.00  0.00     0.260 S 
ATOM     16  O   UNL A   1      33.740  25.894  21.589  1.00  0.00    -0.205 OA
ATOM     17  O   UNL A   1      34.159  24.530  23.660  1.00  0.00    -0.205 OA
BRANCH  15  18
ATOM     18  C   UNL A   1      32.283  26.226  23.647  1.00  0.00     0.188 A 
ATOM     19  N   UNL A   1      30.945  27.874  24.134  1.00  0.00    -0.334 N 
ATOM     20  C   UNL A   1      31.168  26.890  23.198  1.00  0.00     0.129 A 
ATOM     21  C   UNL A   1      31.643  27.502  25.261  1.00  0.00     0.107 A 
ATOM     22  N   UNL A   1      32.533  26.574  24.954  1.00  0.00    -0.221 NA
ATOM     23  C   UNL A   1      31.459  28.002  26.645  1.00  0.00     0.088 C 
BRANCH  19  24
ATOM     24  C   UNL A   1      30.224  29.075  23.752  1.00  0.00     0.123 C 
BRANCH  24  25
ATOM     25  C   UNL A   1      29.943  29.407  22.294  1.00  0.00     0.018 C 
ATOM     26  C   UNL A   1      28.530  29.910  22.038  1.00  0.00     0.006 C 
ENDBRANCH  24  25
ENDBRANCH  19  24
ENDBRANCH  15  18
ENDBRANCH  13  15
ENDBRANCH   9  13
ENDBRANCH   6   8
ENDBRANCH   5   6
ENDBRANCH   4   5
ENDBRANCH   3   4
ENDBRANCH   2   3
ENDBRANCH   1   2
BRANCH   1  27
ATOM     27  C   UNL A   1      38.441  22.375  26.030  1.00  0.00     0.188 C 
BRANCH  27  28
ATOM     28  O   UNL A   1      38.933  21.138  25.573  1.00  0.00    -0.377 OA
BRANCH  28  29
ATOM     29  C   UNL A   1      40.084  20.606  26.214  1.00  0.00     0.188 C 
BRANCH  29  30
ATOM     30  C   UNL A   1      41.359  21.478  26.355  1.00  0.00     0.188 C 
BRANCH  30  31
ATOM     31  O   UNL A   1      41.800  21.740  27.683  1.00  0.00    -0.376 OA
BRANCH  31  32
ATOM     32  C   UNL A   1      41.939  23.063  28.181  1.00  0.00     0.202 C 
BRANCH  32  33
ATOM     33  C   UNL A   1      42.943  23.345  29.302  1.00  0.00     0.261 C 
BRANCH  33  34
ATOM     34  O   UNL A   1      43.141  24.715  29.585  1.00  0.00    -0.460 OA
BRANCH  34  35
ATOM     35  C   UNL A   1      44.385  25.163  29.341  1.00  0.00     0.338 C 
ATOM     36  O   UNL A   1      45.420  24.515  29.358  1.00  0.00    -0.246 OA
BRANCH  35  37
ATOM     37  C   UNL A   1      44.332  26.618  29.207  1.00  0.00     0.060 A 
ATOM     38  C   UNL A   1      44.322  27.326  30.405  1.00  0.00     0.016 A 
ATOM     39  C   UNL A   1      43.882  27.168  27.996  1.00  0.00     0.016 A 
ATOM     40  C   UNL A   1      43.565  28.467  30.450  1.00  0.00     0.010 A 
ATOM     41  C   UNL A   1      43.120  28.304  28.045  1.00  0.00     0.010 A 
ATOM     42  C   UNL A   1      42.879  28.865  29.293  1.00  0.00    -0.014 A 
BRANCH  42  43
ATOM     43  C   UNL A   1      41.971  29.976  29.414  1.00  0.00     0.031 A 
ATOM     44  C   UNL A   1      42.684  31.261  29.334  1.00  0.00     0.074 A 
ATOM     45  C   UNL A   1      40.640  29.837  29.548  1.00  0.00     0.049 A 
ATOM     46  N   UNL A   1      42.928  32.064  30.312  1.00  0.00    -0.248 NA
ATOM     47  C   UNL A   1      43.399  31.575  28.087  1.00  0.00     0.031 C 
ATOM     48  C   UNL A   1      39.819  28.632  29.404  1.00  0.00     0.029 A 
ATOM     49  N   UNL A   1      39.715  30.808  29.758  1.00  0.00    -0.354 N 
ATOM     50  C   UNL A   1      43.645  33.109  29.752  1.00  0.00     0.074 A 
ATOM     51  C   UNL A   1      44.082  32.659  28.454  1.00  0.00     0.031 C 
ATOM     52  C   UNL A   1      38.519  28.995  29.278  1.00  0.00     0.029 A 
ATOM     53  C   UNL A   1      38.409  30.432  29.472  1.00  0.00     0.049 A 
ATOM     54  H   UNL A   1      39.952  31.706  30.084  1.00  0.00     0.167 HD
ATOM     55  C   UNL A   1      43.541  34.362  30.267  1.00  0.00     0.031 A 
ATOM     56  C   UNL A   1      37.349  31.271  29.341  1.00  0.00     0.031 A 
ATOM     57  C   UNL A   1      43.022  34.344  31.613  1.00  0.00     0.049 A 
ATOM     58  C   UNL A   1      37.704  32.546  30.010  1.00  0.00     0.074 A 
ATOM     59  C   UNL A   1      43.422  33.763  32.802  1.00  0.00     0.029 A 
ATOM     60  N   UNL A   1      41.693  34.656  31.774  1.00  0.00    -0.354 N 
ATOM     61  N   UNL A   1      37.834  32.660  31.300  1.00  0.00    -0.248 NA
ATOM     62  C   UNL A   1      38.376  33.569  29.223  1.00  0.00     0.031 C 
ATOM     63  C   UNL A   1      42.214  33.333  33.429  1.00  0.00     0.029 A 
ATOM     64  C   UNL A   1      41.143  33.738  32.631  1.00  0.00     0.049 A 
ATOM     65  H   UNL A   1      41.219  35.407  31.350  1.00  0.00     0.167 HD
ATOM     66  C   UNL A   1      38.961  33.451  31.468  1.00  0.00     0.074 A 
ATOM     67  C   UNL A   1      39.192  34.063  30.159  1.00  0.00     0.031 C 
ATOM     68  C   UNL A   1      39.767  33.302  32.562  1.00  0.00     0.031 A 
BRANCH  55  69
ATOM     69  C   UNL A   1      43.428  35.572  29.373  1.00  0.00    -0.014 A 
ATOM     70  C   UNL A   1      44.203  36.701  29.681  1.00  0.00     0.009 A 
ATOM     71  C   UNL A   1      42.384  35.753  28.444  1.00  0.00     0.009 A 
ATOM     72  C   UNL A   1      43.890  37.958  29.150  1.00  0.00     0.001 A 
ATOM     73  C   UNL A   1      42.095  36.995  27.880  1.00  0.00     0.001 A 
ATOM     74  C   UNL A   1      42.832  38.105  28.260  1.00  0.00     0.000 A 
ENDBRANCH  55  69
BRANCH  56  75
ATOM     75  C   UNL A   1      36.196  31.183  28.419  1.00  0.00    -0.014 A 
ATOM     76  C   UNL A   1      35.870  29.964  27.798  1.00  0.00     0.009 A 
ATOM     77  C   UNL A   1      35.236  32.210  28.382  1.00  0.00     0.009 A 
ATOM     78  C   UNL A   1      34.611  29.764  27.214  1.00  0.00     0.001 A 
ATOM     79  C   UNL A   1      33.981  32.011  27.795  1.00  0.00     0.001 A 
ATOM     80  C   UNL A   1      33.662  30.783  27.228  1.00  0.00     0.000 A 
ENDBRANCH  56  75
BRANCH  68  81
ATOM     81  C   UNL A   1      39.264  32.427  33.688  1.00  0.00    -0.014 A 
ATOM     82  C   UNL A   1      39.640  31.082  33.858  1.00  0.00     0.009 A 
ATOM     83  C   UNL A   1      38.462  33.018  34.674  1.00  0.00     0.009 A 
ATOM     84  C   UNL A   1      39.183  30.341  34.954  1.00  0.00     0.001 A 
ATOM     85  C   UNL A   1      38.025  32.286  35.781  1.00  0.00     0.001 A 
ATOM     86  C   UNL A   1      38.377  30.945  35.915  1.00  0.00     0.000 A 
ENDBRANCH  68  81
ENDBRANCH  42  43
ENDBRANCH  35  37
ENDBRANCH  34  35
ENDBRANCH  33  34
ENDBRANCH  32  33
ENDBRANCH  31  32
ENDBRANCH  30  31
ENDBRANCH  29  30
ENDBRANCH  28  29
ENDBRANCH  27  28
ENDBRANCH   1  27
TORSDOF 25
ENDMDL
