MODEL 1
REMARK VINA RESULT:      -9.7      0.000      0.000
REMARK SMILES O=C(CCC(=O)N1N=C(c2ccc(F)cc2)C[C@@H]1c1ccc2nccnc2c1)OCCOCCOCCOCCOC(=O)c1ccc(-c2c3nc(c(-c4ccccc4)c4ccc([nH]4)c(-c4ccccc4)c4nc(c(-c5ccccc5)c5ccc2[nH]5)C=C4)C=C3)cc1
REMARK SMILES IDX 34 1 33 2 32 3 31 4 30 5 29 6 2 7 1 8 3 9 4 10 5 11 6 12
REMARK SMILES IDX 7 13 8 14 18 15 9 16 17 17 19 18 20 19 28 20 21 21 27 22
REMARK SMILES IDX 22 23 26 24 23 25 25 26 24 27 10 28 11 29 16 30 12 31 15 32
REMARK SMILES IDX 13 33 14 34 35 35 36 36 37 37 38 38 39 39 40 40 41 41 42 42
REMARK SMILES IDX 43 43 44 44 45 45 91 46 46 47 90 48 47 49 48 50 49 51 84 52
REMARK SMILES IDX 50 53 89 54 83 55 85 56 51 57 88 58 82 59 81 60 52 62 74 63
REMARK SMILES IDX 59 64 73 65 60 66 63 67 72 68 86 69 61 70 62 71 71 73 87 74
REMARK SMILES IDX 64 75 53 76 54 77 58 78 55 79 57 80 56 81 75 82 76 83 80 84
REMARK SMILES IDX 77 85 79 86 78 87 65 88 66 89 70 90 67 91 69 92 68 93
REMARK H PARENT 85 61 63 72
REMARK Flexibility Score: inf
ROOT
ATOM      1  C   UNL A   1      31.245  22.578  24.700  1.00  0.00     0.188 C 
ENDROOT
BRANCH   1   2
ATOM      2  C   UNL A   1      32.202  21.346  24.994  1.00  0.00     0.188 C 
BRANCH   2   3
ATOM      3  O   UNL A   1      32.257  20.349  23.960  1.00  0.00    -0.376 OA
BRANCH   3   4
ATOM      4  C   UNL A   1      32.151  18.994  24.396  1.00  0.00     0.202 C 
BRANCH   4   5
ATOM      5  C   UNL A   1      32.419  18.065  23.208  1.00  0.00     0.261 C 
BRANCH   5   6
ATOM      6  O   UNL A   1      33.810  17.717  23.181  1.00  0.00    -0.463 OA
BRANCH   6   7
ATOM      7  C   UNL A   1      34.298  16.970  24.194  1.00  0.00     0.306 C 
ATOM      8  O   UNL A   1      34.178  15.758  24.302  1.00  0.00    -0.252 OA
BRANCH   7   9
ATOM      9  C   UNL A   1      35.284  17.741  24.986  1.00  0.00     0.132 C 
BRANCH   9  10
ATOM     10  C   UNL A   1      35.598  19.082  24.344  1.00  0.00     0.114 C 
BRANCH  10  11
ATOM     11  C   UNL A   1      35.780  20.327  25.214  1.00  0.00     0.243 C 
ATOM     12  O   UNL A   1      34.977  20.516  26.140  1.00  0.00    -0.273 OA
BRANCH  11  13
ATOM     13  N   UNL A   1      36.738  21.323  24.854  1.00  0.00    -0.225 N 
ATOM     14  N   UNL A   1      36.193  22.133  23.818  1.00  0.00    -0.174 NA
ATOM     15  C   UNL A   1      37.123  22.250  25.964  1.00  0.00     0.147 C 
ATOM     16  C   UNL A   1      35.728  23.199  24.402  1.00  0.00     0.071 C 
ATOM     17  C   UNL A   1      36.054  23.340  25.855  1.00  0.00     0.091 C 
BRANCH  15  18
ATOM     18  C   UNL A   1      38.547  22.851  25.983  1.00  0.00    -0.021 A 
ATOM     19  C   UNL A   1      38.661  24.488  26.613  1.00  0.00     0.008 A 
ATOM     20  C   UNL A   1      40.012  21.883  25.739  1.00  0.00     0.036 A 
ATOM     21  C   UNL A   1      40.177  25.255  26.997  1.00  0.00     0.031 A 
ATOM     22  C   UNL A   1      41.662  22.548  26.073  1.00  0.00     0.089 A 
ATOM     23  C   UNL A   1      41.705  24.445  26.669  1.00  0.00     0.089 A 
ATOM     24  N   UNL A   1      43.067  21.883  25.367  1.00  0.00    -0.253 NA
ATOM     25  N   UNL A   1      43.170  25.309  26.214  1.00  0.00    -0.253 NA
ATOM     26  C   UNL A   1      44.416  22.869  25.054  1.00  0.00     0.132 A 
ATOM     27  C   UNL A   1      44.481  24.498  25.435  1.00  0.00     0.132 A 
ENDBRANCH  15  18
BRANCH  16  28
ATOM     28  C   UNL A   1      34.724  24.093  23.810  1.00  0.00    -0.002 A 
ATOM     29  C   UNL A   1      34.050  23.783  22.626  1.00  0.00     0.013 A 
ATOM     30  C   UNL A   1      34.575  25.350  24.410  1.00  0.00     0.013 A 
ATOM     31  C   UNL A   1      33.190  24.735  22.067  1.00  0.00     0.040 A 
ATOM     32  C   UNL A   1      33.732  26.300  23.837  1.00  0.00     0.040 A 
ATOM     33  C   UNL A   1      33.040  25.981  22.675  1.00  0.00     0.123 A 
ATOM     34  F   UNL A   1      32.226  26.893  22.126  1.00  0.00    -0.207 F 
ENDBRANCH  16  28
ENDBRANCH  11  13
ENDBRANCH  10  11
ENDBRANCH   9  10
ENDBRANCH   7   9
ENDBRANCH   6   7
ENDBRANCH   5   6
ENDBRANCH   4   5
ENDBRANCH   3   4
ENDBRANCH   2   3
ENDBRANCH   1   2
BRANCH   1  35
ATOM     35  O   UNL A   1      31.380  24.077  25.022  1.00  0.00    -0.377 OA
BRANCH  35  36
ATOM     36  C   UNL A   1      30.760  25.703  25.999  1.00  0.00     0.188 C 
BRANCH  36  37
ATOM     37  C   UNL A   1      30.185  26.952  24.730  1.00  0.00     0.188 C 
BRANCH  37  38
ATOM     38  O   UNL A   1      31.235  28.657  24.982  1.00  0.00    -0.376 OA
BRANCH  38  39
ATOM     39  C   UNL A   1      32.602  29.164  25.693  1.00  0.00     0.202 C 
BRANCH  39  40
ATOM     40  C   UNL A   1      32.780  29.752  27.188  1.00  0.00     0.261 C 
BRANCH  40  41
ATOM     41  O   UNL A   1      34.070  29.512  27.854  1.00  0.00    -0.460 OA
BRANCH  41  42
ATOM     42  C   UNL A   1      34.957  30.555  27.779  1.00  0.00     0.338 C 
ATOM     43  O   UNL A   1      34.691  31.697  27.429  1.00  0.00    -0.246 OA
BRANCH  42  44
ATOM     44  C   UNL A   1      36.273  30.241  28.427  1.00  0.00     0.060 A 
ATOM     45  C   UNL A   1      36.260  29.350  29.515  1.00  0.00     0.016 A 
ATOM     46  C   UNL A   1      37.480  30.841  28.073  1.00  0.00     0.016 A 
ATOM     47  C   UNL A   1      37.425  28.987  30.191  1.00  0.00     0.010 A 
ATOM     48  C   UNL A   1      38.644  30.566  28.826  1.00  0.00     0.010 A 
ATOM     49  C   UNL A   1      38.615  29.658  29.906  1.00  0.00    -0.014 A 
BRANCH  49  50
ATOM     50  C   UNL A   1      39.682  29.651  30.945  1.00  0.00     0.031 A 
ATOM     51  C   UNL A   1      40.835  28.693  30.747  1.00  0.00     0.074 A 
ATOM     52  C   UNL A   1      39.694  30.479  32.006  1.00  0.00     0.049 A 
ATOM     53  N   UNL A   1      41.875  28.466  31.511  1.00  0.00    -0.248 NA
ATOM     54  C   UNL A   1      40.822  27.903  29.503  1.00  0.00     0.031 C 
ATOM     55  C   UNL A   1      38.726  31.537  32.279  1.00  0.00     0.029 A 
ATOM     56  N   UNL A   1      40.573  30.547  33.063  1.00  0.00    -0.354 N 
ATOM     57  C   UNL A   1      42.634  27.517  30.834  1.00  0.00     0.074 A 
ATOM     58  C   UNL A   1      41.950  27.222  29.597  1.00  0.00     0.031 C 
ATOM     59  C   UNL A   1      39.051  32.134  33.442  1.00  0.00     0.029 A 
ATOM     60  C   UNL A   1      40.228  31.477  34.012  1.00  0.00     0.049 A 
ATOM     61  H   UNL A   1      41.376  29.983  33.131  1.00  0.00     0.167 HD
ATOM     62  C   UNL A   1      43.783  26.910  31.212  1.00  0.00     0.031 A 
ATOM     63  C   UNL A   1      40.778  31.742  35.215  1.00  0.00     0.031 A 
ATOM     64  C   UNL A   1      44.430  27.113  32.474  1.00  0.00     0.049 A 
ATOM     65  C   UNL A   1      41.970  30.946  35.688  1.00  0.00     0.074 A 
ATOM     66  C   UNL A   1      45.551  26.482  32.982  1.00  0.00     0.029 A 
ATOM     67  N   UNL A   1      43.992  28.000  33.441  1.00  0.00    -0.354 N 
ATOM     68  N   UNL A   1      42.656  30.026  35.055  1.00  0.00    -0.248 NA
ATOM     69  C   UNL A   1      42.451  31.218  37.054  1.00  0.00     0.031 C 
ATOM     70  C   UNL A   1      45.764  26.957  34.281  1.00  0.00     0.029 A 
ATOM     71  C   UNL A   1      44.805  27.918  34.556  1.00  0.00     0.049 A 
ATOM     72  H   UNL A   1      43.217  28.601  33.349  1.00  0.00     0.167 HD
ATOM     73  C   UNL A   1      43.661  29.630  35.931  1.00  0.00     0.074 A 
ATOM     74  C   UNL A   1      43.500  30.411  37.139  1.00  0.00     0.031 C 
ATOM     75  C   UNL A   1      44.633  28.703  35.749  1.00  0.00     0.031 A 
BRANCH  62  76
ATOM     76  C   UNL A   1      44.339  25.891  30.262  1.00  0.00    -0.014 A 
ATOM     77  C   UNL A   1      43.846  24.577  30.237  1.00  0.00     0.009 A 
ATOM     78  C   UNL A   1      45.409  26.239  29.424  1.00  0.00     0.009 A 
ATOM     79  C   UNL A   1      44.442  23.620  29.413  1.00  0.00     0.001 A 
ATOM     80  C   UNL A   1      45.988  25.285  28.589  1.00  0.00     0.001 A 
ATOM     81  C   UNL A   1      45.513  23.975  28.592  1.00  0.00     0.000 A 
ENDBRANCH  62  76
BRANCH  63  82
ATOM     82  C   UNL A   1      40.183  32.775  36.106  1.00  0.00    -0.014 A 
ATOM     83  C   UNL A   1      38.999  32.514  36.813  1.00  0.00     0.009 A 
ATOM     84  C   UNL A   1      40.768  34.047  36.208  1.00  0.00     0.009 A 
ATOM     85  C   UNL A   1      38.404  33.511  37.589  1.00  0.00     0.001 A 
ATOM     86  C   UNL A   1      40.182  35.036  37.001  1.00  0.00     0.001 A 
ATOM     87  C   UNL A   1      38.997  34.770  37.685  1.00  0.00     0.000 A 
ENDBRANCH  63  82
BRANCH  75  88
ATOM     88  C   UNL A   1      45.625  28.505  36.860  1.00  0.00    -0.014 A 
ATOM     89  C   UNL A   1      45.427  27.530  37.849  1.00  0.00     0.009 A 
ATOM     90  C   UNL A   1      46.806  29.265  36.875  1.00  0.00     0.009 A 
ATOM     91  C   UNL A   1      46.386  27.336  38.847  1.00  0.00     0.001 A 
ATOM     92  C   UNL A   1      47.771  29.052  37.860  1.00  0.00     0.001 A 
ATOM     93  C   UNL A   1      47.557  28.093  38.849  1.00  0.00     0.000 A 
ENDBRANCH  75  88
ENDBRANCH  49  50
ENDBRANCH  42  44
ENDBRANCH  41  42
ENDBRANCH  40  41
ENDBRANCH  39  40
ENDBRANCH  38  39
ENDBRANCH  37  38
ENDBRANCH  36  37
ENDBRANCH  35  36
ENDBRANCH   1  35
TORSDOF 25
ENDMDL
MODEL 2
REMARK VINA RESULT:      -9.6      3.846      6.664
REMARK SMILES O=C(CCC(=O)N1N=C(c2ccc(F)cc2)C[C@@H]1c1ccc2nccnc2c1)OCCOCCOCCOCCOC(=O)c1ccc(-c2c3nc(c(-c4ccccc4)c4ccc([nH]4)c(-c4ccccc4)c4nc(c(-c5ccccc5)c5ccc2[nH]5)C=C4)C=C3)cc1
REMARK SMILES IDX 34 1 33 2 32 3 31 4 30 5 29 6 2 7 1 8 3 9 4 10 5 11 6 12
REMARK SMILES IDX 7 13 8 14 18 15 9 16 17 17 19 18 20 19 28 20 21 21 27 22
REMARK SMILES IDX 22 23 26 24 23 25 25 26 24 27 10 28 11 29 16 30 12 31 15 32
REMARK SMILES IDX 13 33 14 34 35 35 36 36 37 37 38 38 39 39 40 40 41 41 42 42
REMARK SMILES IDX 43 43 44 44 45 45 91 46 46 47 90 48 47 49 48 50 49 51 84 52
REMARK SMILES IDX 50 53 89 54 83 55 85 56 51 57 88 58 82 59 81 60 52 62 74 63
REMARK SMILES IDX 59 64 73 65 60 66 63 67 72 68 86 69 61 70 62 71 71 73 87 74
REMARK SMILES IDX 64 75 53 76 54 77 58 78 55 79 57 80 56 81 75 82 76 83 80 84
REMARK SMILES IDX 77 85 79 86 78 87 65 88 66 89 70 90 67 91 69 92 68 93
REMARK H PARENT 85 61 63 72
REMARK Flexibility Score: inf
ROOT
ATOM      1  C   UNL A   1      31.502  23.746  23.870  1.00  0.00     0.188 C 
ENDROOT
BRANCH   1   2
ATOM      2  C   UNL A   1      32.742  22.895  24.379  1.00  0.00     0.188 C 
BRANCH   2   3
ATOM      3  O   UNL A   1      32.534  21.474  24.432  1.00  0.00    -0.376 OA
BRANCH   3   4
ATOM      4  C   UNL A   1      33.697  20.667  24.244  1.00  0.00     0.202 C 
BRANCH   4   5
ATOM      5  C   UNL A   1      34.794  21.140  25.201  1.00  0.00     0.261 C 
BRANCH   5   6
ATOM      6  O   UNL A   1      36.021  21.303  24.476  1.00  0.00    -0.463 OA
BRANCH   6   7
ATOM      7  C   UNL A   1      36.582  22.530  24.445  1.00  0.00     0.306 C 
ATOM      8  O   UNL A   1      36.771  23.197  23.437  1.00  0.00    -0.252 OA
BRANCH   7   9
ATOM      9  C   UNL A   1      36.633  23.119  25.802  1.00  0.00     0.132 C 
BRANCH   9  10
ATOM     10  C   UNL A   1      37.858  24.000  25.988  1.00  0.00     0.114 C 
BRANCH  10  11
ATOM     11  C   UNL A   1      39.102  23.448  26.688  1.00  0.00     0.243 C 
ATOM     12  O   UNL A   1      39.302  22.225  26.648  1.00  0.00    -0.273 OA
BRANCH  11  13
ATOM     13  N   UNL A   1      39.905  24.300  27.506  1.00  0.00    -0.225 N 
ATOM     14  N   UNL A   1      41.246  23.822  27.490  1.00  0.00    -0.174 NA
ATOM     15  C   UNL A   1      39.954  25.728  27.062  1.00  0.00     0.147 C 
ATOM     16  C   UNL A   1      41.876  24.549  26.612  1.00  0.00     0.071 C 
ATOM     17  C   UNL A   1      41.113  25.712  26.063  1.00  0.00     0.091 C 
BRANCH  15  18
ATOM     18  C   UNL A   1      40.132  26.840  28.121  1.00  0.00    -0.021 A 
ATOM     19  C   UNL A   1      41.224  28.140  27.666  1.00  0.00     0.008 A 
ATOM     20  C   UNL A   1      39.073  27.016  29.531  1.00  0.00     0.036 A 
ATOM     21  C   UNL A   1      41.358  29.628  28.562  1.00  0.00     0.031 A 
ATOM     22  C   UNL A   1      39.109  28.494  30.575  1.00  0.00     0.089 A 
ATOM     23  C   UNL A   1      40.457  29.862  30.057  1.00  0.00     0.089 A 
ATOM     24  N   UNL A   1      38.534  28.483  32.182  1.00  0.00    -0.253 NA
ATOM     25  N   UNL A   1      41.067  30.816  31.404  1.00  0.00    -0.253 NA
ATOM     26  C   UNL A   1      39.212  29.527  33.339  1.00  0.00     0.132 A 
ATOM     27  C   UNL A   1      40.423  30.631  32.995  1.00  0.00     0.132 A 
ENDBRANCH  15  18
BRANCH  16  28
ATOM     28  C   UNL A   1      43.132  24.153  25.963  1.00  0.00    -0.002 A 
ATOM     29  C   UNL A   1      44.134  25.072  25.644  1.00  0.00     0.013 A 
ATOM     30  C   UNL A   1      43.222  22.821  25.537  1.00  0.00     0.013 A 
ATOM     31  C   UNL A   1      45.252  24.635  24.926  1.00  0.00     0.040 A 
ATOM     32  C   UNL A   1      44.329  22.397  24.804  1.00  0.00     0.040 A 
ATOM     33  C   UNL A   1      45.339  23.306  24.512  1.00  0.00     0.123 A 
ATOM     34  F   UNL A   1      46.406  22.898  23.813  1.00  0.00    -0.207 F 
ENDBRANCH  16  28
ENDBRANCH  11  13
ENDBRANCH  10  11
ENDBRANCH   9  10
ENDBRANCH   7   9
ENDBRANCH   6   7
ENDBRANCH   5   6
ENDBRANCH   4   5
ENDBRANCH   3   4
ENDBRANCH   2   3
ENDBRANCH   1   2
BRANCH   1  35
ATOM     35  O   UNL A   1      31.303  25.262  23.699  1.00  0.00    -0.377 OA
BRANCH  35  36
ATOM     36  C   UNL A   1      30.347  26.949  24.173  1.00  0.00     0.188 C 
BRANCH  36  37
ATOM     37  C   UNL A   1      31.496  28.381  23.813  1.00  0.00     0.188 C 
BRANCH  37  38
ATOM     38  O   UNL A   1      32.936  28.422  25.227  1.00  0.00    -0.376 OA
BRANCH  38  39
ATOM     39  C   UNL A   1      33.742  29.504  26.128  1.00  0.00     0.202 C 
BRANCH  39  40
ATOM     40  C   UNL A   1      33.123  30.656  27.078  1.00  0.00     0.261 C 
BRANCH  40  41
ATOM     41  O   UNL A   1      33.839  30.950  28.329  1.00  0.00    -0.460 OA
BRANCH  41  42
ATOM     42  C   UNL A   1      34.176  32.268  28.501  1.00  0.00     0.338 C 
ATOM     43  O   UNL A   1      33.610  33.224  27.988  1.00  0.00    -0.246 OA
BRANCH  42  44
ATOM     44  C   UNL A   1      35.169  32.470  29.607  1.00  0.00     0.060 A 
ATOM     45  C   UNL A   1      35.278  33.763  30.150  1.00  0.00     0.016 A 
ATOM     46  C   UNL A   1      36.042  31.483  30.062  1.00  0.00     0.016 A 
ATOM     47  C   UNL A   1      36.167  34.062  31.181  1.00  0.00     0.010 A 
ATOM     48  C   UNL A   1      37.024  31.808  31.025  1.00  0.00     0.010 A 
ATOM     49  C   UNL A   1      37.107  33.107  31.570  1.00  0.00    -0.014 A 
BRANCH  49  50
ATOM     50  C   UNL A   1      38.340  33.584  32.256  1.00  0.00     0.031 A 
ATOM     51  C   UNL A   1      39.530  33.924  31.386  1.00  0.00     0.074 A 
ATOM     52  C   UNL A   1      38.426  33.774  33.586  1.00  0.00     0.049 A 
ATOM     53  N   UNL A   1      40.727  34.331  31.728  1.00  0.00    -0.248 NA
ATOM     54  C   UNL A   1      39.328  33.811  29.931  1.00  0.00     0.031 C 
ATOM     55  C   UNL A   1      37.340  33.611  34.548  1.00  0.00     0.029 A 
ATOM     56  N   UNL A   1      39.503  34.152  34.355  1.00  0.00    -0.354 N 
ATOM     57  C   UNL A   1      41.409  34.525  30.532  1.00  0.00     0.074 A 
ATOM     58  C   UNL A   1      40.496  34.210  29.460  1.00  0.00     0.031 C 
ATOM     59  C   UNL A   1      37.813  33.863  35.784  1.00  0.00     0.029 A 
ATOM     60  C   UNL A   1      39.241  34.172  35.704  1.00  0.00     0.049 A 
ATOM     61  H   UNL A   1      40.379  34.389  33.975  1.00  0.00     0.167 HD
ATOM     62  C   UNL A   1      42.693  34.900  30.329  1.00  0.00     0.031 A 
ATOM     63  C   UNL A   1      40.066  34.381  36.750  1.00  0.00     0.031 A 
ATOM     64  C   UNL A   1      43.647  35.126  31.374  1.00  0.00     0.049 A 
ATOM     65  C   UNL A   1      41.532  34.645  36.509  1.00  0.00     0.074 A 
ATOM     66  C   UNL A   1      44.992  35.428  31.266  1.00  0.00     0.029 A 
ATOM     67  N   UNL A   1      43.357  35.046  32.725  1.00  0.00    -0.354 N 
ATOM     68  N   UNL A   1      42.173  34.791  35.376  1.00  0.00    -0.248 NA
ATOM     69  C   UNL A   1      42.392  34.759  37.701  1.00  0.00     0.031 C 
ATOM     70  C   UNL A   1      45.528  35.483  32.558  1.00  0.00     0.029 A 
ATOM     71  C   UNL A   1      44.504  35.267  33.465  1.00  0.00     0.049 A 
ATOM     72  H   UNL A   1      42.468  34.859  33.103  1.00  0.00     0.167 HD
ATOM     73  C   UNL A   1      43.499  35.037  35.715  1.00  0.00     0.074 A 
ATOM     74  C   UNL A   1      43.573  35.027  37.161  1.00  0.00     0.031 C 
ATOM     75  C   UNL A   1      44.561  35.256  34.902  1.00  0.00     0.031 A 
BRANCH  62  76
ATOM     76  C   UNL A   1      43.143  34.984  28.900  1.00  0.00    -0.014 A 
ATOM     77  C   UNL A   1      43.843  33.928  28.297  1.00  0.00     0.009 A 
ATOM     78  C   UNL A   1      42.911  36.160  28.171  1.00  0.00     0.009 A 
ATOM     79  C   UNL A   1      44.336  34.065  26.998  1.00  0.00     0.001 A 
ATOM     80  C   UNL A   1      43.387  36.285  26.867  1.00  0.00     0.001 A 
ATOM     81  C   UNL A   1      44.109  35.243  26.285  1.00  0.00     0.000 A 
ENDBRANCH  62  76
BRANCH  63  82
ATOM     82  C   UNL A   1      39.554  34.294  38.144  1.00  0.00    -0.014 A 
ATOM     83  C   UNL A   1      39.088  35.439  38.808  1.00  0.00     0.009 A 
ATOM     84  C   UNL A   1      39.583  33.073  38.837  1.00  0.00     0.009 A 
ATOM     85  C   UNL A   1      38.677  35.367  40.142  1.00  0.00     0.001 A 
ATOM     86  C   UNL A   1      39.152  32.999  40.163  1.00  0.00     0.001 A 
ATOM     87  C   UNL A   1      38.707  34.147  40.816  1.00  0.00     0.000 A 
ENDBRANCH  63  82
BRANCH  75  88
ATOM     88  C   UNL A   1      45.887  35.541  35.547  1.00  0.00    -0.014 A 
ATOM     89  C   UNL A   1      46.639  34.523  36.150  1.00  0.00     0.009 A 
ATOM     90  C   UNL A   1      46.417  36.840  35.490  1.00  0.00     0.009 A 
ATOM     91  C   UNL A   1      47.890  34.806  36.705  1.00  0.00     0.001 A 
ATOM     92  C   UNL A   1      47.676  37.115  36.026  1.00  0.00     0.001 A 
ATOM     93  C   UNL A   1      48.408  36.098  36.638  1.00  0.00     0.000 A 
ENDBRANCH  75  88
ENDBRANCH  49  50
ENDBRANCH  42  44
ENDBRANCH  41  42
ENDBRANCH  40  41
ENDBRANCH  39  40
ENDBRANCH  38  39
ENDBRANCH  37  38
ENDBRANCH  36  37
ENDBRANCH  35  36
ENDBRANCH   1  35
TORSDOF 25
ENDMDL
MODEL 3
REMARK VINA RESULT:      -9.3      7.317     11.084
REMARK SMILES O=C(CCC(=O)N1N=C(c2ccc(F)cc2)C[C@@H]1c1ccc2nccnc2c1)OCCOCCOCCOCCOC(=O)c1ccc(-c2c3nc(c(-c4ccccc4)c4ccc([nH]4)c(-c4ccccc4)c4nc(c(-c5ccccc5)c5ccc2[nH]5)C=C4)C=C3)cc1
REMARK SMILES IDX 34 1 33 2 32 3 31 4 30 5 29 6 2 7 1 8 3 9 4 10 5 11 6 12
REMARK SMILES IDX 7 13 8 14 18 15 9 16 17 17 19 18 20 19 28 20 21 21 27 22
REMARK SMILES IDX 22 23 26 24 23 25 25 26 24 27 10 28 11 29 16 30 12 31 15 32
REMARK SMILES IDX 13 33 14 34 35 35 36 36 37 37 38 38 39 39 40 40 41 41 42 42
REMARK SMILES IDX 43 43 44 44 45 45 91 46 46 47 90 48 47 49 48 50 49 51 84 52
REMARK SMILES IDX 50 53 89 54 83 55 85 56 51 57 88 58 82 59 81 60 52 62 74 63
REMARK SMILES IDX 59 64 73 65 60 66 63 67 72 68 86 69 61 70 62 71 71 73 87 74
REMARK SMILES IDX 64 75 53 76 54 77 58 78 55 79 57 80 56 81 75 82 76 83 80 84
REMARK SMILES IDX 77 85 79 86 78 87 65 88 66 89 70 90 67 91 69 92 68 93
REMARK H PARENT 85 61 63 72
REMARK Flexibility Score: inf
ROOT
ATOM      1  C   UNL A   1      35.433  21.870  26.282  1.00  0.00     0.188 C 
ENDROOT
BRANCH   1   2
ATOM      2  C   UNL A   1      34.463  20.842  25.557  1.00  0.00     0.188 C 
BRANCH   2   3
ATOM      3  O   UNL A   1      33.303  21.422  24.940  1.00  0.00    -0.376 OA
BRANCH   3   4
ATOM      4  C   UNL A   1      33.379  21.612  23.527  1.00  0.00     0.202 C 
BRANCH   4   5
ATOM      5  C   UNL A   1      32.102  22.306  23.046  1.00  0.00     0.261 C 
BRANCH   5   6
ATOM      6  O   UNL A   1      32.303  23.726  23.044  1.00  0.00    -0.463 OA
BRANCH   6   7
ATOM      7  C   UNL A   1      33.218  24.236  22.193  1.00  0.00     0.306 C 
ATOM      8  O   UNL A   1      33.279  24.000  20.994  1.00  0.00    -0.252 OA
BRANCH   7   9
ATOM      9  C   UNL A   1      33.931  25.378  22.811  1.00  0.00     0.132 C 
BRANCH   9  10
ATOM     10  C   UNL A   1      33.482  26.706  22.224  1.00  0.00     0.114 C 
BRANCH  10  11
ATOM     11  C   UNL A   1      32.051  27.200  22.444  1.00  0.00     0.243 C 
ATOM     12  O   UNL A   1      31.232  27.051  21.525  1.00  0.00    -0.273 OA
BRANCH  11  13
ATOM     13  N   UNL A   1      31.725  27.964  23.605  1.00  0.00    -0.225 N 
ATOM     14  N   UNL A   1      30.740  27.262  24.357  1.00  0.00    -0.174 NA
ATOM     15  C   UNL A   1      32.873  28.213  24.533  1.00  0.00     0.147 C 
ATOM     16  C   UNL A   1      31.384  26.638  25.300  1.00  0.00     0.071 C 
ATOM     17  C   UNL A   1      32.837  26.972  25.427  1.00  0.00     0.091 C 
BRANCH  15  18
ATOM     18  C   UNL A   1      32.897  29.514  25.369  1.00  0.00    -0.021 A 
ATOM     19  C   UNL A   1      31.411  30.453  25.335  1.00  0.00     0.008 A 
ATOM     20  C   UNL A   1      34.159  29.881  26.557  1.00  0.00     0.036 A 
ATOM     21  C   UNL A   1      31.105  31.786  26.414  1.00  0.00     0.031 A 
ATOM     22  C   UNL A   1      33.997  31.248  27.732  1.00  0.00     0.089 A 
ATOM     23  C   UNL A   1      32.338  32.331  27.545  1.00  0.00     0.089 A 
ATOM     24  N   UNL A   1      35.351  31.956  28.492  1.00  0.00    -0.253 NA
ATOM     25  N   UNL A   1      32.521  34.014  28.028  1.00  0.00    -0.253 NA
ATOM     26  C   UNL A   1      35.319  33.594  28.944  1.00  0.00     0.132 A 
ATOM     27  C   UNL A   1      33.993  34.591  28.721  1.00  0.00     0.132 A 
ENDBRANCH  15  18
BRANCH  16  28
ATOM     28  C   UNL A   1      30.855  25.480  26.033  1.00  0.00    -0.002 A 
ATOM     29  C   UNL A   1      31.631  24.355  26.319  1.00  0.00     0.013 A 
ATOM     30  C   UNL A   1      29.481  25.490  26.307  1.00  0.00     0.013 A 
ATOM     31  C   UNL A   1      31.024  23.248  26.923  1.00  0.00     0.040 A 
ATOM     32  C   UNL A   1      28.879  24.376  26.890  1.00  0.00     0.040 A 
ATOM     33  C   UNL A   1      29.658  23.268  27.201  1.00  0.00     0.123 A 
ATOM     34  F   UNL A   1      29.081  22.199  27.765  1.00  0.00    -0.207 F 
ENDBRANCH  16  28
ENDBRANCH  11  13
ENDBRANCH  10  11
ENDBRANCH   9  10
ENDBRANCH   7   9
ENDBRANCH   6   7
ENDBRANCH   5   6
ENDBRANCH   4   5
ENDBRANCH   3   4
ENDBRANCH   2   3
ENDBRANCH   1   2
BRANCH   1  35
ATOM     35  O   UNL A   1      36.786  22.470  25.860  1.00  0.00    -0.377 OA
BRANCH  35  36
ATOM     36  C   UNL A   1      38.759  22.638  26.105  1.00  0.00     0.188 C 
BRANCH  36  37
ATOM     37  C   UNL A   1      39.116  24.365  26.731  1.00  0.00     0.188 C 
BRANCH  37  38
ATOM     38  O   UNL A   1      40.666  24.275  28.021  1.00  0.00    -0.376 OA
BRANCH  38  39
ATOM     39  C   UNL A   1      42.211  24.760  28.119  1.00  0.00     0.202 C 
BRANCH  39  40
ATOM     40  C   UNL A   1      42.774  26.275  28.118  1.00  0.00     0.261 C 
BRANCH  40  41
ATOM     41  O   UNL A   1      44.049  26.517  28.812  1.00  0.00    -0.460 OA
BRANCH  41  42
ATOM     42  C   UNL A   1      45.143  26.600  27.988  1.00  0.00     0.338 C 
ATOM     43  O   UNL A   1      45.613  25.683  27.329  1.00  0.00    -0.246 OA
BRANCH  42  44
ATOM     44  C   UNL A   1      45.581  28.015  27.753  1.00  0.00     0.060 A 
ATOM     45  C   UNL A   1      45.879  28.795  28.884  1.00  0.00     0.016 A 
ATOM     46  C   UNL A   1      45.624  28.620  26.498  1.00  0.00     0.016 A 
ATOM     47  C   UNL A   1      46.296  30.122  28.781  1.00  0.00     0.010 A 
ATOM     48  C   UNL A   1      45.934  29.995  26.396  1.00  0.00     0.010 A 
ATOM     49  C   UNL A   1      46.245  30.758  27.541  1.00  0.00    -0.014 A 
BRANCH  49  50
ATOM     50  C   UNL A   1      46.178  32.247  27.525  1.00  0.00     0.031 A 
ATOM     51  C   UNL A   1      44.905  32.887  28.031  1.00  0.00     0.074 A 
ATOM     52  C   UNL A   1      47.198  33.035  27.138  1.00  0.00     0.049 A 
ATOM     53  N   UNL A   1      44.575  34.153  28.098  1.00  0.00    -0.248 NA
ATOM     54  C   UNL A   1      43.876  31.971  28.554  1.00  0.00     0.031 C 
ATOM     55  C   UNL A   1      48.528  32.582  26.739  1.00  0.00     0.029 A 
ATOM     56  N   UNL A   1      47.259  34.404  27.020  1.00  0.00    -0.354 N 
ATOM     57  C   UNL A   1      43.309  34.177  28.675  1.00  0.00     0.074 A 
ATOM     58  C   UNL A   1      42.937  32.810  28.953  1.00  0.00     0.031 C 
ATOM     59  C   UNL A   1      49.267  33.655  26.396  1.00  0.00     0.029 A 
ATOM     60  C   UNL A   1      48.452  34.865  26.518  1.00  0.00     0.049 A 
ATOM     61  H   UNL A   1      46.517  34.999  27.273  1.00  0.00     0.167 HD
ATOM     62  C   UNL A   1      42.502  35.233  28.926  1.00  0.00     0.031 A 
ATOM     63  C   UNL A   1      48.827  36.112  26.166  1.00  0.00     0.031 A 
ATOM     64  C   UNL A   1      42.806  36.588  28.573  1.00  0.00     0.049 A 
ATOM     65  C   UNL A   1      47.855  37.258  26.309  1.00  0.00     0.074 A 
ATOM     66  C   UNL A   1      42.016  37.715  28.711  1.00  0.00     0.029 A 
ATOM     67  N   UNL A   1      43.991  36.993  27.984  1.00  0.00    -0.354 N 
ATOM     68  N   UNL A   1      46.649  37.262  26.821  1.00  0.00    -0.248 NA
ATOM     69  C   UNL A   1      48.298  38.571  25.807  1.00  0.00     0.031 C 
ATOM     70  C   UNL A   1      42.709  38.799  28.159  1.00  0.00     0.029 A 
ATOM     71  C   UNL A   1      43.947  38.351  27.727  1.00  0.00     0.049 A 
ATOM     72  H   UNL A   1      44.751  36.403  27.778  1.00  0.00     0.167 HD
ATOM     73  C   UNL A   1      46.200  38.575  26.728  1.00  0.00     0.074 A 
ATOM     74  C   UNL A   1      47.264  39.342  26.114  1.00  0.00     0.031 C 
ATOM     75  C   UNL A   1      45.013  39.100  27.118  1.00  0.00     0.031 A 
BRANCH  62  76
ATOM     76  C   UNL A   1      41.165  34.919  29.529  1.00  0.00    -0.014 A 
ATOM     77  C   UNL A   1      41.049  34.516  30.869  1.00  0.00     0.009 A 
ATOM     78  C   UNL A   1      40.015  34.972  28.727  1.00  0.00     0.009 A 
ATOM     79  C   UNL A   1      39.808  34.135  31.382  1.00  0.00     0.001 A 
ATOM     80  C   UNL A   1      38.775  34.611  29.249  1.00  0.00     0.001 A 
ATOM     81  C   UNL A   1      38.673  34.182  30.572  1.00  0.00     0.000 A 
ENDBRANCH  62  76
BRANCH  63  82
ATOM     82  C   UNL A   1      50.174  36.358  25.583  1.00  0.00    -0.014 A 
ATOM     83  C   UNL A   1      50.440  36.048  24.240  1.00  0.00     0.009 A 
ATOM     84  C   UNL A   1      51.216  36.852  26.384  1.00  0.00     0.009 A 
ATOM     85  C   UNL A   1      51.725  36.210  23.717  1.00  0.00     0.001 A 
ATOM     86  C   UNL A   1      52.494  37.033  25.853  1.00  0.00     0.001 A 
ATOM     87  C   UNL A   1      52.750  36.705  24.523  1.00  0.00     0.000 A 
ENDBRANCH  63  82
BRANCH  75  88
ATOM     88  C   UNL A   1      44.809  40.576  26.934  1.00  0.00    -0.014 A 
ATOM     89  C   UNL A   1      45.196  41.495  27.921  1.00  0.00     0.009 A 
ATOM     90  C   UNL A   1      44.279  41.055  25.725  1.00  0.00     0.009 A 
ATOM     91  C   UNL A   1      45.034  42.867  27.708  1.00  0.00     0.001 A 
ATOM     92  C   UNL A   1      44.141  42.426  25.506  1.00  0.00     0.001 A 
ATOM     93  C   UNL A   1      44.512  43.330  26.500  1.00  0.00     0.000 A 
ENDBRANCH  75  88
ENDBRANCH  49  50
ENDBRANCH  42  44
ENDBRANCH  41  42
ENDBRANCH  40  41
ENDBRANCH  39  40
ENDBRANCH  38  39
ENDBRANCH  37  38
ENDBRANCH  36  37
ENDBRANCH  35  36
ENDBRANCH   1  35
TORSDOF 25
ENDMDL
