MODEL 1
REMARK VINA RESULT:      -5.6      0.000      0.000
REMARK SMILES CCc1nc(-c2cccnc2)nc(Oc2ccc(C(=O)OCCOCCOCCOCCOC(=O)c3ccc(-c4c5nc(c(-c6ccccc6)c6ccc([nH]6)c(-c6ccccc6)c6nc(c(-c7ccccc7)c7ccc4[nH]7)C=C6)C=C5)cc3)cc2)c1C
REMARK SMILES IDX 26 1 25 2 24 3 23 4 22 5 21 6 19 7 20 8 18 9 15 10 16 11
REMARK SMILES IDX 85 12 17 13 84 14 14 15 13 16 3 17 4 18 86 19 5 20 87 21
REMARK SMILES IDX 12 22 2 23 1 24 6 25 7 26 11 27 8 28 10 29 9 30 27 31 28 32
REMARK SMILES IDX 29 33 30 34 31 35 32 36 33 37 34 38 35 39 36 40 37 41 83 42
REMARK SMILES IDX 38 43 82 44 39 45 40 46 41 47 76 48 42 49 81 50 75 51 77 52
REMARK SMILES IDX 43 53 80 54 74 55 73 56 44 58 66 59 51 60 65 61 52 62 55 63
REMARK SMILES IDX 64 64 78 65 53 66 54 67 63 69 79 70 56 71 45 72 46 73 50 74
REMARK SMILES IDX 47 75 49 76 48 77 67 78 68 79 72 80 69 81 71 82 70 83 57 84
REMARK SMILES IDX 58 85 62 86 59 87 61 88 60 89
REMARK H PARENT 77 57 55 68
REMARK Flexibility Score: inf
ROOT
ATOM      1  C   UNL A   1      35.744  33.063  33.728  1.00  0.00     0.188 C 
ENDROOT
BRANCH   1   2
ATOM      2  C   UNL A   1      35.883  31.765  32.907  1.00  0.00     0.188 C 
BRANCH   2   3
ATOM      3  O   UNL A   1      37.144  31.139  33.068  1.00  0.00    -0.376 OA
BRANCH   3   4
ATOM      4  C   UNL A   1      37.391  29.869  32.495  1.00  0.00     0.202 C 
BRANCH   4   5
ATOM      5  C   UNL A   1      38.817  29.411  32.140  1.00  0.00     0.261 C 
BRANCH   5   6
ATOM      6  O   UNL A   1      39.096  29.222  30.754  1.00  0.00    -0.460 OA
BRANCH   6   7
ATOM      7  C   UNL A   1      39.036  27.957  30.296  1.00  0.00     0.338 C 
ATOM      8  O   UNL A   1      38.507  27.005  30.842  1.00  0.00    -0.246 OA
BRANCH   7   9
ATOM      9  C   UNL A   1      39.572  27.932  28.916  1.00  0.00     0.060 A 
ATOM     10  C   UNL A   1      40.955  27.929  26.534  1.00  0.00     0.129 A 
ATOM     11  C   UNL A   1      40.874  26.743  27.266  1.00  0.00     0.048 A 
ATOM     12  C   UNL A   1      40.158  29.032  26.845  1.00  0.00     0.048 A 
ATOM     13  C   UNL A   1      40.201  26.755  28.483  1.00  0.00     0.019 A 
ATOM     14  C   UNL A   1      39.470  29.039  28.059  1.00  0.00     0.019 A 
BRANCH  10  15
ATOM     15  O   UNL A   1      41.920  28.011  25.572  1.00  0.00    -0.439 OA
BRANCH  15  16
ATOM     16  C   UNL A   1      43.248  28.141  25.941  1.00  0.00     0.226 A 
ATOM     17  C   UNL A   1      45.472  27.555  26.491  1.00  0.00     0.051 A 
ATOM     18  N   UNL A   1      45.715  28.820  26.870  1.00  0.00    -0.233 NA
ATOM     19  C   UNL A   1      44.273  27.181  25.884  1.00  0.00     0.033 A 
ATOM     20  C   UNL A   1      44.717  29.702  26.761  1.00  0.00     0.165 A 
ATOM     21  C   UNL A   1      44.208  25.825  25.254  1.00  0.00     0.052 C 
ATOM     22  N   UNL A   1      43.474  29.401  26.377  1.00  0.00    -0.193 NA
BRANCH  17  23
ATOM     23  C   UNL A   1      46.609  26.592  26.756  1.00  0.00     0.053 C 
ATOM     24  C   UNL A   1      47.899  27.322  27.108  1.00  0.00     0.011 C 
ENDBRANCH  17  23
BRANCH  20  25
ATOM     25  C   UNL A   1      45.053  31.089  27.043  1.00  0.00     0.038 A 
ATOM     26  C   UNL A   1      44.089  32.076  27.272  1.00  0.00     0.015 A 
ATOM     27  C   UNL A   1      46.387  31.485  27.135  1.00  0.00     0.123 A 
ATOM     28  C   UNL A   1      44.487  33.372  27.600  1.00  0.00     0.021 A 
ATOM     29  N   UNL A   1      46.807  32.740  27.433  1.00  0.00    -0.264 NA
ATOM     30  C   UNL A   1      45.842  33.651  27.668  1.00  0.00     0.111 A 
ENDBRANCH  20  25
ENDBRANCH  15  16
ENDBRANCH  10  15
ENDBRANCH   7   9
ENDBRANCH   6   7
ENDBRANCH   5   6
ENDBRANCH   4   5
ENDBRANCH   3   4
ENDBRANCH   2   3
ENDBRANCH   1   2
BRANCH   1  31
ATOM     31  O   UNL A   1      34.530  33.779  33.563  1.00  0.00    -0.377 OA
BRANCH  31  32
ATOM     32  C   UNL A   1      34.528  34.972  32.778  1.00  0.00     0.188 C 
BRANCH  32  33
ATOM     33  C   UNL A   1      34.256  34.979  31.251  1.00  0.00     0.188 C 
BRANCH  33  34
ATOM     34  O   UNL A   1      34.097  33.702  30.658  1.00  0.00    -0.376 OA
BRANCH  34  35
ATOM     35  C   UNL A   1      35.125  33.231  29.807  1.00  0.00     0.202 C 
BRANCH  35  36
ATOM     36  C   UNL A   1      36.469  33.968  29.886  1.00  0.00     0.261 C 
BRANCH  36  37
ATOM     37  O   UNL A   1      37.572  33.205  30.397  1.00  0.00    -0.460 OA
BRANCH  37  38
ATOM     38  C   UNL A   1      38.416  33.821  31.252  1.00  0.00     0.338 C 
ATOM     39  O   UNL A   1      38.144  34.685  32.070  1.00  0.00    -0.246 OA
BRANCH  38  40
ATOM     40  C   UNL A   1      39.716  33.129  31.160  1.00  0.00     0.060 A 
ATOM     41  C   UNL A   1      40.370  32.727  32.333  1.00  0.00     0.016 A 
ATOM     42  C   UNL A   1      40.267  32.845  29.909  1.00  0.00     0.016 A 
ATOM     43  C   UNL A   1      41.588  32.051  32.257  1.00  0.00     0.010 A 
ATOM     44  C   UNL A   1      41.497  32.191  29.835  1.00  0.00     0.010 A 
ATOM     45  C   UNL A   1      42.175  31.810  31.008  1.00  0.00    -0.014 A 
BRANCH  45  46
ATOM     46  C   UNL A   1      43.566  31.311  30.914  1.00  0.00     0.031 A 
ATOM     47  C   UNL A   1      43.785  29.838  30.706  1.00  0.00     0.074 A 
ATOM     48  C   UNL A   1      44.618  32.139  31.034  1.00  0.00     0.049 A 
ATOM     49  N   UNL A   1      44.901  29.157  30.696  1.00  0.00    -0.248 NA
ATOM     50  C   UNL A   1      42.578  29.025  30.482  1.00  0.00     0.031 C 
ATOM     51  C   UNL A   1      44.542  33.591  31.189  1.00  0.00     0.029 A 
ATOM     52  N   UNL A   1      45.964  31.866  31.060  1.00  0.00    -0.354 N 
ATOM     53  C   UNL A   1      44.531  27.836  30.480  1.00  0.00     0.074 A 
ATOM     54  C   UNL A   1      43.088  27.807  30.387  1.00  0.00     0.031 C 
ATOM     55  C   UNL A   1      45.789  34.079  31.308  1.00  0.00     0.029 A 
ATOM     56  C   UNL A   1      46.744  32.973  31.285  1.00  0.00     0.049 A 
ATOM     57  H   UNL A   1      46.333  30.963  30.930  1.00  0.00     0.167 HD
ATOM     58  C   UNL A   1      45.322  26.743  30.367  1.00  0.00     0.031 A 
ATOM     59  C   UNL A   1      48.074  33.075  31.482  1.00  0.00     0.031 A 
ATOM     60  C   UNL A   1      46.755  26.769  30.483  1.00  0.00     0.049 A 
ATOM     61  C   UNL A   1      48.924  31.830  31.457  1.00  0.00     0.074 A 
ATOM     62  C   UNL A   1      47.648  25.718  30.369  1.00  0.00     0.029 A 
ATOM     63  N   UNL A   1      47.504  27.904  30.752  1.00  0.00    -0.354 N 
ATOM     64  N   UNL A   1      48.569  30.590  31.223  1.00  0.00    -0.248 NA
ATOM     65  C   UNL A   1      50.360  32.002  31.722  1.00  0.00     0.031 C 
ATOM     66  C   UNL A   1      48.931  26.204  30.640  1.00  0.00     0.029 A 
ATOM     67  C   UNL A   1      48.845  27.571  30.848  1.00  0.00     0.049 A 
ATOM     68  H   UNL A   1      47.137  28.811  30.860  1.00  0.00     0.167 HD
ATOM     69  C   UNL A   1      49.739  29.840  31.285  1.00  0.00     0.074 A 
ATOM     70  C   UNL A   1      50.816  30.768  31.562  1.00  0.00     0.031 C 
ATOM     71  C   UNL A   1      49.907  28.505  31.125  1.00  0.00     0.031 A 
BRANCH  58  72
ATOM     72  C   UNL A   1      44.646  25.417  30.154  1.00  0.00    -0.014 A 
ATOM     73  C   UNL A   1      44.491  24.497  31.203  1.00  0.00     0.009 A 
ATOM     74  C   UNL A   1      44.131  25.097  28.888  1.00  0.00     0.009 A 
ATOM     75  C   UNL A   1      43.865  23.269  30.978  1.00  0.00     0.001 A 
ATOM     76  C   UNL A   1      43.477  23.883  28.675  1.00  0.00     0.001 A 
ATOM     77  C   UNL A   1      43.353  22.966  29.717  1.00  0.00     0.000 A 
ENDBRANCH  58  72
BRANCH  59  78
ATOM     78  C   UNL A   1      48.689  34.401  31.761  1.00  0.00    -0.014 A 
ATOM     79  C   UNL A   1      48.591  34.985  33.034  1.00  0.00     0.009 A 
ATOM     80  C   UNL A   1      49.356  35.106  30.745  1.00  0.00     0.009 A 
ATOM     81  C   UNL A   1      49.123  36.254  33.274  1.00  0.00     0.001 A 
ATOM     82  C   UNL A   1      49.915  36.360  30.997  1.00  0.00     0.001 A 
ATOM     83  C   UNL A   1      49.790  36.937  32.259  1.00  0.00     0.000 A 
ENDBRANCH  59  78
BRANCH  71  84
ATOM     84  C   UNL A   1      51.308  27.964  31.209  1.00  0.00    -0.014 A 
ATOM     85  C   UNL A   1      52.260  28.241  30.217  1.00  0.00     0.009 A 
ATOM     86  C   UNL A   1      51.696  27.214  32.331  1.00  0.00     0.009 A 
ATOM     87  C   UNL A   1      53.565  27.755  30.333  1.00  0.00     0.001 A 
ATOM     88  C   UNL A   1      53.009  26.757  32.461  1.00  0.00     0.001 A 
ATOM     89  C   UNL A   1      53.940  27.020  31.458  1.00  0.00     0.000 A 
ENDBRANCH  71  84
ENDBRANCH  45  46
ENDBRANCH  38  40
ENDBRANCH  37  38
ENDBRANCH  36  37
ENDBRANCH  35  36
ENDBRANCH  34  35
ENDBRANCH  33  34
ENDBRANCH  32  33
ENDBRANCH  31  32
ENDBRANCH   1  31
TORSDOF 24
ENDMDL
MODEL 2
REMARK VINA RESULT:      -5.6      5.529     10.897
REMARK SMILES CCc1nc(-c2cccnc2)nc(Oc2ccc(C(=O)OCCOCCOCCOCCOC(=O)c3ccc(-c4c5nc(c(-c6ccccc6)c6ccc([nH]6)c(-c6ccccc6)c6nc(c(-c7ccccc7)c7ccc4[nH]7)C=C6)C=C5)cc3)cc2)c1C
REMARK SMILES IDX 26 1 25 2 24 3 23 4 22 5 21 6 19 7 20 8 18 9 15 10 16 11
REMARK SMILES IDX 85 12 17 13 84 14 14 15 13 16 3 17 4 18 86 19 5 20 87 21
REMARK SMILES IDX 12 22 2 23 1 24 6 25 7 26 11 27 8 28 10 29 9 30 27 31 28 32
REMARK SMILES IDX 29 33 30 34 31 35 32 36 33 37 34 38 35 39 36 40 37 41 83 42
REMARK SMILES IDX 38 43 82 44 39 45 40 46 41 47 76 48 42 49 81 50 75 51 77 52
REMARK SMILES IDX 43 53 80 54 74 55 73 56 44 58 66 59 51 60 65 61 52 62 55 63
REMARK SMILES IDX 64 64 78 65 53 66 54 67 63 69 79 70 56 71 45 72 46 73 50 74
REMARK SMILES IDX 47 75 49 76 48 77 67 78 68 79 72 80 69 81 71 82 70 83 57 84
REMARK SMILES IDX 58 85 62 86 59 87 61 88 60 89
REMARK H PARENT 77 57 55 68
REMARK Flexibility Score: inf
ROOT
ATOM      1  C   UNL A   1      46.154  22.999  25.012  1.00  0.00     0.188 C 
ENDROOT
BRANCH   1   2
ATOM      2  C   UNL A   1      44.916  22.140  24.679  1.00  0.00     0.188 C 
BRANCH   2   3
ATOM      3  O   UNL A   1      44.100  21.884  25.809  1.00  0.00    -0.376 OA
BRANCH   3   4
ATOM      4  C   UNL A   1      43.169  20.817  25.792  1.00  0.00     0.202 C 
BRANCH   4   5
ATOM      5  C   UNL A   1      41.939  20.810  26.716  1.00  0.00     0.261 C 
BRANCH   5   6
ATOM      6  O   UNL A   1      42.072  21.501  27.956  1.00  0.00    -0.460 OA
BRANCH   6   7
ATOM      7  C   UNL A   1      41.401  22.663  28.072  1.00  0.00     0.338 C 
ATOM      8  O   UNL A   1      40.198  22.827  27.976  1.00  0.00    -0.246 OA
BRANCH   7   9
ATOM      9  C   UNL A   1      42.350  23.710  28.518  1.00  0.00     0.060 A 
ATOM     10  C   UNL A   1      44.002  25.539  29.746  1.00  0.00     0.129 A 
ATOM     11  C   UNL A   1      44.440  24.220  29.614  1.00  0.00     0.048 A 
ATOM     12  C   UNL A   1      42.877  26.005  29.062  1.00  0.00     0.048 A 
ATOM     13  C   UNL A   1      43.591  23.292  29.021  1.00  0.00     0.019 A 
ATOM     14  C   UNL A   1      42.033  25.076  28.453  1.00  0.00     0.019 A 
BRANCH  10  15
ATOM     15  O   UNL A   1      44.647  26.329  30.652  1.00  0.00    -0.439 OA
BRANCH  15  16
ATOM     16  C   UNL A   1      44.244  26.324  31.978  1.00  0.00     0.226 A 
ATOM     17  C   UNL A   1      43.315  27.060  34.024  1.00  0.00     0.051 A 
ATOM     18  N   UNL A   1      43.800  25.970  34.640  1.00  0.00    -0.233 NA
ATOM     19  C   UNL A   1      43.397  27.227  32.641  1.00  0.00     0.033 A 
ATOM     20  C   UNL A   1      44.480  25.091  33.899  1.00  0.00     0.165 A 
ATOM     21  C   UNL A   1      42.591  28.330  32.028  1.00  0.00     0.052 C 
ATOM     22  N   UNL A   1      44.782  25.255  32.608  1.00  0.00    -0.193 NA
BRANCH  17  23
ATOM     23  C   UNL A   1      42.662  28.064  34.949  1.00  0.00     0.053 C 
ATOM     24  C   UNL A   1      41.515  27.445  35.737  1.00  0.00     0.011 C 
ENDBRANCH  17  23
BRANCH  20  25
ATOM     25  C   UNL A   1      44.867  23.855  34.562  1.00  0.00     0.038 A 
ATOM     26  C   UNL A   1      45.231  22.698  33.868  1.00  0.00     0.015 A 
ATOM     27  C   UNL A   1      44.925  23.793  35.955  1.00  0.00     0.123 A 
ATOM     28  C   UNL A   1      45.653  21.569  34.571  1.00  0.00     0.021 A 
ATOM     29  N   UNL A   1      45.311  22.706  36.669  1.00  0.00    -0.264 NA
ATOM     30  C   UNL A   1      45.675  21.623  35.956  1.00  0.00     0.111 A 
ENDBRANCH  20  25
ENDBRANCH  15  16
ENDBRANCH  10  15
ENDBRANCH   7   9
ENDBRANCH   6   7
ENDBRANCH   5   6
ENDBRANCH   4   5
ENDBRANCH   3   4
ENDBRANCH   2   3
ENDBRANCH   1   2
BRANCH   1  31
ATOM     31  O   UNL A   1      46.119  24.344  24.561  1.00  0.00    -0.377 OA
BRANCH  31  32
ATOM     32  C   UNL A   1      45.987  25.395  25.519  1.00  0.00     0.188 C 
BRANCH  32  33
ATOM     33  C   UNL A   1      46.121  26.896  25.151  1.00  0.00     0.188 C 
BRANCH  33  34
ATOM     34  O   UNL A   1      47.433  27.324  24.824  1.00  0.00    -0.376 OA
BRANCH  34  35
ATOM     35  C   UNL A   1      48.154  28.059  25.795  1.00  0.00     0.202 C 
BRANCH  35  36
ATOM     36  C   UNL A   1      49.504  27.473  26.231  1.00  0.00     0.261 C 
BRANCH  36  37
ATOM     37  O   UNL A   1      49.634  26.048  26.118  1.00  0.00    -0.460 OA
BRANCH  37  38
ATOM     38  C   UNL A   1      50.421  25.419  27.017  1.00  0.00     0.338 C 
ATOM     39  O   UNL A   1      51.480  24.852  26.807  1.00  0.00    -0.246 OA
BRANCH  38  40
ATOM     40  C   UNL A   1      49.863  25.694  28.356  1.00  0.00     0.060 A 
ATOM     41  C   UNL A   1      50.659  26.332  29.317  1.00  0.00     0.016 A 
ATOM     42  C   UNL A   1      48.540  25.353  28.643  1.00  0.00     0.016 A 
ATOM     43  C   UNL A   1      50.135  26.618  30.578  1.00  0.00     0.010 A 
ATOM     44  C   UNL A   1      48.026  25.618  29.913  1.00  0.00     0.010 A 
ATOM     45  C   UNL A   1      48.826  26.232  30.893  1.00  0.00    -0.014 A 
BRANCH  45  46
ATOM     46  C   UNL A   1      48.334  26.312  32.288  1.00  0.00     0.031 A 
ATOM     47  C   UNL A   1      47.543  27.523  32.699  1.00  0.00     0.074 A 
ATOM     48  C   UNL A   1      48.599  25.344  33.182  1.00  0.00     0.049 A 
ATOM     49  N   UNL A   1      47.100  27.863  33.881  1.00  0.00    -0.248 NA
ATOM     50  C   UNL A   1      47.214  28.479  31.630  1.00  0.00     0.031 C 
ATOM     51  C   UNL A   1      49.310  24.098  32.899  1.00  0.00     0.029 A 
ATOM     52  N   UNL A   1      48.309  25.270  34.523  1.00  0.00    -0.354 N 
ATOM     53  C   UNL A   1      46.452  29.079  33.701  1.00  0.00     0.074 A 
ATOM     54  C   UNL A   1      46.580  29.427  32.303  1.00  0.00     0.031 C 
ATOM     55  C   UNL A   1      49.414  23.390  34.037  1.00  0.00     0.029 A 
ATOM     56  C   UNL A   1      48.819  24.152  35.134  1.00  0.00     0.049 A 
ATOM     57  H   UNL A   1      47.786  25.955  34.999  1.00  0.00     0.167 HD
ATOM     58  C   UNL A   1      45.807  29.838  34.617  1.00  0.00     0.031 A 
ATOM     59  C   UNL A   1      48.832  23.801  36.435  1.00  0.00     0.031 A 
ATOM     60  C   UNL A   1      45.700  29.503  36.012  1.00  0.00     0.049 A 
ATOM     61  C   UNL A   1      48.199  24.713  37.455  1.00  0.00     0.074 A 
ATOM     62  C   UNL A   1      45.055  30.199  37.018  1.00  0.00     0.029 A 
ATOM     63  N   UNL A   1      46.267  28.382  36.599  1.00  0.00    -0.354 N 
ATOM     64  N   UNL A   1      47.564  25.846  37.272  1.00  0.00    -0.248 NA
ATOM     65  C   UNL A   1      48.285  24.296  38.863  1.00  0.00     0.031 C 
ATOM     66  C   UNL A   1      45.290  29.536  38.227  1.00  0.00     0.029 A 
ATOM     67  C   UNL A   1      46.018  28.388  37.962  1.00  0.00     0.049 A 
ATOM     68  H   UNL A   1      46.770  27.685  36.119  1.00  0.00     0.167 HD
ATOM     69  C   UNL A   1      47.151  26.260  38.533  1.00  0.00     0.074 A 
ATOM     70  C   UNL A   1      47.594  25.249  39.472  1.00  0.00     0.031 C 
ATOM     71  C   UNL A   1      46.466  27.375  38.884  1.00  0.00     0.031 A 
BRANCH  58  72
ATOM     72  C   UNL A   1      45.207  31.133  34.146  1.00  0.00    -0.014 A 
ATOM     73  C   UNL A   1      43.841  31.238  33.834  1.00  0.00     0.009 A 
ATOM     74  C   UNL A   1      46.017  32.275  34.041  1.00  0.00     0.009 A 
ATOM     75  C   UNL A   1      43.309  32.451  33.394  1.00  0.00     0.001 A 
ATOM     76  C   UNL A   1      45.474  33.494  33.631  1.00  0.00     0.001 A 
ATOM     77  C   UNL A   1      44.124  33.578  33.298  1.00  0.00     0.000 A 
ENDBRANCH  58  72
BRANCH  59  78
ATOM     78  C   UNL A   1      49.501  22.542  36.864  1.00  0.00    -0.014 A 
ATOM     79  C   UNL A   1      50.869  22.528  37.178  1.00  0.00     0.009 A 
ATOM     80  C   UNL A   1      48.780  21.339  36.935  1.00  0.00     0.009 A 
ATOM     81  C   UNL A   1      51.503  21.332  37.527  1.00  0.00     0.001 A 
ATOM     82  C   UNL A   1      49.409  20.153  37.316  1.00  0.00     0.001 A 
ATOM     83  C   UNL A   1      50.773  20.148  37.602  1.00  0.00     0.000 A 
ENDBRANCH  59  78
BRANCH  71  84
ATOM     84  C   UNL A   1      46.117  27.552  40.336  1.00  0.00    -0.014 A 
ATOM     85  C   UNL A   1      47.005  28.165  41.234  1.00  0.00     0.009 A 
ATOM     86  C   UNL A   1      44.853  27.152  40.799  1.00  0.00     0.009 A 
ATOM     87  C   UNL A   1      46.644  28.347  42.571  1.00  0.00     0.001 A 
ATOM     88  C   UNL A   1      44.482  27.365  42.128  1.00  0.00     0.001 A 
ATOM     89  C   UNL A   1      45.382  27.955  43.015  1.00  0.00     0.000 A 
ENDBRANCH  71  84
ENDBRANCH  45  46
ENDBRANCH  38  40
ENDBRANCH  37  38
ENDBRANCH  36  37
ENDBRANCH  35  36
ENDBRANCH  34  35
ENDBRANCH  33  34
ENDBRANCH  32  33
ENDBRANCH  31  32
ENDBRANCH   1  31
TORSDOF 24
ENDMDL
MODEL 3
REMARK VINA RESULT:      -5.5      7.058     11.885
REMARK SMILES CCc1nc(-c2cccnc2)nc(Oc2ccc(C(=O)OCCOCCOCCOCCOC(=O)c3ccc(-c4c5nc(c(-c6ccccc6)c6ccc([nH]6)c(-c6ccccc6)c6nc(c(-c7ccccc7)c7ccc4[nH]7)C=C6)C=C5)cc3)cc2)c1C
REMARK SMILES IDX 26 1 25 2 24 3 23 4 22 5 21 6 19 7 20 8 18 9 15 10 16 11
REMARK SMILES IDX 85 12 17 13 84 14 14 15 13 16 3 17 4 18 86 19 5 20 87 21
REMARK SMILES IDX 12 22 2 23 1 24 6 25 7 26 11 27 8 28 10 29 9 30 27 31 28 32
REMARK SMILES IDX 29 33 30 34 31 35 32 36 33 37 34 38 35 39 36 40 37 41 83 42
REMARK SMILES IDX 38 43 82 44 39 45 40 46 41 47 76 48 42 49 81 50 75 51 77 52
REMARK SMILES IDX 43 53 80 54 74 55 73 56 44 58 66 59 51 60 65 61 52 62 55 63
REMARK SMILES IDX 64 64 78 65 53 66 54 67 63 69 79 70 56 71 45 72 46 73 50 74
REMARK SMILES IDX 47 75 49 76 48 77 67 78 68 79 72 80 69 81 71 82 70 83 57 84
REMARK SMILES IDX 58 85 62 86 59 87 61 88 60 89
REMARK H PARENT 77 57 55 68
REMARK Flexibility Score: inf
ROOT
ATOM      1  C   UNL A   1      38.775  32.634  30.806  1.00  0.00     0.188 C 
ENDROOT
BRANCH   1   2
ATOM      2  C   UNL A   1      38.254  34.079  30.953  1.00  0.00     0.188 C 
BRANCH   2   3
ATOM      3  O   UNL A   1      36.903  34.141  31.376  1.00  0.00    -0.376 OA
BRANCH   3   4
ATOM      4  C   UNL A   1      35.852  33.969  30.444  1.00  0.00     0.202 C 
BRANCH   4   5
ATOM      5  C   UNL A   1      34.867  32.792  30.551  1.00  0.00     0.261 C 
BRANCH   5   6
ATOM      6  O   UNL A   1      34.859  31.869  29.465  1.00  0.00    -0.460 OA
BRANCH   6   7
ATOM      7  C   UNL A   1      34.065  32.173  28.422  1.00  0.00     0.338 C 
ATOM      8  O   UNL A   1      33.691  33.283  28.086  1.00  0.00    -0.246 OA
BRANCH   7   9
ATOM      9  C   UNL A   1      33.849  30.946  27.622  1.00  0.00     0.060 A 
ATOM     10  C   UNL A   1      33.722  28.840  25.852  1.00  0.00     0.129 A 
ATOM     11  C   UNL A   1      34.794  28.904  26.743  1.00  0.00     0.048 A 
ATOM     12  C   UNL A   1      32.602  29.661  25.998  1.00  0.00     0.048 A 
ATOM     13  C   UNL A   1      34.872  29.985  27.615  1.00  0.00     0.019 A 
ATOM     14  C   UNL A   1      32.673  30.737  26.884  1.00  0.00     0.019 A 
BRANCH  10  15
ATOM     15  O   UNL A   1      33.854  28.023  24.766  1.00  0.00    -0.439 OA
BRANCH  15  16
ATOM     16  C   UNL A   1      32.924  27.019  24.545  1.00  0.00     0.226 A 
ATOM     17  C   UNL A   1      30.935  25.942  23.858  1.00  0.00     0.051 A 
ATOM     18  N   UNL A   1      31.325  24.817  24.482  1.00  0.00    -0.233 NA
ATOM     19  C   UNL A   1      31.770  27.053  23.745  1.00  0.00     0.033 A 
ATOM     20  C   UNL A   1      32.506  24.833  25.106  1.00  0.00     0.165 A 
ATOM     21  C   UNL A   1      31.353  28.140  22.803  1.00  0.00     0.052 C 
ATOM     22  N   UNL A   1      33.292  25.908  25.222  1.00  0.00    -0.193 NA
BRANCH  17  23
ATOM     23  C   UNL A   1      29.539  25.884  23.278  1.00  0.00     0.053 C 
ATOM     24  C   UNL A   1      28.488  26.337  24.284  1.00  0.00     0.011 C 
ENDBRANCH  17  23
BRANCH  20  25
ATOM     25  C   UNL A   1      32.963  23.563  25.648  1.00  0.00     0.038 A 
ATOM     26  C   UNL A   1      33.787  23.465  26.773  1.00  0.00     0.015 A 
ATOM     27  C   UNL A   1      32.553  22.363  25.067  1.00  0.00     0.123 A 
ATOM     28  C   UNL A   1      34.133  22.210  27.274  1.00  0.00     0.021 A 
ATOM     29  N   UNL A   1      32.887  21.127  25.517  1.00  0.00    -0.264 NA
ATOM     30  C   UNL A   1      33.663  21.083  26.618  1.00  0.00     0.111 A 
ENDBRANCH  20  25
ENDBRANCH  15  16
ENDBRANCH  10  15
ENDBRANCH   7   9
ENDBRANCH   6   7
ENDBRANCH   5   6
ENDBRANCH   4   5
ENDBRANCH   3   4
ENDBRANCH   2   3
ENDBRANCH   1   2
BRANCH   1  31
ATOM     31  O   UNL A   1      39.076  32.212  29.485  1.00  0.00    -0.377 OA
BRANCH  31  32
ATOM     32  C   UNL A   1      38.112  31.442  28.766  1.00  0.00     0.188 C 
BRANCH  32  33
ATOM     33  C   UNL A   1      38.371  29.985  28.300  1.00  0.00     0.188 C 
BRANCH  33  34
ATOM     34  O   UNL A   1      39.137  29.191  29.190  1.00  0.00    -0.376 OA
BRANCH  34  35
ATOM     35  C   UNL A   1      38.477  28.608  30.298  1.00  0.00     0.202 C 
BRANCH  35  36
ATOM     36  C   UNL A   1      37.030  29.058  30.544  1.00  0.00     0.261 C 
BRANCH  36  37
ATOM     37  O   UNL A   1      36.800  29.789  31.758  1.00  0.00    -0.460 OA
BRANCH  37  38
ATOM     38  C   UNL A   1      37.332  29.296  32.896  1.00  0.00     0.338 C 
ATOM     39  O   UNL A   1      37.404  28.127  33.236  1.00  0.00    -0.246 OA
BRANCH  38  40
ATOM     40  C   UNL A   1      37.992  30.418  33.593  1.00  0.00     0.060 A 
ATOM     41  C   UNL A   1      39.313  30.273  34.038  1.00  0.00     0.016 A 
ATOM     42  C   UNL A   1      37.312  31.625  33.770  1.00  0.00     0.016 A 
ATOM     43  C   UNL A   1      39.954  31.335  34.677  1.00  0.00     0.010 A 
ATOM     44  C   UNL A   1      37.947  32.677  34.431  1.00  0.00     0.010 A 
ATOM     45  C   UNL A   1      39.262  32.531  34.907  1.00  0.00    -0.014 A 
BRANCH  45  46
ATOM     46  C   UNL A   1      39.838  33.576  35.785  1.00  0.00     0.031 A 
ATOM     47  C   UNL A   1      40.843  34.528  35.199  1.00  0.00     0.074 A 
ATOM     48  C   UNL A   1      39.496  33.670  37.081  1.00  0.00     0.049 A 
ATOM     49  N   UNL A   1      41.556  35.451  35.789  1.00  0.00    -0.248 NA
ATOM     50  C   UNL A   1      41.077  34.417  33.749  1.00  0.00     0.031 C 
ATOM     51  C   UNL A   1      38.499  32.843  37.759  1.00  0.00     0.029 A 
ATOM     52  N   UNL A   1      39.971  34.501  38.067  1.00  0.00    -0.354 N 
ATOM     53  C   UNL A   1      42.332  36.021  34.789  1.00  0.00     0.074 A 
ATOM     54  C   UNL A   1      42.021  35.326  33.560  1.00  0.00     0.031 C 
ATOM     55  C   UNL A   1      38.447  33.199  39.054  1.00  0.00     0.029 A 
ATOM     56  C   UNL A   1      39.438  34.245  39.305  1.00  0.00     0.049 A 
ATOM     57  H   UNL A   1      40.630  35.212  37.899  1.00  0.00     0.167 HD
ATOM     58  C   UNL A   1      43.224  37.035  34.884  1.00  0.00     0.031 A 
ATOM     59  C   UNL A   1      39.739  34.772  40.509  1.00  0.00     0.031 A 
ATOM     60  C   UNL A   1      43.550  37.711  36.111  1.00  0.00     0.049 A 
ATOM     61  C   UNL A   1      40.812  35.827  40.607  1.00  0.00     0.074 A 
ATOM     62  C   UNL A   1      44.430  38.760  36.309  1.00  0.00     0.029 A 
ATOM     63  N   UNL A   1      43.018  37.393  37.351  1.00  0.00    -0.354 N 
ATOM     64  N   UNL A   1      41.520  36.380  39.652  1.00  0.00    -0.248 NA
ATOM     65  C   UNL A   1      41.125  36.330  41.953  1.00  0.00     0.031 C 
ATOM     66  C   UNL A   1      44.483  39.031  37.680  1.00  0.00     0.029 A 
ATOM     67  C   UNL A   1      43.582  38.201  38.325  1.00  0.00     0.049 A 
ATOM     68  H   UNL A   1      42.342  36.697  37.515  1.00  0.00     0.167 HD
ATOM     69  C   UNL A   1      42.339  37.314  40.277  1.00  0.00     0.074 A 
ATOM     70  C   UNL A   1      42.029  37.264  41.691  1.00  0.00     0.031 C 
ATOM     71  C   UNL A   1      43.264  38.139  39.729  1.00  0.00     0.031 A 
BRANCH  58  72
ATOM     72  C   UNL A   1      43.948  37.442  33.630  1.00  0.00    -0.014 A 
ATOM     73  C   UNL A   1      45.043  36.708  33.146  1.00  0.00     0.009 A 
ATOM     74  C   UNL A   1      43.507  38.561  32.907  1.00  0.00     0.009 A 
ATOM     75  C   UNL A   1      45.702  37.109  31.982  1.00  0.00     0.001 A 
ATOM     76  C   UNL A   1      44.149  38.940  31.727  1.00  0.00     0.001 A 
ATOM     77  C   UNL A   1      45.252  38.220  31.271  1.00  0.00     0.000 A 
ENDBRANCH  58  72
BRANCH  59  78
ATOM     78  C   UNL A   1      39.045  34.287  41.733  1.00  0.00    -0.014 A 
ATOM     79  C   UNL A   1      39.637  33.316  42.556  1.00  0.00     0.009 A 
ATOM     80  C   UNL A   1      37.772  34.773  42.071  1.00  0.00     0.009 A 
ATOM     81  C   UNL A   1      38.958  32.825  43.674  1.00  0.00     0.001 A 
ATOM     82  C   UNL A   1      37.109  34.304  43.207  1.00  0.00     0.001 A 
ATOM     83  C   UNL A   1      37.698  33.323  44.002  1.00  0.00     0.000 A 
ENDBRANCH  59  78
BRANCH  71  84
ATOM     84  C   UNL A   1      43.986  39.085  40.649  1.00  0.00    -0.014 A 
ATOM     85  C   UNL A   1      43.513  40.386  40.881  1.00  0.00     0.009 A 
ATOM     86  C   UNL A   1      45.124  38.644  41.343  1.00  0.00     0.009 A 
ATOM     87  C   UNL A   1      44.183  41.234  41.766  1.00  0.00     0.001 A 
ATOM     88  C   UNL A   1      45.773  39.483  42.252  1.00  0.00     0.001 A 
ATOM     89  C   UNL A   1      45.306  40.780  42.456  1.00  0.00     0.000 A 
ENDBRANCH  71  84
ENDBRANCH  45  46
ENDBRANCH  38  40
ENDBRANCH  37  38
ENDBRANCH  36  37
ENDBRANCH  35  36
ENDBRANCH  34  35
ENDBRANCH  33  34
ENDBRANCH  32  33
ENDBRANCH  31  32
ENDBRANCH   1  31
TORSDOF 24
ENDMDL
