MODEL 1
REMARK VINA RESULT:      -8.5      0.000      0.000
REMARK SMILES Cc1ccc(NC(=O)C[C@H]2SC[C@H](C(=O)OCCOCCOCCOCCOC(=O)c3ccc(-c4c5nc(c(-c6ccccc6)c6ccc([nH]6)c(-c6ccccc6)c6nc(c(-c7ccccc7)c7ccc4[nH]7)C=C6)C=C5)cc3)NC2=O)cc1
REMARK SMILES IDX 21 1 20 2 19 3 18 4 17 5 16 6 14 7 15 8 13 9 10 10 11 11
REMARK SMILES IDX 80 12 12 13 79 14 81 15 9 17 7 18 6 19 8 21 5 22 1 23 2 24
REMARK SMILES IDX 3 25 83 26 4 27 82 28 22 29 23 30 24 31 25 32 26 33 27 34
REMARK SMILES IDX 28 35 29 36 30 37 31 38 32 39 78 40 33 41 77 42 34 43 35 44
REMARK SMILES IDX 36 45 71 46 37 47 76 48 70 49 72 50 38 51 75 52 69 53 68 54
REMARK SMILES IDX 39 56 61 57 46 58 60 59 47 60 50 61 59 62 73 63 48 64 49 65
REMARK SMILES IDX 58 67 74 68 51 69 40 70 41 71 45 72 42 73 44 74 43 75 62 76
REMARK SMILES IDX 63 77 67 78 64 79 66 80 65 81 52 82 53 83 57 84 54 85 56 86
REMARK SMILES IDX 55 87
REMARK H PARENT 79 16 6 20 72 55 50 66
REMARK Flexibility Score: inf
ROOT
ATOM      1  C   UNL A   1      44.087  22.807  24.955  1.00  0.00     0.188 C 
ENDROOT
BRANCH   1   2
ATOM      2  C   UNL A   1      43.927  21.336  25.353  1.00  0.00     0.188 C 
BRANCH   2   3
ATOM      3  O   UNL A   1      42.621  20.785  25.377  1.00  0.00    -0.376 OA
BRANCH   3   4
ATOM      4  C   UNL A   1      42.229  20.116  26.570  1.00  0.00     0.202 C 
BRANCH   4   5
ATOM      5  C   UNL A   1      40.923  20.556  27.208  1.00  0.00     0.261 C 
BRANCH   5   6
ATOM      6  O   UNL A   1      39.990  20.821  26.152  1.00  0.00    -0.462 OA
BRANCH   6   7
ATOM      7  C   UNL A   1      39.457  22.050  26.161  1.00  0.00     0.329 C 
ATOM      8  O   UNL A   1      40.067  23.080  26.433  1.00  0.00    -0.250 OA
BRANCH   7   9
ATOM      9  C   UNL A   1      37.975  22.042  25.897  1.00  0.00     0.202 C 
ATOM     10  C   UNL A   1      35.256  21.449  24.952  1.00  0.00     0.145 C 
ATOM     11  S   UNL A   1      35.400  22.957  26.012  1.00  0.00    -0.145 SA
ATOM     12  C   UNL A   1      36.503  20.539  24.959  1.00  0.00     0.234 C 
ATOM     13  C   UNL A   1      37.188  23.327  25.805  1.00  0.00     0.107 C 
ATOM     14  N   UNL A   1      37.694  21.176  24.786  1.00  0.00    -0.341 N 
ATOM     15  O   UNL A   1      36.547  19.324  25.100  1.00  0.00    -0.274 OA
ATOM     16  H   UNL A   1      38.282  21.060  24.006  1.00  0.00     0.164 HD
BRANCH  10  17
ATOM     17  C   UNL A   1      33.942  20.739  25.274  1.00  0.00     0.124 C 
BRANCH  17  18
ATOM     18  C   UNL A   1      33.187  20.176  24.084  1.00  0.00     0.226 C 
ATOM     19  N   UNL A   1      32.590  20.985  23.159  1.00  0.00    -0.326 N 
ATOM     20  H   UNL A   1      32.262  20.514  22.360  1.00  0.00     0.169 HD
ATOM     21  O   UNL A   1      33.162  18.953  23.903  1.00  0.00    -0.275 OA
BRANCH  19  22
ATOM     22  C   UNL A   1      32.362  22.369  23.148  1.00  0.00     0.041 A 
ATOM     23  C   UNL A   1      31.454  26.580  23.198  1.00  0.00     0.044 C 
ATOM     24  C   UNL A   1      31.764  25.114  23.186  1.00  0.00    -0.051 A 
ATOM     25  C   UNL A   1      32.728  24.607  22.308  1.00  0.00     0.005 A 
ATOM     26  C   UNL A   1      31.079  24.232  24.026  1.00  0.00     0.005 A 
ATOM     27  C   UNL A   1      33.042  23.245  22.306  1.00  0.00     0.026 A 
ATOM     28  C   UNL A   1      31.390  22.870  24.019  1.00  0.00     0.026 A 
ENDBRANCH  19  22
ENDBRANCH  17  18
ENDBRANCH  10  17
ENDBRANCH   7   9
ENDBRANCH   6   7
ENDBRANCH   5   6
ENDBRANCH   4   5
ENDBRANCH   3   4
ENDBRANCH   2   3
ENDBRANCH   1   2
BRANCH   1  29
ATOM     29  O   UNL A   1      44.305  23.737  26.006  1.00  0.00    -0.377 OA
BRANCH  29  30
ATOM     30  C   UNL A   1      43.909  23.412  27.341  1.00  0.00     0.188 C 
BRANCH  30  31
ATOM     31  C   UNL A   1      45.002  23.235  28.385  1.00  0.00     0.188 C 
BRANCH  31  32
ATOM     32  O   UNL A   1      45.438  24.538  28.771  1.00  0.00    -0.376 OA
BRANCH  32  33
ATOM     33  C   UNL A   1      44.915  25.019  30.005  1.00  0.00     0.202 C 
BRANCH  33  34
ATOM     34  C   UNL A   1      43.685  25.900  29.804  1.00  0.00     0.261 C 
BRANCH  34  35
ATOM     35  O   UNL A   1      43.960  26.827  28.736  1.00  0.00    -0.460 OA
BRANCH  35  36
ATOM     36  C   UNL A   1      42.906  27.055  27.900  1.00  0.00     0.338 C 
ATOM     37  O   UNL A   1      42.710  26.488  26.849  1.00  0.00    -0.246 OA
BRANCH  36  38
ATOM     38  C   UNL A   1      42.182  28.297  28.316  1.00  0.00     0.060 A 
ATOM     39  C   UNL A   1      42.860  29.525  28.270  1.00  0.00     0.016 A 
ATOM     40  C   UNL A   1      41.004  28.190  29.048  1.00  0.00     0.016 A 
ATOM     41  C   UNL A   1      42.458  30.583  29.099  1.00  0.00     0.010 A 
ATOM     42  C   UNL A   1      40.683  29.195  29.944  1.00  0.00     0.010 A 
ATOM     43  C   UNL A   1      41.432  30.382  30.023  1.00  0.00    -0.014 A 
BRANCH  43  44
ATOM     44  C   UNL A   1      41.208  31.207  31.232  1.00  0.00     0.031 A 
ATOM     45  C   UNL A   1      41.978  30.943  32.494  1.00  0.00     0.074 A 
ATOM     46  C   UNL A   1      40.626  32.424  31.059  1.00  0.00     0.049 A 
ATOM     47  N   UNL A   1      41.877  31.640  33.578  1.00  0.00    -0.248 NA
ATOM     48  C   UNL A   1      42.958  29.865  32.641  1.00  0.00     0.031 C 
ATOM     49  C   UNL A   1      40.831  33.617  31.881  1.00  0.00     0.029 A 
ATOM     50  N   UNL A   1      39.737  32.889  30.090  1.00  0.00    -0.354 N 
ATOM     51  C   UNL A   1      42.970  31.369  34.377  1.00  0.00     0.074 A 
ATOM     52  C   UNL A   1      43.543  30.176  33.804  1.00  0.00     0.031 C 
ATOM     53  C   UNL A   1      40.038  34.616  31.472  1.00  0.00     0.029 A 
ATOM     54  C   UNL A   1      39.061  34.003  30.612  1.00  0.00     0.049 A 
ATOM     55  H   UNL A   1      39.606  32.504  29.194  1.00  0.00     0.167 HD
ATOM     56  C   UNL A   1      43.349  32.272  35.335  1.00  0.00     0.031 A 
ATOM     57  C   UNL A   1      37.725  33.993  30.907  1.00  0.00     0.031 A 
ATOM     58  C   UNL A   1      42.361  33.359  35.507  1.00  0.00     0.049 A 
ATOM     59  C   UNL A   1      37.472  34.089  32.411  1.00  0.00     0.074 A 
ATOM     60  C   UNL A   1      42.420  34.745  35.504  1.00  0.00     0.029 A 
ATOM     61  N   UNL A   1      41.001  33.045  35.550  1.00  0.00    -0.354 N 
ATOM     62  N   UNL A   1      38.421  33.924  33.302  1.00  0.00    -0.248 NA
ATOM     63  C   UNL A   1      36.202  34.413  33.054  1.00  0.00     0.031 C 
ATOM     64  C   UNL A   1      41.088  35.249  35.433  1.00  0.00     0.029 A 
ATOM     65  C   UNL A   1      40.214  34.174  35.467  1.00  0.00     0.049 A 
ATOM     66  H   UNL A   1      40.647  32.129  35.630  1.00  0.00     0.167 HD
ATOM     67  C   UNL A   1      37.959  34.145  34.565  1.00  0.00     0.074 A 
ATOM     68  C   UNL A   1      36.550  34.434  34.358  1.00  0.00     0.031 C 
ATOM     69  C   UNL A   1      38.769  34.070  35.665  1.00  0.00     0.031 A 
BRANCH  56  70
ATOM     70  C   UNL A   1      44.729  32.309  36.001  1.00  0.00    -0.014 A 
ATOM     71  C   UNL A   1      44.914  31.728  37.275  1.00  0.00     0.009 A 
ATOM     72  C   UNL A   1      45.859  32.975  35.489  1.00  0.00     0.009 A 
ATOM     73  C   UNL A   1      46.122  31.829  37.990  1.00  0.00     0.001 A 
ATOM     74  C   UNL A   1      47.085  33.046  36.179  1.00  0.00     0.001 A 
ATOM     75  C   UNL A   1      47.213  32.483  37.437  1.00  0.00     0.000 A 
ENDBRANCH  56  70
BRANCH  57  76
ATOM     76  C   UNL A   1      36.921  33.408  29.792  1.00  0.00    -0.014 A 
ATOM     77  C   UNL A   1      36.240  32.223  30.159  1.00  0.00     0.009 A 
ATOM     78  C   UNL A   1      36.310  34.251  28.847  1.00  0.00     0.009 A 
ATOM     79  C   UNL A   1      34.886  32.053  29.848  1.00  0.00     0.001 A 
ATOM     80  C   UNL A   1      34.957  34.057  28.515  1.00  0.00     0.001 A 
ATOM     81  C   UNL A   1      34.230  33.005  29.075  1.00  0.00     0.000 A 
ENDBRANCH  57  76
BRANCH  69  82
ATOM     82  C   UNL A   1      38.306  33.885  37.096  1.00  0.00    -0.014 A 
ATOM     83  C   UNL A   1      37.438  32.872  37.511  1.00  0.00     0.009 A 
ATOM     84  C   UNL A   1      38.933  34.638  38.121  1.00  0.00     0.009 A 
ATOM     85  C   UNL A   1      37.196  32.636  38.872  1.00  0.00     0.001 A 
ATOM     86  C   UNL A   1      38.733  34.375  39.476  1.00  0.00     0.001 A 
ATOM     87  C   UNL A   1      37.854  33.373  39.852  1.00  0.00     0.000 A 
ENDBRANCH  69  82
ENDBRANCH  43  44
ENDBRANCH  36  38
ENDBRANCH  35  36
ENDBRANCH  34  35
ENDBRANCH  33  34
ENDBRANCH  32  33
ENDBRANCH  31  32
ENDBRANCH  30  31
ENDBRANCH  29  30
ENDBRANCH   1  29
TORSDOF 23
ENDMDL
MODEL 2
REMARK VINA RESULT:      -8.3      1.898      2.581
REMARK SMILES Cc1ccc(NC(=O)C[C@H]2SC[C@H](C(=O)OCCOCCOCCOCCOC(=O)c3ccc(-c4c5nc(c(-c6ccccc6)c6ccc([nH]6)c(-c6ccccc6)c6nc(c(-c7ccccc7)c7ccc4[nH]7)C=C6)C=C5)cc3)NC2=O)cc1
REMARK SMILES IDX 21 1 20 2 19 3 18 4 17 5 16 6 14 7 15 8 13 9 10 10 11 11
REMARK SMILES IDX 80 12 12 13 79 14 81 15 9 17 7 18 6 19 8 21 5 22 1 23 2 24
REMARK SMILES IDX 3 25 83 26 4 27 82 28 22 29 23 30 24 31 25 32 26 33 27 34
REMARK SMILES IDX 28 35 29 36 30 37 31 38 32 39 78 40 33 41 77 42 34 43 35 44
REMARK SMILES IDX 36 45 71 46 37 47 76 48 70 49 72 50 38 51 75 52 69 53 68 54
REMARK SMILES IDX 39 56 61 57 46 58 60 59 47 60 50 61 59 62 73 63 48 64 49 65
REMARK SMILES IDX 58 67 74 68 51 69 40 70 41 71 45 72 42 73 44 74 43 75 62 76
REMARK SMILES IDX 63 77 67 78 64 79 66 80 65 81 52 82 53 83 57 84 54 85 56 86
REMARK SMILES IDX 55 87
REMARK H PARENT 79 16 6 20 72 55 50 66
REMARK Flexibility Score: inf
ROOT
ATOM      1  C   UNL A   1      44.152  20.614  25.322  1.00  0.00     0.188 C 
ENDROOT
BRANCH   1   2
ATOM      2  C   UNL A   1      42.849  21.338  25.680  1.00  0.00     0.188 C 
BRANCH   2   3
ATOM      3  O   UNL A   1      42.576  21.592  27.048  1.00  0.00    -0.376 OA
BRANCH   3   4
ATOM      4  C   UNL A   1      41.451  22.413  27.335  1.00  0.00     0.202 C 
BRANCH   4   5
ATOM      5  C   UNL A   1      40.080  21.774  27.200  1.00  0.00     0.261 C 
BRANCH   5   6
ATOM      6  O   UNL A   1      39.506  22.232  25.968  1.00  0.00    -0.462 OA
BRANCH   6   7
ATOM      7  C   UNL A   1      38.577  23.190  26.096  1.00  0.00     0.329 C 
ATOM      8  O   UNL A   1      38.785  24.318  26.530  1.00  0.00    -0.250 OA
BRANCH   7   9
ATOM      9  C   UNL A   1      37.196  22.709  25.743  1.00  0.00     0.202 C 
ATOM     10  C   UNL A   1      34.293  22.365  25.438  1.00  0.00     0.145 C 
ATOM     11  S   UNL A   1      35.317  21.003  24.722  1.00  0.00    -0.145 SA
ATOM     12  C   UNL A   1      35.088  23.634  25.816  1.00  0.00     0.234 C 
ATOM     13  C   UNL A   1      36.873  21.235  25.672  1.00  0.00     0.107 C 
ATOM     14  N   UNL A   1      36.228  23.420  26.529  1.00  0.00    -0.341 N 
ATOM     15  O   UNL A   1      34.816  24.798  25.552  1.00  0.00    -0.274 OA
ATOM     16  H   UNL A   1      36.369  23.712  27.458  1.00  0.00     0.164 HD
BRANCH  10  17
ATOM     17  C   UNL A   1      33.088  22.610  24.530  1.00  0.00     0.124 C 
BRANCH  17  18
ATOM     18  C   UNL A   1      31.729  22.339  25.149  1.00  0.00     0.226 C 
ATOM     19  N   UNL A   1      30.794  23.324  25.297  1.00  0.00    -0.326 N 
ATOM     20  H   UNL A   1      29.906  23.001  25.570  1.00  0.00     0.169 HD
ATOM     21  O   UNL A   1      31.427  21.185  25.470  1.00  0.00    -0.275 OA
BRANCH  19  22
ATOM     22  C   UNL A   1      30.877  24.714  25.130  1.00  0.00     0.041 A 
ATOM     23  C   UNL A   1      31.134  29.006  24.842  1.00  0.00     0.044 C 
ATOM     24  C   UNL A   1      31.048  27.513  24.949  1.00  0.00    -0.051 A 
ATOM     25  C   UNL A   1      30.504  26.764  23.901  1.00  0.00     0.005 A 
ATOM     26  C   UNL A   1      31.480  26.854  26.103  1.00  0.00     0.005 A 
ATOM     27  C   UNL A   1      30.441  25.370  23.981  1.00  0.00     0.026 A 
ATOM     28  C   UNL A   1      31.411  25.461  26.185  1.00  0.00     0.026 A 
ENDBRANCH  19  22
ENDBRANCH  17  18
ENDBRANCH  10  17
ENDBRANCH   7   9
ENDBRANCH   6   7
ENDBRANCH   5   6
ENDBRANCH   4   5
ENDBRANCH   3   4
ENDBRANCH   2   3
ENDBRANCH   1   2
BRANCH   1  29
ATOM     29  O   UNL A   1      45.354  21.155  25.851  1.00  0.00    -0.377 OA
BRANCH  29  30
ATOM     30  C   UNL A   1      45.653  22.541  25.668  1.00  0.00     0.188 C 
BRANCH  30  31
ATOM     31  C   UNL A   1      45.462  23.134  24.280  1.00  0.00     0.188 C 
BRANCH  31  32
ATOM     32  O   UNL A   1      44.725  24.348  24.431  1.00  0.00    -0.376 OA
BRANCH  32  33
ATOM     33  C   UNL A   1      44.680  24.877  25.752  1.00  0.00     0.202 C 
BRANCH  33  34
ATOM     34  C   UNL A   1      43.260  25.242  26.177  1.00  0.00     0.261 C 
BRANCH  34  35
ATOM     35  O   UNL A   1      43.001  26.601  25.775  1.00  0.00    -0.460 OA
BRANCH  35  36
ATOM     36  C   UNL A   1      41.959  27.193  26.427  1.00  0.00     0.338 C 
ATOM     37  O   UNL A   1      40.909  27.518  25.921  1.00  0.00    -0.246 OA
BRANCH  36  38
ATOM     38  C   UNL A   1      42.397  27.650  27.783  1.00  0.00     0.060 A 
ATOM     39  C   UNL A   1      41.760  27.121  28.916  1.00  0.00     0.016 A 
ATOM     40  C   UNL A   1      43.159  28.808  27.903  1.00  0.00     0.016 A 
ATOM     41  C   UNL A   1      41.737  27.847  30.117  1.00  0.00     0.010 A 
ATOM     42  C   UNL A   1      43.037  29.569  29.052  1.00  0.00     0.010 A 
ATOM     43  C   UNL A   1      42.285  29.130  30.154  1.00  0.00    -0.014 A 
BRANCH  43  44
ATOM     44  C   UNL A   1      41.949  30.163  31.160  1.00  0.00     0.031 A 
ATOM     45  C   UNL A   1      42.894  30.475  32.285  1.00  0.00     0.074 A 
ATOM     46  C   UNL A   1      41.003  31.081  30.821  1.00  0.00     0.049 A 
ATOM     47  N   UNL A   1      42.699  31.389  33.178  1.00  0.00    -0.248 NA
ATOM     48  C   UNL A   1      44.169  29.786  32.493  1.00  0.00     0.031 C 
ATOM     49  C   UNL A   1      40.916  32.463  31.294  1.00  0.00     0.029 A 
ATOM     50  N   UNL A   1      39.915  31.003  29.952  1.00  0.00    -0.354 N 
ATOM     51  C   UNL A   1      43.902  31.654  33.803  1.00  0.00     0.074 A 
ATOM     52  C   UNL A   1      44.750  30.551  33.425  1.00  0.00     0.031 C 
ATOM     53  C   UNL A   1      39.814  33.057  30.819  1.00  0.00     0.029 A 
ATOM     54  C   UNL A   1      38.988  31.991  30.319  1.00  0.00     0.049 A 
ATOM     55  H   UNL A   1      39.814  30.366  29.209  1.00  0.00     0.167 HD
ATOM     56  C   UNL A   1      44.084  32.853  34.439  1.00  0.00     0.031 A 
ATOM     57  C   UNL A   1      37.761  31.702  30.850  1.00  0.00     0.031 A 
ATOM     58  C   UNL A   1      42.833  33.636  34.535  1.00  0.00     0.049 A 
ATOM     59  C   UNL A   1      37.654  32.135  32.311  1.00  0.00     0.074 A 
ATOM     60  C   UNL A   1      42.460  34.930  34.202  1.00  0.00     0.029 A 
ATOM     61  N   UNL A   1      41.650  32.990  34.900  1.00  0.00    -0.354 N 
ATOM     62  N   UNL A   1      38.698  32.485  33.026  1.00  0.00    -0.248 NA
ATOM     63  C   UNL A   1      36.423  32.267  33.085  1.00  0.00     0.031 C 
ATOM     64  C   UNL A   1      41.038  35.015  34.263  1.00  0.00     0.029 A 
ATOM     65  C   UNL A   1      40.548  33.796  34.706  1.00  0.00     0.049 A 
ATOM     66  H   UNL A   1      41.606  32.071  35.252  1.00  0.00     0.167 HD
ATOM     67  C   UNL A   1      38.329  32.911  34.266  1.00  0.00     0.074 A 
ATOM     68  C   UNL A   1      36.886  32.739  34.262  1.00  0.00     0.031 C 
ATOM     69  C   UNL A   1      39.236  33.363  35.185  1.00  0.00     0.031 A 
BRANCH  56  70
ATOM     70  C   UNL A   1      45.448  33.444  34.813  1.00  0.00    -0.014 A 
ATOM     71  C   UNL A   1      45.689  33.887  36.132  1.00  0.00     0.009 A 
ATOM     72  C   UNL A   1      46.502  33.686  33.910  1.00  0.00     0.009 A 
ATOM     73  C   UNL A   1      46.875  34.543  36.510  1.00  0.00     0.001 A 
ATOM     74  C   UNL A   1      47.709  34.305  34.289  1.00  0.00     0.001 A 
ATOM     75  C   UNL A   1      47.891  34.746  35.589  1.00  0.00     0.000 A 
ENDBRANCH  56  70
BRANCH  57  76
ATOM     76  C   UNL A   1      37.062  30.637  30.067  1.00  0.00    -0.014 A 
ATOM     77  C   UNL A   1      36.061  31.146  29.205  1.00  0.00     0.009 A 
ATOM     78  C   UNL A   1      37.765  29.491  29.655  1.00  0.00     0.009 A 
ATOM     79  C   UNL A   1      35.992  30.730  27.871  1.00  0.00     0.001 A 
ATOM     80  C   UNL A   1      37.668  29.060  28.319  1.00  0.00     0.001 A 
ATOM     81  C   UNL A   1      36.841  29.728  27.414  1.00  0.00     0.000 A 
ENDBRANCH  57  76
BRANCH  69  82
ATOM     82  C   UNL A   1      39.010  33.461  36.680  1.00  0.00    -0.014 A 
ATOM     83  C   UNL A   1      39.286  34.601  37.439  1.00  0.00     0.009 A 
ATOM     84  C   UNL A   1      38.288  32.429  37.333  1.00  0.00     0.009 A 
ATOM     85  C   UNL A   1      38.883  34.698  38.778  1.00  0.00     0.001 A 
ATOM     86  C   UNL A   1      37.842  32.541  38.649  1.00  0.00     0.001 A 
ATOM     87  C   UNL A   1      38.148  33.679  39.376  1.00  0.00     0.000 A 
ENDBRANCH  69  82
ENDBRANCH  43  44
ENDBRANCH  36  38
ENDBRANCH  35  36
ENDBRANCH  34  35
ENDBRANCH  33  34
ENDBRANCH  32  33
ENDBRANCH  31  32
ENDBRANCH  30  31
ENDBRANCH  29  30
ENDBRANCH   1  29
TORSDOF 23
ENDMDL
MODEL 3
REMARK VINA RESULT:      -8.3      4.269      6.117
REMARK SMILES Cc1ccc(NC(=O)C[C@H]2SC[C@H](C(=O)OCCOCCOCCOCCOC(=O)c3ccc(-c4c5nc(c(-c6ccccc6)c6ccc([nH]6)c(-c6ccccc6)c6nc(c(-c7ccccc7)c7ccc4[nH]7)C=C6)C=C5)cc3)NC2=O)cc1
REMARK SMILES IDX 21 1 20 2 19 3 18 4 17 5 16 6 14 7 15 8 13 9 10 10 11 11
REMARK SMILES IDX 80 12 12 13 79 14 81 15 9 17 7 18 6 19 8 21 5 22 1 23 2 24
REMARK SMILES IDX 3 25 83 26 4 27 82 28 22 29 23 30 24 31 25 32 26 33 27 34
REMARK SMILES IDX 28 35 29 36 30 37 31 38 32 39 78 40 33 41 77 42 34 43 35 44
REMARK SMILES IDX 36 45 71 46 37 47 76 48 70 49 72 50 38 51 75 52 69 53 68 54
REMARK SMILES IDX 39 56 61 57 46 58 60 59 47 60 50 61 59 62 73 63 48 64 49 65
REMARK SMILES IDX 58 67 74 68 51 69 40 70 41 71 45 72 42 73 44 74 43 75 62 76
REMARK SMILES IDX 63 77 67 78 64 79 66 80 65 81 52 82 53 83 57 84 54 85 56 86
REMARK SMILES IDX 55 87
REMARK H PARENT 79 16 6 20 72 55 50 66
REMARK Flexibility Score: inf
ROOT
ATOM      1  C   UNL A   1      43.497  23.392  27.927  1.00  0.00     0.188 C 
ENDROOT
BRANCH   1   2
ATOM      2  C   UNL A   1      42.071  22.948  28.272  1.00  0.00     0.188 C 
BRANCH   2   3
ATOM      3  O   UNL A   1      41.301  22.318  27.262  1.00  0.00    -0.376 OA
BRANCH   3   4
ATOM      4  C   UNL A   1      39.968  22.783  27.088  1.00  0.00     0.202 C 
BRANCH   4   5
ATOM      5  C   UNL A   1      39.117  22.065  26.056  1.00  0.00     0.261 C 
BRANCH   5   6
ATOM      6  O   UNL A   1      37.815  22.666  26.070  1.00  0.00    -0.462 OA
BRANCH   6   7
ATOM      7  C   UNL A   1      36.924  22.109  25.239  1.00  0.00     0.329 C 
ATOM      8  O   UNL A   1      37.199  21.563  24.175  1.00  0.00    -0.250 OA
BRANCH   7   9
ATOM      9  C   UNL A   1      35.503  22.310  25.693  1.00  0.00     0.202 C 
ATOM     10  C   UNL A   1      32.749  23.255  26.091  1.00  0.00     0.145 C 
ATOM     11  S   UNL A   1      33.274  21.889  27.222  1.00  0.00    -0.145 SA
ATOM     12  C   UNL A   1      33.699  23.501  24.899  1.00  0.00     0.234 C 
ATOM     13  C   UNL A   1      35.100  22.079  27.130  1.00  0.00     0.107 C 
ATOM     14  N   UNL A   1      35.022  23.574  25.211  1.00  0.00    -0.341 N 
ATOM     15  O   UNL A   1      33.405  23.638  23.719  1.00  0.00    -0.274 OA
ATOM     16  H   UNL A   1      35.575  24.383  25.120  1.00  0.00     0.164 HD
BRANCH  10  17
ATOM     17  C   UNL A   1      31.283  23.047  25.710  1.00  0.00     0.124 C 
BRANCH  17  18
ATOM     18  C   UNL A   1      30.263  23.646  26.661  1.00  0.00     0.226 C 
ATOM     19  N   UNL A   1      29.723  24.884  26.455  1.00  0.00    -0.326 N 
ATOM     20  H   UNL A   1      28.970  25.102  27.050  1.00  0.00     0.169 HD
ATOM     21  O   UNL A   1      29.855  22.975  27.615  1.00  0.00    -0.275 OA
BRANCH  19  22
ATOM     22  C   UNL A   1      30.054  25.900  25.547  1.00  0.00     0.041 A 
ATOM     23  C   UNL A   1      31.131  29.151  22.932  1.00  0.00     0.044 C 
ATOM     24  C   UNL A   1      30.762  28.023  23.847  1.00  0.00    -0.051 A 
ATOM     25  C   UNL A   1      29.839  27.057  23.434  1.00  0.00     0.005 A 
ATOM     26  C   UNL A   1      31.307  27.936  25.131  1.00  0.00     0.005 A 
ATOM     27  C   UNL A   1      29.505  25.988  24.270  1.00  0.00     0.026 A 
ATOM     28  C   UNL A   1      30.969  26.871  25.968  1.00  0.00     0.026 A 
ENDBRANCH  19  22
ENDBRANCH  17  18
ENDBRANCH  10  17
ENDBRANCH   7   9
ENDBRANCH   6   7
ENDBRANCH   5   6
ENDBRANCH   4   5
ENDBRANCH   3   4
ENDBRANCH   2   3
ENDBRANCH   1   2
BRANCH   1  29
ATOM     29  O   UNL A   1      44.110  24.324  28.805  1.00  0.00    -0.377 OA
BRANCH  29  30
ATOM     30  C   UNL A   1      44.230  25.696  28.419  1.00  0.00     0.188 C 
BRANCH  30  31
ATOM     31  C   UNL A   1      43.125  26.294  27.560  1.00  0.00     0.188 C 
BRANCH  31  32
ATOM     32  O   UNL A   1      42.661  27.471  28.221  1.00  0.00    -0.376 OA
BRANCH  32  33
ATOM     33  C   UNL A   1      42.312  27.308  29.591  1.00  0.00     0.202 C 
BRANCH  33  34
ATOM     34  C   UNL A   1      40.841  27.621  29.852  1.00  0.00     0.261 C 
BRANCH  34  35
ATOM     35  O   UNL A   1      40.768  28.721  30.779  1.00  0.00    -0.460 OA
BRANCH  35  36
ATOM     36  C   UNL A   1      39.867  29.687  30.440  1.00  0.00     0.338 C 
ATOM     37  O   UNL A   1      38.695  29.500  30.200  1.00  0.00    -0.246 OA
BRANCH  36  38
ATOM     38  C   UNL A   1      40.580  30.964  30.122  1.00  0.00     0.060 A 
ATOM     39  C   UNL A   1      41.972  31.025  30.292  1.00  0.00     0.016 A 
ATOM     40  C   UNL A   1      39.852  32.143  30.001  1.00  0.00     0.016 A 
ATOM     41  C   UNL A   1      42.602  32.257  30.522  1.00  0.00     0.010 A 
ATOM     42  C   UNL A   1      40.460  33.339  30.341  1.00  0.00     0.010 A 
ATOM     43  C   UNL A   1      41.827  33.410  30.658  1.00  0.00    -0.014 A 
BRANCH  43  44
ATOM     44  C   UNL A   1      42.271  34.652  31.330  1.00  0.00     0.031 A 
ATOM     45  C   UNL A   1      41.775  34.999  32.705  1.00  0.00     0.074 A 
ATOM     46  C   UNL A   1      43.413  35.235  30.876  1.00  0.00     0.049 A 
ATOM     47  N   UNL A   1      42.144  36.038  33.380  1.00  0.00    -0.248 NA
ATOM     48  C   UNL A   1      40.821  34.183  33.458  1.00  0.00     0.031 C 
ATOM     49  C   UNL A   1      44.361  36.028  31.658  1.00  0.00     0.029 A 
ATOM     50  N   UNL A   1      44.010  35.230  29.615  1.00  0.00    -0.354 N 
ATOM     51  C   UNL A   1      41.802  35.845  34.704  1.00  0.00     0.074 A 
ATOM     52  C   UNL A   1      40.880  34.737  34.675  1.00  0.00     0.031 C 
ATOM     53  C   UNL A   1      45.332  36.515  30.873  1.00  0.00     0.029 A 
ATOM     54  C   UNL A   1      44.857  36.346  29.526  1.00  0.00     0.049 A 
ATOM     55  H   UNL A   1      43.862  34.561  28.909  1.00  0.00     0.167 HD
ATOM     56  C   UNL A   1      42.458  36.544  35.682  1.00  0.00     0.031 A 
ATOM     57  C   UNL A   1      44.612  37.404  28.695  1.00  0.00     0.031 A 
ATOM     58  C   UNL A   1      43.336  37.598  35.128  1.00  0.00     0.049 A 
ATOM     59  C   UNL A   1      44.276  38.675  29.474  1.00  0.00     0.074 A 
ATOM     60  C   UNL A   1      44.671  37.943  35.286  1.00  0.00     0.029 A 
ATOM     61  N   UNL A   1      42.864  38.406  34.092  1.00  0.00    -0.354 N 
ATOM     62  N   UNL A   1      43.995  38.669  30.755  1.00  0.00    -0.248 NA
ATOM     63  C   UNL A   1      44.267  40.035  28.943  1.00  0.00     0.031 C 
ATOM     64  C   UNL A   1      45.014  38.877  34.266  1.00  0.00     0.029 A 
ATOM     65  C   UNL A   1      43.873  39.159  33.532  1.00  0.00     0.049 A 
ATOM     66  H   UNL A   1      41.924  38.434  33.797  1.00  0.00     0.167 HD
ATOM     67  C   UNL A   1      43.818  39.933  31.230  1.00  0.00     0.074 A 
ATOM     68  C   UNL A   1      43.983  40.760  30.046  1.00  0.00     0.031 C 
ATOM     69  C   UNL A   1      43.550  40.191  32.547  1.00  0.00     0.031 A 
BRANCH  56  70
ATOM     70  C   UNL A   1      42.480  36.158  37.165  1.00  0.00    -0.014 A 
ATOM     71  C   UNL A   1      41.439  36.581  38.020  1.00  0.00     0.009 A 
ATOM     72  C   UNL A   1      43.529  35.472  37.809  1.00  0.00     0.009 A 
ATOM     73  C   UNL A   1      41.459  36.360  39.410  1.00  0.00     0.001 A 
ATOM     74  C   UNL A   1      43.536  35.209  39.193  1.00  0.00     0.001 A 
ATOM     75  C   UNL A   1      42.506  35.666  39.997  1.00  0.00     0.000 A 
ENDBRANCH  56  70
BRANCH  57  76
ATOM     76  C   UNL A   1      44.252  36.948  27.318  1.00  0.00    -0.014 A 
ATOM     77  C   UNL A   1      45.264  36.171  26.706  1.00  0.00     0.009 A 
ATOM     78  C   UNL A   1      42.913  36.652  27.003  1.00  0.00     0.009 A 
ATOM     79  C   UNL A   1      44.950  34.963  26.074  1.00  0.00     0.001 A 
ATOM     80  C   UNL A   1      42.606  35.450  26.340  1.00  0.00     0.001 A 
ATOM     81  C   UNL A   1      43.620  34.575  25.946  1.00  0.00     0.000 A 
ENDBRANCH  57  76
BRANCH  69  82
ATOM     82  C   UNL A   1      42.941  41.465  33.095  1.00  0.00    -0.014 A 
ATOM     83  C   UNL A   1      42.845  41.762  34.457  1.00  0.00     0.009 A 
ATOM     84  C   UNL A   1      42.631  42.519  32.197  1.00  0.00     0.009 A 
ATOM     85  C   UNL A   1      42.446  43.031  34.898  1.00  0.00     0.001 A 
ATOM     86  C   UNL A   1      42.282  43.797  32.631  1.00  0.00     0.001 A 
ATOM     87  C   UNL A   1      42.182  44.051  33.988  1.00  0.00     0.000 A 
ENDBRANCH  69  82
ENDBRANCH  43  44
ENDBRANCH  36  38
ENDBRANCH  35  36
ENDBRANCH  34  35
ENDBRANCH  33  34
ENDBRANCH  32  33
ENDBRANCH  31  32
ENDBRANCH  30  31
ENDBRANCH  29  30
ENDBRANCH   1  29
TORSDOF 23
ENDMDL
