MODEL 1
REMARK VINA RESULT:     -10.2      0.000      0.000
REMARK SMILES Cc1ccc(C(=O)OCCOCCOCCOCCOC(=O)c2ccc(-c3c4nc(c(-c5ccccc5)c5ccc([nH]5)c(-c5ccccc5)c5nc(c(-c6ccccc6)c6ccc3[nH]6)C=C5)C=C4)cc2)cc1NC(=O)c1ccc(Br)o1
REMARK SMILES IDX 14 1 13 2 12 3 11 4 10 5 9 6 8 7 6 8 7 9 5 10 1 11 2 12 3 13
REMARK SMILES IDX 72 14 4 15 71 16 73 17 74 18 75 20 76 21 77 22 81 23 78 24
REMARK SMILES IDX 79 25 80 26 15 27 16 28 17 29 18 30 19 31 20 32 21 33 22 34
REMARK SMILES IDX 23 35 24 36 70 37 25 38 69 39 26 40 27 41 28 42 63 43 29 44
REMARK SMILES IDX 68 45 62 46 64 47 30 48 67 49 61 50 60 51 31 53 53 54 38 55
REMARK SMILES IDX 52 56 39 57 42 58 51 59 65 60 40 61 41 62 50 64 66 65 43 66
REMARK SMILES IDX 32 67 33 68 37 69 34 70 36 71 35 72 54 73 55 74 59 75 56 76
REMARK SMILES IDX 58 77 57 78 44 79 45 80 49 81 46 82 48 83 47 84
REMARK H PARENT 73 19 64 52 42 63
REMARK Flexibility Score: inf
ROOT
ATOM      1  O   UNL A   1      38.419  23.781  26.289  1.00  0.00    -0.377 OA
ENDROOT
BRANCH   1   2
ATOM      2  C   UNL A   1      37.145  23.803  25.677  1.00  0.00     0.188 C 
BRANCH   2   3
ATOM      3  C   UNL A   1      36.751  23.120  24.332  1.00  0.00     0.188 C 
BRANCH   3   4
ATOM      4  O   UNL A   1      36.559  21.735  24.098  1.00  0.00    -0.376 OA
BRANCH   4   5
ATOM      5  C   UNL A   1      35.874  21.067  25.130  1.00  0.00     0.202 C 
BRANCH   5   6
ATOM      6  C   UNL A   1      34.389  21.156  25.431  1.00  0.00     0.261 C 
BRANCH   6   7
ATOM      7  O   UNL A   1      33.577  22.095  24.820  1.00  0.00    -0.460 OA
BRANCH   7   8
ATOM      8  C   UNL A   1      32.318  22.037  25.212  1.00  0.00     0.338 C 
ATOM      9  O   UNL A   1      31.625  21.059  25.381  1.00  0.00    -0.246 OA
BRANCH   8  10
ATOM     10  C   UNL A   1      32.119  23.401  25.686  1.00  0.00     0.062 A 
ATOM     11  C   UNL A   1      31.642  27.481  26.651  1.00  0.00     0.046 C 
ATOM     12  C   UNL A   1      31.701  26.085  26.099  1.00  0.00    -0.027 A 
ATOM     13  C   UNL A   1      33.012  25.531  26.105  1.00  0.00     0.006 A 
ATOM     14  C   UNL A   1      30.621  25.281  25.678  1.00  0.00     0.045 A 
ATOM     15  C   UNL A   1      33.228  24.197  25.836  1.00  0.00     0.016 A 
ATOM     16  C   UNL A   1      30.824  23.940  25.664  1.00  0.00     0.042 A 
BRANCH  14  17
ATOM     17  N   UNL A   1      29.347  25.673  25.261  1.00  0.00    -0.319 N 
ATOM     18  C   UNL A   1      28.888  26.492  24.190  1.00  0.00     0.291 C 
ATOM     19  H   UNL A   1      28.621  25.312  25.820  1.00  0.00     0.170 HD
ATOM     20  O   UNL A   1      27.637  26.480  24.194  1.00  0.00    -0.265 OA
BRANCH  18  21
ATOM     21  C   UNL A   1      29.648  27.542  23.149  1.00  0.00     0.193 A 
ATOM     22  C   UNL A   1      30.542  29.180  23.302  1.00  0.00     0.057 A 
ATOM     23  O   UNL A   1      30.992  26.394  22.557  1.00  0.00    -0.444 OA
ATOM     24  C   UNL A   1      32.548  28.897  22.891  1.00  0.00     0.059 A 
ATOM     25  C   UNL A   1      32.737  27.076  22.436  1.00  0.00     0.170 A 
ATOM     26  Br  UNL A   1      33.752  25.464  22.293  1.00  0.00    -0.008 Br
ENDBRANCH  18  21
ENDBRANCH  14  17
ENDBRANCH   8  10
ENDBRANCH   7   8
ENDBRANCH   6   7
ENDBRANCH   5   6
ENDBRANCH   4   5
ENDBRANCH   3   4
ENDBRANCH   2   3
ENDBRANCH   1   2
BRANCH   1  27
ATOM     27  C   UNL A   1      38.939  22.524  26.668  1.00  0.00     0.188 C 
BRANCH  27  28
ATOM     28  C   UNL A   1      40.186  21.906  26.124  1.00  0.00     0.188 C 
BRANCH  28  29
ATOM     29  O   UNL A   1      41.238  22.766  26.518  1.00  0.00    -0.376 OA
BRANCH  29  30
ATOM     30  C   UNL A   1      41.369  22.970  27.902  1.00  0.00     0.202 C 
BRANCH  30  31
ATOM     31  C   UNL A   1      41.870  24.372  28.256  1.00  0.00     0.261 C 
BRANCH  31  32
ATOM     32  O   UNL A   1      40.992  25.347  27.633  1.00  0.00    -0.460 OA
BRANCH  32  33
ATOM     33  C   UNL A   1      40.246  26.136  28.460  1.00  0.00     0.338 C 
ATOM     34  O   UNL A   1      39.306  25.749  29.136  1.00  0.00    -0.246 OA
BRANCH  33  35
ATOM     35  C   UNL A   1      40.550  27.589  28.222  1.00  0.00     0.060 A 
ATOM     36  C   UNL A   1      41.738  28.152  28.657  1.00  0.00     0.016 A 
ATOM     37  C   UNL A   1      39.489  28.451  28.090  1.00  0.00     0.016 A 
ATOM     38  C   UNL A   1      41.695  29.397  29.323  1.00  0.00     0.010 A 
ATOM     39  C   UNL A   1      39.418  29.540  28.977  1.00  0.00     0.010 A 
ATOM     40  C   UNL A   1      40.480  29.969  29.793  1.00  0.00    -0.014 A 
BRANCH  40  41
ATOM     41  C   UNL A   1      40.335  31.380  30.945  1.00  0.00     0.031 A 
ATOM     42  C   UNL A   1      40.483  30.047  32.333  1.00  0.00     0.074 A 
ATOM     43  C   UNL A   1      39.346  33.071  30.982  1.00  0.00     0.049 A 
ATOM     44  N   UNL A   1      40.502  30.152  33.643  1.00  0.00    -0.248 NA
ATOM     45  C   UNL A   1      40.677  28.549  32.124  1.00  0.00     0.031 C 
ATOM     46  C   UNL A   1      39.100  34.374  32.119  1.00  0.00     0.029 A 
ATOM     47  N   UNL A   1      38.099  33.673  30.207  1.00  0.00    -0.354 N 
ATOM     48  C   UNL A   1      41.245  29.075  34.244  1.00  0.00     0.074 A 
ATOM     49  C   UNL A   1      41.268  28.073  33.236  1.00  0.00     0.031 C 
ATOM     50  C   UNL A   1      37.852  34.862  32.065  1.00  0.00     0.029 A 
ATOM     51  C   UNL A   1      37.112  34.016  31.167  1.00  0.00     0.049 A 
ATOM     52  H   UNL A   1      38.023  33.790  29.233  1.00  0.00     0.167 HD
ATOM     53  C   UNL A   1      41.897  29.277  35.455  1.00  0.00     0.031 A 
ATOM     54  C   UNL A   1      36.176  33.094  31.599  1.00  0.00     0.031 A 
ATOM     55  C   UNL A   1      41.329  30.484  36.041  1.00  0.00     0.049 A 
ATOM     56  C   UNL A   1      36.395  32.888  33.153  1.00  0.00     0.074 A 
ATOM     57  C   UNL A   1      41.814  31.754  36.291  1.00  0.00     0.029 A 
ATOM     58  N   UNL A   1      39.951  30.560  36.121  1.00  0.00    -0.354 N 
ATOM     59  N   UNL A   1      37.322  32.185  33.786  1.00  0.00    -0.248 NA
ATOM     60  C   UNL A   1      35.708  33.819  34.062  1.00  0.00     0.031 C 
ATOM     61  C   UNL A   1      40.710  32.636  36.173  1.00  0.00     0.029 A 
ATOM     62  C   UNL A   1      39.557  31.874  36.007  1.00  0.00     0.049 A 
ATOM     63  H   UNL A   1      39.344  29.793  36.239  1.00  0.00     0.167 HD
ATOM     64  C   UNL A   1      37.337  32.554  35.129  1.00  0.00     0.074 A 
ATOM     65  C   UNL A   1      36.336  33.600  35.222  1.00  0.00     0.031 C 
ATOM     66  C   UNL A   1      38.163  32.189  36.165  1.00  0.00     0.031 A 
BRANCH  53  67
ATOM     67  C   UNL A   1      43.215  28.676  36.076  1.00  0.00    -0.014 A 
ATOM     68  C   UNL A   1      44.346  29.541  36.206  1.00  0.00     0.009 A 
ATOM     69  C   UNL A   1      43.499  27.344  36.428  1.00  0.00     0.009 A 
ATOM     70  C   UNL A   1      45.647  29.134  36.567  1.00  0.00     0.001 A 
ATOM     71  C   UNL A   1      44.808  26.931  36.845  1.00  0.00     0.001 A 
ATOM     72  C   UNL A   1      45.883  27.816  36.894  1.00  0.00     0.000 A 
ENDBRANCH  53  67
BRANCH  54  73
ATOM     73  C   UNL A   1      35.731  32.026  30.553  1.00  0.00    -0.014 A 
ATOM     74  C   UNL A   1      35.046  32.423  29.372  1.00  0.00     0.009 A 
ATOM     75  C   UNL A   1      36.176  30.691  30.546  1.00  0.00     0.009 A 
ATOM     76  C   UNL A   1      35.025  31.624  28.196  1.00  0.00     0.001 A 
ATOM     77  C   UNL A   1      36.228  29.923  29.353  1.00  0.00     0.001 A 
ATOM     78  C   UNL A   1      35.731  30.425  28.157  1.00  0.00     0.000 A 
ENDBRANCH  54  73
BRANCH  66  79
ATOM     79  C   UNL A   1      37.682  32.079  37.602  1.00  0.00    -0.014 A 
ATOM     80  C   UNL A   1      37.101  30.914  38.099  1.00  0.00     0.009 A 
ATOM     81  C   UNL A   1      38.035  33.073  38.555  1.00  0.00     0.009 A 
ATOM     82  C   UNL A   1      36.820  30.774  39.458  1.00  0.00     0.001 A 
ATOM     83  C   UNL A   1      37.817  32.910  39.920  1.00  0.00     0.001 A 
ATOM     84  C   UNL A   1      37.186  31.763  40.367  1.00  0.00     0.000 A 
ENDBRANCH  66  79
ENDBRANCH  40  41
ENDBRANCH  33  35
ENDBRANCH  32  33
ENDBRANCH  31  32
ENDBRANCH  30  31
ENDBRANCH  29  30
ENDBRANCH  28  29
ENDBRANCH  27  28
ENDBRANCH   1  27
TORSDOF 22
ENDMDL
MODEL 2
REMARK VINA RESULT:      -8.7      2.758      6.684
REMARK SMILES Cc1ccc(C(=O)OCCOCCOCCOCCOC(=O)c2ccc(-c3c4nc(c(-c5ccccc5)c5ccc([nH]5)c(-c5ccccc5)c5nc(c(-c6ccccc6)c6ccc3[nH]6)C=C5)C=C4)cc2)cc1NC(=O)c1ccc(Br)o1
REMARK SMILES IDX 14 1 13 2 12 3 11 4 10 5 9 6 8 7 6 8 7 9 5 10 1 11 2 12 3 13
REMARK SMILES IDX 72 14 4 15 71 16 73 17 74 18 75 20 76 21 77 22 81 23 78 24
REMARK SMILES IDX 79 25 80 26 15 27 16 28 17 29 18 30 19 31 20 32 21 33 22 34
REMARK SMILES IDX 23 35 24 36 70 37 25 38 69 39 26 40 27 41 28 42 63 43 29 44
REMARK SMILES IDX 68 45 62 46 64 47 30 48 67 49 61 50 60 51 31 53 53 54 38 55
REMARK SMILES IDX 52 56 39 57 42 58 51 59 65 60 40 61 41 62 50 64 66 65 43 66
REMARK SMILES IDX 32 67 33 68 37 69 34 70 36 71 35 72 54 73 55 74 59 75 56 76
REMARK SMILES IDX 58 77 57 78 44 79 45 80 49 81 46 82 48 83 47 84
REMARK H PARENT 73 19 64 52 42 63
REMARK Flexibility Score: inf
ROOT
ATOM      1  O   UNL A   1      38.960  28.334  30.323  1.00  0.00    -0.377 OA
ENDROOT
BRANCH   1   2
ATOM      2  C   UNL A   1      39.291  29.168  29.231  1.00  0.00     0.188 C 
BRANCH   2   3
ATOM      3  C   UNL A   1      38.326  30.129  28.473  1.00  0.00     0.188 C 
BRANCH   3   4
ATOM      4  O   UNL A   1      37.197  30.803  29.002  1.00  0.00    -0.376 OA
BRANCH   4   5
ATOM      5  C   UNL A   1      35.988  30.098  28.861  1.00  0.00     0.202 C 
BRANCH   5   6
ATOM      6  C   UNL A   1      35.199  29.909  27.578  1.00  0.00     0.261 C 
BRANCH   6   7
ATOM      7  O   UNL A   1      33.934  29.350  27.576  1.00  0.00    -0.460 OA
BRANCH   7   8
ATOM      8  C   UNL A   1      32.980  30.203  27.254  1.00  0.00     0.338 C 
ATOM      9  O   UNL A   1      33.001  31.412  27.306  1.00  0.00    -0.246 OA
BRANCH   8  10
ATOM     10  C   UNL A   1      32.066  29.328  26.532  1.00  0.00     0.062 A 
ATOM     11  C   UNL A   1      29.757  26.695  24.177  1.00  0.00     0.046 C 
ATOM     12  C   UNL A   1      30.755  27.466  24.993  1.00  0.00    -0.027 A 
ATOM     13  C   UNL A   1      30.946  28.801  24.537  1.00  0.00     0.006 A 
ATOM     14  C   UNL A   1      31.421  27.041  26.162  1.00  0.00     0.045 A 
ATOM     15  C   UNL A   1      31.657  29.718  25.280  1.00  0.00     0.016 A 
ATOM     16  C   UNL A   1      31.895  28.011  26.983  1.00  0.00     0.042 A 
BRANCH  14  17
ATOM     17  N   UNL A   1      31.673  25.740  26.604  1.00  0.00    -0.319 N 
ATOM     18  C   UNL A   1      32.345  24.631  26.016  1.00  0.00     0.291 C 
ATOM     19  H   UNL A   1      31.312  25.552  27.501  1.00  0.00     0.170 HD
ATOM     20  O   UNL A   1      32.366  23.698  26.849  1.00  0.00    -0.265 OA
BRANCH  18  21
ATOM     21  C   UNL A   1      32.879  24.305  24.476  1.00  0.00     0.193 A 
ATOM     22  C   UNL A   1      32.080  23.934  22.823  1.00  0.00     0.057 A 
ATOM     23  O   UNL A   1      33.754  25.919  24.156  1.00  0.00    -0.444 OA
ATOM     24  C   UNL A   1      32.426  25.513  21.535  1.00  0.00     0.059 A 
ATOM     25  C   UNL A   1      33.498  26.740  22.487  1.00  0.00     0.170 A 
ATOM     26  Br  UNL A   1      34.147  28.501  22.840  1.00  0.00    -0.008 Br
ENDBRANCH  18  21
ENDBRANCH  14  17
ENDBRANCH   8  10
ENDBRANCH   7   8
ENDBRANCH   6   7
ENDBRANCH   5   6
ENDBRANCH   4   5
ENDBRANCH   3   4
ENDBRANCH   2   3
ENDBRANCH   1   2
BRANCH   1  27
ATOM     27  C   UNL A   1      39.874  28.274  31.398  1.00  0.00     0.188 C 
BRANCH  27  28
ATOM     28  C   UNL A   1      39.592  28.721  32.796  1.00  0.00     0.188 C 
BRANCH  28  29
ATOM     29  O   UNL A   1      40.120  27.710  33.631  1.00  0.00    -0.376 OA
BRANCH  29  30
ATOM     30  C   UNL A   1      41.500  27.481  33.507  1.00  0.00     0.202 C 
BRANCH  30  31
ATOM     31  C   UNL A   1      42.105  26.788  34.731  1.00  0.00     0.261 C 
BRANCH  31  32
ATOM     32  O   UNL A   1      43.530  26.617  34.507  1.00  0.00    -0.460 OA
BRANCH  32  33
ATOM     33  C   UNL A   1      44.369  26.938  35.536  1.00  0.00     0.338 C 
ATOM     34  O   UNL A   1      44.428  26.345  36.601  1.00  0.00    -0.246 OA
BRANCH  33  35
ATOM     35  C   UNL A   1      45.010  28.276  35.296  1.00  0.00     0.060 A 
ATOM     36  C   UNL A   1      45.005  29.257  36.274  1.00  0.00     0.016 A 
ATOM     37  C   UNL A   1      45.096  28.721  33.999  1.00  0.00     0.016 A 
ATOM     38  C   UNL A   1      44.663  30.578  35.908  1.00  0.00     0.010 A 
ATOM     39  C   UNL A   1      44.502  29.957  33.692  1.00  0.00     0.010 A 
ATOM     40  C   UNL A   1      44.077  30.894  34.652  1.00  0.00    -0.014 A 
BRANCH  40  41
ATOM     41  C   UNL A   1      43.292  32.483  34.203  1.00  0.00     0.031 A 
ATOM     42  C   UNL A   1      41.666  31.671  34.852  1.00  0.00     0.074 A 
ATOM     43  C   UNL A   1      43.506  33.804  32.774  1.00  0.00     0.049 A 
ATOM     44  N   UNL A   1      40.441  32.135  34.954  1.00  0.00    -0.248 NA
ATOM     45  C   UNL A   1      41.535  30.275  35.454  1.00  0.00     0.031 C 
ATOM     46  C   UNL A   1      42.694  35.263  32.260  1.00  0.00     0.029 A 
ATOM     47  N   UNL A   1      44.193  33.828  31.343  1.00  0.00    -0.354 N 
ATOM     48  C   UNL A   1      39.725  31.496  36.027  1.00  0.00     0.074 A 
ATOM     49  C   UNL A   1      40.451  30.295  36.252  1.00  0.00     0.031 C 
ATOM     50  C   UNL A   1      42.662  35.380  30.925  1.00  0.00     0.029 A 
ATOM     51  C   UNL A   1      43.198  34.157  30.386  1.00  0.00     0.049 A 
ATOM     52  H   UNL A   1      45.141  33.646  31.152  1.00  0.00     0.167 HD
ATOM     53  C   UNL A   1      38.719  32.186  36.695  1.00  0.00     0.031 A 
ATOM     54  C   UNL A   1      42.411  33.183  29.799  1.00  0.00     0.031 A 
ATOM     55  C   UNL A   1      38.359  33.320  35.855  1.00  0.00     0.049 A 
ATOM     56  C   UNL A   1      40.910  33.479  30.203  1.00  0.00     0.074 A 
ATOM     57  C   UNL A   1      38.505  34.689  35.970  1.00  0.00     0.029 A 
ATOM     58  N   UNL A   1      38.080  33.059  34.525  1.00  0.00    -0.354 N 
ATOM     59  N   UNL A   1      40.284  33.241  31.345  1.00  0.00    -0.248 NA
ATOM     60  C   UNL A   1      40.154  34.417  29.357  1.00  0.00     0.031 C 
ATOM     61  C   UNL A   1      38.653  35.190  34.652  1.00  0.00     0.029 A 
ATOM     62  C   UNL A   1      38.443  34.143  33.759  1.00  0.00     0.049 A 
ATOM     63  H   UNL A   1      37.684  32.225  34.180  1.00  0.00     0.167 HD
ATOM     64  C   UNL A   1      39.090  33.959  31.370  1.00  0.00     0.074 A 
ATOM     65  C   UNL A   1      39.092  34.696  30.121  1.00  0.00     0.031 C 
ATOM     66  C   UNL A   1      38.143  34.120  32.353  1.00  0.00     0.031 A 
BRANCH  53  67
ATOM     67  C   UNL A   1      38.192  32.139  38.180  1.00  0.00    -0.014 A 
ATOM     68  C   UNL A   1      37.185  31.176  38.499  1.00  0.00     0.009 A 
ATOM     69  C   UNL A   1      38.484  33.004  39.250  1.00  0.00     0.009 A 
ATOM     70  C   UNL A   1      36.476  31.111  39.716  1.00  0.00     0.001 A 
ATOM     71  C   UNL A   1      37.802  32.914  40.508  1.00  0.00     0.001 A 
ATOM     72  C   UNL A   1      36.787  31.986  40.735  1.00  0.00     0.000 A 
ENDBRANCH  53  67
BRANCH  54  73
ATOM     73  C   UNL A   1      43.083  31.791  29.595  1.00  0.00    -0.014 A 
ATOM     74  C   UNL A   1      42.832  30.733  30.511  1.00  0.00     0.009 A 
ATOM     75  C   UNL A   1      43.740  31.394  28.415  1.00  0.00     0.009 A 
ATOM     76  C   UNL A   1      43.006  29.365  30.165  1.00  0.00     0.001 A 
ATOM     77  C   UNL A   1      43.840  30.030  28.034  1.00  0.00     0.001 A 
ATOM     78  C   UNL A   1      43.392  29.018  28.874  1.00  0.00     0.000 A 
ENDBRANCH  54  73
BRANCH  66  79
ATOM     79  C   UNL A   1      36.664  34.293  32.051  1.00  0.00    -0.014 A 
ATOM     80  C   UNL A   1      35.845  35.114  32.825  1.00  0.00     0.009 A 
ATOM     81  C   UNL A   1      36.121  33.823  30.824  1.00  0.00     0.009 A 
ATOM     82  C   UNL A   1      34.534  35.392  32.435  1.00  0.00     0.001 A 
ATOM     83  C   UNL A   1      34.837  34.151  30.401  1.00  0.00     0.001 A 
ATOM     84  C   UNL A   1      34.035  34.922  31.224  1.00  0.00     0.000 A 
ENDBRANCH  66  79
ENDBRANCH  40  41
ENDBRANCH  33  35
ENDBRANCH  32  33
ENDBRANCH  31  32
ENDBRANCH  30  31
ENDBRANCH  29  30
ENDBRANCH  28  29
ENDBRANCH  27  28
ENDBRANCH   1  27
TORSDOF 22
ENDMDL
MODEL 3
REMARK VINA RESULT:      -8.7      4.155      8.760
REMARK SMILES Cc1ccc(C(=O)OCCOCCOCCOCCOC(=O)c2ccc(-c3c4nc(c(-c5ccccc5)c5ccc([nH]5)c(-c5ccccc5)c5nc(c(-c6ccccc6)c6ccc3[nH]6)C=C5)C=C4)cc2)cc1NC(=O)c1ccc(Br)o1
REMARK SMILES IDX 14 1 13 2 12 3 11 4 10 5 9 6 8 7 6 8 7 9 5 10 1 11 2 12 3 13
REMARK SMILES IDX 72 14 4 15 71 16 73 17 74 18 75 20 76 21 77 22 81 23 78 24
REMARK SMILES IDX 79 25 80 26 15 27 16 28 17 29 18 30 19 31 20 32 21 33 22 34
REMARK SMILES IDX 23 35 24 36 70 37 25 38 69 39 26 40 27 41 28 42 63 43 29 44
REMARK SMILES IDX 68 45 62 46 64 47 30 48 67 49 61 50 60 51 31 53 53 54 38 55
REMARK SMILES IDX 52 56 39 57 42 58 51 59 65 60 40 61 41 62 50 64 66 65 43 66
REMARK SMILES IDX 32 67 33 68 37 69 34 70 36 71 35 72 54 73 55 74 59 75 56 76
REMARK SMILES IDX 58 77 57 78 44 79 45 80 49 81 46 82 48 83 47 84
REMARK H PARENT 73 19 64 52 42 63
REMARK Flexibility Score: inf
ROOT
ATOM      1  O   UNL A   1      35.190  30.376  27.939  1.00  0.00    -0.377 OA
ENDROOT
BRANCH   1   2
ATOM      2  C   UNL A   1      33.911  30.636  27.395  1.00  0.00     0.188 C 
BRANCH   2   3
ATOM      3  C   UNL A   1      32.870  29.575  26.928  1.00  0.00     0.188 C 
BRANCH   3   4
ATOM      4  O   UNL A   1      32.267  29.471  25.650  1.00  0.00    -0.376 OA
BRANCH   4   5
ATOM      5  C   UNL A   1      33.173  29.200  24.607  1.00  0.00     0.202 C 
BRANCH   5   6
ATOM      6  C   UNL A   1      32.831  29.025  23.139  1.00  0.00     0.261 C 
BRANCH   6   7
ATOM      7  O   UNL A   1      32.383  27.818  22.633  1.00  0.00    -0.460 OA
BRANCH   7   8
ATOM      8  C   UNL A   1      31.082  27.642  22.765  1.00  0.00     0.338 C 
ATOM      9  O   UNL A   1      30.186  28.126  22.112  1.00  0.00    -0.246 OA
BRANCH   8  10
ATOM     10  C   UNL A   1      31.054  26.489  23.657  1.00  0.00     0.062 A 
ATOM     11  C   UNL A   1      30.555  23.094  26.112  1.00  0.00     0.046 C 
ATOM     12  C   UNL A   1      30.603  24.178  25.074  1.00  0.00    -0.027 A 
ATOM     13  C   UNL A   1      30.154  25.440  25.554  1.00  0.00     0.006 A 
ATOM     14  C   UNL A   1      31.110  24.087  23.760  1.00  0.00     0.045 A 
ATOM     15  C   UNL A   1      30.323  26.590  24.815  1.00  0.00     0.016 A 
ATOM     16  C   UNL A   1      31.488  25.248  23.168  1.00  0.00     0.042 A 
BRANCH  14  17
ATOM     17  N   UNL A   1      31.279  22.954  22.962  1.00  0.00    -0.319 N 
ATOM     18  C   UNL A   1      32.347  22.023  22.816  1.00  0.00     0.291 C 
ATOM     19  H   UNL A   1      30.506  22.761  22.383  1.00  0.00     0.170 HD
ATOM     20  O   UNL A   1      31.984  21.131  22.017  1.00  0.00    -0.265 OA
BRANCH  18  21
ATOM     21  C   UNL A   1      33.934  22.019  23.311  1.00  0.00     0.193 A 
ATOM     22  C   UNL A   1      35.347  23.248  23.315  1.00  0.00     0.057 A 
ATOM     23  O   UNL A   1      33.639  21.725  25.128  1.00  0.00    -0.444 OA
ATOM     24  C   UNL A   1      35.782  23.771  25.268  1.00  0.00     0.059 A 
ATOM     25  C   UNL A   1      34.625  22.751  26.353  1.00  0.00     0.170 A 
ATOM     26  Br  UNL A   1      33.637  22.454  27.961  1.00  0.00    -0.008 Br
ENDBRANCH  18  21
ENDBRANCH  14  17
ENDBRANCH   8  10
ENDBRANCH   7   8
ENDBRANCH   6   7
ENDBRANCH   5   6
ENDBRANCH   4   5
ENDBRANCH   3   4
ENDBRANCH   2   3
ENDBRANCH   1   2
BRANCH   1  27
ATOM     27  C   UNL A   1      35.918  31.474  28.448  1.00  0.00     0.188 C 
BRANCH  27  28
ATOM     28  C   UNL A   1      36.994  31.391  29.482  1.00  0.00     0.188 C 
BRANCH  28  29
ATOM     29  O   UNL A   1      37.012  30.041  29.903  1.00  0.00    -0.376 OA
BRANCH  29  30
ATOM     30  C   UNL A   1      36.756  29.828  31.268  1.00  0.00     0.202 C 
BRANCH  30  31
ATOM     31  C   UNL A   1      36.306  31.097  31.998  1.00  0.00     0.261 C 
BRANCH  31  32
ATOM     32  O   UNL A   1      37.380  31.530  32.874  1.00  0.00    -0.460 OA
BRANCH  32  33
ATOM     33  C   UNL A   1      37.162  32.650  33.625  1.00  0.00     0.338 C 
ATOM     34  O   UNL A   1      36.345  32.739  34.527  1.00  0.00    -0.246 OA
BRANCH  33  35
ATOM     35  C   UNL A   1      37.858  33.836  33.019  1.00  0.00     0.060 A 
ATOM     36  C   UNL A   1      37.516  34.301  31.760  1.00  0.00     0.016 A 
ATOM     37  C   UNL A   1      39.143  34.102  33.430  1.00  0.00     0.016 A 
ATOM     38  C   UNL A   1      38.549  34.608  30.846  1.00  0.00     0.010 A 
ATOM     39  C   UNL A   1      40.146  34.147  32.446  1.00  0.00     0.010 A 
ATOM     40  C   UNL A   1      39.899  34.219  31.063  1.00  0.00    -0.014 A 
BRANCH  40  41
ATOM     41  C   UNL A   1      41.239  34.256  29.820  1.00  0.00     0.031 A 
ATOM     42  C   UNL A   1      41.420  32.374  30.204  1.00  0.00     0.074 A 
ATOM     43  C   UNL A   1      42.629  35.529  29.287  1.00  0.00     0.049 A 
ATOM     44  N   UNL A   1      42.218  31.456  29.705  1.00  0.00    -0.248 NA
ATOM     45  C   UNL A   1      40.566  31.567  31.177  1.00  0.00     0.031 C 
ATOM     46  C   UNL A   1      43.988  35.541  28.189  1.00  0.00     0.029 A 
ATOM     47  N   UNL A   1      43.292  36.820  29.929  1.00  0.00    -0.354 N 
ATOM     48  C   UNL A   1      41.620  30.148  29.773  1.00  0.00     0.074 A 
ATOM     49  C   UNL A   1      40.614  30.286  30.768  1.00  0.00     0.031 C 
ATOM     50  C   UNL A   1      45.030  36.226  28.682  1.00  0.00     0.029 A 
ATOM     51  C   UNL A   1      44.689  36.589  30.033  1.00  0.00     0.049 A 
ATOM     52  H   UNL A   1      42.819  37.638  30.207  1.00  0.00     0.167 HD
ATOM     53  C   UNL A   1      41.952  29.186  28.825  1.00  0.00     0.031 A 
ATOM     54  C   UNL A   1      45.236  35.970  31.142  1.00  0.00     0.031 A 
ATOM     55  C   UNL A   1      43.176  29.640  28.178  1.00  0.00     0.049 A 
ATOM     56  C   UNL A   1      45.913  34.627  30.649  1.00  0.00     0.074 A 
ATOM     57  C   UNL A   1      43.484  30.087  26.907  1.00  0.00     0.029 A 
ATOM     58  N   UNL A   1      44.225  30.012  28.999  1.00  0.00    -0.354 N 
ATOM     59  N   UNL A   1      45.352  33.470  30.330  1.00  0.00    -0.248 NA
ATOM     60  C   UNL A   1      47.301  34.705  30.167  1.00  0.00     0.031 C 
ATOM     61  C   UNL A   1      44.543  31.018  27.056  1.00  0.00     0.029 A 
ATOM     62  C   UNL A   1      44.957  31.003  28.385  1.00  0.00     0.049 A 
ATOM     63  H   UNL A   1      44.417  29.629  29.885  1.00  0.00     0.167 HD
ATOM     64  C   UNL A   1      46.277  32.689  29.641  1.00  0.00     0.074 A 
ATOM     65  C   UNL A   1      47.453  33.533  29.542  1.00  0.00     0.031 C 
ATOM     66  C   UNL A   1      46.158  31.465  29.026  1.00  0.00     0.031 A 
BRANCH  53  67
ATOM     67  C   UNL A   1      41.148  27.991  28.185  1.00  0.00    -0.014 A 
ATOM     68  C   UNL A   1      39.889  27.647  28.768  1.00  0.00     0.009 A 
ATOM     69  C   UNL A   1      41.543  27.104  27.167  1.00  0.00     0.009 A 
ATOM     70  C   UNL A   1      39.126  26.505  28.445  1.00  0.00     0.001 A 
ATOM     71  C   UNL A   1      40.748  25.969  26.798  1.00  0.00     0.001 A 
ATOM     72  C   UNL A   1      39.555  25.657  27.448  1.00  0.00     0.000 A 
ENDBRANCH  53  67
BRANCH  54  73
ATOM     73  C   UNL A   1      44.512  36.227  32.498  1.00  0.00    -0.014 A 
ATOM     74  C   UNL A   1      44.494  37.531  33.065  1.00  0.00     0.009 A 
ATOM     75  C   UNL A   1      43.634  35.314  33.112  1.00  0.00     0.009 A 
ATOM     76  C   UNL A   1      43.508  37.942  34.003  1.00  0.00     0.001 A 
ATOM     77  C   UNL A   1      42.599  35.740  33.985  1.00  0.00     0.001 A 
ATOM     78  C   UNL A   1      42.483  37.072  34.363  1.00  0.00     0.000 A 
ENDBRANCH  54  73
BRANCH  66  79
ATOM     79  C   UNL A   1      47.298  30.463  28.960  1.00  0.00    -0.014 A 
ATOM     80  C   UNL A   1      47.739  29.773  30.088  1.00  0.00     0.009 A 
ATOM     81  C   UNL A   1      47.785  30.011  27.704  1.00  0.00     0.009 A 
ATOM     82  C   UNL A   1      48.669  28.739  29.978  1.00  0.00     0.001 A 
ATOM     83  C   UNL A   1      48.662  28.937  27.585  1.00  0.00     0.001 A 
ATOM     84  C   UNL A   1      49.121  28.315  28.732  1.00  0.00     0.000 A 
ENDBRANCH  66  79
ENDBRANCH  40  41
ENDBRANCH  33  35
ENDBRANCH  32  33
ENDBRANCH  31  32
ENDBRANCH  30  31
ENDBRANCH  29  30
ENDBRANCH  28  29
ENDBRANCH  27  28
ENDBRANCH   1  27
TORSDOF 22
ENDMDL
