MODEL 1
REMARK VINA RESULT:     -10.4      0.000      0.000
REMARK SMILES COc1ccc(NC2=[NH+]C(=O)/C(=C\c3ccccc3C(=O)OCCOCCOCCOCCOC(=O)c3ccc(-c4c5nc(c(-c6ccccc6)c6ccc([nH]6)c(-c6ccccc6)c6nc(c(-c7ccccc7)c7ccc4[nH]7)C=C6)C=C5)cc3)S2)cc1
REMARK SMILES IDX 27 1 26 2 25 3 24 4 23 5 22 6 20 7 21 8 19 9 14 10 15 11
REMARK SMILES IDX 16 12 18 13 17 14 13 15 7 16 8 17 9 19 85 20 10 21 12 23
REMARK SMILES IDX 11 24 6 25 3 26 4 27 87 28 5 29 86 30 2 31 1 32 28 33 29 34
REMARK SMILES IDX 30 35 31 36 32 37 33 38 34 39 35 40 36 41 37 42 38 43 84 44
REMARK SMILES IDX 39 45 83 46 40 47 41 48 42 49 77 50 43 51 82 52 76 53 78 54
REMARK SMILES IDX 44 55 81 56 75 57 74 58 45 60 67 61 52 62 66 63 53 64 56 65
REMARK SMILES IDX 65 66 79 67 54 68 55 69 64 71 80 72 57 73 46 74 47 75 51 76
REMARK SMILES IDX 48 77 50 78 49 79 68 80 69 81 73 82 70 83 72 84 71 85 58 86
REMARK SMILES IDX 59 87 63 88 60 89 62 90 61 91
REMARK H PARENT 7 18 9 22 78 59 56 70
REMARK Flexibility Score: inf
ROOT
ATOM      1  C   UNL A   1      32.657  29.920  26.548  1.00  0.00     0.188 C 
ENDROOT
BRANCH   1   2
ATOM      2  C   UNL A   1      33.572  29.610  25.345  1.00  0.00     0.188 C 
BRANCH   2   3
ATOM      3  O   UNL A   1      33.272  28.374  24.722  1.00  0.00    -0.376 OA
BRANCH   3   4
ATOM      4  C   UNL A   1      32.880  28.339  23.364  1.00  0.00     0.202 C 
BRANCH   4   5
ATOM      5  C   UNL A   1      33.071  27.076  22.517  1.00  0.00     0.261 C 
BRANCH   5   6
ATOM      6  O   UNL A   1      34.144  26.213  22.893  1.00  0.00    -0.460 OA
BRANCH   6   7
ATOM      7  C   UNL A   1      33.967  24.882  22.752  1.00  0.00     0.338 C 
ATOM      8  O   UNL A   1      33.520  24.329  21.761  1.00  0.00    -0.246 OA
BRANCH   7   9
ATOM      9  C   UNL A   1      34.601  24.179  23.906  1.00  0.00     0.067 A 
ATOM     10  C   UNL A   1      34.148  24.244  25.248  1.00  0.00    -0.010 A 
ATOM     11  C   UNL A   1      34.902  23.592  26.240  1.00  0.00     0.009 A 
ATOM     12  C   UNL A   1      36.081  22.912  25.921  1.00  0.00     0.001 A 
ATOM     13  C   UNL A   1      35.791  23.493  23.602  1.00  0.00     0.016 A 
ATOM     14  C   UNL A   1      36.534  22.875  24.605  1.00  0.00     0.001 A 
BRANCH  10  15
ATOM     15  C   UNL A   1      33.022  25.073  25.721  1.00  0.00     0.033 C 
ATOM     16  N   UNL A   1      28.548  26.254  23.766  1.00  0.00    -0.235 N 
ATOM     17  C   UNL A   1      29.630  25.609  24.283  1.00  0.00     0.322 C 
ATOM     18  H   UNL A   1      27.792  25.663  23.549  1.00  0.00     0.313 HD
ATOM     19  N   UNL A   1      29.981  24.441  23.846  1.00  0.00    -0.199 N 
ATOM     20  S   UNL A   1      30.585  26.240  25.608  1.00  0.00     0.006 SA
ATOM     21  C   UNL A   1      31.134  23.967  24.433  1.00  0.00     0.346 C 
ATOM     22  H   UNL A   1      29.477  23.944  23.163  1.00  0.00     0.316 HD
ATOM     23  C   UNL A   1      31.744  24.992  25.330  1.00  0.00     0.110 C 
ATOM     24  O   UNL A   1      31.610  22.863  24.238  1.00  0.00    -0.240 OA
BRANCH  16  25
ATOM     25  C   UNL A   1      28.315  27.613  23.489  1.00  0.00     0.125 A 
ATOM     26  C   UNL A   1      28.035  30.366  22.921  1.00  0.00     0.119 A 
ATOM     27  C   UNL A   1      26.918  29.586  23.200  1.00  0.00     0.051 A 
ATOM     28  C   UNL A   1      29.298  29.787  22.940  1.00  0.00     0.051 A 
ATOM     29  C   UNL A   1      27.054  28.217  23.463  1.00  0.00     0.055 A 
ATOM     30  C   UNL A   1      29.431  28.421  23.210  1.00  0.00     0.055 A 
BRANCH  26  31
ATOM     31  O   UNL A   1      27.814  31.698  22.709  1.00  0.00    -0.497 OA
ATOM     32  C   UNL A   1      28.530  32.219  21.590  1.00  0.00     0.278 C 
ENDBRANCH  26  31
ENDBRANCH  16  25
ENDBRANCH  10  15
ENDBRANCH   7   9
ENDBRANCH   6   7
ENDBRANCH   5   6
ENDBRANCH   4   5
ENDBRANCH   3   4
ENDBRANCH   2   3
ENDBRANCH   1   2
BRANCH   1  33
ATOM     33  O   UNL A   1      31.551  30.785  26.324  1.00  0.00    -0.377 OA
BRANCH  33  34
ATOM     34  C   UNL A   1      31.567  32.108  26.861  1.00  0.00     0.188 C 
BRANCH  34  35
ATOM     35  C   UNL A   1      32.802  32.718  27.571  1.00  0.00     0.188 C 
BRANCH  35  36
ATOM     36  O   UNL A   1      32.563  33.941  28.247  1.00  0.00    -0.376 OA
BRANCH  36  37
ATOM     37  C   UNL A   1      33.675  34.757  28.565  1.00  0.00     0.202 C 
BRANCH  37  38
ATOM     38  C   UNL A   1      34.356  34.468  29.908  1.00  0.00     0.261 C 
BRANCH  38  39
ATOM     39  O   UNL A   1      35.444  33.534  29.862  1.00  0.00    -0.460 OA
BRANCH  39  40
ATOM     40  C   UNL A   1      35.413  32.514  30.747  1.00  0.00     0.338 C 
ATOM     41  O   UNL A   1      34.551  32.273  31.570  1.00  0.00    -0.246 OA
BRANCH  40  42
ATOM     42  C   UNL A   1      36.542  31.620  30.428  1.00  0.00     0.060 A 
ATOM     43  C   UNL A   1      37.301  31.077  31.473  1.00  0.00     0.016 A 
ATOM     44  C   UNL A   1      36.846  31.325  29.098  1.00  0.00     0.016 A 
ATOM     45  C   UNL A   1      38.393  30.259  31.184  1.00  0.00     0.010 A 
ATOM     46  C   UNL A   1      37.950  30.524  28.810  1.00  0.00     0.010 A 
ATOM     47  C   UNL A   1      38.749  30.018  29.850  1.00  0.00    -0.014 A 
BRANCH  47  48
ATOM     48  C   UNL A   1      40.066  29.417  29.538  1.00  0.00     0.031 A 
ATOM     49  C   UNL A   1      41.285  30.294  29.625  1.00  0.00     0.074 A 
ATOM     50  C   UNL A   1      40.183  28.122  29.198  1.00  0.00     0.049 A 
ATOM     51  N   UNL A   1      42.533  30.013  29.351  1.00  0.00    -0.248 NA
ATOM     52  C   UNL A   1      41.064  31.676  30.080  1.00  0.00     0.031 C 
ATOM     53  C   UNL A   1      39.085  27.160  29.125  1.00  0.00     0.029 A 
ATOM     54  N   UNL A   1      41.292  27.398  28.840  1.00  0.00    -0.354 N 
ATOM     55  C   UNL A   1      43.242  31.183  29.592  1.00  0.00     0.074 A 
ATOM     56  C   UNL A   1      42.283  32.185  30.002  1.00  0.00     0.031 C 
ATOM     57  C   UNL A   1      39.576  25.969  28.740  1.00  0.00     0.029 A 
ATOM     58  C   UNL A   1      41.013  26.099  28.498  1.00  0.00     0.049 A 
ATOM     59  H   UNL A   1      42.202  27.775  28.829  1.00  0.00     0.167 HD
ATOM     60  C   UNL A   1      44.572  31.405  29.485  1.00  0.00     0.031 A 
ATOM     61  C   UNL A   1      41.823  25.134  28.021  1.00  0.00     0.031 A 
ATOM     62  C   UNL A   1      45.522  30.412  29.058  1.00  0.00     0.049 A 
ATOM     63  C   UNL A   1      43.287  25.432  27.819  1.00  0.00     0.074 A 
ATOM     64  C   UNL A   1      46.894  30.531  28.929  1.00  0.00     0.029 A 
ATOM     65  N   UNL A   1      45.193  29.120  28.679  1.00  0.00    -0.354 N 
ATOM     66  N   UNL A   1      43.953  26.531  28.078  1.00  0.00    -0.248 NA
ATOM     67  C   UNL A   1      44.113  24.347  27.267  1.00  0.00     0.031 C 
ATOM     68  C   UNL A   1      47.388  29.331  28.410  1.00  0.00     0.029 A 
ATOM     69  C   UNL A   1      46.333  28.441  28.285  1.00  0.00     0.049 A 
ATOM     70  H   UNL A   1      44.284  28.743  28.688  1.00  0.00     0.167 HD
ATOM     71  C   UNL A   1      45.278  26.261  27.753  1.00  0.00     0.074 A 
ATOM     72  C   UNL A   1      45.323  24.889  27.292  1.00  0.00     0.031 C 
ATOM     73  C   UNL A   1      46.362  27.073  27.832  1.00  0.00     0.031 A 
BRANCH  60  74
ATOM     74  C   UNL A   1      45.071  32.788  29.797  1.00  0.00    -0.014 A 
ATOM     75  C   UNL A   1      45.504  33.140  31.085  1.00  0.00     0.009 A 
ATOM     76  C   UNL A   1      45.128  33.751  28.776  1.00  0.00     0.009 A 
ATOM     77  C   UNL A   1      45.950  34.436  31.353  1.00  0.00     0.001 A 
ATOM     78  C   UNL A   1      45.604  35.036  29.039  1.00  0.00     0.001 A 
ATOM     79  C   UNL A   1      46.006  35.381  30.329  1.00  0.00     0.000 A 
ENDBRANCH  60  74
BRANCH  61  80
ATOM     80  C   UNL A   1      41.268  23.800  27.670  1.00  0.00    -0.014 A 
ATOM     81  C   UNL A   1      41.597  22.663  28.426  1.00  0.00     0.009 A 
ATOM     82  C   UNL A   1      40.427  23.650  26.555  1.00  0.00     0.009 A 
ATOM     83  C   UNL A   1      41.117  21.404  28.057  1.00  0.00     0.001 A 
ATOM     84  C   UNL A   1      39.923  22.395  26.207  1.00  0.00     0.001 A 
ATOM     85  C   UNL A   1      40.277  21.272  26.952  1.00  0.00     0.000 A 
ENDBRANCH  61  80
BRANCH  73  86
ATOM     86  C   UNL A   1      47.696  26.487  27.461  1.00  0.00    -0.014 A 
ATOM     87  C   UNL A   1      48.231  26.633  26.171  1.00  0.00     0.009 A 
ATOM     88  C   UNL A   1      48.454  25.819  28.437  1.00  0.00     0.009 A 
ATOM     89  C   UNL A   1      49.478  26.088  25.858  1.00  0.00     0.001 A 
ATOM     90  C   UNL A   1      49.716  25.307  28.131  1.00  0.00     0.001 A 
ATOM     91  C   UNL A   1      50.222  25.432  26.838  1.00  0.00     0.000 A 
ENDBRANCH  73  86
ENDBRANCH  47  48
ENDBRANCH  40  42
ENDBRANCH  39  40
ENDBRANCH  38  39
ENDBRANCH  37  38
ENDBRANCH  36  37
ENDBRANCH  35  36
ENDBRANCH  34  35
ENDBRANCH  33  34
ENDBRANCH   1  33
TORSDOF 23
ENDMDL
MODEL 2
REMARK VINA RESULT:      -9.8      2.836      3.337
REMARK SMILES COc1ccc(NC2=[NH+]C(=O)/C(=C\c3ccccc3C(=O)OCCOCCOCCOCCOC(=O)c3ccc(-c4c5nc(c(-c6ccccc6)c6ccc([nH]6)c(-c6ccccc6)c6nc(c(-c7ccccc7)c7ccc4[nH]7)C=C6)C=C5)cc3)S2)cc1
REMARK SMILES IDX 27 1 26 2 25 3 24 4 23 5 22 6 20 7 21 8 19 9 14 10 15 11
REMARK SMILES IDX 16 12 18 13 17 14 13 15 7 16 8 17 9 19 85 20 10 21 12 23
REMARK SMILES IDX 11 24 6 25 3 26 4 27 87 28 5 29 86 30 2 31 1 32 28 33 29 34
REMARK SMILES IDX 30 35 31 36 32 37 33 38 34 39 35 40 36 41 37 42 38 43 84 44
REMARK SMILES IDX 39 45 83 46 40 47 41 48 42 49 77 50 43 51 82 52 76 53 78 54
REMARK SMILES IDX 44 55 81 56 75 57 74 58 45 60 67 61 52 62 66 63 53 64 56 65
REMARK SMILES IDX 65 66 79 67 54 68 55 69 64 71 80 72 57 73 46 74 47 75 51 76
REMARK SMILES IDX 48 77 50 78 49 79 68 80 69 81 73 82 70 83 72 84 71 85 58 86
REMARK SMILES IDX 59 87 63 88 60 89 62 90 61 91
REMARK H PARENT 7 18 9 22 78 59 56 70
REMARK Flexibility Score: inf
ROOT
ATOM      1  C   UNL A   1      32.279  30.268  26.871  1.00  0.00     0.188 C 
ENDROOT
BRANCH   1   2
ATOM      2  C   UNL A   1      33.443  29.759  25.994  1.00  0.00     0.188 C 
BRANCH   2   3
ATOM      3  O   UNL A   1      33.108  28.608  25.239  1.00  0.00    -0.376 OA
BRANCH   3   4
ATOM      4  C   UNL A   1      33.155  28.646  23.826  1.00  0.00     0.202 C 
BRANCH   4   5
ATOM      5  C   UNL A   1      33.550  27.408  23.015  1.00  0.00     0.261 C 
BRANCH   5   6
ATOM      6  O   UNL A   1      34.283  26.399  23.709  1.00  0.00    -0.460 OA
BRANCH   6   7
ATOM      7  C   UNL A   1      34.176  25.125  23.273  1.00  0.00     0.338 C 
ATOM      8  O   UNL A   1      34.034  24.784  22.111  1.00  0.00    -0.246 OA
BRANCH   7   9
ATOM      9  C   UNL A   1      34.473  24.195  24.403  1.00  0.00     0.067 A 
ATOM     10  C   UNL A   1      33.747  24.132  25.618  1.00  0.00    -0.010 A 
ATOM     11  C   UNL A   1      34.200  23.260  26.623  1.00  0.00     0.009 A 
ATOM     12  C   UNL A   1      35.351  22.486  26.444  1.00  0.00     0.001 A 
ATOM     13  C   UNL A   1      35.631  23.413  24.238  1.00  0.00     0.016 A 
ATOM     14  C   UNL A   1      36.074  22.573  25.257  1.00  0.00     0.001 A 
BRANCH  10  15
ATOM     15  C   UNL A   1      32.628  25.024  25.982  1.00  0.00     0.033 C 
ATOM     16  N   UNL A   1      28.530  26.590  23.537  1.00  0.00    -0.235 N 
ATOM     17  C   UNL A   1      29.490  25.852  24.156  1.00  0.00     0.322 C 
ATOM     18  H   UNL A   1      27.769  26.063  23.201  1.00  0.00     0.313 HD
ATOM     19  N   UNL A   1      29.815  24.677  23.717  1.00  0.00    -0.199 N 
ATOM     20  S   UNL A   1      30.310  26.366  25.616  1.00  0.00     0.006 SA
ATOM     21  C   UNL A   1      30.849  24.101  24.423  1.00  0.00     0.346 C 
ATOM     22  H   UNL A   1      29.370  24.241  22.956  1.00  0.00     0.316 HD
ATOM     23  C   UNL A   1      31.407  25.048  25.432  1.00  0.00     0.110 C 
ATOM     24  O   UNL A   1      31.270  22.973  24.241  1.00  0.00    -0.240 OA
BRANCH  16  25
ATOM     25  C   UNL A   1      28.426  27.971  23.290  1.00  0.00     0.125 A 
ATOM     26  C   UNL A   1      28.407  30.749  22.775  1.00  0.00     0.119 A 
ATOM     27  C   UNL A   1      27.230  30.085  23.106  1.00  0.00     0.051 A 
ATOM     28  C   UNL A   1      29.601  30.041  22.716  1.00  0.00     0.051 A 
ATOM     29  C   UNL A   1      27.236  28.704  23.342  1.00  0.00     0.055 A 
ATOM     30  C   UNL A   1      29.604  28.663  22.960  1.00  0.00     0.055 A 
BRANCH  26  31
ATOM     31  O   UNL A   1      28.316  32.100  22.593  1.00  0.00    -0.497 OA
ATOM     32  C   UNL A   1      28.066  32.473  21.239  1.00  0.00     0.278 C 
ENDBRANCH  26  31
ENDBRANCH  16  25
ENDBRANCH  10  15
ENDBRANCH   7   9
ENDBRANCH   6   7
ENDBRANCH   5   6
ENDBRANCH   4   5
ENDBRANCH   3   4
ENDBRANCH   2   3
ENDBRANCH   1   2
BRANCH   1  33
ATOM     33  O   UNL A   1      31.424  31.258  26.314  1.00  0.00    -0.377 OA
BRANCH  33  34
ATOM     34  C   UNL A   1      31.587  32.627  26.687  1.00  0.00     0.188 C 
BRANCH  34  35
ATOM     35  C   UNL A   1      32.755  33.128  27.575  1.00  0.00     0.188 C 
BRANCH  35  36
ATOM     36  O   UNL A   1      32.514  34.351  28.250  1.00  0.00    -0.376 OA
BRANCH  36  37
ATOM     37  C   UNL A   1      33.629  35.088  28.715  1.00  0.00     0.202 C 
BRANCH  37  38
ATOM     38  C   UNL A   1      34.088  34.776  30.144  1.00  0.00     0.261 C 
BRANCH  38  39
ATOM     39  O   UNL A   1      35.158  33.827  30.258  1.00  0.00    -0.460 OA
BRANCH  39  40
ATOM     40  C   UNL A   1      34.983  32.809  31.128  1.00  0.00     0.338 C 
ATOM     41  O   UNL A   1      33.979  32.536  31.757  1.00  0.00    -0.246 OA
BRANCH  40  42
ATOM     42  C   UNL A   1      36.188  31.960  31.059  1.00  0.00     0.060 A 
ATOM     43  C   UNL A   1      36.201  30.735  31.739  1.00  0.00     0.016 A 
ATOM     44  C   UNL A   1      37.297  32.379  30.323  1.00  0.00     0.016 A 
ATOM     45  C   UNL A   1      37.346  29.939  31.711  1.00  0.00     0.010 A 
ATOM     46  C   UNL A   1      38.449  31.592  30.313  1.00  0.00     0.010 A 
ATOM     47  C   UNL A   1      38.489  30.388  31.037  1.00  0.00    -0.014 A 
BRANCH  47  48
ATOM     48  C   UNL A   1      39.787  29.707  31.257  1.00  0.00     0.031 A 
ATOM     49  C   UNL A   1      40.630  30.148  32.422  1.00  0.00     0.074 A 
ATOM     50  C   UNL A   1      40.203  28.714  30.453  1.00  0.00     0.049 A 
ATOM     51  N   UNL A   1      41.819  29.743  32.789  1.00  0.00    -0.248 NA
ATOM     52  C   UNL A   1      40.053  31.189  33.289  1.00  0.00     0.031 C 
ATOM     53  C   UNL A   1      39.456  28.166  29.323  1.00  0.00     0.029 A 
ATOM     54  N   UNL A   1      41.372  27.996  30.468  1.00  0.00    -0.354 N 
ATOM     55  C   UNL A   1      42.134  30.484  33.920  1.00  0.00     0.074 A 
ATOM     56  C   UNL A   1      41.029  31.385  34.162  1.00  0.00     0.031 C 
ATOM     57  C   UNL A   1      40.190  27.198  28.746  1.00  0.00     0.029 A 
ATOM     58  C   UNL A   1      41.472  27.091  29.441  1.00  0.00     0.049 A 
ATOM     59  H   UNL A   1      42.072  28.119  31.149  1.00  0.00     0.167 HD
ATOM     60  C   UNL A   1      43.243  30.420  34.693  1.00  0.00     0.031 A 
ATOM     61  C   UNL A   1      42.495  26.287  29.091  1.00  0.00     0.031 A 
ATOM     62  C   UNL A   1      44.350  29.537  34.439  1.00  0.00     0.049 A 
ATOM     63  C   UNL A   1      43.760  26.300  29.911  1.00  0.00     0.074 A 
ATOM     64  C   UNL A   1      45.515  29.385  35.169  1.00  0.00     0.029 A 
ATOM     65  N   UNL A   1      44.433  28.666  33.364  1.00  0.00    -0.354 N 
ATOM     66  N   UNL A   1      44.037  26.982  30.996  1.00  0.00    -0.248 NA
ATOM     67  C   UNL A   1      44.850  25.422  29.460  1.00  0.00     0.031 C 
ATOM     68  C   UNL A   1      46.331  28.468  34.500  1.00  0.00     0.029 A 
ATOM     69  C   UNL A   1      45.644  27.996  33.393  1.00  0.00     0.049 A 
ATOM     70  H   UNL A   1      43.734  28.543  32.682  1.00  0.00     0.167 HD
ATOM     71  C   UNL A   1      45.317  26.592  31.376  1.00  0.00     0.074 A 
ATOM     72  C   UNL A   1      45.754  25.603  30.413  1.00  0.00     0.031 C 
ATOM     73  C   UNL A   1      46.063  27.010  32.429  1.00  0.00     0.031 A 
BRANCH  60  74
ATOM     74  C   UNL A   1      43.329  31.362  35.861  1.00  0.00    -0.014 A 
ATOM     75  C   UNL A   1      42.819  31.015  37.123  1.00  0.00     0.009 A 
ATOM     76  C   UNL A   1      43.950  32.611  35.701  1.00  0.00     0.009 A 
ATOM     77  C   UNL A   1      42.898  31.913  38.189  1.00  0.00     0.001 A 
ATOM     78  C   UNL A   1      44.057  33.493  36.777  1.00  0.00     0.001 A 
ATOM     79  C   UNL A   1      43.522  33.148  38.018  1.00  0.00     0.000 A 
ENDBRANCH  60  74
BRANCH  61  80
ATOM     80  C   UNL A   1      42.383  25.417  27.889  1.00  0.00    -0.014 A 
ATOM     81  C   UNL A   1      41.871  24.114  27.990  1.00  0.00     0.009 A 
ATOM     82  C   UNL A   1      42.816  25.879  26.635  1.00  0.00     0.009 A 
ATOM     83  C   UNL A   1      41.821  23.284  26.867  1.00  0.00     0.001 A 
ATOM     84  C   UNL A   1      42.737  25.058  25.509  1.00  0.00     0.001 A 
ATOM     85  C   UNL A   1      42.249  23.758  25.627  1.00  0.00     0.000 A 
ENDBRANCH  61  80
BRANCH  73  86
ATOM     86  C   UNL A   1      47.408  26.366  32.626  1.00  0.00    -0.014 A 
ATOM     87  C   UNL A   1      47.567  25.227  33.431  1.00  0.00     0.009 A 
ATOM     88  C   UNL A   1      48.527  26.883  31.954  1.00  0.00     0.009 A 
ATOM     89  C   UNL A   1      48.827  24.644  33.586  1.00  0.00     0.001 A 
ATOM     90  C   UNL A   1      49.778  26.277  32.084  1.00  0.00     0.001 A 
ATOM     91  C   UNL A   1      49.929  25.165  32.909  1.00  0.00     0.000 A 
ENDBRANCH  73  86
ENDBRANCH  47  48
ENDBRANCH  40  42
ENDBRANCH  39  40
ENDBRANCH  38  39
ENDBRANCH  37  38
ENDBRANCH  36  37
ENDBRANCH  35  36
ENDBRANCH  34  35
ENDBRANCH  33  34
ENDBRANCH   1  33
TORSDOF 23
ENDMDL
MODEL 3
REMARK VINA RESULT:      -9.2      3.009      5.930
REMARK SMILES COc1ccc(NC2=[NH+]C(=O)/C(=C\c3ccccc3C(=O)OCCOCCOCCOCCOC(=O)c3ccc(-c4c5nc(c(-c6ccccc6)c6ccc([nH]6)c(-c6ccccc6)c6nc(c(-c7ccccc7)c7ccc4[nH]7)C=C6)C=C5)cc3)S2)cc1
REMARK SMILES IDX 27 1 26 2 25 3 24 4 23 5 22 6 20 7 21 8 19 9 14 10 15 11
REMARK SMILES IDX 16 12 18 13 17 14 13 15 7 16 8 17 9 19 85 20 10 21 12 23
REMARK SMILES IDX 11 24 6 25 3 26 4 27 87 28 5 29 86 30 2 31 1 32 28 33 29 34
REMARK SMILES IDX 30 35 31 36 32 37 33 38 34 39 35 40 36 41 37 42 38 43 84 44
REMARK SMILES IDX 39 45 83 46 40 47 41 48 42 49 77 50 43 51 82 52 76 53 78 54
REMARK SMILES IDX 44 55 81 56 75 57 74 58 45 60 67 61 52 62 66 63 53 64 56 65
REMARK SMILES IDX 65 66 79 67 54 68 55 69 64 71 80 72 57 73 46 74 47 75 51 76
REMARK SMILES IDX 48 77 50 78 49 79 68 80 69 81 73 82 70 83 72 84 71 85 58 86
REMARK SMILES IDX 59 87 63 88 60 89 62 90 61 91
REMARK H PARENT 7 18 9 22 78 59 56 70
REMARK Flexibility Score: inf
ROOT
ATOM      1  C   UNL A   1      32.274  30.134  26.883  1.00  0.00     0.188 C 
ENDROOT
BRANCH   1   2
ATOM      2  C   UNL A   1      33.402  29.603  25.974  1.00  0.00     0.188 C 
BRANCH   2   3
ATOM      3  O   UNL A   1      33.009  28.488  25.193  1.00  0.00    -0.376 OA
BRANCH   3   4
ATOM      4  C   UNL A   1      33.406  28.393  23.840  1.00  0.00     0.202 C 
BRANCH   4   5
ATOM      5  C   UNL A   1      34.001  27.096  23.279  1.00  0.00     0.261 C 
BRANCH   5   6
ATOM      6  O   UNL A   1      34.160  26.018  24.201  1.00  0.00    -0.460 OA
BRANCH   6   7
ATOM      7  C   UNL A   1      34.247  24.766  23.702  1.00  0.00     0.338 C 
ATOM      8  O   UNL A   1      34.377  24.481  22.524  1.00  0.00    -0.246 OA
BRANCH   7   9
ATOM      9  C   UNL A   1      34.378  23.798  24.832  1.00  0.00     0.067 A 
ATOM     10  C   UNL A   1      33.559  23.781  25.989  1.00  0.00    -0.010 A 
ATOM     11  C   UNL A   1      33.859  22.859  27.007  1.00  0.00     0.009 A 
ATOM     12  C   UNL A   1      34.950  21.991  26.897  1.00  0.00     0.001 A 
ATOM     13  C   UNL A   1      35.473  22.920  24.737  1.00  0.00     0.016 A 
ATOM     14  C   UNL A   1      35.765  22.031  25.769  1.00  0.00     0.001 A 
BRANCH  10  15
ATOM     15  C   UNL A   1      32.497  24.762  26.288  1.00  0.00     0.033 C 
ATOM     16  N   UNL A   1      28.764  26.739  23.569  1.00  0.00    -0.235 N 
ATOM     17  C   UNL A   1      29.603  25.905  24.242  1.00  0.00     0.322 C 
ATOM     18  H   UNL A   1      27.991  26.289  23.160  1.00  0.00     0.313 HD
ATOM     19  N   UNL A   1      29.858  24.715  23.798  1.00  0.00    -0.199 N 
ATOM     20  S   UNL A   1      30.343  26.314  25.776  1.00  0.00     0.006 SA
ATOM     21  C   UNL A   1      30.777  24.034  24.567  1.00  0.00     0.346 C 
ATOM     22  H   UNL A   1      29.440  24.336  22.992  1.00  0.00     0.316 HD
ATOM     23  C   UNL A   1      31.332  24.907  25.643  1.00  0.00     0.110 C 
ATOM     24  O   UNL A   1      31.111  22.877  24.388  1.00  0.00    -0.240 OA
BRANCH  16  25
ATOM     25  C   UNL A   1      28.802  28.128  23.353  1.00  0.00     0.125 A 
ATOM     26  C   UNL A   1      28.697  30.908  22.856  1.00  0.00     0.119 A 
ATOM     27  C   UNL A   1      29.875  30.314  23.299  1.00  0.00     0.051 A 
ATOM     28  C   UNL A   1      27.572  30.122  22.641  1.00  0.00     0.051 A 
ATOM     29  C   UNL A   1      29.922  28.939  23.564  1.00  0.00     0.055 A 
ATOM     30  C   UNL A   1      27.624  28.748  22.900  1.00  0.00     0.055 A 
BRANCH  26  31
ATOM     31  O   UNL A   1      28.750  32.247  22.591  1.00  0.00    -0.497 OA
ATOM     32  C   UNL A   1      27.996  32.626  21.440  1.00  0.00     0.278 C 
ENDBRANCH  26  31
ENDBRANCH  16  25
ENDBRANCH  10  15
ENDBRANCH   7   9
ENDBRANCH   6   7
ENDBRANCH   5   6
ENDBRANCH   4   5
ENDBRANCH   3   4
ENDBRANCH   2   3
ENDBRANCH   1   2
BRANCH   1  33
ATOM     33  O   UNL A   1      31.430  31.149  26.355  1.00  0.00    -0.377 OA
BRANCH  33  34
ATOM     34  C   UNL A   1      31.626  32.508  26.747  1.00  0.00     0.188 C 
BRANCH  34  35
ATOM     35  C   UNL A   1      32.778  32.962  27.680  1.00  0.00     0.188 C 
BRANCH  35  36
ATOM     36  O   UNL A   1      32.552  34.183  28.362  1.00  0.00    -0.376 OA
BRANCH  36  37
ATOM     37  C   UNL A   1      33.673  34.985  28.687  1.00  0.00     0.202 C 
BRANCH  37  38
ATOM     38  C   UNL A   1      34.072  35.010  30.167  1.00  0.00     0.261 C 
BRANCH  38  39
ATOM     39  O   UNL A   1      35.212  34.210  30.514  1.00  0.00    -0.460 OA
BRANCH  39  40
ATOM     40  C   UNL A   1      34.979  33.104  31.253  1.00  0.00     0.338 C 
ATOM     41  O   UNL A   1      33.920  32.732  31.720  1.00  0.00    -0.246 OA
BRANCH  40  42
ATOM     42  C   UNL A   1      36.223  32.309  31.256  1.00  0.00     0.060 A 
ATOM     43  C   UNL A   1      36.297  31.158  32.052  1.00  0.00     0.016 A 
ATOM     44  C   UNL A   1      37.308  32.706  30.474  1.00  0.00     0.016 A 
ATOM     45  C   UNL A   1      37.477  30.417  32.091  1.00  0.00     0.010 A 
ATOM     46  C   UNL A   1      38.495  31.977  30.530  1.00  0.00     0.010 A 
ATOM     47  C   UNL A   1      38.595  30.851  31.367  1.00  0.00    -0.014 A 
BRANCH  47  48
ATOM     48  C   UNL A   1      39.925  30.257  31.641  1.00  0.00     0.031 A 
ATOM     49  C   UNL A   1      40.410  29.158  30.737  1.00  0.00     0.074 A 
ATOM     50  C   UNL A   1      40.690  30.690  32.657  1.00  0.00     0.049 A 
ATOM     51  N   UNL A   1      41.509  28.451  30.803  1.00  0.00    -0.248 NA
ATOM     52  C   UNL A   1      39.535  28.807  29.606  1.00  0.00     0.031 C 
ATOM     53  C   UNL A   1      40.353  31.778  33.572  1.00  0.00     0.029 A 
ATOM     54  N   UNL A   1      41.915  30.250  33.091  1.00  0.00    -0.354 N 
ATOM     55  C   UNL A   1      41.452  27.569  29.731  1.00  0.00     0.074 A 
ATOM     56  C   UNL A   1      40.198  27.806  29.050  1.00  0.00     0.031 C 
ATOM     57  C   UNL A   1      41.347  31.918  34.466  1.00  0.00     0.029 A 
ATOM     58  C   UNL A   1      42.367  30.902  34.211  1.00  0.00     0.049 A 
ATOM     59  H   UNL A   1      42.421  29.533  32.643  1.00  0.00     0.167 HD
ATOM     60  C   UNL A   1      42.362  26.645  29.344  1.00  0.00     0.031 A 
ATOM     61  C   UNL A   1      43.468  30.684  34.956  1.00  0.00     0.031 A 
ATOM     62  C   UNL A   1      43.600  26.397  30.035  1.00  0.00     0.049 A 
ATOM     63  C   UNL A   1      44.422  29.585  34.562  1.00  0.00     0.074 A 
ATOM     64  C   UNL A   1      44.597  25.493  29.717  1.00  0.00     0.029 A 
ATOM     65  N   UNL A   1      44.002  27.049  31.190  1.00  0.00    -0.354 N 
ATOM     66  N   UNL A   1      44.375  28.777  33.530  1.00  0.00    -0.248 NA
ATOM     67  C   UNL A   1      45.589  29.377  35.432  1.00  0.00     0.031 C 
ATOM     68  C   UNL A   1      45.572  25.553  30.716  1.00  0.00     0.029 A 
ATOM     69  C   UNL A   1      45.218  26.545  31.616  1.00  0.00     0.049 A 
ATOM     70  H   UNL A   1      43.496  27.764  31.640  1.00  0.00     0.167 HD
ATOM     71  C   UNL A   1      45.519  27.989  33.609  1.00  0.00     0.074 A 
ATOM     72  C   UNL A   1      46.246  28.428  34.781  1.00  0.00     0.031 C 
ATOM     73  C   UNL A   1      45.932  26.995  32.784  1.00  0.00     0.031 A 
BRANCH  60  74
ATOM     74  C   UNL A   1      42.030  25.807  28.142  1.00  0.00    -0.014 A 
ATOM     75  C   UNL A   1      41.360  24.580  28.264  1.00  0.00     0.009 A 
ATOM     76  C   UNL A   1      42.375  26.265  26.860  1.00  0.00     0.009 A 
ATOM     77  C   UNL A   1      41.074  23.812  27.133  1.00  0.00     0.001 A 
ATOM     78  C   UNL A   1      42.060  25.512  25.729  1.00  0.00     0.001 A 
ATOM     79  C   UNL A   1      41.419  24.282  25.866  1.00  0.00     0.000 A 
ENDBRANCH  60  74
BRANCH  61  80
ATOM     80  C   UNL A   1      43.720  31.502  36.172  1.00  0.00    -0.014 A 
ATOM     81  C   UNL A   1      43.166  31.140  37.410  1.00  0.00     0.009 A 
ATOM     82  C   UNL A   1      44.496  32.670  36.095  1.00  0.00     0.009 A 
ATOM     83  C   UNL A   1      43.361  31.944  38.536  1.00  0.00     0.001 A 
ATOM     84  C   UNL A   1      44.715  33.455  37.229  1.00  0.00     0.001 A 
ATOM     85  C   UNL A   1      44.139  33.097  38.446  1.00  0.00     0.000 A 
ENDBRANCH  61  80
BRANCH  73  86
ATOM     86  C   UNL A   1      47.255  26.346  33.089  1.00  0.00    -0.014 A 
ATOM     87  C   UNL A   1      47.344  25.200  33.894  1.00  0.00     0.009 A 
ATOM     88  C   UNL A   1      48.427  26.865  32.516  1.00  0.00     0.009 A 
ATOM     89  C   UNL A   1      48.585  24.612  34.149  1.00  0.00     0.001 A 
ATOM     90  C   UNL A   1      49.661  26.254  32.744  1.00  0.00     0.001 A 
ATOM     91  C   UNL A   1      49.741  25.135  33.570  1.00  0.00     0.000 A 
ENDBRANCH  73  86
ENDBRANCH  47  48
ENDBRANCH  40  42
ENDBRANCH  39  40
ENDBRANCH  38  39
ENDBRANCH  37  38
ENDBRANCH  36  37
ENDBRANCH  35  36
ENDBRANCH  34  35
ENDBRANCH  33  34
ENDBRANCH   1  33
TORSDOF 23
ENDMDL
