MODEL 1
REMARK VINA RESULT:      -8.8      0.000      0.000
REMARK SMILES CCC(CC)(CC)NC(=O)NC[C@@H]1CC[C@H](C(=O)OCCOCCOCCOCCOC(=O)c2ccc(-c3c4nc(c(-c5ccccc5)c5ccc([nH]5)c(-c5ccccc5)c5nc(c(-c6ccccc6)c6ccc3[nH]6)C=C5)C=C4)cc2)O1
REMARK SMILES IDX 24 1 23 2 22 3 21 4 20 5 19 6 17 7 18 8 16 9 13 10 14 11
REMARK SMILES IDX 82 12 15 13 12 14 11 15 8 16 9 17 10 19 3 21 2 22 1 23 4 24
REMARK SMILES IDX 5 25 6 26 7 27 25 28 26 29 27 30 28 31 29 32 30 33 31 34
REMARK SMILES IDX 32 35 33 36 34 37 35 38 81 39 36 40 80 41 37 42 38 43 39 44
REMARK SMILES IDX 74 45 40 46 79 47 73 48 75 49 41 50 78 51 72 52 71 53 42 55
REMARK SMILES IDX 64 56 49 57 63 58 50 59 53 60 62 61 76 62 51 63 52 64 61 66
REMARK SMILES IDX 77 67 54 68 43 69 44 70 48 71 45 72 47 73 46 74 65 75 66 76
REMARK SMILES IDX 70 77 67 78 69 79 68 80 55 81 56 82 60 83 57 84 59 85 58 86
REMARK H PARENT 8 18 11 20 75 54 53 65
REMARK Flexibility Score: inf
ROOT
ATOM      1  C   UNL A   1      39.277  23.583  26.680  1.00  0.00     0.188 C 
ENDROOT
BRANCH   1   2
ATOM      2  C   UNL A   1      37.825  23.711  26.179  1.00  0.00     0.188 C 
BRANCH   2   3
ATOM      3  O   UNL A   1      37.514  23.226  24.887  1.00  0.00    -0.376 OA
BRANCH   3   4
ATOM      4  C   UNL A   1      36.327  23.667  24.251  1.00  0.00     0.202 C 
BRANCH   4   5
ATOM      5  C   UNL A   1      35.733  22.997  22.996  1.00  0.00     0.261 C 
BRANCH   5   6
ATOM      6  O   UNL A   1      34.336  23.202  22.686  1.00  0.00    -0.461 OA
BRANCH   6   7
ATOM      7  C   UNL A   1      33.732  24.375  23.004  1.00  0.00     0.335 C 
ATOM      8  O   UNL A   1      33.973  25.420  22.405  1.00  0.00    -0.249 OA
BRANCH   7   9
ATOM      9  C   UNL A   1      32.789  24.317  24.267  1.00  0.00     0.228 C 
ATOM     10  C   UNL A   1      32.526  22.842  26.135  1.00  0.00     0.138 C 
ATOM     11  C   UNL A   1      31.250  22.717  25.330  1.00  0.00     0.037 C 
ATOM     12  O   UNL A   1      33.443  23.663  25.374  1.00  0.00    -0.361 OA
ATOM     13  C   UNL A   1      31.369  23.754  24.215  1.00  0.00     0.047 C 
BRANCH  10  14
ATOM     14  C   UNL A   1      33.206  21.557  26.798  1.00  0.00     0.149 C 
BRANCH  14  15
ATOM     15  N   UNL A   1      34.487  20.929  26.323  1.00  0.00    -0.336 N 
ATOM     16  N   UNL A   1      34.461  19.173  24.622  1.00  0.00    -0.333 N 
ATOM     17  C   UNL A   1      35.032  20.151  25.361  1.00  0.00     0.315 C 
ATOM     18  H   UNL A   1      35.111  18.729  24.029  1.00  0.00     0.165 HD
ATOM     19  O   UNL A   1      36.254  20.290  25.203  1.00  0.00    -0.249 OA
ATOM     20  H   UNL A   1      35.202  21.180  26.953  1.00  0.00     0.165 HD
BRANCH  16  21
ATOM     21  C   UNL A   1      33.104  18.605  24.484  1.00  0.00     0.041 C 
BRANCH  21  22
ATOM     22  C   UNL A   1      32.796  17.987  25.832  1.00  0.00     0.025 C 
ATOM     23  C   UNL A   1      32.676  16.442  25.747  1.00  0.00     0.006 C 
ENDBRANCH  21  22
BRANCH  21  24
ATOM     24  C   UNL A   1      32.938  17.382  23.489  1.00  0.00     0.025 C 
ATOM     25  C   UNL A   1      34.284  16.901  22.877  1.00  0.00     0.006 C 
ENDBRANCH  21  24
BRANCH  21  26
ATOM     26  C   UNL A   1      32.140  19.694  23.924  1.00  0.00     0.025 C 
ATOM     27  C   UNL A   1      32.224  20.048  22.447  1.00  0.00     0.006 C 
ENDBRANCH  21  26
ENDBRANCH  16  21
ENDBRANCH  14  15
ENDBRANCH  10  14
ENDBRANCH   7   9
ENDBRANCH   6   7
ENDBRANCH   5   6
ENDBRANCH   4   5
ENDBRANCH   3   4
ENDBRANCH   2   3
ENDBRANCH   1   2
BRANCH   1  28
ATOM     28  O   UNL A   1      39.803  22.263  26.686  1.00  0.00    -0.377 OA
BRANCH  28  29
ATOM     29  C   UNL A   1      41.129  22.041  26.225  1.00  0.00     0.188 C 
BRANCH  29  30
ATOM     30  C   UNL A   1      42.157  21.384  27.162  1.00  0.00     0.188 C 
BRANCH  30  31
ATOM     31  O   UNL A   1      41.782  20.099  27.626  1.00  0.00    -0.376 OA
BRANCH  31  32
ATOM     32  C   UNL A   1      42.462  18.950  27.149  1.00  0.00     0.202 C 
BRANCH  32  33
ATOM     33  C   UNL A   1      42.918  18.903  25.681  1.00  0.00     0.261 C 
BRANCH  33  34
ATOM     34  O   UNL A   1      44.302  19.178  25.414  1.00  0.00    -0.460 OA
BRANCH  34  35
ATOM     35  C   UNL A   1      44.617  19.805  24.258  1.00  0.00     0.338 C 
ATOM     36  O   UNL A   1      44.462  19.398  23.133  1.00  0.00    -0.246 OA
BRANCH  35  37
ATOM     37  C   UNL A   1      45.030  21.184  24.608  1.00  0.00     0.060 A 
ATOM     38  C   UNL A   1      45.584  21.430  25.871  1.00  0.00     0.016 A 
ATOM     39  C   UNL A   1      44.840  22.227  23.701  1.00  0.00     0.016 A 
ATOM     40  C   UNL A   1      45.900  22.735  26.253  1.00  0.00     0.010 A 
ATOM     41  C   UNL A   1      45.134  23.534  24.092  1.00  0.00     0.010 A 
ATOM     42  C   UNL A   1      45.623  23.798  25.385  1.00  0.00    -0.014 A 
BRANCH  42  43
ATOM     43  C   UNL A   1      45.612  25.188  25.898  1.00  0.00     0.031 A 
ATOM     44  C   UNL A   1      46.918  25.936  25.940  1.00  0.00     0.074 A 
ATOM     45  C   UNL A   1      44.479  25.784  26.310  1.00  0.00     0.049 A 
ATOM     46  N   UNL A   1      47.186  27.120  26.427  1.00  0.00    -0.248 NA
ATOM     47  C   UNL A   1      48.082  25.248  25.356  1.00  0.00     0.031 C 
ATOM     48  C   UNL A   1      43.144  25.194  26.264  1.00  0.00     0.029 A 
ATOM     49  N   UNL A   1      44.283  27.025  26.862  1.00  0.00    -0.354 N 
ATOM     50  C   UNL A   1      48.547  27.312  26.219  1.00  0.00     0.074 A 
ATOM     51  C   UNL A   1      49.056  26.112  25.594  1.00  0.00     0.031 C 
ATOM     52  C   UNL A   1      42.264  26.071  26.782  1.00  0.00     0.029 A 
ATOM     53  C   UNL A   1      42.982  27.262  27.232  1.00  0.00     0.049 A 
ATOM     54  H   UNL A   1      45.006  27.682  26.982  1.00  0.00     0.167 HD
ATOM     55  C   UNL A   1      49.306  28.392  26.519  1.00  0.00     0.031 A 
ATOM     56  C   UNL A   1      42.443  28.309  27.886  1.00  0.00     0.031 A 
ATOM     57  C   UNL A   1      48.803  29.577  27.161  1.00  0.00     0.049 A 
ATOM     58  C   UNL A   1      43.330  29.455  28.307  1.00  0.00     0.074 A 
ATOM     59  C   UNL A   1      49.491  30.725  27.509  1.00  0.00     0.029 A 
ATOM     60  N   UNL A   1      47.488  29.759  27.557  1.00  0.00    -0.354 N 
ATOM     61  N   UNL A   1      44.611  29.634  28.095  1.00  0.00    -0.248 NA
ATOM     62  C   UNL A   1      42.687  30.549  29.053  1.00  0.00     0.031 C 
ATOM     63  C   UNL A   1      48.604  31.578  28.174  1.00  0.00     0.029 A 
ATOM     64  C   UNL A   1      47.348  30.992  28.171  1.00  0.00     0.049 A 
ATOM     65  H   UNL A   1      46.761  29.109  27.421  1.00  0.00     0.167 HD
ATOM     66  C   UNL A   1      44.919  30.874  28.647  1.00  0.00     0.074 A 
ATOM     67  C   UNL A   1      43.688  31.408  29.189  1.00  0.00     0.031 C 
ATOM     68  C   UNL A   1      46.113  31.514  28.697  1.00  0.00     0.031 A 
BRANCH  55  69
ATOM     69  C   UNL A   1      50.771  28.319  26.191  1.00  0.00    -0.014 A 
ATOM     70  C   UNL A   1      51.263  28.736  24.943  1.00  0.00     0.009 A 
ATOM     71  C   UNL A   1      51.677  27.848  27.153  1.00  0.00     0.009 A 
ATOM     72  C   UNL A   1      52.628  28.649  24.656  1.00  0.00     0.001 A 
ATOM     73  C   UNL A   1      53.044  27.793  26.876  1.00  0.00     0.001 A 
ATOM     74  C   UNL A   1      53.517  28.184  25.623  1.00  0.00     0.000 A 
ENDBRANCH  55  69
BRANCH  56  75
ATOM     75  C   UNL A   1      40.992  28.322  28.218  1.00  0.00    -0.014 A 
ATOM     76  C   UNL A   1      40.079  29.019  27.409  1.00  0.00     0.009 A 
ATOM     77  C   UNL A   1      40.514  27.670  29.365  1.00  0.00     0.009 A 
ATOM     78  C   UNL A   1      38.729  29.091  27.763  1.00  0.00     0.001 A 
ATOM     79  C   UNL A   1      39.158  27.713  29.697  1.00  0.00     0.001 A 
ATOM     80  C   UNL A   1      38.270  28.435  28.903  1.00  0.00     0.000 A 
ENDBRANCH  56  75
BRANCH  68  81
ATOM     81  C   UNL A   1      46.140  32.890  29.308  1.00  0.00    -0.014 A 
ATOM     82  C   UNL A   1      46.419  33.087  30.669  1.00  0.00     0.009 A 
ATOM     83  C   UNL A   1      45.931  34.012  28.488  1.00  0.00     0.009 A 
ATOM     84  C   UNL A   1      46.450  34.377  31.203  1.00  0.00     0.001 A 
ATOM     85  C   UNL A   1      45.998  35.302  29.018  1.00  0.00     0.001 A 
ATOM     86  C   UNL A   1      46.247  35.483  30.377  1.00  0.00     0.000 A 
ENDBRANCH  68  81
ENDBRANCH  42  43
ENDBRANCH  35  37
ENDBRANCH  34  35
ENDBRANCH  33  34
ENDBRANCH  32  33
ENDBRANCH  31  32
ENDBRANCH  30  31
ENDBRANCH  29  30
ENDBRANCH  28  29
ENDBRANCH   1  28
TORSDOF 26
ENDMDL
MODEL 2
REMARK VINA RESULT:      -7.6      1.898      6.310
REMARK SMILES CCC(CC)(CC)NC(=O)NC[C@@H]1CC[C@H](C(=O)OCCOCCOCCOCCOC(=O)c2ccc(-c3c4nc(c(-c5ccccc5)c5ccc([nH]5)c(-c5ccccc5)c5nc(c(-c6ccccc6)c6ccc3[nH]6)C=C5)C=C4)cc2)O1
REMARK SMILES IDX 24 1 23 2 22 3 21 4 20 5 19 6 17 7 18 8 16 9 13 10 14 11
REMARK SMILES IDX 82 12 15 13 12 14 11 15 8 16 9 17 10 19 3 21 2 22 1 23 4 24
REMARK SMILES IDX 5 25 6 26 7 27 25 28 26 29 27 30 28 31 29 32 30 33 31 34
REMARK SMILES IDX 32 35 33 36 34 37 35 38 81 39 36 40 80 41 37 42 38 43 39 44
REMARK SMILES IDX 74 45 40 46 79 47 73 48 75 49 41 50 78 51 72 52 71 53 42 55
REMARK SMILES IDX 64 56 49 57 63 58 50 59 53 60 62 61 76 62 51 63 52 64 61 66
REMARK SMILES IDX 77 67 54 68 43 69 44 70 48 71 45 72 47 73 46 74 65 75 66 76
REMARK SMILES IDX 70 77 67 78 69 79 68 80 55 81 56 82 60 83 57 84 59 85 58 86
REMARK H PARENT 8 18 11 20 75 54 53 65
REMARK Flexibility Score: inf
ROOT
ATOM      1  C   UNL A   1      38.206  23.702  26.639  1.00  0.00     0.188 C 
ENDROOT
BRANCH   1   2
ATOM      2  C   UNL A   1      37.101  22.767  26.110  1.00  0.00     0.188 C 
BRANCH   2   3
ATOM      3  O   UNL A   1      36.419  23.133  24.926  1.00  0.00    -0.376 OA
BRANCH   3   4
ATOM      4  C   UNL A   1      35.670  24.336  24.903  1.00  0.00     0.202 C 
BRANCH   4   5
ATOM      5  C   UNL A   1      34.429  24.550  24.015  1.00  0.00     0.261 C 
BRANCH   5   6
ATOM      6  O   UNL A   1      34.014  25.900  23.703  1.00  0.00    -0.461 OA
BRANCH   6   7
ATOM      7  C   UNL A   1      33.238  26.593  24.574  1.00  0.00     0.335 C 
ATOM      8  O   UNL A   1      33.689  27.488  25.284  1.00  0.00    -0.249 OA
BRANCH   7   9
ATOM      9  C   UNL A   1      31.748  26.089  24.686  1.00  0.00     0.228 C 
ATOM     10  C   UNL A   1      30.683  24.023  25.259  1.00  0.00     0.138 C 
ATOM     11  C   UNL A   1      30.364  24.257  23.798  1.00  0.00     0.037 C 
ATOM     12  O   UNL A   1      31.627  25.041  25.668  1.00  0.00    -0.361 OA
ATOM     13  C   UNL A   1      30.934  25.637  23.474  1.00  0.00     0.047 C 
BRANCH  10  14
ATOM     14  C   UNL A   1      31.037  22.559  25.796  1.00  0.00     0.149 C 
BRANCH  14  15
ATOM     15  N   UNL A   1      32.098  22.259  26.819  1.00  0.00    -0.336 N 
ATOM     16  N   UNL A   1      33.989  20.812  26.267  1.00  0.00    -0.333 N 
ATOM     17  C   UNL A   1      33.339  21.753  26.989  1.00  0.00     0.315 C 
ATOM     18  H   UNL A   1      34.869  20.591  26.652  1.00  0.00     0.165 HD
ATOM     19  O   UNL A   1      33.928  22.137  28.010  1.00  0.00    -0.249 OA
ATOM     20  H   UNL A   1      31.758  22.538  27.700  1.00  0.00     0.165 HD
BRANCH  16  21
ATOM     21  C   UNL A   1      33.705  20.031  25.045  1.00  0.00     0.041 C 
BRANCH  21  22
ATOM     22  C   UNL A   1      32.502  19.180  25.391  1.00  0.00     0.025 C 
ATOM     23  C   UNL A   1      32.904  17.721  25.737  1.00  0.00     0.006 C 
ENDBRANCH  21  22
BRANCH  21  24
ATOM     24  C   UNL A   1      34.788  18.955  24.617  1.00  0.00     0.025 C 
ATOM     25  C   UNL A   1      36.250  19.424  24.856  1.00  0.00     0.006 C 
ENDBRANCH  21  24
BRANCH  21  26
ATOM     26  C   UNL A   1      33.613  20.995  23.824  1.00  0.00     0.025 C 
ATOM     27  C   UNL A   1      32.329  21.011  23.008  1.00  0.00     0.006 C 
ENDBRANCH  21  26
ENDBRANCH  16  21
ENDBRANCH  14  15
ENDBRANCH  10  14
ENDBRANCH   7   9
ENDBRANCH   6   7
ENDBRANCH   5   6
ENDBRANCH   4   5
ENDBRANCH   3   4
ENDBRANCH   2   3
ENDBRANCH   1   2
BRANCH   1  28
ATOM     28  O   UNL A   1      39.537  23.269  26.392  1.00  0.00    -0.377 OA
BRANCH  28  29
ATOM     29  C   UNL A   1      40.491  23.323  27.444  1.00  0.00     0.188 C 
BRANCH  29  30
ATOM     30  C   UNL A   1      41.099  22.015  27.982  1.00  0.00     0.188 C 
BRANCH  30  31
ATOM     31  O   UNL A   1      41.052  20.933  27.068  1.00  0.00    -0.376 OA
BRANCH  31  32
ATOM     32  C   UNL A   1      42.192  20.621  26.285  1.00  0.00     0.202 C 
BRANCH  32  33
ATOM     33  C   UNL A   1      42.783  21.696  25.357  1.00  0.00     0.261 C 
BRANCH  33  34
ATOM     34  O   UNL A   1      44.073  21.430  24.784  1.00  0.00    -0.460 OA
BRANCH  34  35
ATOM     35  C   UNL A   1      45.165  21.910  25.421  1.00  0.00     0.338 C 
ATOM     36  O   UNL A   1      46.288  21.469  25.394  1.00  0.00    -0.246 OA
BRANCH  35  37
ATOM     37  C   UNL A   1      44.780  23.204  26.031  1.00  0.00     0.060 A 
ATOM     38  C   UNL A   1      44.547  24.308  25.200  1.00  0.00     0.016 A 
ATOM     39  C   UNL A   1      44.684  23.326  27.418  1.00  0.00     0.016 A 
ATOM     40  C   UNL A   1      44.268  25.556  25.759  1.00  0.00     0.010 A 
ATOM     41  C   UNL A   1      44.428  24.580  27.977  1.00  0.00     0.010 A 
ATOM     42  C   UNL A   1      44.264  25.708  27.151  1.00  0.00    -0.014 A 
BRANCH  42  43
ATOM     43  C   UNL A   1      44.330  27.063  27.748  1.00  0.00     0.031 A 
ATOM     44  C   UNL A   1      43.041  27.706  28.184  1.00  0.00     0.074 A 
ATOM     45  C   UNL A   1      45.496  27.710  27.911  1.00  0.00     0.049 A 
ATOM     46  N   UNL A   1      42.824  28.911  28.645  1.00  0.00    -0.248 NA
ATOM     47  C   UNL A   1      41.829  26.874  28.079  1.00  0.00     0.031 C 
ATOM     48  C   UNL A   1      46.817  27.176  27.588  1.00  0.00     0.029 A 
ATOM     49  N   UNL A   1      45.748  28.975  28.383  1.00  0.00    -0.354 N 
ATOM     50  C   UNL A   1      41.454  28.984  28.872  1.00  0.00     0.074 A 
ATOM     51  C   UNL A   1      40.887  27.717  28.468  1.00  0.00     0.031 C 
ATOM     52  C   UNL A   1      47.743  28.115  27.860  1.00  0.00     0.029 A 
ATOM     53  C   UNL A   1      47.074  29.325  28.334  1.00  0.00     0.049 A 
ATOM     54  H   UNL A   1      45.044  29.572  28.724  1.00  0.00     0.167 HD
ATOM     55  C   UNL A   1      40.733  30.013  29.375  1.00  0.00     0.031 A 
ATOM     56  C   UNL A   1      47.672  30.500  28.612  1.00  0.00     0.031 A 
ATOM     57  C   UNL A   1      41.295  31.281  29.757  1.00  0.00     0.049 A 
ATOM     58  C   UNL A   1      46.833  31.667  29.070  1.00  0.00     0.074 A 
ATOM     59  C   UNL A   1      40.650  32.389  30.276  1.00  0.00     0.029 A 
ATOM     60  N   UNL A   1      42.637  31.609  29.652  1.00  0.00    -0.354 N 
ATOM     61  N   UNL A   1      45.542  31.724  29.294  1.00  0.00    -0.248 NA
ATOM     62  C   UNL A   1      47.541  32.933  29.318  1.00  0.00     0.031 C 
ATOM     63  C   UNL A   1      41.592  33.410  30.426  1.00  0.00     0.029 A 
ATOM     64  C   UNL A   1      42.837  32.913  30.071  1.00  0.00     0.049 A 
ATOM     65  H   UNL A   1      43.344  31.006  29.328  1.00  0.00     0.167 HD
ATOM     66  C   UNL A   1      45.291  33.016  29.745  1.00  0.00     0.074 A 
ATOM     67  C   UNL A   1      46.564  33.705  29.776  1.00  0.00     0.031 C 
ATOM     68  C   UNL A   1      44.112  33.582  30.106  1.00  0.00     0.031 A 
BRANCH  55  69
ATOM     69  C   UNL A   1      39.248  29.819  29.502  1.00  0.00    -0.014 A 
ATOM     70  C   UNL A   1      38.382  30.072  28.425  1.00  0.00     0.009 A 
ATOM     71  C   UNL A   1      38.707  29.352  30.710  1.00  0.00     0.009 A 
ATOM     72  C   UNL A   1      37.003  29.896  28.569  1.00  0.00     0.001 A 
ATOM     73  C   UNL A   1      37.333  29.144  30.841  1.00  0.00     0.001 A 
ATOM     74  C   UNL A   1      36.481  29.426  29.774  1.00  0.00     0.000 A 
ENDBRANCH  55  69
BRANCH  56  75
ATOM     75  C   UNL A   1      49.143  30.654  28.442  1.00  0.00    -0.014 A 
ATOM     76  C   UNL A   1      49.682  31.065  27.211  1.00  0.00     0.009 A 
ATOM     77  C   UNL A   1      50.021  30.354  29.495  1.00  0.00     0.009 A 
ATOM     78  C   UNL A   1      51.066  31.137  27.032  1.00  0.00     0.001 A 
ATOM     79  C   UNL A   1      51.403  30.461  29.324  1.00  0.00     0.001 A 
ATOM     80  C   UNL A   1      51.924  30.839  28.089  1.00  0.00     0.000 A 
ENDBRANCH  56  75
BRANCH  68  81
ATOM     81  C   UNL A   1      44.147  34.996  30.621  1.00  0.00    -0.014 A 
ATOM     82  C   UNL A   1      44.017  36.097  29.760  1.00  0.00     0.009 A 
ATOM     83  C   UNL A   1      44.261  35.224  32.002  1.00  0.00     0.009 A 
ATOM     84  C   UNL A   1      44.040  37.397  30.270  1.00  0.00     0.001 A 
ATOM     85  C   UNL A   1      44.247  36.523  32.512  1.00  0.00     0.001 A 
ATOM     86  C   UNL A   1      44.147  37.609  31.645  1.00  0.00     0.000 A 
ENDBRANCH  68  81
ENDBRANCH  42  43
ENDBRANCH  35  37
ENDBRANCH  34  35
ENDBRANCH  33  34
ENDBRANCH  32  33
ENDBRANCH  31  32
ENDBRANCH  30  31
ENDBRANCH  29  30
ENDBRANCH  28  29
ENDBRANCH   1  28
TORSDOF 26
ENDMDL
MODEL 3
REMARK VINA RESULT:      -7.4      5.583      9.437
REMARK SMILES CCC(CC)(CC)NC(=O)NC[C@@H]1CC[C@H](C(=O)OCCOCCOCCOCCOC(=O)c2ccc(-c3c4nc(c(-c5ccccc5)c5ccc([nH]5)c(-c5ccccc5)c5nc(c(-c6ccccc6)c6ccc3[nH]6)C=C5)C=C4)cc2)O1
REMARK SMILES IDX 24 1 23 2 22 3 21 4 20 5 19 6 17 7 18 8 16 9 13 10 14 11
REMARK SMILES IDX 82 12 15 13 12 14 11 15 8 16 9 17 10 19 3 21 2 22 1 23 4 24
REMARK SMILES IDX 5 25 6 26 7 27 25 28 26 29 27 30 28 31 29 32 30 33 31 34
REMARK SMILES IDX 32 35 33 36 34 37 35 38 81 39 36 40 80 41 37 42 38 43 39 44
REMARK SMILES IDX 74 45 40 46 79 47 73 48 75 49 41 50 78 51 72 52 71 53 42 55
REMARK SMILES IDX 64 56 49 57 63 58 50 59 53 60 62 61 76 62 51 63 52 64 61 66
REMARK SMILES IDX 77 67 54 68 43 69 44 70 48 71 45 72 47 73 46 74 65 75 66 76
REMARK SMILES IDX 70 77 67 78 69 79 68 80 55 81 56 82 60 83 57 84 59 85 58 86
REMARK H PARENT 8 18 11 20 75 54 53 65
REMARK Flexibility Score: inf
ROOT
ATOM      1  C   UNL A   1      38.334  23.907  26.740  1.00  0.00     0.188 C 
ENDROOT
BRANCH   1   2
ATOM      2  C   UNL A   1      37.320  23.782  25.587  1.00  0.00     0.188 C 
BRANCH   2   3
ATOM      3  O   UNL A   1      37.403  22.654  24.737  1.00  0.00    -0.376 OA
BRANCH   3   4
ATOM      4  C   UNL A   1      36.221  21.942  24.416  1.00  0.00     0.202 C 
BRANCH   4   5
ATOM      5  C   UNL A   1      35.339  21.239  25.467  1.00  0.00     0.261 C 
BRANCH   5   6
ATOM      6  O   UNL A   1      34.362  20.268  25.026  1.00  0.00    -0.461 OA
BRANCH   6   7
ATOM      7  C   UNL A   1      33.128  20.673  24.633  1.00  0.00     0.335 C 
ATOM      8  O   UNL A   1      32.742  20.569  23.472  1.00  0.00    -0.249 OA
BRANCH   7   9
ATOM      9  C   UNL A   1      32.275  21.388  25.751  1.00  0.00     0.228 C 
ATOM     10  C   UNL A   1      31.093  23.462  25.931  1.00  0.00     0.138 C 
ATOM     11  C   UNL A   1      32.236  23.555  26.919  1.00  0.00     0.037 C 
ATOM     12  O   UNL A   1      31.271  22.245  25.170  1.00  0.00    -0.361 OA
ATOM     13  C   UNL A   1      32.907  22.182  26.893  1.00  0.00     0.047 C 
BRANCH  10  14
ATOM     14  C   UNL A   1      30.671  24.725  25.045  1.00  0.00     0.149 C 
BRANCH  14  15
ATOM     15  N   UNL A   1      31.117  24.959  23.628  1.00  0.00    -0.336 N 
ATOM     16  N   UNL A   1      32.320  26.998  23.019  1.00  0.00    -0.333 N 
ATOM     17  C   UNL A   1      31.913  25.720  22.845  1.00  0.00     0.315 C 
ATOM     18  H   UNL A   1      32.854  27.325  22.258  1.00  0.00     0.165 HD
ATOM     19  O   UNL A   1      32.235  25.204  21.765  1.00  0.00    -0.249 OA
ATOM     20  H   UNL A   1      30.652  24.310  23.051  1.00  0.00     0.165 HD
BRANCH  16  21
ATOM     21  C   UNL A   1      32.162  28.027  24.069  1.00  0.00     0.041 C 
BRANCH  21  22
ATOM     22  C   UNL A   1      33.301  28.998  23.843  1.00  0.00     0.025 C 
ATOM     23  C   UNL A   1      34.118  28.648  22.571  1.00  0.00     0.006 C 
ENDBRANCH  21  22
BRANCH  21  24
ATOM     24  C   UNL A   1      32.388  27.559  25.567  1.00  0.00     0.025 C 
ATOM     25  C   UNL A   1      33.746  26.835  25.787  1.00  0.00     0.006 C 
ENDBRANCH  21  24
BRANCH  21  26
ATOM     26  C   UNL A   1      30.701  28.569  24.048  1.00  0.00     0.025 C 
ATOM     27  C   UNL A   1      30.234  29.350  22.828  1.00  0.00     0.006 C 
ENDBRANCH  21  26
ENDBRANCH  16  21
ENDBRANCH  14  15
ENDBRANCH  10  14
ENDBRANCH   7   9
ENDBRANCH   6   7
ENDBRANCH   5   6
ENDBRANCH   4   5
ENDBRANCH   3   4
ENDBRANCH   2   3
ENDBRANCH   1   2
BRANCH   1  28
ATOM     28  O   UNL A   1      39.658  23.488  26.434  1.00  0.00    -0.377 OA
BRANCH  28  29
ATOM     29  C   UNL A   1      40.747  24.350  26.736  1.00  0.00     0.188 C 
BRANCH  29  30
ATOM     30  C   UNL A   1      40.747  25.789  26.191  1.00  0.00     0.188 C 
BRANCH  30  31
ATOM     31  O   UNL A   1      41.579  25.983  25.062  1.00  0.00    -0.376 OA
BRANCH  31  32
ATOM     32  C   UNL A   1      42.667  26.889  25.134  1.00  0.00     0.202 C 
BRANCH  32  33
ATOM     33  C   UNL A   1      44.089  26.341  25.342  1.00  0.00     0.261 C 
BRANCH  33  34
ATOM     34  O   UNL A   1      44.282  25.410  26.417  1.00  0.00    -0.460 OA
BRANCH  34  35
ATOM     35  C   UNL A   1      45.092  25.773  27.438  1.00  0.00     0.338 C 
ATOM     36  O   UNL A   1      46.275  25.565  27.552  1.00  0.00    -0.246 OA
BRANCH  35  37
ATOM     37  C   UNL A   1      44.298  26.646  28.334  1.00  0.00     0.060 A 
ATOM     38  C   UNL A   1      44.656  27.994  28.467  1.00  0.00     0.016 A 
ATOM     39  C   UNL A   1      43.227  26.121  29.059  1.00  0.00     0.016 A 
ATOM     40  C   UNL A   1      43.975  28.811  29.370  1.00  0.00     0.010 A 
ATOM     41  C   UNL A   1      42.562  26.933  29.979  1.00  0.00     0.010 A 
ATOM     42  C   UNL A   1      42.963  28.268  30.171  1.00  0.00    -0.014 A 
BRANCH  42  43
ATOM     43  C   UNL A   1      42.486  29.008  31.363  1.00  0.00     0.031 A 
ATOM     44  C   UNL A   1      41.239  29.841  31.227  1.00  0.00     0.074 A 
ATOM     45  C   UNL A   1      43.129  28.943  32.542  1.00  0.00     0.049 A 
ATOM     46  N   UNL A   1      40.676  30.646  32.089  1.00  0.00    -0.248 NA
ATOM     47  C   UNL A   1      40.536  29.754  29.935  1.00  0.00     0.031 C 
ATOM     48  C   UNL A   1      44.309  28.129  32.823  1.00  0.00     0.029 A 
ATOM     49  N   UNL A   1      42.876  29.593  33.724  1.00  0.00    -0.354 N 
ATOM     50  C   UNL A   1      39.563  31.170  31.442  1.00  0.00     0.074 A 
ATOM     51  C   UNL A   1      39.548  30.618  30.105  1.00  0.00     0.031 C 
ATOM     52  C   UNL A   1      44.687  28.338  34.097  1.00  0.00     0.029 A 
ATOM     53  C   UNL A   1      43.802  29.332  34.703  1.00  0.00     0.049 A 
ATOM     54  H   UNL A   1      42.104  30.190  33.857  1.00  0.00     0.167 HD
ATOM     55  C   UNL A   1      38.633  32.030  31.917  1.00  0.00     0.031 A 
ATOM     56  C   UNL A   1      43.934  29.860  35.936  1.00  0.00     0.031 A 
ATOM     57  C   UNL A   1      38.659  32.596  33.239  1.00  0.00     0.049 A 
ATOM     58  C   UNL A   1      42.947  30.899  36.406  1.00  0.00     0.074 A 
ATOM     59  C   UNL A   1      37.765  33.479  33.817  1.00  0.00     0.029 A 
ATOM     60  N   UNL A   1      39.639  32.338  34.185  1.00  0.00    -0.354 N 
ATOM     61  N   UNL A   1      41.892  31.378  35.793  1.00  0.00    -0.248 NA
ATOM     62  C   UNL A   1      43.170  31.465  37.745  1.00  0.00     0.031 C 
ATOM     63  C   UNL A   1      38.238  33.805  35.092  1.00  0.00     0.029 A 
ATOM     64  C   UNL A   1      39.385  33.065  35.336  1.00  0.00     0.049 A 
ATOM     65  H   UNL A   1      40.400  31.727  34.060  1.00  0.00     0.167 HD
ATOM     66  C   UNL A   1      41.305  32.271  36.685  1.00  0.00     0.074 A 
ATOM     67  C   UNL A   1      42.114  32.255  37.885  1.00  0.00     0.031 C 
ATOM     68  C   UNL A   1      40.195  33.032  36.527  1.00  0.00     0.031 A 
BRANCH  55  69
ATOM     69  C   UNL A   1      37.531  32.443  30.982  1.00  0.00    -0.014 A 
ATOM     70  C   UNL A   1      36.279  31.806  30.999  1.00  0.00     0.009 A 
ATOM     71  C   UNL A   1      37.739  33.502  30.084  1.00  0.00     0.009 A 
ATOM     72  C   UNL A   1      35.273  32.199  30.113  1.00  0.00     0.001 A 
ATOM     73  C   UNL A   1      36.722  33.914  29.222  1.00  0.00     0.001 A 
ATOM     74  C   UNL A   1      35.493  33.256  29.230  1.00  0.00     0.000 A 
ENDBRANCH  55  69
BRANCH  56  75
ATOM     75  C   UNL A   1      45.061  29.443  36.815  1.00  0.00    -0.014 A 
ATOM     76  C   UNL A   1      46.291  30.120  36.773  1.00  0.00     0.009 A 
ATOM     77  C   UNL A   1      44.928  28.341  37.674  1.00  0.00     0.009 A 
ATOM     78  C   UNL A   1      47.370  29.681  37.544  1.00  0.00     0.001 A 
ATOM     79  C   UNL A   1      45.997  27.925  38.472  1.00  0.00     0.001 A 
ATOM     80  C   UNL A   1      47.221  28.587  38.395  1.00  0.00     0.000 A 
ENDBRANCH  56  75
BRANCH  68  81
ATOM     81  C   UNL A   1      39.751  33.869  37.697  1.00  0.00    -0.014 A 
ATOM     82  C   UNL A   1      40.097  35.225  37.806  1.00  0.00     0.009 A 
ATOM     83  C   UNL A   1      38.929  33.297  38.682  1.00  0.00     0.009 A 
ATOM     84  C   UNL A   1      39.659  35.979  38.897  1.00  0.00     0.001 A 
ATOM     85  C   UNL A   1      38.464  34.062  39.752  1.00  0.00     0.001 A 
ATOM     86  C   UNL A   1      38.838  35.400  39.865  1.00  0.00     0.000 A 
ENDBRANCH  68  81
ENDBRANCH  42  43
ENDBRANCH  35  37
ENDBRANCH  34  35
ENDBRANCH  33  34
ENDBRANCH  32  33
ENDBRANCH  31  32
ENDBRANCH  30  31
ENDBRANCH  29  30
ENDBRANCH  28  29
ENDBRANCH   1  28
TORSDOF 26
ENDMDL
