MODEL 1
REMARK VINA RESULT:      -9.5      0.000      0.000
REMARK SMILES NS(=O)(=O)c1ccc(-n2nc(C(=O)OCCOCCOCCOCCOC(=O)c3ccc(-c4c5nc(c(-c6ccccc6)c6ccc([nH]6)c(-c6ccccc6)c6nc(c(-c7ccccc7)c7ccc4[nH]7)C=C6)C=C5)cc3)cc2-c2ccc(Cl)s2)cc1
REMARK SMILES IDX 19 1 18 2 17 3 16 4 15 5 14 6 12 7 13 8 11 9 9 10 10 11
REMARK SMILES IDX 78 12 77 13 8 14 5 15 6 16 86 17 7 18 85 19 2 20 3 21 4 22
REMARK SMILES IDX 1 23 79 26 80 27 84 28 81 29 82 30 83 31 20 32 21 33 22 34
REMARK SMILES IDX 23 35 24 36 25 37 26 38 27 39 28 40 29 41 30 42 76 43 31 44
REMARK SMILES IDX 75 45 32 46 33 47 34 48 69 49 35 50 74 51 68 52 70 53 36 54
REMARK SMILES IDX 73 55 67 56 66 57 37 59 59 60 44 61 58 62 45 63 48 64 57 65
REMARK SMILES IDX 71 66 46 67 47 68 56 70 72 71 49 72 38 73 39 74 43 75 40 76
REMARK SMILES IDX 42 77 41 78 60 79 61 80 65 81 62 82 64 83 63 84 50 85 51 86
REMARK SMILES IDX 55 87 52 88 54 89 53 90
REMARK H PARENT 1 24 1 25 70 58 48 69
REMARK Flexibility Score: inf
ROOT
ATOM      1  C   UNL A   1      33.072  27.038  25.929  1.00  0.00     0.188 C 
ENDROOT
BRANCH   1   2
ATOM      2  C   UNL A   1      33.617  28.264  26.702  1.00  0.00     0.188 C 
BRANCH   2   3
ATOM      3  O   UNL A   1      32.639  29.256  26.955  1.00  0.00    -0.376 OA
BRANCH   3   4
ATOM      4  C   UNL A   1      32.925  30.616  26.731  1.00  0.00     0.202 C 
BRANCH   4   5
ATOM      5  C   UNL A   1      33.230  31.499  27.949  1.00  0.00     0.261 C 
BRANCH   5   6
ATOM      6  O   UNL A   1      33.708  32.818  27.670  1.00  0.00    -0.458 OA
BRANCH   6   7
ATOM      7  C   UNL A   1      33.825  33.660  28.734  1.00  0.00     0.358 C 
ATOM      8  O   UNL A   1      32.954  34.445  29.092  1.00  0.00    -0.244 OA
BRANCH   7   9
ATOM      9  C   UNL A   1      35.079  33.413  29.455  1.00  0.00     0.171 A 
ATOM     10  N   UNL A   1      36.416  32.918  31.050  1.00  0.00    -0.231 N 
ATOM     11  N   UNL A   1      35.110  32.881  30.692  1.00  0.00    -0.160 NA
ATOM     12  C   UNL A   1      37.233  33.316  30.006  1.00  0.00     0.085 A 
ATOM     13  C   UNL A   1      36.391  33.592  28.951  1.00  0.00     0.068 A 
BRANCH  10  14
ATOM     14  C   UNL A   1      36.761  32.775  32.413  1.00  0.00     0.065 A 
ATOM     15  C   UNL A   1      37.463  32.452  35.078  1.00  0.00     0.082 A 
ATOM     16  C   UNL A   1      37.629  31.388  34.188  1.00  0.00     0.024 A 
ATOM     17  C   UNL A   1      36.951  33.682  34.640  1.00  0.00     0.024 A 
ATOM     18  C   UNL A   1      37.260  31.544  32.856  1.00  0.00     0.030 A 
ATOM     19  C   UNL A   1      36.628  33.858  33.291  1.00  0.00     0.030 A 
BRANCH  15  20
ATOM     20  S   UNL A   1      37.890  32.268  36.784  1.00  0.00     0.238 S 
ATOM     21  O   UNL A   1      36.866  32.925  37.581  1.00  0.00    -0.207 OA
ATOM     22  O   UNL A   1      39.289  32.531  36.938  1.00  0.00    -0.207 OA
BRANCH  20  23
ATOM     23  N   UNL A   1      37.689  30.626  37.090  1.00  0.00    -0.225 NA
ATOM     24  H   UNL A   1      37.803  30.100  36.224  1.00  0.00     0.137 HD
ATOM     25  H   UNL A   1      36.755  30.461  37.467  1.00  0.00     0.137 HD
ENDBRANCH  20  23
ENDBRANCH  15  20
ENDBRANCH  10  14
BRANCH  12  26
ATOM     26  C   UNL A   1      38.660  33.443  30.056  1.00  0.00     0.054 A 
ATOM     27  C   UNL A   1      39.367  34.630  30.034  1.00  0.00     0.024 A 
ATOM     28  S   UNL A   1      39.709  32.090  30.156  1.00  0.00    -0.122 S 
ATOM     29  C   UNL A   1      40.771  34.427  30.186  1.00  0.00     0.033 A 
ATOM     30  C   UNL A   1      41.068  33.092  30.269  1.00  0.00     0.094 A 
ATOM     31  Cl  UNL A   1      42.627  32.404  30.471  1.00  0.00    -0.072 Cl
ENDBRANCH  12  26
ENDBRANCH   7   9
ENDBRANCH   6   7
ENDBRANCH   5   6
ENDBRANCH   4   5
ENDBRANCH   3   4
ENDBRANCH   2   3
ENDBRANCH   1   2
BRANCH   1  32
ATOM     32  O   UNL A   1      33.629  25.740  26.119  1.00  0.00    -0.377 OA
BRANCH  32  33
ATOM     33  C   UNL A   1      33.713  24.834  25.023  1.00  0.00     0.188 C 
BRANCH  33  34
ATOM     34  C   UNL A   1      35.069  24.213  24.579  1.00  0.00     0.188 C 
BRANCH  34  35
ATOM     35  O   UNL A   1      36.072  24.141  25.574  1.00  0.00    -0.376 OA
BRANCH  35  36
ATOM     36  C   UNL A   1      36.676  22.961  26.064  1.00  0.00     0.202 C 
BRANCH  36  37
ATOM     37  C   UNL A   1      37.835  22.279  25.343  1.00  0.00     0.261 C 
BRANCH  37  38
ATOM     38  O   UNL A   1      39.012  22.222  26.109  1.00  0.00    -0.460 OA
BRANCH  38  39
ATOM     39  C   UNL A   1      39.702  21.081  25.946  1.00  0.00     0.338 C 
ATOM     40  O   UNL A   1      39.280  20.012  25.540  1.00  0.00    -0.246 OA
BRANCH  39  41
ATOM     41  C   UNL A   1      41.083  21.327  26.386  1.00  0.00     0.060 A 
ATOM     42  C   UNL A   1      41.302  21.051  27.733  1.00  0.00     0.016 A 
ATOM     43  C   UNL A   1      41.826  22.274  25.665  1.00  0.00     0.016 A 
ATOM     44  C   UNL A   1      41.888  22.047  28.457  1.00  0.00     0.010 A 
ATOM     45  C   UNL A   1      42.401  23.275  26.386  1.00  0.00     0.010 A 
ATOM     46  C   UNL A   1      42.266  23.202  27.767  1.00  0.00    -0.014 A 
BRANCH  46  47
ATOM     47  C   UNL A   1      42.402  24.401  28.544  1.00  0.00     0.031 A 
ATOM     48  C   UNL A   1      41.350  25.380  28.261  1.00  0.00     0.074 A 
ATOM     49  C   UNL A   1      43.374  24.529  29.461  1.00  0.00     0.049 A 
ATOM     50  N   UNL A   1      41.473  26.508  27.652  1.00  0.00    -0.248 NA
ATOM     51  C   UNL A   1      39.966  24.956  28.515  1.00  0.00     0.031 C 
ATOM     52  C   UNL A   1      44.272  23.513  30.017  1.00  0.00     0.029 A 
ATOM     53  N   UNL A   1      43.657  25.622  30.202  1.00  0.00    -0.354 N 
ATOM     54  C   UNL A   1      40.189  27.026  27.598  1.00  0.00     0.074 A 
ATOM     55  C   UNL A   1      39.292  25.954  27.951  1.00  0.00     0.031 C 
ATOM     56  C   UNL A   1      44.778  23.975  31.186  1.00  0.00     0.029 A 
ATOM     57  C   UNL A   1      44.332  25.347  31.377  1.00  0.00     0.049 A 
ATOM     58  H   UNL A   1      43.405  26.535  29.931  1.00  0.00     0.167 HD
ATOM     59  C   UNL A   1      39.964  28.363  27.533  1.00  0.00     0.031 A 
ATOM     60  C   UNL A   1      44.363  26.159  32.462  1.00  0.00     0.031 A 
ATOM     61  C   UNL A   1      41.139  29.099  27.153  1.00  0.00     0.049 A 
ATOM     62  C   UNL A   1      43.981  27.525  32.002  1.00  0.00     0.074 A 
ATOM     63  C   UNL A   1      41.961  29.093  26.042  1.00  0.00     0.029 A 
ATOM     64  N   UNL A   1      41.868  29.696  28.156  1.00  0.00    -0.354 N 
ATOM     65  N   UNL A   1      44.708  28.229  31.177  1.00  0.00    -0.248 NA
ATOM     66  C   UNL A   1      42.567  27.890  32.040  1.00  0.00     0.031 C 
ATOM     67  C   UNL A   1      43.282  29.225  26.563  1.00  0.00     0.029 A 
ATOM     68  C   UNL A   1      43.184  29.359  27.949  1.00  0.00     0.049 A 
ATOM     69  H   UNL A   1      41.514  30.257  28.883  1.00  0.00     0.167 HD
ATOM     70  C   UNL A   1      43.803  28.820  30.303  1.00  0.00     0.074 A 
ATOM     71  C   UNL A   1      42.494  28.643  30.936  1.00  0.00     0.031 C 
ATOM     72  C   UNL A   1      44.139  29.125  29.012  1.00  0.00     0.031 A 
BRANCH  59  73
ATOM     73  C   UNL A   1      38.787  28.995  28.213  1.00  0.00    -0.014 A 
ATOM     74  C   UNL A   1      38.539  28.699  29.558  1.00  0.00     0.009 A 
ATOM     75  C   UNL A   1      37.770  29.671  27.504  1.00  0.00     0.009 A 
ATOM     76  C   UNL A   1      37.315  29.029  30.151  1.00  0.00     0.001 A 
ATOM     77  C   UNL A   1      36.570  30.043  28.103  1.00  0.00     0.001 A 
ATOM     78  C   UNL A   1      36.333  29.699  29.424  1.00  0.00     0.000 A 
ENDBRANCH  59  73
BRANCH  60  79
ATOM     79  C   UNL A   1      44.269  25.705  33.872  1.00  0.00    -0.014 A 
ATOM     80  C   UNL A   1      43.033  25.561  34.516  1.00  0.00     0.009 A 
ATOM     81  C   UNL A   1      45.408  25.198  34.533  1.00  0.00     0.009 A 
ATOM     82  C   UNL A   1      42.944  24.928  35.768  1.00  0.00     0.001 A 
ATOM     83  C   UNL A   1      45.322  24.575  35.781  1.00  0.00     0.001 A 
ATOM     84  C   UNL A   1      44.086  24.432  36.395  1.00  0.00     0.000 A 
ENDBRANCH  60  79
BRANCH  72  85
ATOM     85  C   UNL A   1      45.576  28.924  28.583  1.00  0.00    -0.014 A 
ATOM     86  C   UNL A   1      46.107  27.654  28.286  1.00  0.00     0.009 A 
ATOM     87  C   UNL A   1      46.354  30.049  28.281  1.00  0.00     0.009 A 
ATOM     88  C   UNL A   1      47.383  27.517  27.728  1.00  0.00     0.001 A 
ATOM     89  C   UNL A   1      47.622  29.914  27.708  1.00  0.00     0.001 A 
ATOM     90  C   UNL A   1      48.138  28.648  27.435  1.00  0.00     0.000 A 
ENDBRANCH  72  85
ENDBRANCH  46  47
ENDBRANCH  39  41
ENDBRANCH  38  39
ENDBRANCH  37  38
ENDBRANCH  36  37
ENDBRANCH  35  36
ENDBRANCH  34  35
ENDBRANCH  33  34
ENDBRANCH  32  33
ENDBRANCH   1  32
TORSDOF 24
ENDMDL
MODEL 2
REMARK VINA RESULT:      -9.3      1.928      2.930
REMARK SMILES NS(=O)(=O)c1ccc(-n2nc(C(=O)OCCOCCOCCOCCOC(=O)c3ccc(-c4c5nc(c(-c6ccccc6)c6ccc([nH]6)c(-c6ccccc6)c6nc(c(-c7ccccc7)c7ccc4[nH]7)C=C6)C=C5)cc3)cc2-c2ccc(Cl)s2)cc1
REMARK SMILES IDX 19 1 18 2 17 3 16 4 15 5 14 6 12 7 13 8 11 9 9 10 10 11
REMARK SMILES IDX 78 12 77 13 8 14 5 15 6 16 86 17 7 18 85 19 2 20 3 21 4 22
REMARK SMILES IDX 1 23 79 26 80 27 84 28 81 29 82 30 83 31 20 32 21 33 22 34
REMARK SMILES IDX 23 35 24 36 25 37 26 38 27 39 28 40 29 41 30 42 76 43 31 44
REMARK SMILES IDX 75 45 32 46 33 47 34 48 69 49 35 50 74 51 68 52 70 53 36 54
REMARK SMILES IDX 73 55 67 56 66 57 37 59 59 60 44 61 58 62 45 63 48 64 57 65
REMARK SMILES IDX 71 66 46 67 47 68 56 70 72 71 49 72 38 73 39 74 43 75 40 76
REMARK SMILES IDX 42 77 41 78 60 79 61 80 65 81 62 82 64 83 63 84 50 85 51 86
REMARK SMILES IDX 55 87 52 88 54 89 53 90
REMARK H PARENT 1 24 1 25 70 58 48 69
REMARK Flexibility Score: inf
ROOT
ATOM      1  C   UNL A   1      33.091  26.939  25.673  1.00  0.00     0.188 C 
ENDROOT
BRANCH   1   2
ATOM      2  C   UNL A   1      34.064  27.963  26.305  1.00  0.00     0.188 C 
BRANCH   2   3
ATOM      3  O   UNL A   1      33.432  28.887  27.172  1.00  0.00    -0.376 OA
BRANCH   3   4
ATOM      4  C   UNL A   1      32.495  29.812  26.674  1.00  0.00     0.202 C 
BRANCH   4   5
ATOM      5  C   UNL A   1      32.696  31.295  27.012  1.00  0.00     0.261 C 
BRANCH   5   6
ATOM      6  O   UNL A   1      33.724  31.594  27.961  1.00  0.00    -0.458 OA
BRANCH   6   7
ATOM      7  C   UNL A   1      33.897  32.908  28.277  1.00  0.00     0.358 C 
ATOM      8  O   UNL A   1      33.203  33.819  27.842  1.00  0.00    -0.244 OA
BRANCH   7   9
ATOM      9  C   UNL A   1      34.945  33.063  29.292  1.00  0.00     0.171 A 
ATOM     10  N   UNL A   1      36.873  33.415  30.153  1.00  0.00    -0.231 N 
ATOM     11  N   UNL A   1      36.175  33.525  28.996  1.00  0.00    -0.160 NA
ATOM     12  C   UNL A   1      36.066  33.041  31.214  1.00  0.00     0.085 A 
ATOM     13  C   UNL A   1      34.807  32.858  30.687  1.00  0.00     0.068 A 
BRANCH  10  14
ATOM     14  C   UNL A   1      38.284  33.469  30.115  1.00  0.00     0.065 A 
ATOM     15  C   UNL A   1      41.053  33.626  30.040  1.00  0.00     0.082 A 
ATOM     16  C   UNL A   1      40.291  34.766  29.774  1.00  0.00     0.024 A 
ATOM     17  C   UNL A   1      40.436  32.405  30.350  1.00  0.00     0.024 A 
ATOM     18  C   UNL A   1      38.903  34.684  29.794  1.00  0.00     0.030 A 
ATOM     19  C   UNL A   1      39.041  32.332  30.420  1.00  0.00     0.030 A 
BRANCH  15  20
ATOM     20  S   UNL A   1      42.819  33.696  29.987  1.00  0.00     0.238 S 
ATOM     21  O   UNL A   1      43.317  32.357  29.714  1.00  0.00    -0.207 OA
ATOM     22  O   UNL A   1      43.281  34.494  31.082  1.00  0.00    -0.207 OA
BRANCH  20  23
ATOM     23  N   UNL A   1      43.160  34.576  28.593  1.00  0.00    -0.225 NA
ATOM     24  H   UNL A   1      42.897  34.031  27.772  1.00  0.00     0.137 HD
ATOM     25  H   UNL A   1      44.159  34.783  28.557  1.00  0.00     0.137 HD
ENDBRANCH  20  23
ENDBRANCH  15  20
ENDBRANCH  10  14
BRANCH  12  26
ATOM     26  C   UNL A   1      36.494  32.853  32.570  1.00  0.00     0.054 A 
ATOM     27  C   UNL A   1      37.161  31.746  33.060  1.00  0.00     0.024 A 
ATOM     28  S   UNL A   1      36.225  34.019  33.799  1.00  0.00    -0.122 S 
ATOM     29  C   UNL A   1      37.526  31.897  34.430  1.00  0.00     0.033 A 
ATOM     30  C   UNL A   1      37.078  33.093  34.929  1.00  0.00     0.094 A 
ATOM     31  Cl  UNL A   1      37.309  33.684  36.523  1.00  0.00    -0.072 Cl
ENDBRANCH  12  26
ENDBRANCH   7   9
ENDBRANCH   6   7
ENDBRANCH   5   6
ENDBRANCH   4   5
ENDBRANCH   3   4
ENDBRANCH   2   3
ENDBRANCH   1   2
BRANCH   1  32
ATOM     32  O   UNL A   1      33.061  25.583  26.111  1.00  0.00    -0.377 OA
BRANCH  32  33
ATOM     33  C   UNL A   1      33.710  24.573  25.345  1.00  0.00     0.188 C 
BRANCH  33  34
ATOM     34  C   UNL A   1      35.246  24.339  25.436  1.00  0.00     0.188 C 
BRANCH  34  35
ATOM     35  O   UNL A   1      35.664  23.304  26.304  1.00  0.00    -0.376 OA
BRANCH  35  36
ATOM     36  C   UNL A   1      36.510  22.224  25.965  1.00  0.00     0.202 C 
BRANCH  36  37
ATOM     37  C   UNL A   1      37.915  22.434  25.407  1.00  0.00     0.261 C 
BRANCH  37  38
ATOM     38  O   UNL A   1      38.931  22.145  26.333  1.00  0.00    -0.460 OA
BRANCH  38  39
ATOM     39  C   UNL A   1      39.658  21.061  26.010  1.00  0.00     0.338 C 
ATOM     40  O   UNL A   1      39.249  20.003  25.563  1.00  0.00    -0.246 OA
BRANCH  39  41
ATOM     41  C   UNL A   1      41.063  21.353  26.329  1.00  0.00     0.060 A 
ATOM     42  C   UNL A   1      41.424  21.019  27.632  1.00  0.00     0.016 A 
ATOM     43  C   UNL A   1      41.688  22.371  25.595  1.00  0.00     0.016 A 
ATOM     44  C   UNL A   1      42.033  22.006  28.351  1.00  0.00     0.010 A 
ATOM     45  C   UNL A   1      42.286  23.362  26.312  1.00  0.00     0.010 A 
ATOM     46  C   UNL A   1      42.290  23.212  27.694  1.00  0.00    -0.014 A 
BRANCH  46  47
ATOM     47  C   UNL A   1      42.448  24.374  28.520  1.00  0.00     0.031 A 
ATOM     48  C   UNL A   1      41.406  25.378  28.289  1.00  0.00     0.074 A 
ATOM     49  C   UNL A   1      43.430  24.452  29.432  1.00  0.00     0.049 A 
ATOM     50  N   UNL A   1      41.537  26.529  27.727  1.00  0.00    -0.248 NA
ATOM     51  C   UNL A   1      40.019  24.959  28.538  1.00  0.00     0.031 C 
ATOM     52  C   UNL A   1      44.320  23.402  29.936  1.00  0.00     0.029 A 
ATOM     53  N   UNL A   1      43.733  25.509  30.216  1.00  0.00    -0.354 N 
ATOM     54  C   UNL A   1      40.259  27.064  27.708  1.00  0.00     0.074 A 
ATOM     55  C   UNL A   1      39.352  25.988  28.023  1.00  0.00     0.031 C 
ATOM     56  C   UNL A   1      44.842  23.807  31.119  1.00  0.00     0.029 A 
ATOM     57  C   UNL A   1      44.415  25.175  31.371  1.00  0.00     0.049 A 
ATOM     58  H   UNL A   1      43.490  26.435  29.986  1.00  0.00     0.167 HD
ATOM     59  C   UNL A   1      40.050  28.405  27.701  1.00  0.00     0.031 A 
ATOM     60  C   UNL A   1      44.466  25.940  32.490  1.00  0.00     0.031 A 
ATOM     61  C   UNL A   1      41.231  29.142  27.342  1.00  0.00     0.049 A 
ATOM     62  C   UNL A   1      44.096  27.329  32.093  1.00  0.00     0.074 A 
ATOM     63  C   UNL A   1      42.043  29.175  26.224  1.00  0.00     0.029 A 
ATOM     64  N   UNL A   1      41.976  29.688  28.363  1.00  0.00    -0.354 N 
ATOM     65  N   UNL A   1      44.825  28.058  31.291  1.00  0.00    -0.248 NA
ATOM     66  C   UNL A   1      42.688  27.708  32.159  1.00  0.00     0.031 C 
ATOM     67  C   UNL A   1      43.369  29.268  26.738  1.00  0.00     0.029 A 
ATOM     68  C   UNL A   1      43.286  29.344  28.129  1.00  0.00     0.049 A 
ATOM     69  H   UNL A   1      41.636  30.221  29.117  1.00  0.00     0.167 HD
ATOM     70  C   UNL A   1      43.919  28.697  30.452  1.00  0.00     0.074 A 
ATOM     71  C   UNL A   1      42.615  28.509  31.089  1.00  0.00     0.031 C 
ATOM     72  C   UNL A   1      44.248  29.053  29.172  1.00  0.00     0.031 A 
BRANCH  59  73
ATOM     73  C   UNL A   1      38.887  29.022  28.419  1.00  0.00    -0.014 A 
ATOM     74  C   UNL A   1      38.737  28.795  29.792  1.00  0.00     0.009 A 
ATOM     75  C   UNL A   1      37.796  29.606  27.740  1.00  0.00     0.009 A 
ATOM     76  C   UNL A   1      37.538  29.103  30.443  1.00  0.00     0.001 A 
ATOM     77  C   UNL A   1      36.618  29.957  28.393  1.00  0.00     0.001 A 
ATOM     78  C   UNL A   1      36.480  29.682  29.744  1.00  0.00     0.000 A 
ENDBRANCH  59  73
BRANCH  60  79
ATOM     79  C   UNL A   1      44.380  25.428  33.880  1.00  0.00    -0.014 A 
ATOM     80  C   UNL A   1      43.444  24.451  34.246  1.00  0.00     0.009 A 
ATOM     81  C   UNL A   1      45.380  25.750  34.820  1.00  0.00     0.009 A 
ATOM     82  C   UNL A   1      43.515  23.821  35.500  1.00  0.00     0.001 A 
ATOM     83  C   UNL A   1      45.448  25.130  36.071  1.00  0.00     0.001 A 
ATOM     84  C   UNL A   1      44.518  24.156  36.408  1.00  0.00     0.000 A 
ENDBRANCH  60  79
BRANCH  72  85
ATOM     85  C   UNL A   1      45.678  28.853  28.720  1.00  0.00    -0.014 A 
ATOM     86  C   UNL A   1      46.199  27.587  28.394  1.00  0.00     0.009 A 
ATOM     87  C   UNL A   1      46.457  29.980  28.429  1.00  0.00     0.009 A 
ATOM     88  C   UNL A   1      47.468  27.454  27.818  1.00  0.00     0.001 A 
ATOM     89  C   UNL A   1      47.717  29.849  27.837  1.00  0.00     0.001 A 
ATOM     90  C   UNL A   1      48.224  28.587  27.535  1.00  0.00     0.000 A 
ENDBRANCH  72  85
ENDBRANCH  46  47
ENDBRANCH  39  41
ENDBRANCH  38  39
ENDBRANCH  37  38
ENDBRANCH  36  37
ENDBRANCH  35  36
ENDBRANCH  34  35
ENDBRANCH  33  34
ENDBRANCH  32  33
ENDBRANCH   1  32
TORSDOF 24
ENDMDL
MODEL 3
REMARK VINA RESULT:      -9.1      2.163      3.084
REMARK SMILES NS(=O)(=O)c1ccc(-n2nc(C(=O)OCCOCCOCCOCCOC(=O)c3ccc(-c4c5nc(c(-c6ccccc6)c6ccc([nH]6)c(-c6ccccc6)c6nc(c(-c7ccccc7)c7ccc4[nH]7)C=C6)C=C5)cc3)cc2-c2ccc(Cl)s2)cc1
REMARK SMILES IDX 19 1 18 2 17 3 16 4 15 5 14 6 12 7 13 8 11 9 9 10 10 11
REMARK SMILES IDX 78 12 77 13 8 14 5 15 6 16 86 17 7 18 85 19 2 20 3 21 4 22
REMARK SMILES IDX 1 23 79 26 80 27 84 28 81 29 82 30 83 31 20 32 21 33 22 34
REMARK SMILES IDX 23 35 24 36 25 37 26 38 27 39 28 40 29 41 30 42 76 43 31 44
REMARK SMILES IDX 75 45 32 46 33 47 34 48 69 49 35 50 74 51 68 52 70 53 36 54
REMARK SMILES IDX 73 55 67 56 66 57 37 59 59 60 44 61 58 62 45 63 48 64 57 65
REMARK SMILES IDX 71 66 46 67 47 68 56 70 72 71 49 72 38 73 39 74 43 75 40 76
REMARK SMILES IDX 42 77 41 78 60 79 61 80 65 81 62 82 64 83 63 84 50 85 51 86
REMARK SMILES IDX 55 87 52 88 54 89 53 90
REMARK H PARENT 1 24 1 25 70 58 48 69
REMARK Flexibility Score: inf
ROOT
ATOM      1  C   UNL A   1      31.571  25.162  24.977  1.00  0.00     0.188 C 
ENDROOT
BRANCH   1   2
ATOM      2  C   UNL A   1      31.476  25.862  26.354  1.00  0.00     0.188 C 
BRANCH   2   3
ATOM      3  O   UNL A   1      30.981  27.186  26.287  1.00  0.00    -0.376 OA
BRANCH   3   4
ATOM      4  C   UNL A   1      31.483  28.090  25.331  1.00  0.00     0.202 C 
BRANCH   4   5
ATOM      5  C   UNL A   1      32.622  29.027  25.753  1.00  0.00     0.261 C 
BRANCH   5   6
ATOM      6  O   UNL A   1      32.356  29.884  26.867  1.00  0.00    -0.458 OA
BRANCH   6   7
ATOM      7  C   UNL A   1      31.940  31.149  26.576  1.00  0.00     0.358 C 
ATOM      8  O   UNL A   1      30.970  31.412  25.876  1.00  0.00    -0.244 OA
BRANCH   7   9
ATOM      9  C   UNL A   1      32.740  32.138  27.308  1.00  0.00     0.171 A 
ATOM     10  N   UNL A   1      34.369  32.995  28.400  1.00  0.00    -0.231 N 
ATOM     11  N   UNL A   1      34.023  31.918  27.653  1.00  0.00    -0.160 NA
ATOM     12  C   UNL A   1      33.381  33.966  28.403  1.00  0.00     0.085 A 
ATOM     13  C   UNL A   1      32.342  33.451  27.661  1.00  0.00     0.068 A 
BRANCH  10  14
ATOM     14  C   UNL A   1      35.517  32.926  29.220  1.00  0.00     0.065 A 
ATOM     15  C   UNL A   1      37.744  32.766  30.867  1.00  0.00     0.082 A 
ATOM     16  C   UNL A   1      36.476  32.514  31.397  1.00  0.00     0.024 A 
ATOM     17  C   UNL A   1      37.905  33.093  29.513  1.00  0.00     0.024 A 
ATOM     18  C   UNL A   1      35.358  32.612  30.576  1.00  0.00     0.030 A 
ATOM     19  C   UNL A   1      36.788  33.142  28.674  1.00  0.00     0.030 A 
BRANCH  15  20
ATOM     20  S   UNL A   1      39.178  32.683  31.897  1.00  0.00     0.238 S 
ATOM     21  O   UNL A   1      39.912  33.931  31.754  1.00  0.00    -0.207 OA
ATOM     22  O   UNL A   1      39.785  31.396  31.738  1.00  0.00    -0.207 OA
BRANCH  20  23
ATOM     23  N   UNL A   1      38.568  32.719  33.466  1.00  0.00    -0.225 NA
ATOM     24  H   UNL A   1      37.731  33.302  33.494  1.00  0.00     0.137 HD
ATOM     25  H   UNL A   1      39.272  33.104  34.096  1.00  0.00     0.137 HD
ENDBRANCH  20  23
ENDBRANCH  15  20
ENDBRANCH  10  14
BRANCH  12  26
ATOM     26  C   UNL A   1      33.444  35.226  29.083  1.00  0.00     0.054 A 
ATOM     27  C   UNL A   1      33.584  36.462  28.482  1.00  0.00     0.024 A 
ATOM     28  S   UNL A   1      33.348  35.366  30.790  1.00  0.00    -0.122 S 
ATOM     29  C   UNL A   1      33.527  37.532  29.424  1.00  0.00     0.033 A 
ATOM     30  C   UNL A   1      33.392  37.055  30.702  1.00  0.00     0.094 A 
ATOM     31  Cl  UNL A   1      33.269  37.992  32.134  1.00  0.00    -0.072 Cl
ENDBRANCH  12  26
ENDBRANCH   7   9
ENDBRANCH   6   7
ENDBRANCH   5   6
ENDBRANCH   4   5
ENDBRANCH   3   4
ENDBRANCH   2   3
ENDBRANCH   1   2
BRANCH   1  32
ATOM     32  O   UNL A   1      32.723  24.408  24.610  1.00  0.00    -0.377 OA
BRANCH  32  33
ATOM     33  C   UNL A   1      33.944  24.583  25.321  1.00  0.00     0.188 C 
BRANCH  33  34
ATOM     34  C   UNL A   1      34.572  23.434  26.161  1.00  0.00     0.188 C 
BRANCH  34  35
ATOM     35  O   UNL A   1      35.649  22.743  25.559  1.00  0.00    -0.376 OA
BRANCH  35  36
ATOM     36  C   UNL A   1      37.016  22.878  25.892  1.00  0.00     0.202 C 
BRANCH  36  37
ATOM     37  C   UNL A   1      38.072  21.884  25.416  1.00  0.00     0.261 C 
BRANCH  37  38
ATOM     38  O   UNL A   1      39.298  22.009  26.092  1.00  0.00    -0.460 OA
BRANCH  38  39
ATOM     39  C   UNL A   1      40.054  20.899  26.040  1.00  0.00     0.338 C 
ATOM     40  O   UNL A   1      39.688  19.767  25.775  1.00  0.00    -0.246 OA
BRANCH  39  41
ATOM     41  C   UNL A   1      41.428  21.276  26.402  1.00  0.00     0.060 A 
ATOM     42  C   UNL A   1      41.756  20.995  27.725  1.00  0.00     0.016 A 
ATOM     43  C   UNL A   1      42.025  22.308  25.663  1.00  0.00     0.016 A 
ATOM     44  C   UNL A   1      42.284  22.032  28.440  1.00  0.00     0.010 A 
ATOM     45  C   UNL A   1      42.541  23.348  26.375  1.00  0.00     0.010 A 
ATOM     46  C   UNL A   1      42.500  23.233  27.760  1.00  0.00    -0.014 A 
BRANCH  46  47
ATOM     47  C   UNL A   1      42.563  24.423  28.559  1.00  0.00     0.031 A 
ATOM     48  C   UNL A   1      41.490  25.371  28.248  1.00  0.00     0.074 A 
ATOM     49  C   UNL A   1      43.493  24.570  29.516  1.00  0.00     0.049 A 
ATOM     50  N   UNL A   1      41.598  26.511  27.661  1.00  0.00    -0.248 NA
ATOM     51  C   UNL A   1      40.112  24.895  28.439  1.00  0.00     0.031 C 
ATOM     52  C   UNL A   1      44.403  23.576  30.093  1.00  0.00     0.029 A 
ATOM     53  N   UNL A   1      43.708  25.660  30.284  1.00  0.00    -0.354 N 
ATOM     54  C   UNL A   1      40.300  26.986  27.562  1.00  0.00     0.074 A 
ATOM     55  C   UNL A   1      39.427  25.878  27.863  1.00  0.00     0.031 C 
ATOM     56  C   UNL A   1      44.845  24.036  31.289  1.00  0.00     0.029 A 
ATOM     57  C   UNL A   1      44.345  25.389  31.481  1.00  0.00     0.049 A 
ATOM     58  H   UNL A   1      43.435  26.567  30.016  1.00  0.00     0.167 HD
ATOM     59  C   UNL A   1      40.031  28.315  27.507  1.00  0.00     0.031 A 
ATOM     60  C   UNL A   1      44.304  26.184  32.578  1.00  0.00     0.031 A 
ATOM     61  C   UNL A   1      41.195  29.097  27.187  1.00  0.00     0.049 A 
ATOM     62  C   UNL A   1      43.893  27.544  32.124  1.00  0.00     0.074 A 
ATOM     63  C   UNL A   1      42.060  29.137  26.109  1.00  0.00     0.029 A 
ATOM     64  N   UNL A   1      41.862  29.703  28.227  1.00  0.00    -0.354 N 
ATOM     65  N   UNL A   1      44.628  28.285  31.339  1.00  0.00    -0.248 NA
ATOM     66  C   UNL A   1      42.467  27.859  32.109  1.00  0.00     0.031 C 
ATOM     67  C   UNL A   1      43.354  29.305  26.686  1.00  0.00     0.029 A 
ATOM     68  C   UNL A   1      43.196  29.414  28.068  1.00  0.00     0.049 A 
ATOM     69  H   UNL A   1      41.460  30.239  28.947  1.00  0.00     0.167 HD
ATOM     70  C   UNL A   1      43.738  28.859  30.437  1.00  0.00     0.074 A 
ATOM     71  C   UNL A   1      42.413  28.627  31.014  1.00  0.00     0.031 C 
ATOM     72  C   UNL A   1      44.116  29.195  29.166  1.00  0.00     0.031 A 
BRANCH  59  73
ATOM     73  C   UNL A   1      38.807  28.896  28.148  1.00  0.00    -0.014 A 
ATOM     74  C   UNL A   1      38.672  28.831  29.540  1.00  0.00     0.009 A 
ATOM     75  C   UNL A   1      37.667  29.276  27.407  1.00  0.00     0.009 A 
ATOM     76  C   UNL A   1      37.443  29.095  30.154  1.00  0.00     0.001 A 
ATOM     77  C   UNL A   1      36.455  29.585  28.019  1.00  0.00     0.001 A 
ATOM     78  C   UNL A   1      36.337  29.470  29.394  1.00  0.00     0.000 A 
ENDBRANCH  59  73
BRANCH  60  79
ATOM     79  C   UNL A   1      44.170  25.705  33.976  1.00  0.00    -0.014 A 
ATOM     80  C   UNL A   1      44.448  26.539  35.068  1.00  0.00     0.009 A 
ATOM     81  C   UNL A   1      43.549  24.468  34.248  1.00  0.00     0.009 A 
ATOM     82  C   UNL A   1      44.111  26.148  36.375  1.00  0.00     0.001 A 
ATOM     83  C   UNL A   1      43.219  24.075  35.547  1.00  0.00     0.001 A 
ATOM     84  C   UNL A   1      43.493  24.921  36.613  1.00  0.00     0.000 A 
ENDBRANCH  60  79
BRANCH  72  85
ATOM     85  C   UNL A   1      45.574  29.050  28.792  1.00  0.00    -0.014 A 
ATOM     86  C   UNL A   1      46.487  30.118  28.875  1.00  0.00     0.009 A 
ATOM     87  C   UNL A   1      46.082  27.769  28.539  1.00  0.00     0.009 A 
ATOM     88  C   UNL A   1      47.859  29.913  28.688  1.00  0.00     0.001 A 
ATOM     89  C   UNL A   1      47.455  27.560  28.369  1.00  0.00     0.001 A 
ATOM     90  C   UNL A   1      48.342  28.632  28.440  1.00  0.00     0.000 A 
ENDBRANCH  72  85
ENDBRANCH  46  47
ENDBRANCH  39  41
ENDBRANCH  38  39
ENDBRANCH  37  38
ENDBRANCH  36  37
ENDBRANCH  35  36
ENDBRANCH  34  35
ENDBRANCH  33  34
ENDBRANCH  32  33
ENDBRANCH   1  32
TORSDOF 24
ENDMDL
