MODEL 1
REMARK VINA RESULT:      -8.0      0.000      0.000
REMARK SMILES CCCCCCNC(=O)Oc1cccc(-c2ccc([C@@H](C)C(=O)OCCOCCOCCOCCOC(=O)c3ccc(-c4c5nc(c(-c6ccccc6)c6ccc([nH]6)c(-c6ccccc6)c6nc(c(-c7ccccc7)c7ccc4[nH]7)C=C6)C=C5)cc3)cc2N)c1
REMARK SMILES IDX 26 1 25 2 24 3 22 4 23 5 20 6 21 7 19 8 16 9 17 10 88 11
REMARK SMILES IDX 18 12 87 13 15 14 11 15 12 16 90 17 13 18 14 19 10 20 8 21
REMARK SMILES IDX 7 22 9 24 6 25 5 26 4 27 3 28 2 29 1 30 89 31 27 34 28 35
REMARK SMILES IDX 29 36 30 37 31 38 32 39 33 40 34 41 35 42 36 43 37 44 38 45
REMARK SMILES IDX 39 46 40 47 86 48 41 49 85 50 42 51 43 52 44 53 79 54 45 55
REMARK SMILES IDX 84 56 78 57 80 58 46 59 83 60 77 61 76 62 47 64 69 65 54 66
REMARK SMILES IDX 68 67 55 68 58 69 67 70 81 71 56 72 57 73 66 75 82 76 59 77
REMARK SMILES IDX 48 78 49 79 53 80 50 81 52 82 51 83 70 84 71 85 75 86 72 87
REMARK SMILES IDX 74 88 73 89 60 90 61 91 65 92 62 93 64 94 63 95
REMARK H PARENT 7 23 89 32 89 33 80 63 58 74
REMARK Flexibility Score: inf
ROOT
ATOM      1  C   UNL A   1      46.057  23.714  27.120  1.00  0.00     0.202 C 
ENDROOT
BRANCH   1   2
ATOM      2  C   UNL A   1      45.008  23.214  26.108  1.00  0.00     0.261 C 
BRANCH   2   3
ATOM      3  O   UNL A   1      44.078  22.208  26.566  1.00  0.00    -0.463 OA
BRANCH   3   4
ATOM      4  C   UNL A   1      42.836  22.259  26.035  1.00  0.00     0.313 C 
ATOM      5  O   UNL A   1      42.616  22.525  24.854  1.00  0.00    -0.252 OA
BRANCH   4   6
ATOM      6  C   UNL A   1      41.680  22.003  27.001  1.00  0.00     0.126 C 
ATOM      7  C   UNL A   1      41.720  20.538  27.420  1.00  0.00     0.025 C 
BRANCH   6   8
ATOM      8  C   UNL A   1      40.252  22.444  26.676  1.00  0.00    -0.032 A 
ATOM      9  C   UNL A   1      37.553  23.140  25.975  1.00  0.00     0.005 A 
ATOM     10  C   UNL A   1      38.406  24.031  26.666  1.00  0.00     0.011 A 
ATOM     11  C   UNL A   1      38.073  21.872  25.635  1.00  0.00     0.040 A 
ATOM     12  C   UNL A   1      39.731  23.696  27.005  1.00  0.00     0.005 A 
ATOM     13  C   UNL A   1      39.396  21.545  25.998  1.00  0.00     0.030 A 
BRANCH   9  14
ATOM     14  C   UNL A   1      36.202  23.595  25.549  1.00  0.00    -0.013 A 
ATOM     15  C   UNL A   1      34.640  24.457  23.890  1.00  0.00     0.133 A 
ATOM     16  C   UNL A   1      33.668  24.663  24.867  1.00  0.00     0.047 A 
ATOM     17  C   UNL A   1      35.892  23.917  24.213  1.00  0.00     0.056 A 
ATOM     18  C   UNL A   1      33.944  24.315  26.184  1.00  0.00     0.004 A 
ATOM     19  C   UNL A   1      35.198  23.794  26.520  1.00  0.00     0.009 A 
BRANCH  15  20
ATOM     20  O   UNL A   1      34.352  24.980  22.613  1.00  0.00    -0.410 OA
BRANCH  20  21
ATOM     21  C   UNL A   1      33.038  25.190  22.227  1.00  0.00     0.412 C 
ATOM     22  N   UNL A   1      32.437  24.066  21.724  1.00  0.00    -0.321 N 
ATOM     23  H   UNL A   1      31.499  24.160  21.442  1.00  0.00     0.167 HD
ATOM     24  O   UNL A   1      32.431  26.252  22.295  1.00  0.00    -0.224 OA
BRANCH  22  25
ATOM     25  C   UNL A   1      33.029  22.749  21.560  1.00  0.00     0.119 C 
BRANCH  25  26
ATOM     26  C   UNL A   1      32.214  21.657  22.255  1.00  0.00     0.021 C 
BRANCH  26  27
ATOM     27  C   UNL A   1      32.644  21.342  23.694  1.00  0.00     0.002 C 
BRANCH  27  28
ATOM     28  C   UNL A   1      32.319  19.928  24.189  1.00  0.00    -0.000 C 
BRANCH  28  29
ATOM     29  C   UNL A   1      32.975  19.527  25.512  1.00  0.00    -0.003 C 
ATOM     30  C   UNL A   1      33.506  20.710  26.307  1.00  0.00     0.004 C 
ENDBRANCH  28  29
ENDBRANCH  27  28
ENDBRANCH  26  27
ENDBRANCH  25  26
ENDBRANCH  22  25
ENDBRANCH  20  21
ENDBRANCH  15  20
ENDBRANCH   9  14
BRANCH  11  31
ATOM     31  N   UNL A   1      37.296  20.880  25.034  1.00  0.00    -0.398 N 
ATOM     32  H   UNL A   1      37.650  19.966  24.942  1.00  0.00     0.156 HD
ATOM     33  H   UNL A   1      36.394  21.095  24.702  1.00  0.00     0.156 HD
ENDBRANCH  11  31
ENDBRANCH   6   8
ENDBRANCH   4   6
ENDBRANCH   3   4
ENDBRANCH   2   3
ENDBRANCH   1   2
BRANCH   1  34
ATOM     34  O   UNL A   1      45.706  23.982  28.470  1.00  0.00    -0.376 OA
BRANCH  34  35
ATOM     35  C   UNL A   1      44.860  25.076  28.799  1.00  0.00     0.188 C 
BRANCH  35  36
ATOM     36  C   UNL A   1      43.332  24.926  28.799  1.00  0.00     0.188 C 
BRANCH  36  37
ATOM     37  O   UNL A   1      42.669  25.554  27.721  1.00  0.00    -0.377 OA
BRANCH  37  38
ATOM     38  C   UNL A   1      42.695  26.971  27.711  1.00  0.00     0.188 C 
BRANCH  38  39
ATOM     39  C   UNL A   1      41.388  27.688  27.324  1.00  0.00     0.188 C 
BRANCH  39  40
ATOM     40  O   UNL A   1      40.230  27.162  27.963  1.00  0.00    -0.376 OA
BRANCH  40  41
ATOM     41  C   UNL A   1      40.206  27.082  29.382  1.00  0.00     0.202 C 
BRANCH  41  42
ATOM     42  C   UNL A   1      38.961  27.584  30.132  1.00  0.00     0.261 C 
BRANCH  42  43
ATOM     43  O   UNL A   1      38.663  28.982  30.033  1.00  0.00    -0.460 OA
BRANCH  43  44
ATOM     44  C   UNL A   1      37.647  29.485  30.764  1.00  0.00     0.338 C 
ATOM     45  O   UNL A   1      36.506  29.086  30.823  1.00  0.00    -0.246 OA
BRANCH  44  46
ATOM     46  C   UNL A   1      38.236  30.504  31.665  1.00  0.00     0.060 A 
ATOM     47  C   UNL A   1      39.344  30.165  32.455  1.00  0.00     0.016 A 
ATOM     48  C   UNL A   1      37.702  31.792  31.711  1.00  0.00     0.016 A 
ATOM     49  C   UNL A   1      39.897  31.104  33.329  1.00  0.00     0.010 A 
ATOM     50  C   UNL A   1      38.235  32.720  32.607  1.00  0.00     0.010 A 
ATOM     51  C   UNL A   1      39.308  32.370  33.446  1.00  0.00    -0.014 A 
BRANCH  51  52
ATOM     52  C   UNL A   1      39.624  33.246  34.599  1.00  0.00     0.031 A 
ATOM     53  C   UNL A   1      40.677  34.302  34.398  1.00  0.00     0.074 A 
ATOM     54  C   UNL A   1      39.040  33.092  35.799  1.00  0.00     0.049 A 
ATOM     55  N   UNL A   1      41.273  35.063  35.278  1.00  0.00    -0.248 NA
ATOM     56  C   UNL A   1      41.128  34.515  33.011  1.00  0.00     0.031 C 
ATOM     57  C   UNL A   1      37.958  32.161  36.106  1.00  0.00     0.029 A 
ATOM     58  N   UNL A   1      39.305  33.711  36.997  1.00  0.00    -0.354 N 
ATOM     59  C   UNL A   1      42.187  35.821  34.557  1.00  0.00     0.074 A 
ATOM     60  C   UNL A   1      42.078  35.423  33.171  1.00  0.00     0.031 C 
ATOM     61  C   UNL A   1      37.670  32.247  37.418  1.00  0.00     0.029 A 
ATOM     62  C   UNL A   1      38.583  33.201  38.048  1.00  0.00     0.049 A 
ATOM     63  H   UNL A   1      39.949  34.449  37.092  1.00  0.00     0.167 HD
ATOM     64  C   UNL A   1      43.049  36.761  35.010  1.00  0.00     0.031 A 
ATOM     65  C   UNL A   1      38.683  33.445  39.371  1.00  0.00     0.031 A 
ATOM     66  C   UNL A   1      43.166  37.140  36.390  1.00  0.00     0.049 A 
ATOM     67  C   UNL A   1      39.718  34.426  39.867  1.00  0.00     0.074 A 
ATOM     68  C   UNL A   1      44.003  38.086  36.953  1.00  0.00     0.029 A 
ATOM     69  N   UNL A   1      42.429  36.586  37.424  1.00  0.00    -0.354 N 
ATOM     70  N   UNL A   1      40.576  35.142  39.181  1.00  0.00    -0.248 NA
ATOM     71  C   UNL A   1      39.800  34.629  41.322  1.00  0.00     0.031 C 
ATOM     72  C   UNL A   1      43.818  38.057  38.338  1.00  0.00     0.029 A 
ATOM     73  C   UNL A   1      42.810  37.151  38.626  1.00  0.00     0.049 A 
ATOM     74  H   UNL A   1      41.737  35.893  37.317  1.00  0.00     0.167 HD
ATOM     75  C   UNL A   1      41.262  35.913  40.113  1.00  0.00     0.074 A 
ATOM     76  C   UNL A   1      40.725  35.576  41.414  1.00  0.00     0.031 C 
ATOM     77  C   UNL A   1      42.244  36.825  39.909  1.00  0.00     0.031 A 
BRANCH  64  78
ATOM     78  C   UNL A   1      43.968  37.403  34.010  1.00  0.00    -0.014 A 
ATOM     79  C   UNL A   1      45.177  36.800  33.631  1.00  0.00     0.009 A 
ATOM     80  C   UNL A   1      43.596  38.617  33.412  1.00  0.00     0.009 A 
ATOM     81  C   UNL A   1      46.009  37.417  32.694  1.00  0.00     0.001 A 
ATOM     82  C   UNL A   1      44.414  39.215  32.451  1.00  0.00     0.001 A 
ATOM     83  C   UNL A   1      45.624  38.620  32.101  1.00  0.00     0.000 A 
ENDBRANCH  64  78
BRANCH  65  84
ATOM     84  C   UNL A   1      37.812  32.721  40.337  1.00  0.00    -0.014 A 
ATOM     85  C   UNL A   1      36.437  32.991  40.406  1.00  0.00     0.009 A 
ATOM     86  C   UNL A   1      38.359  31.779  41.224  1.00  0.00     0.009 A 
ATOM     87  C   UNL A   1      35.635  32.360  41.360  1.00  0.00     0.001 A 
ATOM     88  C   UNL A   1      37.548  31.124  42.155  1.00  0.00     0.001 A 
ATOM     89  C   UNL A   1      36.190  31.424  42.231  1.00  0.00     0.000 A 
ENDBRANCH  65  84
BRANCH  77  90
ATOM     90  C   UNL A   1      42.757  37.592  41.096  1.00  0.00    -0.014 A 
ATOM     91  C   UNL A   1      42.150  38.780  41.527  1.00  0.00     0.009 A 
ATOM     92  C   UNL A   1      43.807  37.048  41.857  1.00  0.00     0.009 A 
ATOM     93  C   UNL A   1      42.595  39.415  42.689  1.00  0.00     0.001 A 
ATOM     94  C   UNL A   1      44.227  37.668  43.032  1.00  0.00     0.001 A 
ATOM     95  C   UNL A   1      43.624  38.854  43.445  1.00  0.00     0.000 A 
ENDBRANCH  77  90
ENDBRANCH  51  52
ENDBRANCH  44  46
ENDBRANCH  43  44
ENDBRANCH  42  43
ENDBRANCH  41  42
ENDBRANCH  40  41
ENDBRANCH  39  40
ENDBRANCH  38  39
ENDBRANCH  37  38
ENDBRANCH  36  37
ENDBRANCH  35  36
ENDBRANCH  34  35
ENDBRANCH   1  34
TORSDOF 30
ENDMDL
MODEL 2
REMARK VINA RESULT:      -7.8      2.388      4.176
REMARK SMILES CCCCCCNC(=O)Oc1cccc(-c2ccc([C@@H](C)C(=O)OCCOCCOCCOCCOC(=O)c3ccc(-c4c5nc(c(-c6ccccc6)c6ccc([nH]6)c(-c6ccccc6)c6nc(c(-c7ccccc7)c7ccc4[nH]7)C=C6)C=C5)cc3)cc2N)c1
REMARK SMILES IDX 26 1 25 2 24 3 22 4 23 5 20 6 21 7 19 8 16 9 17 10 88 11
REMARK SMILES IDX 18 12 87 13 15 14 11 15 12 16 90 17 13 18 14 19 10 20 8 21
REMARK SMILES IDX 7 22 9 24 6 25 5 26 4 27 3 28 2 29 1 30 89 31 27 34 28 35
REMARK SMILES IDX 29 36 30 37 31 38 32 39 33 40 34 41 35 42 36 43 37 44 38 45
REMARK SMILES IDX 39 46 40 47 86 48 41 49 85 50 42 51 43 52 44 53 79 54 45 55
REMARK SMILES IDX 84 56 78 57 80 58 46 59 83 60 77 61 76 62 47 64 69 65 54 66
REMARK SMILES IDX 68 67 55 68 58 69 67 70 81 71 56 72 57 73 66 75 82 76 59 77
REMARK SMILES IDX 48 78 49 79 53 80 50 81 52 82 51 83 70 84 71 85 75 86 72 87
REMARK SMILES IDX 74 88 73 89 60 90 61 91 65 92 62 93 64 94 63 95
REMARK H PARENT 7 23 89 32 89 33 80 63 58 74
REMARK Flexibility Score: inf
ROOT
ATOM      1  C   UNL A   1      46.094  23.683  27.096  1.00  0.00     0.202 C 
ENDROOT
BRANCH   1   2
ATOM      2  C   UNL A   1      45.160  23.079  26.030  1.00  0.00     0.261 C 
BRANCH   2   3
ATOM      3  O   UNL A   1      44.197  22.100  26.476  1.00  0.00    -0.463 OA
BRANCH   3   4
ATOM      4  C   UNL A   1      42.968  22.175  25.918  1.00  0.00     0.313 C 
ATOM      5  O   UNL A   1      42.767  22.601  24.780  1.00  0.00    -0.252 OA
BRANCH   4   6
ATOM      6  C   UNL A   1      41.800  21.733  26.798  1.00  0.00     0.126 C 
ATOM      7  C   UNL A   1      41.872  20.220  26.967  1.00  0.00     0.025 C 
BRANCH   6   8
ATOM      8  C   UNL A   1      40.367  22.188  26.516  1.00  0.00    -0.032 A 
ATOM      9  C   UNL A   1      37.654  22.908  25.901  1.00  0.00     0.005 A 
ATOM     10  C   UNL A   1      38.548  23.806  26.527  1.00  0.00     0.011 A 
ATOM     11  C   UNL A   1      38.139  21.621  25.583  1.00  0.00     0.040 A 
ATOM     12  C   UNL A   1      39.880  23.459  26.824  1.00  0.00     0.005 A 
ATOM     13  C   UNL A   1      39.470  21.283  25.903  1.00  0.00     0.030 A 
BRANCH   9  14
ATOM     14  C   UNL A   1      36.294  23.373  25.515  1.00  0.00    -0.013 A 
ATOM     15  C   UNL A   1      34.713  24.336  23.931  1.00  0.00     0.133 A 
ATOM     16  C   UNL A   1      33.741  24.449  24.923  1.00  0.00     0.047 A 
ATOM     17  C   UNL A   1      35.975  23.794  24.209  1.00  0.00     0.056 A 
ATOM     18  C   UNL A   1      34.027  24.004  26.208  1.00  0.00     0.004 A 
ATOM     19  C   UNL A   1      35.291  23.478  26.499  1.00  0.00     0.009 A 
BRANCH  15  20
ATOM     20  O   UNL A   1      34.413  24.953  22.700  1.00  0.00    -0.410 OA
BRANCH  20  21
ATOM     21  C   UNL A   1      33.110  25.320  22.405  1.00  0.00     0.412 C 
ATOM     22  N   UNL A   1      32.416  24.349  21.732  1.00  0.00    -0.321 N 
ATOM     23  H   UNL A   1      31.481  24.557  21.505  1.00  0.00     0.167 HD
ATOM     24  O   UNL A   1      32.585  26.392  22.681  1.00  0.00    -0.224 OA
BRANCH  22  25
ATOM     25  C   UNL A   1      32.904  23.045  21.315  1.00  0.00     0.119 C 
BRANCH  25  26
ATOM     26  C   UNL A   1      32.173  21.901  22.019  1.00  0.00     0.021 C 
BRANCH  26  27
ATOM     27  C   UNL A   1      32.820  21.424  23.326  1.00  0.00     0.002 C 
BRANCH  27  28
ATOM     28  C   UNL A   1      32.471  19.994  23.756  1.00  0.00    -0.000 C 
BRANCH  28  29
ATOM     29  C   UNL A   1      32.537  19.723  25.260  1.00  0.00    -0.003 C 
ATOM     30  C   UNL A   1      33.806  20.247  25.914  1.00  0.00     0.004 C 
ENDBRANCH  28  29
ENDBRANCH  27  28
ENDBRANCH  26  27
ENDBRANCH  25  26
ENDBRANCH  22  25
ENDBRANCH  20  21
ENDBRANCH  15  20
ENDBRANCH   9  14
BRANCH  11  31
ATOM     31  N   UNL A   1      37.322  20.624  25.047  1.00  0.00    -0.398 N 
ATOM     32  H   UNL A   1      37.725  19.823  24.640  1.00  0.00     0.156 HD
ATOM     33  H   UNL A   1      36.343  20.722  25.075  1.00  0.00     0.156 HD
ENDBRANCH  11  31
ENDBRANCH   6   8
ENDBRANCH   4   6
ENDBRANCH   3   4
ENDBRANCH   2   3
ENDBRANCH   1   2
BRANCH   1  34
ATOM     34  O   UNL A   1      45.602  24.069  28.371  1.00  0.00    -0.376 OA
BRANCH  34  35
ATOM     35  C   UNL A   1      44.739  25.190  28.510  1.00  0.00     0.188 C 
BRANCH  35  36
ATOM     36  C   UNL A   1      43.225  25.059  28.287  1.00  0.00     0.188 C 
BRANCH  36  37
ATOM     37  O   UNL A   1      42.749  25.610  27.075  1.00  0.00    -0.377 OA
BRANCH  37  38
ATOM     38  C   UNL A   1      42.645  27.022  27.029  1.00  0.00     0.188 C 
BRANCH  38  39
ATOM     39  C   UNL A   1      41.330  27.606  26.480  1.00  0.00     0.188 C 
BRANCH  39  40
ATOM     40  O   UNL A   1      40.162  26.944  26.955  1.00  0.00    -0.376 OA
BRANCH  40  41
ATOM     41  C   UNL A   1      39.928  26.888  28.356  1.00  0.00     0.202 C 
BRANCH  41  42
ATOM     42  C   UNL A   1      38.787  27.730  28.952  1.00  0.00     0.261 C 
BRANCH  42  43
ATOM     43  O   UNL A   1      38.706  29.099  28.537  1.00  0.00    -0.460 OA
BRANCH  43  44
ATOM     44  C   UNL A   1      37.943  29.952  29.251  1.00  0.00     0.338 C 
ATOM     45  O   UNL A   1      36.816  29.781  29.654  1.00  0.00    -0.246 OA
BRANCH  44  46
ATOM     46  C   UNL A   1      38.823  31.078  29.648  1.00  0.00     0.060 A 
ATOM     47  C   UNL A   1      40.115  30.807  30.120  1.00  0.00     0.016 A 
ATOM     48  C   UNL A   1      38.372  32.393  29.536  1.00  0.00     0.016 A 
ATOM     49  C   UNL A   1      40.949  31.853  30.523  1.00  0.00     0.010 A 
ATOM     50  C   UNL A   1      39.194  33.436  29.967  1.00  0.00     0.010 A 
ATOM     51  C   UNL A   1      40.470  33.168  30.497  1.00  0.00    -0.014 A 
BRANCH  51  52
ATOM     52  C   UNL A   1      41.168  34.241  31.245  1.00  0.00     0.031 A 
ATOM     53  C   UNL A   1      42.226  35.019  30.511  1.00  0.00     0.074 A 
ATOM     54  C   UNL A   1      40.914  34.497  32.539  1.00  0.00     0.049 A 
ATOM     55  N   UNL A   1      43.108  35.867  30.974  1.00  0.00    -0.248 NA
ATOM     56  C   UNL A   1      42.307  34.797  29.057  1.00  0.00     0.031 C 
ATOM     57  C   UNL A   1      39.868  33.868  33.342  1.00  0.00     0.029 A 
ATOM     58  N   UNL A   1      41.550  35.344  33.414  1.00  0.00    -0.354 N 
ATOM     59  C   UNL A   1      43.864  36.253  29.875  1.00  0.00     0.074 A 
ATOM     60  C   UNL A   1      43.350  35.542  28.726  1.00  0.00     0.031 C 
ATOM     61  C   UNL A   1      39.953  34.331  34.603  1.00  0.00     0.029 A 
ATOM     62  C   UNL A   1      41.090  35.245  34.704  1.00  0.00     0.049 A 
ATOM     63  H   UNL A   1      42.265  35.963  33.142  1.00  0.00     0.167 HD
ATOM     64  C   UNL A   1      44.904  37.118  29.827  1.00  0.00     0.031 A 
ATOM     65  C   UNL A   1      41.564  35.795  35.841  1.00  0.00     0.031 A 
ATOM     66  C   UNL A   1      45.423  37.809  30.975  1.00  0.00     0.049 A 
ATOM     67  C   UNL A   1      42.786  36.681  35.782  1.00  0.00     0.074 A 
ATOM     68  C   UNL A   1      46.470  38.712  31.033  1.00  0.00     0.029 A 
ATOM     69  N   UNL A   1      44.940  37.666  32.265  1.00  0.00    -0.354 N 
ATOM     70  N   UNL A   1      43.494  37.046  34.740  1.00  0.00    -0.248 NA
ATOM     71  C   UNL A   1      43.275  37.228  37.057  1.00  0.00     0.031 C 
ATOM     72  C   UNL A   1      46.661  39.065  32.371  1.00  0.00     0.029 A 
ATOM     73  C   UNL A   1      45.683  38.445  33.132  1.00  0.00     0.049 A 
ATOM     74  H   UNL A   1      44.181  37.095  32.524  1.00  0.00     0.167 HD
ATOM     75  C   UNL A   1      44.477  37.901  35.227  1.00  0.00     0.074 A 
ATOM     76  C   UNL A   1      44.278  37.998  36.657  1.00  0.00     0.031 C 
ATOM     77  C   UNL A   1      45.453  38.553  34.549  1.00  0.00     0.031 A 
BRANCH  64  78
ATOM     78  C   UNL A   1      45.580  37.323  28.501  1.00  0.00    -0.014 A 
ATOM     79  C   UNL A   1      45.283  38.429  27.689  1.00  0.00     0.009 A 
ATOM     80  C   UNL A   1      46.556  36.410  28.075  1.00  0.00     0.009 A 
ATOM     81  C   UNL A   1      45.931  38.598  26.463  1.00  0.00     0.001 A 
ATOM     82  C   UNL A   1      47.226  36.599  26.865  1.00  0.00     0.001 A 
ATOM     83  C   UNL A   1      46.906  37.687  26.056  1.00  0.00     0.000 A 
ENDBRANCH  64  78
BRANCH  65  84
ATOM     84  C   UNL A   1      40.918  35.496  37.148  1.00  0.00    -0.014 A 
ATOM     85  C   UNL A   1      41.264  34.344  37.873  1.00  0.00     0.009 A 
ATOM     86  C   UNL A   1      39.922  36.342  37.663  1.00  0.00     0.009 A 
ATOM     87  C   UNL A   1      40.606  34.031  39.065  1.00  0.00     0.001 A 
ATOM     88  C   UNL A   1      39.289  36.043  38.872  1.00  0.00     0.001 A 
ATOM     89  C   UNL A   1      39.623  34.883  39.567  1.00  0.00     0.000 A 
ENDBRANCH  65  84
BRANCH  77  90
ATOM     90  C   UNL A   1      46.338  39.497  35.314  1.00  0.00    -0.014 A 
ATOM     91  C   UNL A   1      47.563  39.084  35.859  1.00  0.00     0.009 A 
ATOM     92  C   UNL A   1      45.979  40.853  35.396  1.00  0.00     0.009 A 
ATOM     93  C   UNL A   1      48.402  40.010  36.483  1.00  0.00     0.001 A 
ATOM     94  C   UNL A   1      46.833  41.780  35.992  1.00  0.00     0.001 A 
ATOM     95  C   UNL A   1      48.042  41.357  36.539  1.00  0.00     0.000 A 
ENDBRANCH  77  90
ENDBRANCH  51  52
ENDBRANCH  44  46
ENDBRANCH  43  44
ENDBRANCH  42  43
ENDBRANCH  41  42
ENDBRANCH  40  41
ENDBRANCH  39  40
ENDBRANCH  38  39
ENDBRANCH  37  38
ENDBRANCH  36  37
ENDBRANCH  35  36
ENDBRANCH  34  35
ENDBRANCH   1  34
TORSDOF 30
ENDMDL
MODEL 3
REMARK VINA RESULT:      -7.8      2.631      4.370
REMARK SMILES CCCCCCNC(=O)Oc1cccc(-c2ccc([C@@H](C)C(=O)OCCOCCOCCOCCOC(=O)c3ccc(-c4c5nc(c(-c6ccccc6)c6ccc([nH]6)c(-c6ccccc6)c6nc(c(-c7ccccc7)c7ccc4[nH]7)C=C6)C=C5)cc3)cc2N)c1
REMARK SMILES IDX 26 1 25 2 24 3 22 4 23 5 20 6 21 7 19 8 16 9 17 10 88 11
REMARK SMILES IDX 18 12 87 13 15 14 11 15 12 16 90 17 13 18 14 19 10 20 8 21
REMARK SMILES IDX 7 22 9 24 6 25 5 26 4 27 3 28 2 29 1 30 89 31 27 34 28 35
REMARK SMILES IDX 29 36 30 37 31 38 32 39 33 40 34 41 35 42 36 43 37 44 38 45
REMARK SMILES IDX 39 46 40 47 86 48 41 49 85 50 42 51 43 52 44 53 79 54 45 55
REMARK SMILES IDX 84 56 78 57 80 58 46 59 83 60 77 61 76 62 47 64 69 65 54 66
REMARK SMILES IDX 68 67 55 68 58 69 67 70 81 71 56 72 57 73 66 75 82 76 59 77
REMARK SMILES IDX 48 78 49 79 53 80 50 81 52 82 51 83 70 84 71 85 75 86 72 87
REMARK SMILES IDX 74 88 73 89 60 90 61 91 65 92 62 93 64 94 63 95
REMARK H PARENT 7 23 89 32 89 33 80 63 58 74
REMARK Flexibility Score: inf
ROOT
ATOM      1  C   UNL A   1      46.292  23.575  26.944  1.00  0.00     0.202 C 
ENDROOT
BRANCH   1   2
ATOM      2  C   UNL A   1      45.336  22.620  26.203  1.00  0.00     0.261 C 
BRANCH   2   3
ATOM      3  O   UNL A   1      44.235  22.071  26.958  1.00  0.00    -0.463 OA
BRANCH   3   4
ATOM      4  C   UNL A   1      43.129  21.748  26.250  1.00  0.00     0.313 C 
ATOM      5  O   UNL A   1      43.088  21.757  25.020  1.00  0.00    -0.252 OA
BRANCH   4   6
ATOM      6  C   UNL A   1      41.885  21.401  27.066  1.00  0.00     0.126 C 
ATOM      7  C   UNL A   1      42.020  19.964  27.559  1.00  0.00     0.025 C 
BRANCH   6   8
ATOM      8  C   UNL A   1      40.476  21.670  26.533  1.00  0.00    -0.032 A 
ATOM      9  C   UNL A   1      37.827  22.309  25.622  1.00  0.00     0.005 A 
ATOM     10  C   UNL A   1      38.447  21.073  25.330  1.00  0.00     0.011 A 
ATOM     11  C   UNL A   1      38.563  23.242  26.386  1.00  0.00     0.040 A 
ATOM     12  C   UNL A   1      39.742  20.754  25.780  1.00  0.00     0.005 A 
ATOM     13  C   UNL A   1      39.865  22.914  26.813  1.00  0.00     0.030 A 
BRANCH   9  14
ATOM     14  C   UNL A   1      36.416  22.542  25.210  1.00  0.00    -0.013 A 
ATOM     15  C   UNL A   1      34.012  22.421  25.588  1.00  0.00     0.133 A 
ATOM     16  C   UNL A   1      33.756  22.801  24.273  1.00  0.00     0.047 A 
ATOM     17  C   UNL A   1      35.323  22.302  26.067  1.00  0.00     0.056 A 
ATOM     18  C   UNL A   1      34.822  23.078  23.424  1.00  0.00     0.004 A 
ATOM     19  C   UNL A   1      36.135  22.943  23.888  1.00  0.00     0.009 A 
BRANCH  15  20
ATOM     20  O   UNL A   1      32.895  22.002  26.338  1.00  0.00    -0.410 OA
BRANCH  20  21
ATOM     21  C   UNL A   1      31.783  21.478  25.698  1.00  0.00     0.412 C 
ATOM     22  N   UNL A   1      30.660  22.248  25.852  1.00  0.00    -0.321 N 
ATOM     23  H   UNL A   1      29.844  21.924  25.409  1.00  0.00     0.167 HD
ATOM     24  O   UNL A   1      31.749  20.434  25.058  1.00  0.00    -0.224 OA
BRANCH  22  25
ATOM     25  C   UNL A   1      30.539  23.490  26.596  1.00  0.00     0.119 C 
BRANCH  25  26
ATOM     26  C   UNL A   1      30.652  24.720  25.692  1.00  0.00     0.021 C 
BRANCH  26  27
ATOM     27  C   UNL A   1      31.916  25.564  25.899  1.00  0.00     0.002 C 
BRANCH  27  28
ATOM     28  C   UNL A   1      32.128  26.700  24.892  1.00  0.00    -0.000 C 
BRANCH  28  29
ATOM     29  C   UNL A   1      30.980  27.705  24.780  1.00  0.00    -0.003 C 
ATOM     30  C   UNL A   1      30.184  27.573  23.490  1.00  0.00     0.004 C 
ENDBRANCH  28  29
ENDBRANCH  27  28
ENDBRANCH  26  27
ENDBRANCH  25  26
ENDBRANCH  22  25
ENDBRANCH  20  21
ENDBRANCH  15  20
ENDBRANCH   9  14
BRANCH  11  31
ATOM     31  N   UNL A   1      38.089  24.527  26.657  1.00  0.00    -0.398 N 
ATOM     32  H   UNL A   1      38.290  25.267  26.038  1.00  0.00     0.156 HD
ATOM     33  H   UNL A   1      37.555  24.694  27.467  1.00  0.00     0.156 HD
ENDBRANCH  11  31
ENDBRANCH   6   8
ENDBRANCH   4   6
ENDBRANCH   3   4
ENDBRANCH   2   3
ENDBRANCH   1   2
BRANCH   1  34
ATOM     34  O   UNL A   1      45.893  24.230  28.139  1.00  0.00    -0.376 OA
BRANCH  34  35
ATOM     35  C   UNL A   1      45.103  25.411  28.093  1.00  0.00     0.188 C 
BRANCH  35  36
ATOM     36  C   UNL A   1      43.576  25.340  27.945  1.00  0.00     0.188 C 
BRANCH  36  37
ATOM     37  O   UNL A   1      43.084  25.665  26.661  1.00  0.00    -0.377 OA
BRANCH  37  38
ATOM     38  C   UNL A   1      42.699  27.014  26.462  1.00  0.00     0.188 C 
BRANCH  38  39
ATOM     39  C   UNL A   1      41.219  27.273  26.121  1.00  0.00     0.188 C 
BRANCH  39  40
ATOM     40  O   UNL A   1      40.304  26.547  26.934  1.00  0.00    -0.376 OA
BRANCH  40  41
ATOM     41  C   UNL A   1      40.204  26.873  28.314  1.00  0.00     0.202 C 
BRANCH  41  42
ATOM     42  C   UNL A   1      38.930  27.570  28.820  1.00  0.00     0.261 C 
BRANCH  42  43
ATOM     43  O   UNL A   1      38.689  28.903  28.352  1.00  0.00    -0.460 OA
BRANCH  43  44
ATOM     44  C   UNL A   1      37.874  29.707  29.065  1.00  0.00     0.338 C 
ATOM     45  O   UNL A   1      36.739  29.487  29.421  1.00  0.00    -0.246 OA
BRANCH  44  46
ATOM     46  C   UNL A   1      38.703  30.845  29.531  1.00  0.00     0.060 A 
ATOM     47  C   UNL A   1      39.985  30.598  30.042  1.00  0.00     0.016 A 
ATOM     48  C   UNL A   1      38.215  32.149  29.447  1.00  0.00     0.016 A 
ATOM     49  C   UNL A   1      40.771  31.654  30.510  1.00  0.00     0.010 A 
ATOM     50  C   UNL A   1      38.986  33.201  29.943  1.00  0.00     0.010 A 
ATOM     51  C   UNL A   1      40.250  32.954  30.511  1.00  0.00    -0.014 A 
BRANCH  51  52
ATOM     52  C   UNL A   1      40.886  34.022  31.319  1.00  0.00     0.031 A 
ATOM     53  C   UNL A   1      41.896  34.902  30.631  1.00  0.00     0.074 A 
ATOM     54  C   UNL A   1      40.622  34.188  32.625  1.00  0.00     0.049 A 
ATOM     55  N   UNL A   1      42.728  35.771  31.142  1.00  0.00    -0.248 NA
ATOM     56  C   UNL A   1      41.985  34.767  29.167  1.00  0.00     0.031 C 
ATOM     57  C   UNL A   1      39.617  33.454  33.390  1.00  0.00     0.029 A 
ATOM     58  N   UNL A   1      41.209  35.020  33.547  1.00  0.00    -0.354 N 
ATOM     59  C   UNL A   1      43.457  36.263  30.067  1.00  0.00     0.074 A 
ATOM     60  C   UNL A   1      42.981  35.590  28.879  1.00  0.00     0.031 C 
ATOM     61  C   UNL A   1      39.678  33.848  34.676  1.00  0.00     0.029 A 
ATOM     62  C   UNL A   1      40.760  34.820  34.830  1.00  0.00     0.049 A 
ATOM     63  H   UNL A   1      41.887  35.694  33.312  1.00  0.00     0.167 HD
ATOM     64  C   UNL A   1      44.444  37.189  30.069  1.00  0.00     0.031 A 
ATOM     65  C   UNL A   1      41.205  35.330  35.996  1.00  0.00     0.031 A 
ATOM     66  C   UNL A   1      44.925  37.843  31.255  1.00  0.00     0.049 A 
ATOM     67  C   UNL A   1      42.372  36.288  35.989  1.00  0.00     0.074 A 
ATOM     68  C   UNL A   1      45.917  38.801  31.365  1.00  0.00     0.029 A 
ATOM     69  N   UNL A   1      44.455  37.598  32.535  1.00  0.00    -0.354 N 
ATOM     70  N   UNL A   1      43.055  36.754  34.970  1.00  0.00    -0.248 NA
ATOM     71  C   UNL A   1      42.832  36.790  37.293  1.00  0.00     0.031 C 
ATOM     72  C   UNL A   1      46.091  39.087  32.721  1.00  0.00     0.029 A 
ATOM     73  C   UNL A   1      45.153  38.368  33.445  1.00  0.00     0.049 A 
ATOM     74  H   UNL A   1      43.731  36.970  32.761  1.00  0.00     0.167 HD
ATOM     75  C   UNL A   1      43.987  37.635  35.506  1.00  0.00     0.074 A 
ATOM     76  C   UNL A   1      43.788  37.639  36.939  1.00  0.00     0.031 C 
ATOM     77  C   UNL A   1      44.921  38.381  34.866  1.00  0.00     0.031 A 
BRANCH  64  78
ATOM     78  C   UNL A   1      45.103  37.509  28.757  1.00  0.00    -0.014 A 
ATOM     79  C   UNL A   1      46.198  36.770  28.287  1.00  0.00     0.009 A 
ATOM     80  C   UNL A   1      44.592  38.548  27.964  1.00  0.00     0.009 A 
ATOM     81  C   UNL A   1      46.788  37.085  27.060  1.00  0.00     0.001 A 
ATOM     82  C   UNL A   1      45.161  38.840  26.724  1.00  0.00     0.001 A 
ATOM     83  C   UNL A   1      46.264  38.115  26.278  1.00  0.00     0.000 A 
ENDBRANCH  64  78
BRANCH  65  84
ATOM     84  C   UNL A   1      40.581  34.920  37.284  1.00  0.00    -0.014 A 
ATOM     85  C   UNL A   1      39.583  35.705  37.881  1.00  0.00     0.009 A 
ATOM     86  C   UNL A   1      41.006  33.755  37.944  1.00  0.00     0.009 A 
ATOM     87  C   UNL A   1      39.048  35.353  39.122  1.00  0.00     0.001 A 
ATOM     88  C   UNL A   1      40.446  33.387  39.170  1.00  0.00     0.001 A 
ATOM     89  C   UNL A   1      39.476  34.192  39.764  1.00  0.00     0.000 A 
ENDBRANCH  65  84
BRANCH  77  90
ATOM     90  C   UNL A   1      45.752  39.330  35.685  1.00  0.00    -0.014 A 
ATOM     91  C   UNL A   1      45.377  40.669  35.871  1.00  0.00     0.009 A 
ATOM     92  C   UNL A   1      46.877  38.837  36.367  1.00  0.00     0.009 A 
ATOM     93  C   UNL A   1      46.124  41.496  36.713  1.00  0.00     0.001 A 
ATOM     94  C   UNL A   1      47.600  39.657  37.231  1.00  0.00     0.001 A 
ATOM     95  C   UNL A   1      47.226  40.987  37.401  1.00  0.00     0.000 A 
ENDBRANCH  77  90
ENDBRANCH  51  52
ENDBRANCH  44  46
ENDBRANCH  43  44
ENDBRANCH  42  43
ENDBRANCH  41  42
ENDBRANCH  40  41
ENDBRANCH  39  40
ENDBRANCH  38  39
ENDBRANCH  37  38
ENDBRANCH  36  37
ENDBRANCH  35  36
ENDBRANCH  34  35
ENDBRANCH   1  34
TORSDOF 30
ENDMDL
