MODEL 1
REMARK VINA RESULT:      -8.9      0.000      0.000
REMARK SMILES O=C(CN(CC(F)(F)F)S(=O)(=O)c1cccc(F)c1)OCCOCCOCCOCCOC(=O)c1ccc(-c2c3nc(c(-c4ccccc4)c4ccc([nH]4)c(-c4ccccc4)c4nc(c(-c5ccccc5)c5ccc2[nH]5)C=C4)C=C3)cc1
REMARK SMILES IDX 25 1 24 2 23 3 22 4 21 5 20 6 2 7 1 8 3 9 4 10 5 11 6 12
REMARK SMILES IDX 7 13 8 14 9 15 10 16 11 17 12 18 13 19 14 20 19 21 15 22
REMARK SMILES IDX 17 23 16 24 18 25 26 26 27 27 28 28 29 29 30 30 31 31 32 32
REMARK SMILES IDX 33 33 34 34 35 35 36 36 82 37 37 38 81 39 38 40 39 41 40 42
REMARK SMILES IDX 75 43 41 44 80 45 74 46 76 47 42 48 79 49 73 50 72 51 43 53
REMARK SMILES IDX 65 54 50 55 64 56 51 57 54 58 63 59 77 60 52 61 53 62 62 64
REMARK SMILES IDX 78 65 55 66 44 67 45 68 49 69 46 70 48 71 47 72 66 73 67 74
REMARK SMILES IDX 71 75 68 76 70 77 69 78 56 79 57 80 61 81 58 82 60 83 59 84
REMARK H PARENT 76 52 54 63
REMARK Flexibility Score: inf
ROOT
ATOM      1  C   UNL A   1      39.161  21.615  26.124  1.00  0.00     0.188 C 
ENDROOT
BRANCH   1   2
ATOM      2  C   UNL A   1      38.190  22.730  25.718  1.00  0.00     0.188 C 
BRANCH   2   3
ATOM      3  O   UNL A   1      36.788  22.783  25.986  1.00  0.00    -0.376 OA
BRANCH   3   4
ATOM      4  C   UNL A   1      35.730  22.055  25.398  1.00  0.00     0.202 C 
BRANCH   4   5
ATOM      5  C   UNL A   1      34.278  22.228  25.830  1.00  0.00     0.261 C 
BRANCH   5   6
ATOM      6  O   UNL A   1      33.303  22.036  24.813  1.00  0.00    -0.462 OA
BRANCH   6   7
ATOM      7  C   UNL A   1      31.970  21.957  25.043  1.00  0.00     0.321 C 
ATOM      8  O   UNL A   1      31.480  20.856  25.291  1.00  0.00    -0.251 OA
BRANCH   7   9
ATOM      9  C   UNL A   1      31.087  23.165  24.785  1.00  0.00     0.225 C 
BRANCH   9  10
ATOM     10  N   UNL A   1      31.715  24.514  24.812  1.00  0.00    -0.178 NA
BRANCH  10  11
ATOM     11  C   UNL A   1      32.093  24.978  23.412  1.00  0.00     0.218 C 
BRANCH  11  12
ATOM     12  C   UNL A   1      33.455  25.653  23.190  1.00  0.00     0.402 C 
ATOM     13  F   UNL A   1      34.328  25.401  24.180  1.00  0.00    -0.170 F 
ATOM     14  F   UNL A   1      34.010  25.170  22.050  1.00  0.00    -0.170 F 
ATOM     15  F   UNL A   1      33.339  26.989  23.038  1.00  0.00    -0.170 F 
ENDBRANCH  11  12
ENDBRANCH  10  11
BRANCH  10  16
ATOM     16  S   UNL A   1      30.799  25.540  25.814  1.00  0.00     0.244 S 
ATOM     17  O   UNL A   1      29.470  24.996  25.910  1.00  0.00    -0.207 OA
ATOM     18  O   UNL A   1      31.606  25.757  26.998  1.00  0.00    -0.207 OA
BRANCH  16  19
ATOM     19  C   UNL A   1      30.721  27.080  24.955  1.00  0.00     0.085 A 
ATOM     20  C   UNL A   1      29.811  27.251  23.909  1.00  0.00     0.022 A 
ATOM     21  C   UNL A   1      31.475  28.156  25.430  1.00  0.00     0.061 A 
ATOM     22  C   UNL A   1      29.688  28.499  23.299  1.00  0.00     0.004 A 
ATOM     23  C   UNL A   1      31.310  29.400  24.840  1.00  0.00     0.124 A 
ATOM     24  C   UNL A   1      30.432  29.579  23.775  1.00  0.00     0.039 A 
ATOM     25  F   UNL A   1      31.989  30.450  25.318  1.00  0.00    -0.207 F 
ENDBRANCH  16  19
ENDBRANCH  10  16
ENDBRANCH   9  10
ENDBRANCH   7   9
ENDBRANCH   6   7
ENDBRANCH   5   6
ENDBRANCH   4   5
ENDBRANCH   3   4
ENDBRANCH   2   3
ENDBRANCH   1   2
BRANCH   1  26
ATOM     26  O   UNL A   1      40.527  21.939  26.307  1.00  0.00    -0.377 OA
BRANCH  26  27
ATOM     27  C   UNL A   1      41.064  21.501  27.536  1.00  0.00     0.188 C 
BRANCH  27  28
ATOM     28  C   UNL A   1      42.407  20.770  27.363  1.00  0.00     0.188 C 
BRANCH  28  29
ATOM     29  O   UNL A   1      42.784  20.476  26.035  1.00  0.00    -0.376 OA
BRANCH  29  30
ATOM     30  C   UNL A   1      43.888  21.117  25.409  1.00  0.00     0.202 C 
BRANCH  30  31
ATOM     31  C   UNL A   1      43.855  22.146  24.255  1.00  0.00     0.261 C 
BRANCH  31  32
ATOM     32  O   UNL A   1      43.520  23.504  24.533  1.00  0.00    -0.460 OA
BRANCH  32  33
ATOM     33  C   UNL A   1      44.496  24.313  24.995  1.00  0.00     0.338 C 
ATOM     34  O   UNL A   1      45.617  24.453  24.546  1.00  0.00    -0.246 OA
BRANCH  33  35
ATOM     35  C   UNL A   1      43.863  25.195  26.002  1.00  0.00     0.060 A 
ATOM     36  C   UNL A   1      44.100  26.576  25.926  1.00  0.00     0.016 A 
ATOM     37  C   UNL A   1      42.959  24.685  26.937  1.00  0.00     0.016 A 
ATOM     38  C   UNL A   1      43.421  27.452  26.773  1.00  0.00     0.010 A 
ATOM     39  C   UNL A   1      42.321  25.558  27.820  1.00  0.00     0.010 A 
ATOM     40  C   UNL A   1      42.556  26.942  27.747  1.00  0.00    -0.014 A 
BRANCH  40  41
ATOM     41  C   UNL A   1      42.043  27.827  28.818  1.00  0.00     0.031 A 
ATOM     42  C   UNL A   1      42.818  27.892  30.103  1.00  0.00     0.074 A 
ATOM     43  C   UNL A   1      40.909  28.534  28.667  1.00  0.00     0.049 A 
ATOM     44  N   UNL A   1      42.513  28.487  31.225  1.00  0.00    -0.248 NA
ATOM     45  C   UNL A   1      44.112  27.187  30.125  1.00  0.00     0.031 C 
ATOM     46  C   UNL A   1      40.101  28.597  27.450  1.00  0.00     0.029 A 
ATOM     47  N   UNL A   1      40.230  29.321  29.563  1.00  0.00    -0.354 N 
ATOM     48  C   UNL A   1      43.561  28.210  32.092  1.00  0.00     0.074 A 
ATOM     49  C   UNL A   1      44.510  27.393  31.371  1.00  0.00     0.031 C 
ATOM     50  C   UNL A   1      39.016  29.355  27.688  1.00  0.00     0.029 A 
ATOM     51  C   UNL A   1      39.030  29.791  29.083  1.00  0.00     0.049 A 
ATOM     52  H   UNL A   1      40.569  29.529  30.464  1.00  0.00     0.167 HD
ATOM     53  C   UNL A   1      43.711  28.594  33.379  1.00  0.00     0.031 A 
ATOM     54  C   UNL A   1      38.040  30.453  29.717  1.00  0.00     0.031 A 
ATOM     55  C   UNL A   1      42.759  29.395  34.097  1.00  0.00     0.049 A 
ATOM     56  C   UNL A   1      38.195  30.784  31.181  1.00  0.00     0.074 A 
ATOM     57  C   UNL A   1      42.840  29.865  35.395  1.00  0.00     0.029 A 
ATOM     58  N   UNL A   1      41.547  29.827  33.585  1.00  0.00    -0.354 N 
ATOM     59  N   UNL A   1      39.212  30.563  31.978  1.00  0.00    -0.248 NA
ATOM     60  C   UNL A   1      37.058  31.452  31.834  1.00  0.00     0.031 C 
ATOM     61  C   UNL A   1      41.641  30.518  35.695  1.00  0.00     0.029 A 
ATOM     62  C   UNL A   1      40.847  30.516  34.560  1.00  0.00     0.049 A 
ATOM     63  H   UNL A   1      41.231  29.667  32.667  1.00  0.00     0.167 HD
ATOM     64  C   UNL A   1      38.847  31.085  33.215  1.00  0.00     0.074 A 
ATOM     65  C   UNL A   1      37.527  31.656  33.057  1.00  0.00     0.031 C 
ATOM     66  C   UNL A   1      39.537  31.084  34.382  1.00  0.00     0.031 A 
BRANCH  53  67
ATOM     67  C   UNL A   1      44.925  28.114  34.120  1.00  0.00    -0.014 A 
ATOM     68  C   UNL A   1      46.089  28.891  34.203  1.00  0.00     0.009 A 
ATOM     69  C   UNL A   1      44.869  26.893  34.811  1.00  0.00     0.009 A 
ATOM     70  C   UNL A   1      47.178  28.450  34.958  1.00  0.00     0.001 A 
ATOM     71  C   UNL A   1      45.948  26.467  35.586  1.00  0.00     0.001 A 
ATOM     72  C   UNL A   1      47.102  27.244  35.656  1.00  0.00     0.000 A 
ENDBRANCH  53  67
BRANCH  54  73
ATOM     73  C   UNL A   1      36.774  30.786  29.007  1.00  0.00    -0.014 A 
ATOM     74  C   UNL A   1      35.824  29.794  28.717  1.00  0.00     0.009 A 
ATOM     75  C   UNL A   1      36.541  32.094  28.549  1.00  0.00     0.009 A 
ATOM     76  C   UNL A   1      34.696  30.092  27.950  1.00  0.00     0.001 A 
ATOM     77  C   UNL A   1      35.393  32.398  27.814  1.00  0.00     0.001 A 
ATOM     78  C   UNL A   1      34.479  31.394  27.502  1.00  0.00     0.000 A 
ENDBRANCH  54  73
BRANCH  66  79
ATOM     79  C   UNL A   1      38.896  31.744  35.570  1.00  0.00    -0.014 A 
ATOM     80  C   UNL A   1      38.147  31.005  36.498  1.00  0.00     0.009 A 
ATOM     81  C   UNL A   1      39.101  33.115  35.800  1.00  0.00     0.009 A 
ATOM     82  C   UNL A   1      37.590  31.632  37.615  1.00  0.00     0.001 A 
ATOM     83  C   UNL A   1      38.572  33.730  36.934  1.00  0.00     0.001 A 
ATOM     84  C   UNL A   1      37.809  32.991  37.836  1.00  0.00     0.000 A 
ENDBRANCH  66  79
ENDBRANCH  40  41
ENDBRANCH  33  35
ENDBRANCH  32  33
ENDBRANCH  31  32
ENDBRANCH  30  31
ENDBRANCH  29  30
ENDBRANCH  28  29
ENDBRANCH  27  28
ENDBRANCH  26  27
ENDBRANCH   1  26
TORSDOF 25
ENDMDL
MODEL 2
REMARK VINA RESULT:      -8.8      3.645      9.172
REMARK SMILES O=C(CN(CC(F)(F)F)S(=O)(=O)c1cccc(F)c1)OCCOCCOCCOCCOC(=O)c1ccc(-c2c3nc(c(-c4ccccc4)c4ccc([nH]4)c(-c4ccccc4)c4nc(c(-c5ccccc5)c5ccc2[nH]5)C=C4)C=C3)cc1
REMARK SMILES IDX 25 1 24 2 23 3 22 4 21 5 20 6 2 7 1 8 3 9 4 10 5 11 6 12
REMARK SMILES IDX 7 13 8 14 9 15 10 16 11 17 12 18 13 19 14 20 19 21 15 22
REMARK SMILES IDX 17 23 16 24 18 25 26 26 27 27 28 28 29 29 30 30 31 31 32 32
REMARK SMILES IDX 33 33 34 34 35 35 36 36 82 37 37 38 81 39 38 40 39 41 40 42
REMARK SMILES IDX 75 43 41 44 80 45 74 46 76 47 42 48 79 49 73 50 72 51 43 53
REMARK SMILES IDX 65 54 50 55 64 56 51 57 54 58 63 59 77 60 52 61 53 62 62 64
REMARK SMILES IDX 78 65 55 66 44 67 45 68 49 69 46 70 48 71 47 72 66 73 67 74
REMARK SMILES IDX 71 75 68 76 70 77 69 78 56 79 57 80 61 81 58 82 60 83 59 84
REMARK H PARENT 76 52 54 63
REMARK Flexibility Score: inf
ROOT
ATOM      1  C   UNL A   1      34.856  31.144  28.689  1.00  0.00     0.188 C 
ENDROOT
BRANCH   1   2
ATOM      2  C   UNL A   1      34.527  30.217  27.511  1.00  0.00     0.188 C 
BRANCH   2   3
ATOM      3  O   UNL A   1      33.586  30.464  26.466  1.00  0.00    -0.376 OA
BRANCH   3   4
ATOM      4  C   UNL A   1      32.563  29.631  25.961  1.00  0.00     0.202 C 
BRANCH   4   5
ATOM      5  C   UNL A   1      32.706  28.115  25.879  1.00  0.00     0.261 C 
BRANCH   5   6
ATOM      6  O   UNL A   1      32.930  27.584  24.579  1.00  0.00    -0.462 OA
BRANCH   6   7
ATOM      7  C   UNL A   1      31.944  27.177  23.745  1.00  0.00     0.321 C 
ATOM      8  O   UNL A   1      30.926  27.864  23.657  1.00  0.00    -0.251 OA
BRANCH   7   9
ATOM      9  C   UNL A   1      32.014  25.800  23.110  1.00  0.00     0.225 C 
BRANCH   9  10
ATOM     10  N   UNL A   1      32.344  24.639  23.980  1.00  0.00    -0.178 NA
BRANCH  10  11
ATOM     11  C   UNL A   1      31.187  24.293  24.906  1.00  0.00     0.218 C 
BRANCH  11  12
ATOM     12  C   UNL A   1      31.475  23.542  26.215  1.00  0.00     0.402 C 
ATOM     13  F   UNL A   1      30.510  23.712  27.136  1.00  0.00    -0.170 F 
ATOM     14  F   UNL A   1      31.536  22.210  25.959  1.00  0.00    -0.170 F 
ATOM     15  F   UNL A   1      32.661  23.896  26.753  1.00  0.00    -0.170 F 
ENDBRANCH  11  12
ENDBRANCH  10  11
BRANCH  10  16
ATOM     16  S   UNL A   1      33.056  23.414  23.038  1.00  0.00     0.244 S 
ATOM     17  O   UNL A   1      32.078  22.375  22.849  1.00  0.00    -0.207 OA
ATOM     18  O   UNL A   1      33.660  24.088  21.906  1.00  0.00    -0.207 OA
BRANCH  16  19
ATOM     19  C   UNL A   1      34.376  22.777  24.022  1.00  0.00     0.085 A 
ATOM     20  C   UNL A   1      34.397  21.424  24.370  1.00  0.00     0.022 A 
ATOM     21  C   UNL A   1      35.457  23.609  24.320  1.00  0.00     0.061 A 
ATOM     22  C   UNL A   1      35.491  20.908  25.066  1.00  0.00     0.004 A 
ATOM     23  C   UNL A   1      36.554  23.071  24.976  1.00  0.00     0.124 A 
ATOM     24  C   UNL A   1      36.577  21.733  25.358  1.00  0.00     0.039 A 
ATOM     25  F   UNL A   1      37.617  23.846  25.223  1.00  0.00    -0.207 F 
ENDBRANCH  16  19
ENDBRANCH  10  16
ENDBRANCH   9  10
ENDBRANCH   7   9
ENDBRANCH   6   7
ENDBRANCH   5   6
ENDBRANCH   4   5
ENDBRANCH   3   4
ENDBRANCH   2   3
ENDBRANCH   1   2
BRANCH   1  26
ATOM     26  O   UNL A   1      34.050  32.288  28.896  1.00  0.00    -0.377 OA
BRANCH  26  27
ATOM     27  C   UNL A   1      34.766  33.432  29.307  1.00  0.00     0.188 C 
BRANCH  27  28
ATOM     28  C   UNL A   1      34.933  34.460  28.174  1.00  0.00     0.188 C 
BRANCH  28  29
ATOM     29  O   UNL A   1      34.218  35.666  28.325  1.00  0.00    -0.376 OA
BRANCH  29  30
ATOM     30  C   UNL A   1      33.266  35.849  29.365  1.00  0.00     0.202 C 
BRANCH  30  31
ATOM     31  C   UNL A   1      33.081  37.088  30.273  1.00  0.00     0.261 C 
BRANCH  31  32
ATOM     32  O   UNL A   1      33.205  36.949  31.687  1.00  0.00    -0.460 OA
BRANCH  32  33
ATOM     33  C   UNL A   1      32.696  35.838  32.258  1.00  0.00     0.338 C 
ATOM     34  O   UNL A   1      31.534  35.481  32.280  1.00  0.00    -0.246 OA
BRANCH  33  35
ATOM     35  C   UNL A   1      33.854  34.995  32.634  1.00  0.00     0.060 A 
ATOM     36  C   UNL A   1      35.145  35.528  32.494  1.00  0.00     0.016 A 
ATOM     37  C   UNL A   1      33.668  33.742  33.223  1.00  0.00     0.016 A 
ATOM     38  C   UNL A   1      36.252  34.817  32.958  1.00  0.00     0.010 A 
ATOM     39  C   UNL A   1      34.782  33.009  33.638  1.00  0.00     0.010 A 
ATOM     40  C   UNL A   1      36.077  33.539  33.499  1.00  0.00    -0.014 A 
BRANCH  40  41
ATOM     41  C   UNL A   1      37.251  32.671  33.743  1.00  0.00     0.031 A 
ATOM     42  C   UNL A   1      38.058  32.920  34.985  1.00  0.00     0.074 A 
ATOM     43  C   UNL A   1      37.609  31.707  32.877  1.00  0.00     0.049 A 
ATOM     44  N   UNL A   1      39.191  32.386  35.357  1.00  0.00    -0.248 NA
ATOM     45  C   UNL A   1      37.513  33.906  35.935  1.00  0.00     0.031 C 
ATOM     46  C   UNL A   1      36.876  31.334  31.667  1.00  0.00     0.029 A 
ATOM     47  N   UNL A   1      38.703  30.877  32.876  1.00  0.00    -0.354 N 
ATOM     48  C   UNL A   1      39.507  32.986  36.569  1.00  0.00     0.074 A 
ATOM     49  C   UNL A   1      38.451  33.926  36.870  1.00  0.00     0.031 C 
ATOM     50  C   UNL A   1      37.561  30.371  31.024  1.00  0.00     0.029 A 
ATOM     51  C   UNL A   1      38.798  30.094  31.751  1.00  0.00     0.049 A 
ATOM     52  H   UNL A   1      39.357  30.846  33.612  1.00  0.00     0.167 HD
ATOM     53  C   UNL A   1      40.588  32.781  37.352  1.00  0.00     0.031 A 
ATOM     54  C   UNL A   1      39.796  29.286  31.336  1.00  0.00     0.031 A 
ATOM     55  C   UNL A   1      41.643  31.856  37.042  1.00  0.00     0.049 A 
ATOM     56  C   UNL A   1      41.036  29.150  32.187  1.00  0.00     0.074 A 
ATOM     57  C   UNL A   1      42.764  31.551  37.793  1.00  0.00     0.029 A 
ATOM     58  N   UNL A   1      41.716  31.103  35.883  1.00  0.00    -0.354 N 
ATOM     59  N   UNL A   1      41.301  29.682  33.355  1.00  0.00    -0.248 NA
ATOM     60  C   UNL A   1      42.116  28.304  31.656  1.00  0.00     0.031 C 
ATOM     61  C   UNL A   1      43.555  30.670  37.052  1.00  0.00     0.029 A 
ATOM     62  C   UNL A   1      42.890  30.371  35.874  1.00  0.00     0.049 A 
ATOM     63  H   UNL A   1      41.036  31.091  35.171  1.00  0.00     0.167 HD
ATOM     64  C   UNL A   1      42.565  29.217  33.707  1.00  0.00     0.074 A 
ATOM     65  C   UNL A   1      43.001  28.340  32.642  1.00  0.00     0.031 C 
ATOM     66  C   UNL A   1      43.304  29.498  34.808  1.00  0.00     0.031 A 
BRANCH  53  67
ATOM     67  C   UNL A   1      40.720  33.603  38.600  1.00  0.00    -0.014 A 
ATOM     68  C   UNL A   1      41.344  34.859  38.590  1.00  0.00     0.009 A 
ATOM     69  C   UNL A   1      40.137  33.142  39.792  1.00  0.00     0.009 A 
ATOM     70  C   UNL A   1      41.390  35.633  39.752  1.00  0.00     0.001 A 
ATOM     71  C   UNL A   1      40.160  33.928  40.944  1.00  0.00     0.001 A 
ATOM     72  C   UNL A   1      40.790  35.171  40.923  1.00  0.00     0.000 A 
ENDBRANCH  53  67
BRANCH  54  73
ATOM     73  C   UNL A   1      39.717  28.596  30.018  1.00  0.00    -0.014 A 
ATOM     74  C   UNL A   1      39.249  27.277  29.920  1.00  0.00     0.009 A 
ATOM     75  C   UNL A   1      40.183  29.233  28.856  1.00  0.00     0.009 A 
ATOM     76  C   UNL A   1      39.289  26.598  28.700  1.00  0.00     0.001 A 
ATOM     77  C   UNL A   1      40.187  28.565  27.630  1.00  0.00     0.001 A 
ATOM     78  C   UNL A   1      39.755  27.243  27.555  1.00  0.00     0.000 A 
ENDBRANCH  54  73
BRANCH  66  79
ATOM     79  C   UNL A   1      44.644  28.829  34.935  1.00  0.00    -0.014 A 
ATOM     80  C   UNL A   1      44.776  27.571  35.540  1.00  0.00     0.009 A 
ATOM     81  C   UNL A   1      45.782  29.440  34.382  1.00  0.00     0.009 A 
ATOM     82  C   UNL A   1      46.025  26.951  35.616  1.00  0.00     0.001 A 
ATOM     83  C   UNL A   1      47.022  28.803  34.429  1.00  0.00     0.001 A 
ATOM     84  C   UNL A   1      47.145  27.563  35.054  1.00  0.00     0.000 A 
ENDBRANCH  66  79
ENDBRANCH  40  41
ENDBRANCH  33  35
ENDBRANCH  32  33
ENDBRANCH  31  32
ENDBRANCH  30  31
ENDBRANCH  29  30
ENDBRANCH  28  29
ENDBRANCH  27  28
ENDBRANCH  26  27
ENDBRANCH   1  26
TORSDOF 25
ENDMDL
MODEL 3
REMARK VINA RESULT:      -8.4      4.020      9.833
REMARK SMILES O=C(CN(CC(F)(F)F)S(=O)(=O)c1cccc(F)c1)OCCOCCOCCOCCOC(=O)c1ccc(-c2c3nc(c(-c4ccccc4)c4ccc([nH]4)c(-c4ccccc4)c4nc(c(-c5ccccc5)c5ccc2[nH]5)C=C4)C=C3)cc1
REMARK SMILES IDX 25 1 24 2 23 3 22 4 21 5 20 6 2 7 1 8 3 9 4 10 5 11 6 12
REMARK SMILES IDX 7 13 8 14 9 15 10 16 11 17 12 18 13 19 14 20 19 21 15 22
REMARK SMILES IDX 17 23 16 24 18 25 26 26 27 27 28 28 29 29 30 30 31 31 32 32
REMARK SMILES IDX 33 33 34 34 35 35 36 36 82 37 37 38 81 39 38 40 39 41 40 42
REMARK SMILES IDX 75 43 41 44 80 45 74 46 76 47 42 48 79 49 73 50 72 51 43 53
REMARK SMILES IDX 65 54 50 55 64 56 51 57 54 58 63 59 77 60 52 61 53 62 62 64
REMARK SMILES IDX 78 65 55 66 44 67 45 68 49 69 46 70 48 71 47 72 66 73 67 74
REMARK SMILES IDX 71 75 68 76 70 77 69 78 56 79 57 80 61 81 58 82 60 83 59 84
REMARK H PARENT 76 52 54 63
REMARK Flexibility Score: inf
ROOT
ATOM      1  C   UNL A   1      32.547  29.747  26.294  1.00  0.00     0.188 C 
ENDROOT
BRANCH   1   2
ATOM      2  C   UNL A   1      31.716  29.621  25.011  1.00  0.00     0.188 C 
BRANCH   2   3
ATOM      3  O   UNL A   1      32.139  29.058  23.769  1.00  0.00    -0.376 OA
BRANCH   3   4
ATOM      4  C   UNL A   1      33.362  28.435  23.433  1.00  0.00     0.202 C 
BRANCH   4   5
ATOM      5  C   UNL A   1      33.452  27.306  22.412  1.00  0.00     0.261 C 
BRANCH   5   6
ATOM      6  O   UNL A   1      32.267  26.540  22.230  1.00  0.00    -0.462 OA
BRANCH   6   7
ATOM      7  C   UNL A   1      31.785  25.660  23.139  1.00  0.00     0.321 C 
ATOM      8  O   UNL A   1      30.772  25.963  23.770  1.00  0.00    -0.251 OA
BRANCH   7   9
ATOM      9  C   UNL A   1      32.602  24.437  23.513  1.00  0.00     0.225 C 
BRANCH   9  10
ATOM     10  N   UNL A   1      32.180  23.645  24.700  1.00  0.00    -0.178 NA
BRANCH  10  11
ATOM     11  C   UNL A   1      31.647  22.278  24.293  1.00  0.00     0.218 C 
BRANCH  11  12
ATOM     12  C   UNL A   1      32.285  21.551  23.099  1.00  0.00     0.402 C 
ATOM     13  F   UNL A   1      33.283  22.253  22.535  1.00  0.00    -0.170 F 
ATOM     14  F   UNL A   1      32.826  20.383  23.529  1.00  0.00    -0.170 F 
ATOM     15  F   UNL A   1      31.377  21.240  22.150  1.00  0.00    -0.170 F 
ENDBRANCH  11  12
ENDBRANCH  10  11
BRANCH  10  16
ATOM     16  S   UNL A   1      33.379  23.750  25.902  1.00  0.00     0.244 S 
ATOM     17  O   UNL A   1      33.647  25.144  26.141  1.00  0.00    -0.207 OA
ATOM     18  O   UNL A   1      32.940  22.879  26.974  1.00  0.00    -0.207 OA
BRANCH  16  19
ATOM     19  C   UNL A   1      34.815  23.010  25.193  1.00  0.00     0.085 A 
ATOM     20  C   UNL A   1      35.771  23.808  24.558  1.00  0.00     0.022 A 
ATOM     21  C   UNL A   1      35.046  21.648  25.402  1.00  0.00     0.061 A 
ATOM     22  C   UNL A   1      36.948  23.229  24.085  1.00  0.00     0.004 A 
ATOM     23  C   UNL A   1      36.240  21.097  24.962  1.00  0.00     0.124 A 
ATOM     24  C   UNL A   1      37.187  21.872  24.299  1.00  0.00     0.039 A 
ATOM     25  F   UNL A   1      36.494  19.805  25.200  1.00  0.00    -0.207 F 
ENDBRANCH  16  19
ENDBRANCH  10  16
ENDBRANCH   9  10
ENDBRANCH   7   9
ENDBRANCH   6   7
ENDBRANCH   5   6
ENDBRANCH   4   5
ENDBRANCH   3   4
ENDBRANCH   2   3
ENDBRANCH   1   2
BRANCH   1  26
ATOM     26  O   UNL A   1      32.675  31.022  26.895  1.00  0.00    -0.377 OA
BRANCH  26  27
ATOM     27  C   UNL A   1      33.895  31.220  27.574  1.00  0.00     0.188 C 
BRANCH  27  28
ATOM     28  C   UNL A   1      33.908  32.524  28.393  1.00  0.00     0.188 C 
BRANCH  28  29
ATOM     29  O   UNL A   1      34.755  32.535  29.521  1.00  0.00    -0.376 OA
BRANCH  29  30
ATOM     30  C   UNL A   1      34.469  33.328  30.666  1.00  0.00     0.202 C 
BRANCH  30  31
ATOM     31  C   UNL A   1      34.750  32.987  32.149  1.00  0.00     0.261 C 
BRANCH  31  32
ATOM     32  O   UNL A   1      35.506  31.821  32.471  1.00  0.00    -0.460 OA
BRANCH  32  33
ATOM     33  C   UNL A   1      36.663  31.987  33.146  1.00  0.00     0.338 C 
ATOM     34  O   UNL A   1      36.802  32.256  34.323  1.00  0.00    -0.246 OA
BRANCH  33  35
ATOM     35  C   UNL A   1      37.742  31.525  32.242  1.00  0.00     0.060 A 
ATOM     36  C   UNL A   1      38.853  30.876  32.802  1.00  0.00     0.016 A 
ATOM     37  C   UNL A   1      37.609  31.626  30.855  1.00  0.00     0.016 A 
ATOM     38  C   UNL A   1      39.825  30.311  31.977  1.00  0.00     0.010 A 
ATOM     39  C   UNL A   1      38.610  31.108  30.032  1.00  0.00     0.010 A 
ATOM     40  C   UNL A   1      39.725  30.458  30.589  1.00  0.00    -0.014 A 
BRANCH  40  41
ATOM     41  C   UNL A   1      40.873  30.106  29.724  1.00  0.00     0.031 A 
ATOM     42  C   UNL A   1      40.925  28.713  29.163  1.00  0.00     0.074 A 
ATOM     43  C   UNL A   1      41.856  30.985  29.461  1.00  0.00     0.049 A 
ATOM     44  N   UNL A   1      41.879  28.127  28.489  1.00  0.00    -0.248 NA
ATOM     45  C   UNL A   1      39.742  27.867  29.397  1.00  0.00     0.031 C 
ATOM     46  C   UNL A   1      41.890  32.379  29.900  1.00  0.00     0.029 A 
ATOM     47  N   UNL A   1      43.033  30.821  28.773  1.00  0.00    -0.354 N 
ATOM     48  C   UNL A   1      41.423  26.839  28.239  1.00  0.00     0.074 A 
ATOM     49  C   UNL A   1      40.110  26.726  28.835  1.00  0.00     0.031 C 
ATOM     50  C   UNL A   1      43.048  32.934  29.499  1.00  0.00     0.029 A 
ATOM     51  C   UNL A   1      43.853  31.923  28.816  1.00  0.00     0.049 A 
ATOM     52  H   UNL A   1      43.266  29.992  28.295  1.00  0.00     0.167 HD
ATOM     53  C   UNL A   1      42.049  25.838  27.584  1.00  0.00     0.031 A 
ATOM     54  C   UNL A   1      45.126  32.075  28.396  1.00  0.00     0.031 A 
ATOM     55  C   UNL A   1      43.359  25.950  27.006  1.00  0.00     0.049 A 
ATOM     56  C   UNL A   1      45.834  30.908  27.752  1.00  0.00     0.074 A 
ATOM     57  C   UNL A   1      44.064  24.999  26.289  1.00  0.00     0.029 A 
ATOM     58  N   UNL A   1      44.167  27.071  27.093  1.00  0.00    -0.354 N 
ATOM     59  N   UNL A   1      45.376  29.711  27.474  1.00  0.00    -0.248 NA
ATOM     60  C   UNL A   1      47.240  31.114  27.369  1.00  0.00     0.031 C 
ATOM     61  C   UNL A   1      45.331  25.520  26.009  1.00  0.00     0.029 A 
ATOM     62  C   UNL A   1      45.385  26.819  26.488  1.00  0.00     0.049 A 
ATOM     63  H   UNL A   1      43.913  27.919  27.524  1.00  0.00     0.167 HD
ATOM     64  C   UNL A   1      46.427  29.033  26.865  1.00  0.00     0.074 A 
ATOM     65  C   UNL A   1      47.537  29.959  26.790  1.00  0.00     0.031 C 
ATOM     66  C   UNL A   1      46.475  27.755  26.416  1.00  0.00     0.031 A 
BRANCH  53  67
ATOM     67  C   UNL A   1      41.353  24.511  27.494  1.00  0.00    -0.014 A 
ATOM     68  C   UNL A   1      40.303  24.292  26.591  1.00  0.00     0.009 A 
ATOM     69  C   UNL A   1      41.814  23.440  28.277  1.00  0.00     0.009 A 
ATOM     70  C   UNL A   1      39.722  23.027  26.481  1.00  0.00     0.001 A 
ATOM     71  C   UNL A   1      41.250  22.172  28.146  1.00  0.00     0.001 A 
ATOM     72  C   UNL A   1      40.202  21.967  27.250  1.00  0.00     0.000 A 
ENDBRANCH  53  67
BRANCH  54  73
ATOM     73  C   UNL A   1      45.856  33.352  28.632  1.00  0.00    -0.014 A 
ATOM     74  C   UNL A   1      46.379  33.663  29.897  1.00  0.00     0.009 A 
ATOM     75  C   UNL A   1      45.972  34.303  27.604  1.00  0.00     0.009 A 
ATOM     76  C   UNL A   1      46.959  34.910  30.139  1.00  0.00     0.001 A 
ATOM     77  C   UNL A   1      46.585  35.535  27.839  1.00  0.00     0.001 A 
ATOM     78  C   UNL A   1      47.064  35.845  29.110  1.00  0.00     0.000 A 
ENDBRANCH  54  73
BRANCH  66  79
ATOM     79  C   UNL A   1      47.753  27.290  25.777  1.00  0.00    -0.014 A 
ATOM     80  C   UNL A   1      48.821  26.806  26.548  1.00  0.00     0.009 A 
ATOM     81  C   UNL A   1      47.865  27.274  24.376  1.00  0.00     0.009 A 
ATOM     82  C   UNL A   1      49.985  26.345  25.932  1.00  0.00     0.001 A 
ATOM     83  C   UNL A   1      49.016  26.781  23.763  1.00  0.00     0.001 A 
ATOM     84  C   UNL A   1      50.080  26.325  24.541  1.00  0.00     0.000 A 
ENDBRANCH  66  79
ENDBRANCH  40  41
ENDBRANCH  33  35
ENDBRANCH  32  33
ENDBRANCH  31  32
ENDBRANCH  30  31
ENDBRANCH  29  30
ENDBRANCH  28  29
ENDBRANCH  27  28
ENDBRANCH  26  27
ENDBRANCH   1  26
TORSDOF 25
ENDMDL
