MODEL 1
REMARK VINA RESULT:     -10.5      0.000      0.000
REMARK SMILES Cc1ccnc(C(=O)c2[nH]c3ccc(F)cc3c2CC(=O)OCCOCCOCCOCCOC(=O)c2ccc(-c3c4nc(c(-c5ccccc5)c5ccc([nH]5)c(-c5ccccc5)c5nc(c(-c6ccccc6)c6ccc3[nH]6)C=C5)C=C4)cc2)c1
REMARK SMILES IDX 27 1 26 2 25 3 24 4 23 5 22 6 20 7 21 8 19 9 18 10 9 11
REMARK SMILES IDX 10 12 11 13 17 15 12 16 16 17 13 18 14 19 15 20 7 21 8 22
REMARK SMILES IDX 6 23 1 24 2 25 3 26 85 27 4 28 5 29 28 30 29 31 30 32 31 33
REMARK SMILES IDX 32 34 33 35 34 36 35 37 36 38 37 39 38 40 84 41 39 42 83 43
REMARK SMILES IDX 40 44 41 45 42 46 77 47 43 48 82 49 76 50 78 51 44 52 81 53
REMARK SMILES IDX 75 54 74 55 45 57 67 58 52 59 66 60 53 61 56 62 65 63 79 64
REMARK SMILES IDX 54 65 55 66 64 68 80 69 57 70 46 71 47 72 51 73 48 74 50 75
REMARK SMILES IDX 49 76 68 77 69 78 73 79 70 80 72 81 71 82 58 83 59 84 63 85
REMARK SMILES IDX 60 86 62 87 61 88
REMARK H PARENT 10 14 78 56 56 67
REMARK Flexibility Score: inf
ROOT
ATOM      1  C   UNL A   1      38.547  21.283  25.585  1.00  0.00     0.188 C 
ENDROOT
BRANCH   1   2
ATOM      2  C   UNL A   1      37.534  22.429  25.767  1.00  0.00     0.188 C 
BRANCH   2   3
ATOM      3  O   UNL A   1      36.532  22.416  24.782  1.00  0.00    -0.376 OA
BRANCH   3   4
ATOM      4  C   UNL A   1      35.446  23.247  25.157  1.00  0.00     0.202 C 
BRANCH   4   5
ATOM      5  C   UNL A   1      34.921  24.079  23.964  1.00  0.00     0.261 C 
BRANCH   5   6
ATOM      6  O   UNL A   1      34.483  23.278  22.804  1.00  0.00    -0.463 OA
BRANCH   6   7
ATOM      7  C   UNL A   1      33.297  23.584  22.214  1.00  0.00     0.310 C 
ATOM      8  O   UNL A   1      33.240  24.330  21.240  1.00  0.00    -0.252 OA
BRANCH   7   9
ATOM      9  C   UNL A   1      32.038  22.824  22.737  1.00  0.00     0.161 C 
BRANCH   9  10
ATOM     10  C   UNL A   1      32.004  22.045  24.074  1.00  0.00     0.000 A 
ATOM     11  C   UNL A   1      31.903  22.446  25.459  1.00  0.00     0.093 A 
ATOM     12  N   UNL A   1      32.380  21.322  26.150  1.00  0.00    -0.352 N 
ATOM     13  C   UNL A   1      32.511  20.204  25.366  1.00  0.00     0.046 A 
ATOM     14  H   UNL A   1      32.600  21.335  27.109  1.00  0.00     0.167 HD
ATOM     15  C   UNL A   1      32.285  20.610  24.058  1.00  0.00     0.007 A 
ATOM     16  C   UNL A   1      32.869  18.886  25.710  1.00  0.00     0.030 A 
ATOM     17  C   UNL A   1      32.433  19.642  23.032  1.00  0.00     0.049 A 
ATOM     18  C   UNL A   1      32.977  17.944  24.681  1.00  0.00     0.041 A 
ATOM     19  C   UNL A   1      32.761  18.325  23.367  1.00  0.00     0.123 A 
ATOM     20  F   UNL A   1      32.877  17.410  22.392  1.00  0.00    -0.207 F 
BRANCH  11  21
ATOM     21  C   UNL A   1      31.742  23.698  26.311  1.00  0.00     0.227 C 
ATOM     22  O   UNL A   1      31.425  23.509  27.490  1.00  0.00    -0.285 OA
BRANCH  21  23
ATOM     23  C   UNL A   1      31.655  25.206  25.859  1.00  0.00     0.113 A 
ATOM     24  C   UNL A   1      29.660  27.546  23.552  1.00  0.00     0.044 C 
ATOM     25  C   UNL A   1      30.666  27.079  24.580  1.00  0.00    -0.047 A 
ATOM     26  C   UNL A   1      31.726  27.877  24.941  1.00  0.00     0.023 A 
ATOM     27  C   UNL A   1      30.599  25.801  25.186  1.00  0.00     0.036 A 
ATOM     28  C   UNL A   1      32.669  27.316  25.788  1.00  0.00     0.112 A 
ATOM     29  N   UNL A   1      32.691  26.010  26.208  1.00  0.00    -0.253 NA
ENDBRANCH  21  23
ENDBRANCH  11  21
ENDBRANCH   9  10
ENDBRANCH   7   9
ENDBRANCH   6   7
ENDBRANCH   5   6
ENDBRANCH   4   5
ENDBRANCH   3   4
ENDBRANCH   2   3
ENDBRANCH   1   2
BRANCH   1  30
ATOM     30  O   UNL A   1      39.695  21.474  26.399  1.00  0.00    -0.377 OA
BRANCH  30  31
ATOM     31  C   UNL A   1      40.582  20.363  26.354  1.00  0.00     0.188 C 
BRANCH  31  32
ATOM     32  C   UNL A   1      41.914  20.711  27.016  1.00  0.00     0.188 C 
BRANCH  32  33
ATOM     33  O   UNL A   1      42.771  21.730  26.509  1.00  0.00    -0.376 OA
BRANCH  33  34
ATOM     34  C   UNL A   1      43.731  21.419  25.509  1.00  0.00     0.202 C 
BRANCH  34  35
ATOM     35  C   UNL A   1      44.054  22.572  24.555  1.00  0.00     0.261 C 
BRANCH  35  36
ATOM     36  O   UNL A   1      43.388  23.760  24.988  1.00  0.00    -0.460 OA
BRANCH  36  37
ATOM     37  C   UNL A   1      44.219  24.787  25.336  1.00  0.00     0.338 C 
ATOM     38  O   UNL A   1      45.178  25.196  24.741  1.00  0.00    -0.246 OA
BRANCH  37  39
ATOM     39  C   UNL A   1      43.529  25.526  26.431  1.00  0.00     0.060 A 
ATOM     40  C   UNL A   1      43.838  26.893  26.572  1.00  0.00     0.016 A 
ATOM     41  C   UNL A   1      42.436  24.971  27.106  1.00  0.00     0.016 A 
ATOM     42  C   UNL A   1      43.075  27.696  27.415  1.00  0.00     0.010 A 
ATOM     43  C   UNL A   1      41.694  25.763  27.975  1.00  0.00     0.010 A 
ATOM     44  C   UNL A   1      42.051  27.110  28.167  1.00  0.00    -0.014 A 
BRANCH  44  45
ATOM     45  C   UNL A   1      41.644  27.756  29.430  1.00  0.00     0.031 A 
ATOM     46  C   UNL A   1      40.415  28.619  29.350  1.00  0.00     0.074 A 
ATOM     47  C   UNL A   1      42.330  27.609  30.573  1.00  0.00     0.049 A 
ATOM     48  N   UNL A   1      39.874  29.386  30.257  1.00  0.00    -0.248 NA
ATOM     49  C   UNL A   1      39.709  28.629  28.054  1.00  0.00     0.031 C 
ATOM     50  C   UNL A   1      43.503  26.759  30.766  1.00  0.00     0.029 A 
ATOM     51  N   UNL A   1      42.129  28.198  31.794  1.00  0.00    -0.354 N 
ATOM     52  C   UNL A   1      38.779  29.972  29.633  1.00  0.00     0.074 A 
ATOM     53  C   UNL A   1      38.751  29.508  28.269  1.00  0.00     0.031 C 
ATOM     54  C   UNL A   1      43.930  26.896  32.036  1.00  0.00     0.029 A 
ATOM     55  C   UNL A   1      43.080  27.866  32.725  1.00  0.00     0.049 A 
ATOM     56  H   UNL A   1      41.375  28.801  31.985  1.00  0.00     0.167 HD
ATOM     57  C   UNL A   1      37.872  30.826  30.154  1.00  0.00     0.031 A 
ATOM     58  C   UNL A   1      43.246  28.322  33.982  1.00  0.00     0.031 A 
ATOM     59  C   UNL A   1      37.931  31.306  31.502  1.00  0.00     0.049 A 
ATOM     60  C   UNL A   1      42.270  29.338  34.520  1.00  0.00     0.074 A 
ATOM     61  C   UNL A   1      37.069  32.171  32.149  1.00  0.00     0.029 A 
ATOM     62  N   UNL A   1      38.924  30.966  32.409  1.00  0.00    -0.354 N 
ATOM     63  N   UNL A   1      41.220  29.871  33.936  1.00  0.00    -0.248 NA
ATOM     64  C   UNL A   1      42.496  29.810  35.892  1.00  0.00     0.031 C 
ATOM     65  C   UNL A   1      37.579  32.405  33.429  1.00  0.00     0.029 A 
ATOM     66  C   UNL A   1      38.714  31.628  33.604  1.00  0.00     0.049 A 
ATOM     67  H   UNL A   1      39.667  30.345  32.227  1.00  0.00     0.167 HD
ATOM     68  C   UNL A   1      40.645  30.714  34.880  1.00  0.00     0.074 A 
ATOM     69  C   UNL A   1      41.455  30.610  36.077  1.00  0.00     0.031 C 
ATOM     70  C   UNL A   1      39.544  31.500  34.774  1.00  0.00     0.031 A 
BRANCH  57  71
ATOM     71  C   UNL A   1      36.793  31.320  29.234  1.00  0.00    -0.014 A 
ATOM     72  C   UNL A   1      36.806  32.627  28.718  1.00  0.00     0.009 A 
ATOM     73  C   UNL A   1      35.730  30.469  28.896  1.00  0.00     0.009 A 
ATOM     74  C   UNL A   1      35.758  33.083  27.918  1.00  0.00     0.001 A 
ATOM     75  C   UNL A   1      34.700  30.916  28.067  1.00  0.00     0.001 A 
ATOM     76  C   UNL A   1      34.708  32.225  27.588  1.00  0.00     0.000 A 
ENDBRANCH  57  71
BRANCH  58  77
ATOM     77  C   UNL A   1      44.384  27.841  34.810  1.00  0.00    -0.014 A 
ATOM     78  C   UNL A   1      45.609  28.527  34.814  1.00  0.00     0.009 A 
ATOM     79  C   UNL A   1      44.256  26.684  35.596  1.00  0.00     0.009 A 
ATOM     80  C   UNL A   1      46.686  28.051  35.567  1.00  0.00     0.001 A 
ATOM     81  C   UNL A   1      45.326  26.227  36.371  1.00  0.00     0.001 A 
ATOM     82  C   UNL A   1      46.542  26.907  36.349  1.00  0.00     0.000 A 
ENDBRANCH  58  77
BRANCH  70  83
ATOM     83  C   UNL A   1      39.129  32.272  35.996  1.00  0.00    -0.014 A 
ATOM     84  C   UNL A   1      39.583  33.580  36.227  1.00  0.00     0.009 A 
ATOM     85  C   UNL A   1      38.219  31.697  36.897  1.00  0.00     0.009 A 
ATOM     86  C   UNL A   1      39.162  34.280  37.358  1.00  0.00     0.001 A 
ATOM     87  C   UNL A   1      37.773  32.412  38.008  1.00  0.00     0.001 A 
ATOM     88  C   UNL A   1      38.254  33.700  38.243  1.00  0.00     0.000 A 
ENDBRANCH  70  83
ENDBRANCH  44  45
ENDBRANCH  37  39
ENDBRANCH  36  37
ENDBRANCH  35  36
ENDBRANCH  34  35
ENDBRANCH  33  34
ENDBRANCH  32  33
ENDBRANCH  31  32
ENDBRANCH  30  31
ENDBRANCH   1  30
TORSDOF 23
ENDMDL
MODEL 2
REMARK VINA RESULT:     -10.5      1.779      3.721
REMARK SMILES Cc1ccnc(C(=O)c2[nH]c3ccc(F)cc3c2CC(=O)OCCOCCOCCOCCOC(=O)c2ccc(-c3c4nc(c(-c5ccccc5)c5ccc([nH]5)c(-c5ccccc5)c5nc(c(-c6ccccc6)c6ccc3[nH]6)C=C5)C=C4)cc2)c1
REMARK SMILES IDX 27 1 26 2 25 3 24 4 23 5 22 6 20 7 21 8 19 9 18 10 9 11
REMARK SMILES IDX 10 12 11 13 17 15 12 16 16 17 13 18 14 19 15 20 7 21 8 22
REMARK SMILES IDX 6 23 1 24 2 25 3 26 85 27 4 28 5 29 28 30 29 31 30 32 31 33
REMARK SMILES IDX 32 34 33 35 34 36 35 37 36 38 37 39 38 40 84 41 39 42 83 43
REMARK SMILES IDX 40 44 41 45 42 46 77 47 43 48 82 49 76 50 78 51 44 52 81 53
REMARK SMILES IDX 75 54 74 55 45 57 67 58 52 59 66 60 53 61 56 62 65 63 79 64
REMARK SMILES IDX 54 65 55 66 64 68 80 69 57 70 46 71 47 72 51 73 48 74 50 75
REMARK SMILES IDX 49 76 68 77 69 78 73 79 70 80 72 81 71 82 58 83 59 84 63 85
REMARK SMILES IDX 60 86 62 87 61 88
REMARK H PARENT 10 14 78 56 56 67
REMARK Flexibility Score: inf
ROOT
ATOM      1  C   UNL A   1      40.794  19.876  26.344  1.00  0.00     0.188 C 
ENDROOT
BRANCH   1   2
ATOM      2  C   UNL A   1      40.460  21.324  26.749  1.00  0.00     0.188 C 
BRANCH   2   3
ATOM      3  O   UNL A   1      39.388  21.850  26.008  1.00  0.00    -0.376 OA
BRANCH   3   4
ATOM      4  C   UNL A   1      38.526  20.815  25.564  1.00  0.00     0.202 C 
BRANCH   4   5
ATOM      5  C   UNL A   1      37.259  21.378  24.878  1.00  0.00     0.261 C 
BRANCH   5   6
ATOM      6  O   UNL A   1      37.302  22.829  24.609  1.00  0.00    -0.463 OA
BRANCH   6   7
ATOM      7  C   UNL A   1      36.172  23.441  24.166  1.00  0.00     0.310 C 
ATOM      8  O   UNL A   1      35.657  23.135  23.092  1.00  0.00    -0.252 OA
BRANCH   7   9
ATOM      9  C   UNL A   1      35.481  24.435  25.150  1.00  0.00     0.161 C 
BRANCH   9  10
ATOM     10  C   UNL A   1      34.051  24.233  25.706  1.00  0.00     0.000 A 
ATOM     11  C   UNL A   1      33.264  23.065  26.035  1.00  0.00     0.093 A 
ATOM     12  N   UNL A   1      31.952  23.559  26.042  1.00  0.00    -0.352 N 
ATOM     13  C   UNL A   1      31.875  24.928  26.014  1.00  0.00     0.046 A 
ATOM     14  H   UNL A   1      31.159  22.976  26.066  1.00  0.00     0.167 HD
ATOM     15  C   UNL A   1      33.165  25.392  25.804  1.00  0.00     0.007 A 
ATOM     16  C   UNL A   1      30.756  25.780  26.098  1.00  0.00     0.030 A 
ATOM     17  C   UNL A   1      33.348  26.791  25.664  1.00  0.00     0.049 A 
ATOM     18  C   UNL A   1      30.970  27.158  25.988  1.00  0.00     0.041 A 
ATOM     19  C   UNL A   1      32.248  27.647  25.774  1.00  0.00     0.123 A 
ATOM     20  F   UNL A   1      32.433  28.971  25.662  1.00  0.00    -0.207 F 
BRANCH  11  21
ATOM     21  C   UNL A   1      33.376  21.547  26.073  1.00  0.00     0.227 C 
ATOM     22  O   UNL A   1      34.029  21.079  27.012  1.00  0.00    -0.285 OA
BRANCH  21  23
ATOM     23  C   UNL A   1      33.014  20.493  24.957  1.00  0.00     0.113 A 
ATOM     24  C   UNL A   1      33.652  16.839  23.947  1.00  0.00     0.044 C 
ATOM     25  C   UNL A   1      33.096  18.245  23.927  1.00  0.00    -0.047 A 
ATOM     26  C   UNL A   1      32.496  18.749  22.796  1.00  0.00     0.023 A 
ATOM     27  C   UNL A   1      33.196  19.121  25.034  1.00  0.00     0.036 A 
ATOM     28  C   UNL A   1      32.135  20.087  22.823  1.00  0.00     0.112 A 
ATOM     29  N   UNL A   1      32.420  20.971  23.834  1.00  0.00    -0.253 NA
ENDBRANCH  21  23
ENDBRANCH  11  21
ENDBRANCH   9  10
ENDBRANCH   7   9
ENDBRANCH   6   7
ENDBRANCH   5   6
ENDBRANCH   4   5
ENDBRANCH   3   4
ENDBRANCH   2   3
ENDBRANCH   1   2
BRANCH   1  30
ATOM     30  O   UNL A   1      42.023  19.450  26.914  1.00  0.00    -0.377 OA
BRANCH  30  31
ATOM     31  C   UNL A   1      42.669  18.455  26.130  1.00  0.00     0.188 C 
BRANCH  31  32
ATOM     32  C   UNL A   1      43.841  19.057  25.357  1.00  0.00     0.188 C 
BRANCH  32  33
ATOM     33  O   UNL A   1      43.852  20.416  24.930  1.00  0.00    -0.376 OA
BRANCH  33  34
ATOM     34  C   UNL A   1      45.062  21.013  24.485  1.00  0.00     0.202 C 
BRANCH  34  35
ATOM     35  C   UNL A   1      45.645  22.060  25.437  1.00  0.00     0.261 C 
BRANCH  35  36
ATOM     36  O   UNL A   1      44.609  22.935  25.887  1.00  0.00    -0.460 OA
BRANCH  36  37
ATOM     37  C   UNL A   1      44.825  24.259  25.628  1.00  0.00     0.338 C 
ATOM     38  O   UNL A   1      45.299  24.751  24.641  1.00  0.00    -0.246 OA
BRANCH  37  39
ATOM     39  C   UNL A   1      44.066  25.014  26.665  1.00  0.00     0.060 A 
ATOM     40  C   UNL A   1      44.306  26.399  26.749  1.00  0.00     0.016 A 
ATOM     41  C   UNL A   1      42.979  24.438  27.332  1.00  0.00     0.016 A 
ATOM     42  C   UNL A   1      43.478  27.203  27.528  1.00  0.00     0.010 A 
ATOM     43  C   UNL A   1      42.172  25.234  28.139  1.00  0.00     0.010 A 
ATOM     44  C   UNL A   1      42.459  26.604  28.276  1.00  0.00    -0.014 A 
BRANCH  44  45
ATOM     45  C   UNL A   1      41.982  27.288  29.493  1.00  0.00     0.031 A 
ATOM     46  C   UNL A   1      40.678  28.025  29.354  1.00  0.00     0.074 A 
ATOM     47  C   UNL A   1      42.667  27.279  30.646  1.00  0.00     0.049 A 
ATOM     48  N   UNL A   1      40.059  28.795  30.207  1.00  0.00    -0.248 NA
ATOM     49  C   UNL A   1      39.988  27.887  28.056  1.00  0.00     0.031 C 
ATOM     50  C   UNL A   1      43.911  26.556  30.898  1.00  0.00     0.029 A 
ATOM     51  N   UNL A   1      42.399  27.922  31.826  1.00  0.00    -0.354 N 
ATOM     52  C   UNL A   1      38.921  29.236  29.543  1.00  0.00     0.074 A 
ATOM     53  C   UNL A   1      38.949  28.685  28.211  1.00  0.00     0.031 C 
ATOM     54  C   UNL A   1      44.311  26.812  32.159  1.00  0.00     0.029 A 
ATOM     55  C   UNL A   1      43.367  27.740  32.781  1.00  0.00     0.049 A 
ATOM     56  H   UNL A   1      41.591  28.463  31.975  1.00  0.00     0.167 HD
ATOM     57  C   UNL A   1      37.933  30.032  30.004  1.00  0.00     0.031 A 
ATOM     58  C   UNL A   1      43.478  28.289  34.006  1.00  0.00     0.031 A 
ATOM     59  C   UNL A   1      37.933  30.600  31.319  1.00  0.00     0.049 A 
ATOM     60  C   UNL A   1      42.406  29.242  34.474  1.00  0.00     0.074 A 
ATOM     61  C   UNL A   1      36.989  31.420  31.905  1.00  0.00     0.029 A 
ATOM     62  N   UNL A   1      38.945  30.412  32.249  1.00  0.00    -0.354 N 
ATOM     63  N   UNL A   1      41.317  29.636  33.853  1.00  0.00    -0.248 NA
ATOM     64  C   UNL A   1      42.573  29.818  35.814  1.00  0.00     0.031 C 
ATOM     65  C   UNL A   1      37.462  31.781  33.170  1.00  0.00     0.029 A 
ATOM     66  C   UNL A   1      38.663  31.126  33.398  1.00  0.00     0.049 A 
ATOM     67  H   UNL A   1      39.744  29.854  32.111  1.00  0.00     0.167 HD
ATOM     68  C   UNL A   1      40.657  30.479  34.739  1.00  0.00     0.074 A 
ATOM     69  C   UNL A   1      41.461  30.528  35.943  1.00  0.00     0.031 C 
ATOM     70  C   UNL A   1      39.489  31.151  34.578  1.00  0.00     0.031 A 
BRANCH  57  71
ATOM     71  C   UNL A   1      36.822  30.364  29.049  1.00  0.00    -0.014 A 
ATOM     72  C   UNL A   1      36.623  31.672  28.577  1.00  0.00     0.009 A 
ATOM     73  C   UNL A   1      35.943  29.352  28.634  1.00  0.00     0.009 A 
ATOM     74  C   UNL A   1      35.543  31.967  27.743  1.00  0.00     0.001 A 
ATOM     75  C   UNL A   1      34.885  29.642  27.771  1.00  0.00     0.001 A 
ATOM     76  C   UNL A   1      34.679  30.950  27.336  1.00  0.00     0.000 A 
ENDBRANCH  57  71
BRANCH  58  77
ATOM     77  C   UNL A   1      44.647  27.970  34.868  1.00  0.00    -0.014 A 
ATOM     78  C   UNL A   1      45.831  28.718  34.777  1.00  0.00     0.009 A 
ATOM     79  C   UNL A   1      44.591  26.905  35.782  1.00  0.00     0.009 A 
ATOM     80  C   UNL A   1      46.940  28.393  35.564  1.00  0.00     0.001 A 
ATOM     81  C   UNL A   1      45.690  26.600  36.589  1.00  0.00     0.001 A 
ATOM     82  C   UNL A   1      46.866  27.339  36.473  1.00  0.00     0.000 A 
ENDBRANCH  58  77
BRANCH  70  83
ATOM     83  C   UNL A   1      38.992  31.957  35.746  1.00  0.00    -0.014 A 
ATOM     84  C   UNL A   1      39.256  33.331  35.855  1.00  0.00     0.009 A 
ATOM     85  C   UNL A   1      38.194  31.337  36.720  1.00  0.00     0.009 A 
ATOM     86  C   UNL A   1      38.761  34.058  36.939  1.00  0.00     0.001 A 
ATOM     87  C   UNL A   1      37.672  32.073  37.784  1.00  0.00     0.001 A 
ATOM     88  C   UNL A   1      37.965  33.430  37.897  1.00  0.00     0.000 A 
ENDBRANCH  70  83
ENDBRANCH  44  45
ENDBRANCH  37  39
ENDBRANCH  36  37
ENDBRANCH  35  36
ENDBRANCH  34  35
ENDBRANCH  33  34
ENDBRANCH  32  33
ENDBRANCH  31  32
ENDBRANCH  30  31
ENDBRANCH   1  30
TORSDOF 23
ENDMDL
MODEL 3
REMARK VINA RESULT:     -10.4      4.564      9.876
REMARK SMILES Cc1ccnc(C(=O)c2[nH]c3ccc(F)cc3c2CC(=O)OCCOCCOCCOCCOC(=O)c2ccc(-c3c4nc(c(-c5ccccc5)c5ccc([nH]5)c(-c5ccccc5)c5nc(c(-c6ccccc6)c6ccc3[nH]6)C=C5)C=C4)cc2)c1
REMARK SMILES IDX 27 1 26 2 25 3 24 4 23 5 22 6 20 7 21 8 19 9 18 10 9 11
REMARK SMILES IDX 10 12 11 13 17 15 12 16 16 17 13 18 14 19 15 20 7 21 8 22
REMARK SMILES IDX 6 23 1 24 2 25 3 26 85 27 4 28 5 29 28 30 29 31 30 32 31 33
REMARK SMILES IDX 32 34 33 35 34 36 35 37 36 38 37 39 38 40 84 41 39 42 83 43
REMARK SMILES IDX 40 44 41 45 42 46 77 47 43 48 82 49 76 50 78 51 44 52 81 53
REMARK SMILES IDX 75 54 74 55 45 57 67 58 52 59 66 60 53 61 56 62 65 63 79 64
REMARK SMILES IDX 54 65 55 66 64 68 80 69 57 70 46 71 47 72 51 73 48 74 50 75
REMARK SMILES IDX 49 76 68 77 69 78 73 79 70 80 72 81 71 82 58 83 59 84 63 85
REMARK SMILES IDX 60 86 62 87 61 88
REMARK H PARENT 10 14 78 56 56 67
REMARK Flexibility Score: inf
ROOT
ATOM      1  C   UNL A   1      33.807  34.372  29.784  1.00  0.00     0.188 C 
ENDROOT
BRANCH   1   2
ATOM      2  C   UNL A   1      33.401  34.190  28.310  1.00  0.00     0.188 C 
BRANCH   2   3
ATOM      3  O   UNL A   1      34.323  33.403  27.597  1.00  0.00    -0.376 OA
BRANCH   3   4
ATOM      4  C   UNL A   1      34.323  32.068  28.077  1.00  0.00     0.202 C 
BRANCH   4   5
ATOM      5  C   UNL A   1      33.341  31.173  27.286  1.00  0.00     0.261 C 
BRANCH   5   6
ATOM      6  O   UNL A   1      33.943  29.945  26.731  1.00  0.00    -0.463 OA
BRANCH   6   7
ATOM      7  C   UNL A   1      33.137  28.879  26.487  1.00  0.00     0.310 C 
ATOM      8  O   UNL A   1      31.920  29.009  26.374  1.00  0.00    -0.252 OA
BRANCH   7   9
ATOM      9  C   UNL A   1      33.842  27.515  26.208  1.00  0.00     0.161 C 
BRANCH   9  10
ATOM     10  C   UNL A   1      33.727  26.752  24.866  1.00  0.00     0.000 A 
ATOM     11  C   UNL A   1      33.044  27.022  23.620  1.00  0.00     0.093 A 
ATOM     12  N   UNL A   1      32.974  25.758  23.017  1.00  0.00    -0.352 N 
ATOM     13  C   UNL A   1      33.756  24.809  23.625  1.00  0.00     0.046 A 
ATOM     14  H   UNL A   1      32.414  25.569  22.230  1.00  0.00     0.167 HD
ATOM     15  C   UNL A   1      34.247  25.388  24.787  1.00  0.00     0.007 A 
ATOM     16  C   UNL A   1      34.013  23.472  23.265  1.00  0.00     0.030 A 
ATOM     17  C   UNL A   1      35.037  24.580  25.643  1.00  0.00     0.049 A 
ATOM     18  C   UNL A   1      34.823  22.707  24.112  1.00  0.00     0.041 A 
ATOM     19  C   UNL A   1      35.322  23.260  25.280  1.00  0.00     0.123 A 
ATOM     20  F   UNL A   1      36.089  22.509  26.084  1.00  0.00    -0.207 F 
BRANCH  11  21
ATOM     21  C   UNL A   1      32.189  28.094  22.958  1.00  0.00     0.227 C 
ATOM     22  O   UNL A   1      32.792  29.103  22.576  1.00  0.00    -0.285 OA
BRANCH  21  23
ATOM     23  C   UNL A   1      30.620  28.235  22.923  1.00  0.00     0.113 A 
ATOM     24  C   UNL A   1      27.842  30.793  22.197  1.00  0.00     0.044 C 
ATOM     25  C   UNL A   1      28.518  29.484  22.537  1.00  0.00    -0.047 A 
ATOM     26  C   UNL A   1      27.809  28.453  23.109  1.00  0.00     0.023 A 
ATOM     27  C   UNL A   1      29.901  29.263  22.330  1.00  0.00     0.036 A 
ATOM     28  C   UNL A   1      28.535  27.341  23.508  1.00  0.00     0.112 A 
ATOM     29  N   UNL A   1      29.902  27.227  23.479  1.00  0.00    -0.253 NA
ENDBRANCH  21  23
ENDBRANCH  11  21
ENDBRANCH   9  10
ENDBRANCH   7   9
ENDBRANCH   6   7
ENDBRANCH   5   6
ENDBRANCH   4   5
ENDBRANCH   3   4
ENDBRANCH   2   3
ENDBRANCH   1   2
BRANCH   1  30
ATOM     30  O   UNL A   1      33.350  35.615  30.296  1.00  0.00    -0.377 OA
BRANCH  30  31
ATOM     31  C   UNL A   1      33.034  35.548  31.681  1.00  0.00     0.188 C 
BRANCH  31  32
ATOM     32  C   UNL A   1      33.965  36.452  32.489  1.00  0.00     0.188 C 
BRANCH  32  33
ATOM     33  O   UNL A   1      35.133  35.955  33.135  1.00  0.00    -0.376 OA
BRANCH  33  34
ATOM     34  C   UNL A   1      35.982  35.035  32.462  1.00  0.00     0.202 C 
BRANCH  34  35
ATOM     35  C   UNL A   1      36.997  34.327  33.363  1.00  0.00     0.261 C 
BRANCH  35  36
ATOM     36  O   UNL A   1      36.440  33.106  33.854  1.00  0.00    -0.460 OA
BRANCH  36  37
ATOM     37  C   UNL A   1      35.766  32.368  32.922  1.00  0.00     0.338 C 
ATOM     38  O   UNL A   1      34.616  32.466  32.593  1.00  0.00    -0.246 OA
BRANCH  37  39
ATOM     39  C   UNL A   1      36.805  31.629  32.149  1.00  0.00     0.060 A 
ATOM     40  C   UNL A   1      37.673  30.797  32.881  1.00  0.00     0.016 A 
ATOM     41  C   UNL A   1      36.751  31.549  30.753  1.00  0.00     0.016 A 
ATOM     42  C   UNL A   1      38.512  29.909  32.214  1.00  0.00     0.010 A 
ATOM     43  C   UNL A   1      37.613  30.688  30.083  1.00  0.00     0.010 A 
ATOM     44  C   UNL A   1      38.528  29.910  30.815  1.00  0.00    -0.014 A 
BRANCH  44  45
ATOM     45  C   UNL A   1      39.748  29.450  30.123  1.00  0.00     0.031 A 
ATOM     46  C   UNL A   1      40.819  30.489  29.938  1.00  0.00     0.074 A 
ATOM     47  C   UNL A   1      39.893  28.198  29.667  1.00  0.00     0.049 A 
ATOM     48  N   UNL A   1      41.949  30.417  29.289  1.00  0.00    -0.248 NA
ATOM     49  C   UNL A   1      40.565  31.804  30.559  1.00  0.00     0.031 C 
ATOM     50  C   UNL A   1      38.938  27.106  29.838  1.00  0.00     0.029 A 
ATOM     51  N   UNL A   1      40.919  27.645  28.945  1.00  0.00    -0.354 N 
ATOM     52  C   UNL A   1      42.526  31.674  29.417  1.00  0.00     0.074 A 
ATOM     53  C   UNL A   1      41.614  32.501  30.167  1.00  0.00     0.031 C 
ATOM     54  C   UNL A   1      39.419  26.010  29.219  1.00  0.00     0.029 A 
ATOM     55  C   UNL A   1      40.694  26.341  28.585  1.00  0.00     0.049 A 
ATOM     56  H   UNL A   1      41.738  28.136  28.708  1.00  0.00     0.167 HD
ATOM     57  C   UNL A   1      43.717  32.105  28.950  1.00  0.00     0.031 A 
ATOM     58  C   UNL A   1      41.433  25.526  27.807  1.00  0.00     0.031 A 
ATOM     59  C   UNL A   1      44.600  31.283  28.176  1.00  0.00     0.049 A 
ATOM     60  C   UNL A   1      42.722  26.051  27.226  1.00  0.00     0.074 A 
ATOM     61  C   UNL A   1      45.835  31.603  27.648  1.00  0.00     0.029 A 
ATOM     62  N   UNL A   1      44.325  29.974  27.810  1.00  0.00    -0.354 N 
ATOM     63  N   UNL A   1      43.278  27.233  27.371  1.00  0.00    -0.248 NA
ATOM     64  C   UNL A   1      43.490  25.127  26.380  1.00  0.00     0.031 C 
ATOM     65  C   UNL A   1      46.280  30.505  26.906  1.00  0.00     0.029 A 
ATOM     66  C   UNL A   1      45.357  29.478  27.036  1.00  0.00     0.049 A 
ATOM     67  H   UNL A   1      43.516  29.473  28.065  1.00  0.00     0.167 HD
ATOM     68  C   UNL A   1      44.473  27.182  26.662  1.00  0.00     0.074 A 
ATOM     69  C   UNL A   1      44.566  25.849  26.100  1.00  0.00     0.031 C 
ATOM     70  C   UNL A   1      45.414  28.145  26.492  1.00  0.00     0.031 A 
BRANCH  57  71
ATOM     71  C   UNL A   1      44.081  33.536  29.224  1.00  0.00    -0.014 A 
ATOM     72  C   UNL A   1      43.722  34.569  28.342  1.00  0.00     0.009 A 
ATOM     73  C   UNL A   1      44.818  33.853  30.375  1.00  0.00     0.009 A 
ATOM     74  C   UNL A   1      44.129  35.882  28.586  1.00  0.00     0.001 A 
ATOM     75  C   UNL A   1      45.194  35.172  30.636  1.00  0.00     0.001 A 
ATOM     76  C   UNL A   1      44.859  36.183  29.736  1.00  0.00     0.000 A 
ENDBRANCH  57  71
BRANCH  58  77
ATOM     77  C   UNL A   1      40.971  24.142  27.518  1.00  0.00    -0.014 A 
ATOM     78  C   UNL A   1      39.867  23.914  26.682  1.00  0.00     0.009 A 
ATOM     79  C   UNL A   1      41.625  23.038  28.088  1.00  0.00     0.009 A 
ATOM     80  C   UNL A   1      39.415  22.613  26.441  1.00  0.00     0.001 A 
ATOM     81  C   UNL A   1      41.189  21.737  27.822  1.00  0.00     0.001 A 
ATOM     82  C   UNL A   1      40.080  21.527  27.006  1.00  0.00     0.000 A 
ENDBRANCH  58  77
BRANCH  70  83
ATOM     83  C   UNL A   1      46.641  27.777  25.706  1.00  0.00    -0.014 A 
ATOM     84  C   UNL A   1      46.674  27.879  24.307  1.00  0.00     0.009 A 
ATOM     85  C   UNL A   1      47.803  27.381  26.389  1.00  0.00     0.009 A 
ATOM     86  C   UNL A   1      47.837  27.552  23.606  1.00  0.00     0.001 A 
ATOM     87  C   UNL A   1      48.973  27.090  25.688  1.00  0.00     0.001 A 
ATOM     88  C   UNL A   1      48.985  27.166  24.296  1.00  0.00     0.000 A 
ENDBRANCH  70  83
ENDBRANCH  44  45
ENDBRANCH  37  39
ENDBRANCH  36  37
ENDBRANCH  35  36
ENDBRANCH  34  35
ENDBRANCH  33  34
ENDBRANCH  32  33
ENDBRANCH  31  32
ENDBRANCH  30  31
ENDBRANCH   1  30
TORSDOF 23
ENDMDL
