MODEL 1
REMARK VINA RESULT:     -11.4      0.000      0.000
REMARK SMILES CS(=O)(=O)c1ccc(/C=C(/C(=O)OCCOCCOCCOCCOC(=O)c2ccc(-c3c4nc(c(-c5ccccc5)c5ccc([nH]5)c(-c5ccccc5)c5nc(c(-c6ccccc6)c6ccc3[nH]6)C=C5)C=C4)cc2)c2ccc(-c3ccc(F)cc3F)cc2)cc1
REMARK SMILES IDX 19 1 18 2 17 3 16 4 15 5 14 6 13 7 11 8 12 9 10 10 9 11 8 12
REMARK SMILES IDX 5 13 6 14 91 15 7 16 90 17 2 18 1 19 3 20 4 21 76 22 77 23
REMARK SMILES IDX 89 24 78 25 88 26 79 27 80 28 81 29 86 30 82 31 85 32 87 33
REMARK SMILES IDX 83 34 84 35 20 36 21 37 22 38 23 39 24 40 25 41 26 42 27 43
REMARK SMILES IDX 28 44 29 45 75 46 30 47 74 48 31 49 32 50 33 51 68 52 34 53
REMARK SMILES IDX 73 54 67 55 69 56 35 57 72 58 66 59 65 60 36 62 58 63 43 64
REMARK SMILES IDX 57 65 44 66 47 67 56 68 70 69 45 70 46 71 55 73 71 74 48 75
REMARK SMILES IDX 37 76 38 77 42 78 39 79 41 80 40 81 59 82 60 83 64 84 61 85
REMARK SMILES IDX 63 86 62 87 49 88 50 89 54 90 51 91 53 92 52 93
REMARK H PARENT 69 61 47 72
REMARK Flexibility Score: inf
ROOT
ATOM      1  O   UNL A   1      32.850  31.876  27.350  1.00  0.00    -0.377 OA
ENDROOT
BRANCH   1   2
ATOM      2  C   UNL A   1      32.542  30.581  26.866  1.00  0.00     0.188 C 
BRANCH   2   3
ATOM      3  C   UNL A   1      31.515  30.417  25.724  1.00  0.00     0.188 C 
BRANCH   3   4
ATOM      4  O   UNL A   1      31.677  29.235  24.952  1.00  0.00    -0.376 OA
BRANCH   4   5
ATOM      5  C   UNL A   1      32.992  28.978  24.482  1.00  0.00     0.202 C 
BRANCH   5   6
ATOM      6  C   UNL A   1      33.077  27.999  23.303  1.00  0.00     0.261 C 
BRANCH   6   7
ATOM      7  O   UNL A   1      33.619  26.706  23.622  1.00  0.00    -0.460 OA
BRANCH   7   8
ATOM      8  C   UNL A   1      33.566  25.761  22.651  1.00  0.00     0.338 C 
ATOM      9  O   UNL A   1      33.620  25.985  21.450  1.00  0.00    -0.246 OA
BRANCH   8  10
ATOM     10  C   UNL A   1      33.576  24.381  23.247  1.00  0.00     0.067 C 
ATOM     11  C   UNL A   1      32.492  23.585  23.086  1.00  0.00     0.024 C 
BRANCH  11  12
ATOM     12  C   UNL A   1      32.337  22.149  23.419  1.00  0.00    -0.025 A 
ATOM     13  C   UNL A   1      32.496  19.372  23.812  1.00  0.00     0.067 A 
ATOM     14  C   UNL A   1      32.620  20.230  24.900  1.00  0.00     0.021 A 
ATOM     15  C   UNL A   1      32.169  19.879  22.553  1.00  0.00     0.021 A 
ATOM     16  C   UNL A   1      32.503  21.610  24.702  1.00  0.00     0.009 A 
ATOM     17  C   UNL A   1      32.085  21.262  22.363  1.00  0.00     0.009 A 
BRANCH  13  18
ATOM     18  S   UNL A   1      32.850  17.638  23.947  1.00  0.00     0.175 S 
ATOM     19  C   UNL A   1      34.542  17.497  24.460  1.00  0.00     0.163 C 
ATOM     20  O   UNL A   1      32.777  17.099  22.602  1.00  0.00    -0.224 OA
ATOM     21  O   UNL A   1      32.011  17.124  25.010  1.00  0.00    -0.224 OA
ENDBRANCH  13  18
ENDBRANCH  11  12
BRANCH  10  22
ATOM     22  C   UNL A   1      34.792  23.968  23.977  1.00  0.00    -0.011 A 
ATOM     23  C   UNL A   1      35.765  23.199  23.325  1.00  0.00     0.009 A 
ATOM     24  C   UNL A   1      35.040  24.383  25.284  1.00  0.00     0.009 A 
ATOM     25  C   UNL A   1      36.941  22.817  23.970  1.00  0.00     0.009 A 
ATOM     26  C   UNL A   1      36.236  24.022  25.919  1.00  0.00     0.009 A 
ATOM     27  C   UNL A   1      37.202  23.215  25.287  1.00  0.00    -0.015 A 
BRANCH  27  28
ATOM     28  C   UNL A   1      38.429  22.762  25.975  1.00  0.00     0.018 A 
ATOM     29  C   UNL A   1      39.197  23.647  26.760  1.00  0.00     0.015 A 
ATOM     30  C   UNL A   1      38.912  21.449  25.831  1.00  0.00     0.133 A 
ATOM     31  C   UNL A   1      40.399  23.237  27.346  1.00  0.00     0.040 A 
ATOM     32  C   UNL A   1      40.102  21.030  26.419  1.00  0.00     0.079 A 
ATOM     33  F   UNL A   1      38.244  20.555  25.085  1.00  0.00    -0.206 F 
ATOM     34  C   UNL A   1      40.839  21.932  27.165  1.00  0.00     0.126 A 
ATOM     35  F   UNL A   1      41.996  21.545  27.717  1.00  0.00    -0.207 F 
ENDBRANCH  27  28
ENDBRANCH  10  22
ENDBRANCH   8  10
ENDBRANCH   7   8
ENDBRANCH   6   7
ENDBRANCH   5   6
ENDBRANCH   4   5
ENDBRANCH   3   4
ENDBRANCH   2   3
ENDBRANCH   1   2
BRANCH   1  36
ATOM     36  C   UNL A   1      34.078  32.080  28.034  1.00  0.00     0.188 C 
BRANCH  36  37
ATOM     37  C   UNL A   1      34.458  33.495  28.523  1.00  0.00     0.188 C 
BRANCH  37  38
ATOM     38  O   UNL A   1      33.361  34.391  28.651  1.00  0.00    -0.376 OA
BRANCH  38  39
ATOM     39  C   UNL A   1      33.658  35.707  29.092  1.00  0.00     0.202 C 
BRANCH  39  40
ATOM     40  C   UNL A   1      32.580  36.375  29.953  1.00  0.00     0.261 C 
BRANCH  40  41
ATOM     41  O   UNL A   1      33.017  36.875  31.226  1.00  0.00    -0.460 OA
BRANCH  41  42
ATOM     42  C   UNL A   1      32.702  36.165  32.335  1.00  0.00     0.338 C 
ATOM     43  O   UNL A   1      31.638  36.126  32.914  1.00  0.00    -0.246 OA
BRANCH  42  44
ATOM     44  C   UNL A   1      33.854  35.277  32.605  1.00  0.00     0.060 A 
ATOM     45  C   UNL A   1      33.626  33.963  33.038  1.00  0.00     0.016 A 
ATOM     46  C   UNL A   1      35.149  35.724  32.344  1.00  0.00     0.016 A 
ATOM     47  C   UNL A   1      34.701  33.086  33.198  1.00  0.00     0.010 A 
ATOM     48  C   UNL A   1      36.225  34.857  32.535  1.00  0.00     0.010 A 
ATOM     49  C   UNL A   1      36.008  33.538  32.971  1.00  0.00    -0.014 A 
BRANCH  49  50
ATOM     50  C   UNL A   1      37.175  32.704  33.336  1.00  0.00     0.031 A 
ATOM     51  C   UNL A   1      37.876  32.993  34.631  1.00  0.00     0.074 A 
ATOM     52  C   UNL A   1      37.633  31.741  32.518  1.00  0.00     0.049 A 
ATOM     53  N   UNL A   1      38.990  32.495  35.101  1.00  0.00    -0.248 NA
ATOM     54  C   UNL A   1      37.234  33.985  35.509  1.00  0.00     0.031 C 
ATOM     55  C   UNL A   1      37.009  31.324  31.264  1.00  0.00     0.029 A 
ATOM     56  N   UNL A   1      38.751  30.950  32.620  1.00  0.00    -0.354 N 
ATOM     57  C   UNL A   1      39.186  33.117  36.328  1.00  0.00     0.074 A 
ATOM     58  C   UNL A   1      38.092  34.044  36.516  1.00  0.00     0.031 C 
ATOM     59  C   UNL A   1      37.765  30.362  30.702  1.00  0.00     0.029 A 
ATOM     60  C   UNL A   1      38.946  30.133  31.534  1.00  0.00     0.049 A 
ATOM     61  H   UNL A   1      39.354  30.968  33.398  1.00  0.00     0.167 HD
ATOM     62  C   UNL A   1      40.191  32.935  37.216  1.00  0.00     0.031 A 
ATOM     63  C   UNL A   1      39.979  29.322  31.231  1.00  0.00     0.031 A 
ATOM     64  C   UNL A   1      41.296  32.040  37.010  1.00  0.00     0.049 A 
ATOM     65  C   UNL A   1      41.152  29.234  32.173  1.00  0.00     0.074 A 
ATOM     66  C   UNL A   1      42.363  31.779  37.853  1.00  0.00     0.029 A 
ATOM     67  N   UNL A   1      41.489  31.276  35.869  1.00  0.00    -0.354 N 
ATOM     68  N   UNL A   1      41.321  29.807  33.341  1.00  0.00    -0.248 NA
ATOM     69  C   UNL A   1      42.282  28.394  31.748  1.00  0.00     0.031 C 
ATOM     70  C   UNL A   1      43.235  30.907  37.192  1.00  0.00     0.029 A 
ATOM     71  C   UNL A   1      42.679  30.575  35.967  1.00  0.00     0.049 A 
ATOM     72  H   UNL A   1      40.871  31.239  35.104  1.00  0.00     0.167 HD
ATOM     73  C   UNL A   1      42.563  29.381  33.799  1.00  0.00     0.074 A 
ATOM     74  C   UNL A   1      43.098  28.490  32.790  1.00  0.00     0.031 C 
ATOM     75  C   UNL A   1      43.202  29.697  34.951  1.00  0.00     0.031 A 
BRANCH  62  76
ATOM     76  C   UNL A   1      40.155  33.764  38.469  1.00  0.00    -0.014 A 
ATOM     77  C   UNL A   1      40.957  34.908  38.612  1.00  0.00     0.009 A 
ATOM     78  C   UNL A   1      39.301  33.397  39.519  1.00  0.00     0.009 A 
ATOM     79  C   UNL A   1      40.934  35.643  39.799  1.00  0.00     0.001 A 
ATOM     80  C   UNL A   1      39.256  34.152  40.693  1.00  0.00     0.001 A 
ATOM     81  C   UNL A   1      40.080  35.266  40.835  1.00  0.00     0.000 A 
ENDBRANCH  62  76
BRANCH  63  82
ATOM     82  C   UNL A   1      39.976  28.552  29.958  1.00  0.00    -0.014 A 
ATOM     83  C   UNL A   1      40.484  29.119  28.780  1.00  0.00     0.009 A 
ATOM     84  C   UNL A   1      39.447  27.252  29.911  1.00  0.00     0.009 A 
ATOM     85  C   UNL A   1      40.448  28.407  27.578  1.00  0.00     0.001 A 
ATOM     86  C   UNL A   1      39.438  26.532  28.714  1.00  0.00     0.001 A 
ATOM     87  C   UNL A   1      39.931  27.114  27.547  1.00  0.00     0.000 A 
ENDBRANCH  63  82
BRANCH  75  88
ATOM     88  C   UNL A   1      44.542  29.065  35.201  1.00  0.00    -0.014 A 
ATOM     89  C   UNL A   1      44.652  27.809  35.817  1.00  0.00     0.009 A 
ATOM     90  C   UNL A   1      45.709  29.704  34.749  1.00  0.00     0.009 A 
ATOM     91  C   UNL A   1      45.904  27.216  35.994  1.00  0.00     0.001 A 
ATOM     92  C   UNL A   1      46.956  29.095  34.902  1.00  0.00     0.001 A 
ATOM     93  C   UNL A   1      47.053  27.855  35.530  1.00  0.00     0.000 A 
ENDBRANCH  75  88
ENDBRANCH  49  50
ENDBRANCH  42  44
ENDBRANCH  41  42
ENDBRANCH  40  41
ENDBRANCH  39  40
ENDBRANCH  38  39
ENDBRANCH  37  38
ENDBRANCH  36  37
ENDBRANCH   1  36
TORSDOF 24
ENDMDL
MODEL 2
REMARK VINA RESULT:     -10.8      0.969      5.492
REMARK SMILES CS(=O)(=O)c1ccc(/C=C(/C(=O)OCCOCCOCCOCCOC(=O)c2ccc(-c3c4nc(c(-c5ccccc5)c5ccc([nH]5)c(-c5ccccc5)c5nc(c(-c6ccccc6)c6ccc3[nH]6)C=C5)C=C4)cc2)c2ccc(-c3ccc(F)cc3F)cc2)cc1
REMARK SMILES IDX 19 1 18 2 17 3 16 4 15 5 14 6 13 7 11 8 12 9 10 10 9 11 8 12
REMARK SMILES IDX 5 13 6 14 91 15 7 16 90 17 2 18 1 19 3 20 4 21 76 22 77 23
REMARK SMILES IDX 89 24 78 25 88 26 79 27 80 28 81 29 86 30 82 31 85 32 87 33
REMARK SMILES IDX 83 34 84 35 20 36 21 37 22 38 23 39 24 40 25 41 26 42 27 43
REMARK SMILES IDX 28 44 29 45 75 46 30 47 74 48 31 49 32 50 33 51 68 52 34 53
REMARK SMILES IDX 73 54 67 55 69 56 35 57 72 58 66 59 65 60 36 62 58 63 43 64
REMARK SMILES IDX 57 65 44 66 47 67 56 68 70 69 45 70 46 71 55 73 71 74 48 75
REMARK SMILES IDX 37 76 38 77 42 78 39 79 41 80 40 81 59 82 60 83 64 84 61 85
REMARK SMILES IDX 63 86 62 87 49 88 50 89 54 90 51 91 53 92 52 93
REMARK H PARENT 69 61 47 72
REMARK Flexibility Score: inf
ROOT
ATOM      1  O   UNL A   1      32.839  31.250  27.042  1.00  0.00    -0.377 OA
ENDROOT
BRANCH   1   2
ATOM      2  C   UNL A   1      32.471  30.113  26.282  1.00  0.00     0.188 C 
BRANCH   2   3
ATOM      3  C   UNL A   1      31.282  30.201  25.300  1.00  0.00     0.188 C 
BRANCH   3   4
ATOM      4  O   UNL A   1      31.272  29.196  24.296  1.00  0.00    -0.376 OA
BRANCH   4   5
ATOM      5  C   UNL A   1      32.466  28.440  24.164  1.00  0.00     0.202 C 
BRANCH   5   6
ATOM      6  C   UNL A   1      32.390  27.282  23.161  1.00  0.00     0.261 C 
BRANCH   6   7
ATOM      7  O   UNL A   1      32.913  26.028  23.635  1.00  0.00    -0.460 OA
BRANCH   7   8
ATOM      8  C   UNL A   1      33.290  25.125  22.698  1.00  0.00     0.338 C 
ATOM      9  O   UNL A   1      33.571  25.393  21.539  1.00  0.00    -0.246 OA
BRANCH   8  10
ATOM     10  C   UNL A   1      33.456  23.760  23.307  1.00  0.00     0.067 C 
ATOM     11  C   UNL A   1      32.462  22.850  23.168  1.00  0.00     0.024 C 
BRANCH  11  12
ATOM     12  C   UNL A   1      32.469  21.410  23.517  1.00  0.00    -0.025 A 
ATOM     13  C   UNL A   1      32.903  18.660  23.887  1.00  0.00     0.067 A 
ATOM     14  C   UNL A   1      33.081  19.535  24.953  1.00  0.00     0.021 A 
ATOM     15  C   UNL A   1      32.391  19.126  22.675  1.00  0.00     0.021 A 
ATOM     16  C   UNL A   1      32.827  20.898  24.771  1.00  0.00     0.009 A 
ATOM     17  C   UNL A   1      32.170  20.495  22.497  1.00  0.00     0.009 A 
BRANCH  13  18
ATOM     18  S   UNL A   1      33.414  16.962  23.980  1.00  0.00     0.175 S 
ATOM     19  C   UNL A   1      34.943  16.934  24.879  1.00  0.00     0.163 C 
ATOM     20  O   UNL A   1      33.722  16.553  22.622  1.00  0.00    -0.224 OA
ATOM     21  O   UNL A   1      32.414  16.269  24.766  1.00  0.00    -0.224 OA
ENDBRANCH  13  18
ENDBRANCH  11  12
BRANCH  10  22
ATOM     22  C   UNL A   1      34.719  23.489  24.023  1.00  0.00    -0.011 A 
ATOM     23  C   UNL A   1      35.809  22.949  23.329  1.00  0.00     0.009 A 
ATOM     24  C   UNL A   1      34.887  23.823  25.365  1.00  0.00     0.009 A 
ATOM     25  C   UNL A   1      37.027  22.708  23.963  1.00  0.00     0.009 A 
ATOM     26  C   UNL A   1      36.122  23.608  25.993  1.00  0.00     0.009 A 
ATOM     27  C   UNL A   1      37.211  23.027  25.314  1.00  0.00    -0.015 A 
BRANCH  27  28
ATOM     28  C   UNL A   1      38.492  22.721  25.985  1.00  0.00     0.018 A 
ATOM     29  C   UNL A   1      39.088  21.446  25.880  1.00  0.00     0.015 A 
ATOM     30  C   UNL A   1      39.140  23.666  26.801  1.00  0.00     0.133 A 
ATOM     31  C   UNL A   1      40.258  21.136  26.580  1.00  0.00     0.040 A 
ATOM     32  C   UNL A   1      40.311  23.368  27.493  1.00  0.00     0.079 A 
ATOM     33  F   UNL A   1      38.624  24.894  26.963  1.00  0.00    -0.206 F 
ATOM     34  C   UNL A   1      40.855  22.100  27.381  1.00  0.00     0.126 A 
ATOM     35  F   UNL A   1      41.968  21.797  28.058  1.00  0.00    -0.207 F 
ENDBRANCH  27  28
ENDBRANCH  10  22
ENDBRANCH   8  10
ENDBRANCH   7   8
ENDBRANCH   6   7
ENDBRANCH   5   6
ENDBRANCH   4   5
ENDBRANCH   3   4
ENDBRANCH   2   3
ENDBRANCH   1   2
BRANCH   1  36
ATOM     36  C   UNL A   1      34.120  31.284  27.653  1.00  0.00     0.188 C 
BRANCH  36  37
ATOM     37  C   UNL A   1      34.627  32.591  28.301  1.00  0.00     0.188 C 
BRANCH  37  38
ATOM     38  O   UNL A   1      33.686  33.657  28.296  1.00  0.00    -0.376 OA
BRANCH  38  39
ATOM     39  C   UNL A   1      33.992  34.783  29.104  1.00  0.00     0.202 C 
BRANCH  39  40
ATOM     40  C   UNL A   1      32.822  35.353  29.914  1.00  0.00     0.261 C 
BRANCH  40  41
ATOM     41  O   UNL A   1      33.166  35.949  31.175  1.00  0.00    -0.460 OA
BRANCH  41  42
ATOM     42  C   UNL A   1      33.006  35.209  32.297  1.00  0.00     0.338 C 
ATOM     43  O   UNL A   1      31.971  34.943  32.869  1.00  0.00    -0.246 OA
BRANCH  42  44
ATOM     44  C   UNL A   1      34.325  34.610  32.595  1.00  0.00     0.060 A 
ATOM     45  C   UNL A   1      34.398  33.272  33.011  1.00  0.00     0.016 A 
ATOM     46  C   UNL A   1      35.487  35.350  32.378  1.00  0.00     0.016 A 
ATOM     47  C   UNL A   1      35.643  32.668  33.197  1.00  0.00     0.010 A 
ATOM     48  C   UNL A   1      36.729  34.755  32.595  1.00  0.00     0.010 A 
ATOM     49  C   UNL A   1      36.814  33.416  33.014  1.00  0.00    -0.014 A 
BRANCH  49  50
ATOM     50  C   UNL A   1      38.133  32.871  33.408  1.00  0.00     0.031 A 
ATOM     51  C   UNL A   1      38.790  31.874  32.499  1.00  0.00     0.074 A 
ATOM     52  C   UNL A   1      38.717  33.217  34.568  1.00  0.00     0.049 A 
ATOM     53  N   UNL A   1      39.869  31.162  32.689  1.00  0.00    -0.248 NA
ATOM     54  C   UNL A   1      38.131  31.647  31.201  1.00  0.00     0.031 C 
ATOM     55  C   UNL A   1      38.212  34.214  35.509  1.00  0.00     0.029 A 
ATOM     56  N   UNL A   1      39.862  32.743  35.158  1.00  0.00    -0.354 N 
ATOM     57  C   UNL A   1      40.017  30.397  31.538  1.00  0.00     0.074 A 
ATOM     58  C   UNL A   1      38.905  30.713  30.670  1.00  0.00     0.031 C 
ATOM     59  C   UNL A   1      39.038  34.267  36.570  1.00  0.00     0.029 A 
ATOM     60  C   UNL A   1      40.098  33.274  36.403  1.00  0.00     0.049 A 
ATOM     61  H   UNL A   1      40.457  32.085  34.730  1.00  0.00     0.167 HD
ATOM     62  C   UNL A   1      40.990  29.506  31.236  1.00  0.00     0.031 A 
ATOM     63  C   UNL A   1      41.041  32.965  37.314  1.00  0.00     0.031 A 
ATOM     64  C   UNL A   1      42.073  29.165  32.116  1.00  0.00     0.049 A 
ATOM     65  C   UNL A   1      42.037  31.875  37.009  1.00  0.00     0.074 A 
ATOM     66  C   UNL A   1      43.114  28.279  31.900  1.00  0.00     0.029 A 
ATOM     67  N   UNL A   1      42.242  29.680  33.393  1.00  0.00    -0.354 N 
ATOM     68  N   UNL A   1      42.186  31.172  35.912  1.00  0.00    -0.248 NA
ATOM     69  C   UNL A   1      42.990  31.531  38.076  1.00  0.00     0.031 C 
ATOM     70  C   UNL A   1      43.876  28.209  33.072  1.00  0.00     0.029 A 
ATOM     71  C   UNL A   1      43.346  29.099  33.993  1.00  0.00     0.049 A 
ATOM     72  H   UNL A   1      41.663  30.357  33.809  1.00  0.00     0.167 HD
ATOM     73  C   UNL A   1      43.259  30.320  36.147  1.00  0.00     0.074 A 
ATOM     74  C   UNL A   1      43.733  30.603  37.486  1.00  0.00     0.031 C 
ATOM     75  C   UNL A   1      43.802  29.387  35.329  1.00  0.00     0.031 A 
BRANCH  62  76
ATOM     76  C   UNL A   1      40.888  28.805  29.910  1.00  0.00    -0.014 A 
ATOM     77  C   UNL A   1      40.086  27.665  29.746  1.00  0.00     0.009 A 
ATOM     78  C   UNL A   1      41.601  29.299  28.808  1.00  0.00     0.009 A 
ATOM     79  C   UNL A   1      40.033  27.009  28.514  1.00  0.00     0.001 A 
ATOM     80  C   UNL A   1      41.522  28.660  27.569  1.00  0.00     0.001 A 
ATOM     81  C   UNL A   1      40.748  27.510  27.427  1.00  0.00     0.000 A 
ENDBRANCH  62  76
BRANCH  63  82
ATOM     82  C   UNL A   1      41.072  33.668  38.625  1.00  0.00    -0.014 A 
ATOM     83  C   UNL A   1      40.292  33.211  39.698  1.00  0.00     0.009 A 
ATOM     84  C   UNL A   1      41.868  34.811  38.805  1.00  0.00     0.009 A 
ATOM     85  C   UNL A   1      40.295  33.893  40.917  1.00  0.00     0.001 A 
ATOM     86  C   UNL A   1      41.890  35.475  40.033  1.00  0.00     0.001 A 
ATOM     87  C   UNL A   1      41.097  35.020  41.086  1.00  0.00     0.000 A 
ENDBRANCH  63  82
BRANCH  75  88
ATOM     88  C   UNL A   1      44.985  28.614  35.841  1.00  0.00    -0.014 A 
ATOM     89  C   UNL A   1      44.820  27.414  36.551  1.00  0.00     0.009 A 
ATOM     90  C   UNL A   1      46.286  29.057  35.550  1.00  0.00     0.009 A 
ATOM     91  C   UNL A   1      45.933  26.686  36.975  1.00  0.00     0.001 A 
ATOM     92  C   UNL A   1      47.396  28.311  35.950  1.00  0.00     0.001 A 
ATOM     93  C   UNL A   1      47.219  27.130  36.668  1.00  0.00     0.000 A 
ENDBRANCH  75  88
ENDBRANCH  49  50
ENDBRANCH  42  44
ENDBRANCH  41  42
ENDBRANCH  40  41
ENDBRANCH  39  40
ENDBRANCH  38  39
ENDBRANCH  37  38
ENDBRANCH  36  37
ENDBRANCH   1  36
TORSDOF 24
ENDMDL
MODEL 3
REMARK VINA RESULT:     -10.3      3.341      5.180
REMARK SMILES CS(=O)(=O)c1ccc(/C=C(/C(=O)OCCOCCOCCOCCOC(=O)c2ccc(-c3c4nc(c(-c5ccccc5)c5ccc([nH]5)c(-c5ccccc5)c5nc(c(-c6ccccc6)c6ccc3[nH]6)C=C5)C=C4)cc2)c2ccc(-c3ccc(F)cc3F)cc2)cc1
REMARK SMILES IDX 19 1 18 2 17 3 16 4 15 5 14 6 13 7 11 8 12 9 10 10 9 11 8 12
REMARK SMILES IDX 5 13 6 14 91 15 7 16 90 17 2 18 1 19 3 20 4 21 76 22 77 23
REMARK SMILES IDX 89 24 78 25 88 26 79 27 80 28 81 29 86 30 82 31 85 32 87 33
REMARK SMILES IDX 83 34 84 35 20 36 21 37 22 38 23 39 24 40 25 41 26 42 27 43
REMARK SMILES IDX 28 44 29 45 75 46 30 47 74 48 31 49 32 50 33 51 68 52 34 53
REMARK SMILES IDX 73 54 67 55 69 56 35 57 72 58 66 59 65 60 36 62 58 63 43 64
REMARK SMILES IDX 57 65 44 66 47 67 56 68 70 69 45 70 46 71 55 73 71 74 48 75
REMARK SMILES IDX 37 76 38 77 42 78 39 79 41 80 40 81 59 82 60 83 64 84 61 85
REMARK SMILES IDX 63 86 62 87 49 88 50 89 54 90 51 91 53 92 52 93
REMARK H PARENT 69 61 47 72
REMARK Flexibility Score: inf
ROOT
ATOM      1  O   UNL A   1      33.175  31.145  27.145  1.00  0.00    -0.377 OA
ENDROOT
BRANCH   1   2
ATOM      2  C   UNL A   1      32.964  29.819  26.694  1.00  0.00     0.188 C 
BRANCH   2   3
ATOM      3  C   UNL A   1      31.780  29.512  25.751  1.00  0.00     0.188 C 
BRANCH   3   4
ATOM      4  O   UNL A   1      32.037  28.490  24.797  1.00  0.00    -0.376 OA
BRANCH   4   5
ATOM      5  C   UNL A   1      33.097  27.601  25.113  1.00  0.00     0.202 C 
BRANCH   5   6
ATOM      6  C   UNL A   1      33.564  26.713  23.952  1.00  0.00     0.261 C 
BRANCH   6   7
ATOM      7  O   UNL A   1      32.616  25.718  23.526  1.00  0.00    -0.460 OA
BRANCH   7   8
ATOM      8  C   UNL A   1      33.047  24.808  22.618  1.00  0.00     0.338 C 
ATOM      9  O   UNL A   1      33.301  25.053  21.447  1.00  0.00    -0.246 OA
BRANCH   8  10
ATOM     10  C   UNL A   1      33.311  23.481  23.274  1.00  0.00     0.067 C 
ATOM     11  C   UNL A   1      32.406  22.484  23.133  1.00  0.00     0.024 C 
BRANCH  11  12
ATOM     12  C   UNL A   1      32.525  21.061  23.527  1.00  0.00    -0.025 A 
ATOM     13  C   UNL A   1      33.131  18.347  23.928  1.00  0.00     0.067 A 
ATOM     14  C   UNL A   1      33.415  19.271  24.927  1.00  0.00     0.021 A 
ATOM     15  C   UNL A   1      32.435  18.743  22.784  1.00  0.00     0.021 A 
ATOM     16  C   UNL A   1      33.077  20.615  24.735  1.00  0.00     0.009 A 
ATOM     17  C   UNL A   1      32.130  20.094  22.591  1.00  0.00     0.009 A 
BRANCH  13  18
ATOM     18  S   UNL A   1      33.727  16.676  24.006  1.00  0.00     0.175 S 
ATOM     19  C   UNL A   1      35.136  16.683  25.083  1.00  0.00     0.163 C 
ATOM     20  O   UNL A   1      34.218  16.355  22.679  1.00  0.00    -0.224 OA
ATOM     21  O   UNL A   1      32.682  15.891  24.632  1.00  0.00    -0.224 OA
ENDBRANCH  13  18
ENDBRANCH  11  12
BRANCH  10  22
ATOM     22  C   UNL A   1      34.568  23.343  24.037  1.00  0.00    -0.011 A 
ATOM     23  C   UNL A   1      35.757  23.028  23.366  1.00  0.00     0.009 A 
ATOM     24  C   UNL A   1      34.626  23.588  25.407  1.00  0.00     0.009 A 
ATOM     25  C   UNL A   1      36.969  22.920  24.047  1.00  0.00     0.009 A 
ATOM     26  C   UNL A   1      35.851  23.508  26.084  1.00  0.00     0.009 A 
ATOM     27  C   UNL A   1      37.043  23.152  25.425  1.00  0.00    -0.015 A 
BRANCH  27  28
ATOM     28  C   UNL A   1      38.325  22.985  26.142  1.00  0.00     0.018 A 
ATOM     29  C   UNL A   1      38.919  24.059  26.840  1.00  0.00     0.015 A 
ATOM     30  C   UNL A   1      39.034  21.771  26.113  1.00  0.00     0.133 A 
ATOM     31  C   UNL A   1      40.169  23.921  27.451  1.00  0.00     0.040 A 
ATOM     32  C   UNL A   1      40.274  21.623  26.728  1.00  0.00     0.079 A 
ATOM     33  F   UNL A   1      38.540  20.710  25.455  1.00  0.00    -0.206 F 
ATOM     34  C   UNL A   1      40.834  22.704  27.385  1.00  0.00     0.126 A 
ATOM     35  F   UNL A   1      42.035  22.577  27.961  1.00  0.00    -0.207 F 
ENDBRANCH  27  28
ENDBRANCH  10  22
ENDBRANCH   8  10
ENDBRANCH   7   8
ENDBRANCH   6   7
ENDBRANCH   5   6
ENDBRANCH   4   5
ENDBRANCH   3   4
ENDBRANCH   2   3
ENDBRANCH   1   2
BRANCH   1  36
ATOM     36  C   UNL A   1      34.397  31.464  27.795  1.00  0.00     0.188 C 
BRANCH  36  37
ATOM     37  C   UNL A   1      34.405  32.483  28.956  1.00  0.00     0.188 C 
BRANCH  37  38
ATOM     38  O   UNL A   1      33.698  33.687  28.690  1.00  0.00    -0.376 OA
BRANCH  38  39
ATOM     39  C   UNL A   1      34.057  34.823  29.461  1.00  0.00     0.202 C 
BRANCH  39  40
ATOM     40  C   UNL A   1      33.367  34.941  30.825  1.00  0.00     0.261 C 
BRANCH  40  41
ATOM     41  O   UNL A   1      34.239  34.996  31.965  1.00  0.00    -0.460 OA
BRANCH  41  42
ATOM     42  C   UNL A   1      34.353  33.890  32.737  1.00  0.00     0.338 C 
ATOM     43  O   UNL A   1      33.461  33.244  33.244  1.00  0.00    -0.246 OA
BRANCH  42  44
ATOM     44  C   UNL A   1      35.776  33.491  32.689  1.00  0.00     0.060 A 
ATOM     45  C   UNL A   1      36.722  34.216  33.429  1.00  0.00     0.016 A 
ATOM     46  C   UNL A   1      36.153  32.350  31.981  1.00  0.00     0.016 A 
ATOM     47  C   UNL A   1      38.050  33.787  33.472  1.00  0.00     0.010 A 
ATOM     48  C   UNL A   1      37.485  31.941  31.998  1.00  0.00     0.010 A 
ATOM     49  C   UNL A   1      38.442  32.661  32.735  1.00  0.00    -0.014 A 
BRANCH  49  50
ATOM     50  C   UNL A   1      39.873  32.310  32.588  1.00  0.00     0.031 A 
ATOM     51  C   UNL A   1      40.696  33.087  31.603  1.00  0.00     0.074 A 
ATOM     52  C   UNL A   1      40.420  31.295  33.277  1.00  0.00     0.049 A 
ATOM     53  N   UNL A   1      41.924  32.881  31.202  1.00  0.00    -0.248 NA
ATOM     54  C   UNL A   1      40.040  34.250  30.983  1.00  0.00     0.031 C 
ATOM     55  C   UNL A   1      39.746  30.503  34.303  1.00  0.00     0.029 A 
ATOM     56  N   UNL A   1      41.677  30.747  33.197  1.00  0.00    -0.354 N 
ATOM     57  C   UNL A   1      42.185  33.885  30.277  1.00  0.00     0.074 A 
ATOM     58  C   UNL A   1      40.983  34.680  30.159  1.00  0.00     0.031 C 
ATOM     59  C   UNL A   1      40.593  29.556  34.747  1.00  0.00     0.029 A 
ATOM     60  C   UNL A   1      41.849  29.648  34.003  1.00  0.00     0.049 A 
ATOM     61  H   UNL A   1      42.386  31.108  32.617  1.00  0.00     0.167 HD
ATOM     62  C   UNL A   1      43.324  34.119  29.584  1.00  0.00     0.031 A 
ATOM     63  C   UNL A   1      42.887  28.795  34.099  1.00  0.00     0.031 A 
ATOM     64  C   UNL A   1      44.504  33.304  29.675  1.00  0.00     0.049 A 
ATOM     65  C   UNL A   1      44.095  28.998  33.221  1.00  0.00     0.074 A 
ATOM     66  C   UNL A   1      45.713  33.461  29.019  1.00  0.00     0.029 A 
ATOM     67  N   UNL A   1      44.617  32.164  30.456  1.00  0.00    -0.354 N 
ATOM     68  N   UNL A   1      44.346  29.960  32.366  1.00  0.00    -0.248 NA
ATOM     69  C   UNL A   1      45.161  27.987  33.316  1.00  0.00     0.031 C 
ATOM     70  C   UNL A   1      46.533  32.378  29.354  1.00  0.00     0.029 A 
ATOM     71  C   UNL A   1      45.859  31.583  30.267  1.00  0.00     0.049 A 
ATOM     72  H   UNL A   1      43.916  31.820  31.056  1.00  0.00     0.167 HD
ATOM     73  C   UNL A   1      45.603  29.685  31.839  1.00  0.00     0.074 A 
ATOM     74  C   UNL A   1      46.070  28.473  32.480  1.00  0.00     0.031 C 
ATOM     75  C   UNL A   1      46.307  30.373  30.908  1.00  0.00     0.031 A 
BRANCH  62  76
ATOM     76  C   UNL A   1      43.318  35.280  28.631  1.00  0.00    -0.014 A 
ATOM     77  C   UNL A   1      43.665  36.574  29.053  1.00  0.00     0.009 A 
ATOM     78  C   UNL A   1      42.967  35.074  27.289  1.00  0.00     0.009 A 
ATOM     79  C   UNL A   1      43.618  37.645  28.158  1.00  0.00     0.001 A 
ATOM     80  C   UNL A   1      42.952  36.141  26.388  1.00  0.00     0.001 A 
ATOM     81  C   UNL A   1      43.266  37.426  26.826  1.00  0.00     0.000 A 
ENDBRANCH  62  76
BRANCH  63  82
ATOM     82  C   UNL A   1      42.822  27.641  35.036  1.00  0.00    -0.014 A 
ATOM     83  C   UNL A   1      42.414  26.377  34.584  1.00  0.00     0.009 A 
ATOM     84  C   UNL A   1      43.150  27.802  36.392  1.00  0.00     0.009 A 
ATOM     85  C   UNL A   1      42.319  25.303  35.473  1.00  0.00     0.001 A 
ATOM     86  C   UNL A   1      43.081  26.720  37.272  1.00  0.00     0.001 A 
ATOM     87  C   UNL A   1      42.658  25.474  36.814  1.00  0.00     0.000 A 
ENDBRANCH  63  82
BRANCH  75  88
ATOM     88  C   UNL A   1      47.666  29.852  30.536  1.00  0.00    -0.014 A 
ATOM     89  C   UNL A   1      48.785  30.088  31.351  1.00  0.00     0.009 A 
ATOM     90  C   UNL A   1      47.817  29.052  29.391  1.00  0.00     0.009 A 
ATOM     91  C   UNL A   1      50.030  29.552  31.014  1.00  0.00     0.001 A 
ATOM     92  C   UNL A   1      49.057  28.494  29.073  1.00  0.00     0.001 A 
ATOM     93  C   UNL A   1      50.163  28.750  29.881  1.00  0.00     0.000 A 
ENDBRANCH  75  88
ENDBRANCH  49  50
ENDBRANCH  42  44
ENDBRANCH  41  42
ENDBRANCH  40  41
ENDBRANCH  39  40
ENDBRANCH  38  39
ENDBRANCH  37  38
ENDBRANCH  36  37
ENDBRANCH   1  36
TORSDOF 24
ENDMDL
