MODEL 1
REMARK VINA RESULT:     -10.0      0.000      0.000
REMARK SMILES O=C(OCCOCCOCCOCCOC(=O)[C@H]1[C@H]2C[C@@H]3[C@@H](OC(=O)[C@@H]31)[C@@H]2Sc1ccccc1)c1ccc(-c2c3nc(c(-c4ccccc4)c4ccc([nH]4)c(-c4ccccc4)c4nc(c(-c5ccccc5)c5ccc2[nH]5)C=C4)C=C3)cc1
REMARK SMILES IDX 9 1 8 2 7 3 6 4 5 5 4 6 3 7 2 8 1 9 35 10 36 11 82 12 37 13
REMARK SMILES IDX 81 14 38 15 39 16 40 17 75 18 41 19 80 20 74 21 76 22 42 23
REMARK SMILES IDX 79 24 73 25 72 26 43 28 65 29 50 30 64 31 51 32 54 33 63 34
REMARK SMILES IDX 77 35 52 36 53 37 62 39 78 40 55 41 44 42 45 43 49 44 46 45
REMARK SMILES IDX 48 46 47 47 66 48 67 49 71 50 68 51 70 52 69 53 56 54 57 55
REMARK SMILES IDX 61 56 58 57 60 58 59 59 10 60 11 61 12 62 13 63 14 64 15 65
REMARK SMILES IDX 16 66 17 67 18 68 19 69 26 70 20 71 27 72 21 73 24 74 22 75
REMARK SMILES IDX 23 76 25 77 28 78 29 79 30 80 34 81 31 82 33 83 32 84
REMARK H PARENT 76 27 54 38
REMARK Flexibility Score: inf
ROOT
ATOM      1  O   UNL A   1      35.869  22.521  24.537  1.00  0.00    -0.377 OA
ENDROOT
BRANCH   1   2
ATOM      2  C   UNL A   1      37.207  22.155  24.218  1.00  0.00     0.188 C 
BRANCH   2   3
ATOM      3  C   UNL A   1      37.821  21.004  25.020  1.00  0.00     0.188 C 
BRANCH   3   4
ATOM      4  O   UNL A   1      38.941  21.425  25.791  1.00  0.00    -0.376 OA
BRANCH   4   5
ATOM      5  C   UNL A   1      40.129  20.633  25.786  1.00  0.00     0.202 C 
BRANCH   5   6
ATOM      6  C   UNL A   1      41.389  21.307  26.298  1.00  0.00     0.261 C 
BRANCH   6   7
ATOM      7  O   UNL A   1      42.089  22.121  25.349  1.00  0.00    -0.460 OA
BRANCH   7   8
ATOM      8  C   UNL A   1      42.708  23.312  25.474  1.00  0.00     0.338 C 
ATOM      9  O   UNL A   1      43.515  23.633  24.600  1.00  0.00    -0.246 OA
BRANCH   8  10
ATOM     10  C   UNL A   1      42.485  24.290  26.576  1.00  0.00     0.060 A 
ATOM     11  C   UNL A   1      42.067  23.998  27.875  1.00  0.00     0.016 A 
ATOM     12  C   UNL A   1      42.843  25.617  26.291  1.00  0.00     0.016 A 
ATOM     13  C   UNL A   1      41.967  24.965  28.854  1.00  0.00     0.010 A 
ATOM     14  C   UNL A   1      42.736  26.610  27.261  1.00  0.00     0.010 A 
ATOM     15  C   UNL A   1      42.265  26.276  28.534  1.00  0.00    -0.014 A 
BRANCH  15  16
ATOM     16  C   UNL A   1      41.799  27.300  29.465  1.00  0.00     0.031 A 
ATOM     17  C   UNL A   1      42.658  27.547  30.659  1.00  0.00     0.074 A 
ATOM     18  C   UNL A   1      40.735  28.054  29.161  1.00  0.00     0.049 A 
ATOM     19  N   UNL A   1      42.406  28.237  31.730  1.00  0.00    -0.248 NA
ATOM     20  C   UNL A   1      43.994  26.918  30.639  1.00  0.00     0.031 C 
ATOM     21  C   UNL A   1      39.987  28.000  27.903  1.00  0.00     0.029 A 
ATOM     22  N   UNL A   1      40.105  29.018  29.893  1.00  0.00    -0.354 N 
ATOM     23  C   UNL A   1      43.519  28.066  32.542  1.00  0.00     0.074 A 
ATOM     24  C   UNL A   1      44.454  27.224  31.838  1.00  0.00     0.031 C 
ATOM     25  C   UNL A   1      38.975  28.881  27.963  1.00  0.00     0.029 A 
ATOM     26  C   UNL A   1      38.962  29.480  29.293  1.00  0.00     0.049 A 
ATOM     27  H   UNL A   1      40.437  29.348  30.759  1.00  0.00     0.167 HD
ATOM     28  C   UNL A   1      43.705  28.553  33.788  1.00  0.00     0.031 A 
ATOM     29  C   UNL A   1      37.982  30.237  29.813  1.00  0.00     0.031 A 
ATOM     30  C   UNL A   1      42.717  29.366  34.437  1.00  0.00     0.049 A 
ATOM     31  C   UNL A   1      38.140  30.672  31.244  1.00  0.00     0.074 A 
ATOM     32  C   UNL A   1      42.715  29.883  35.716  1.00  0.00     0.029 A 
ATOM     33  N   UNL A   1      41.534  29.774  33.827  1.00  0.00    -0.354 N 
ATOM     34  N   UNL A   1      39.135  30.434  32.070  1.00  0.00    -0.248 NA
ATOM     35  C   UNL A   1      37.050  31.461  31.822  1.00  0.00     0.031 C 
ATOM     36  C   UNL A   1      41.498  30.550  35.899  1.00  0.00     0.029 A 
ATOM     37  C   UNL A   1      40.779  30.518  34.709  1.00  0.00     0.049 A 
ATOM     38  H   UNL A   1      41.274  29.562  32.902  1.00  0.00     0.167 HD
ATOM     39  C   UNL A   1      38.808  31.067  33.258  1.00  0.00     0.074 A 
ATOM     40  C   UNL A   1      37.519  31.701  33.041  1.00  0.00     0.031 C 
ATOM     41  C   UNL A   1      39.504  31.132  34.422  1.00  0.00     0.031 A 
BRANCH  28  42
ATOM     42  C   UNL A   1      44.932  28.086  34.519  1.00  0.00    -0.014 A 
ATOM     43  C   UNL A   1      46.228  28.436  34.110  1.00  0.00     0.009 A 
ATOM     44  C   UNL A   1      44.781  27.184  35.586  1.00  0.00     0.009 A 
ATOM     45  C   UNL A   1      47.345  27.844  34.708  1.00  0.00     0.001 A 
ATOM     46  C   UNL A   1      45.898  26.622  36.205  1.00  0.00     0.001 A 
ATOM     47  C   UNL A   1      47.178  26.936  35.754  1.00  0.00     0.000 A 
ENDBRANCH  28  42
BRANCH  29  48
ATOM     48  C   UNL A   1      36.771  30.532  29.006  1.00  0.00    -0.014 A 
ATOM     49  C   UNL A   1      36.487  31.835  28.576  1.00  0.00     0.009 A 
ATOM     50  C   UNL A   1      35.916  29.488  28.605  1.00  0.00     0.009 A 
ATOM     51  C   UNL A   1      35.372  32.088  27.771  1.00  0.00     0.001 A 
ATOM     52  C   UNL A   1      34.820  29.739  27.778  1.00  0.00     0.001 A 
ATOM     53  C   UNL A   1      34.544  31.040  27.365  1.00  0.00     0.000 A 
ENDBRANCH  29  48
BRANCH  41  54
ATOM     54  C   UNL A   1      38.916  31.969  35.518  1.00  0.00    -0.014 A 
ATOM     55  C   UNL A   1      38.148  31.399  36.541  1.00  0.00     0.009 A 
ATOM     56  C   UNL A   1      39.244  33.333  35.575  1.00  0.00     0.009 A 
ATOM     57  C   UNL A   1      37.707  32.189  37.603  1.00  0.00     0.001 A 
ATOM     58  C   UNL A   1      38.830  34.110  36.653  1.00  0.00     0.001 A 
ATOM     59  C   UNL A   1      38.058  33.539  37.664  1.00  0.00     0.000 A 
ENDBRANCH  41  54
ENDBRANCH  15  16
ENDBRANCH   8  10
ENDBRANCH   7   8
ENDBRANCH   6   7
ENDBRANCH   5   6
ENDBRANCH   4   5
ENDBRANCH   3   4
ENDBRANCH   2   3
ENDBRANCH   1   2
BRANCH   1  60
ATOM     60  C   UNL A   1      35.575  22.619  25.919  1.00  0.00     0.188 C 
BRANCH  60  61
ATOM     61  C   UNL A   1      34.724  21.533  26.616  1.00  0.00     0.188 C 
BRANCH  61  62
ATOM     62  O   UNL A   1      33.380  21.850  26.901  1.00  0.00    -0.376 OA
BRANCH  62  63
ATOM     63  C   UNL A   1      32.308  21.548  26.020  1.00  0.00     0.202 C 
BRANCH  63  64
ATOM     64  C   UNL A   1      31.829  22.396  24.822  1.00  0.00     0.261 C 
BRANCH  64  65
ATOM     65  O   UNL A   1      32.289  23.740  24.748  1.00  0.00    -0.463 OA
BRANCH  65  66
ATOM     66  C   UNL A   1      31.372  24.698  25.029  1.00  0.00     0.310 C 
ATOM     67  O   UNL A   1      30.448  24.574  25.819  1.00  0.00    -0.252 OA
BRANCH  66  68
ATOM     68  C   UNL A   1      31.743  25.995  24.329  1.00  0.00     0.118 C 
ATOM     69  C   UNL A   1      31.663  27.218  25.250  1.00  0.00     0.022 C 
ATOM     70  C   UNL A   1      33.230  25.995  23.874  1.00  0.00     0.120 C 
ATOM     71  C   UNL A   1      32.991  27.067  25.994  1.00  0.00     0.014 C 
ATOM     72  C   UNL A   1      31.864  28.442  24.307  1.00  0.00     0.097 C 
ATOM     73  C   UNL A   1      33.832  27.089  24.744  1.00  0.00     0.047 C 
ATOM     74  C   UNL A   1      33.484  26.584  22.512  1.00  0.00     0.310 C 
ATOM     75  C   UNL A   1      33.374  28.324  23.964  1.00  0.00     0.194 C 
ATOM     76  O   UNL A   1      33.558  27.945  22.597  1.00  0.00    -0.461 OA
ATOM     77  O   UNL A   1      33.603  25.950  21.468  1.00  0.00    -0.252 OA
BRANCH  72  78
ATOM     78  S   UNL A   1      31.328  30.101  24.881  1.00  0.00    -0.119 SA
BRANCH  78  79
ATOM     79  C   UNL A   1      29.902  30.368  23.866  1.00  0.00     0.008 A 
ATOM     80  C   UNL A   1      29.492  29.373  22.974  1.00  0.00     0.015 A 
ATOM     81  C   UNL A   1      29.114  31.506  24.058  1.00  0.00     0.015 A 
ATOM     82  C   UNL A   1      28.252  29.471  22.346  1.00  0.00     0.001 A 
ATOM     83  C   UNL A   1      27.868  31.595  23.439  1.00  0.00     0.001 A 
ATOM     84  C   UNL A   1      27.431  30.570  22.599  1.00  0.00     0.000 A 
ENDBRANCH  78  79
ENDBRANCH  72  78
ENDBRANCH  66  68
ENDBRANCH  65  66
ENDBRANCH  64  65
ENDBRANCH  63  64
ENDBRANCH  62  63
ENDBRANCH  61  62
ENDBRANCH  60  61
ENDBRANCH   1  60
TORSDOF 22
ENDMDL
MODEL 2
REMARK VINA RESULT:      -9.9      4.167      6.521
REMARK SMILES O=C(OCCOCCOCCOCCOC(=O)[C@H]1[C@H]2C[C@@H]3[C@@H](OC(=O)[C@@H]31)[C@@H]2Sc1ccccc1)c1ccc(-c2c3nc(c(-c4ccccc4)c4ccc([nH]4)c(-c4ccccc4)c4nc(c(-c5ccccc5)c5ccc2[nH]5)C=C4)C=C3)cc1
REMARK SMILES IDX 9 1 8 2 7 3 6 4 5 5 4 6 3 7 2 8 1 9 35 10 36 11 82 12 37 13
REMARK SMILES IDX 81 14 38 15 39 16 40 17 75 18 41 19 80 20 74 21 76 22 42 23
REMARK SMILES IDX 79 24 73 25 72 26 43 28 65 29 50 30 64 31 51 32 54 33 63 34
REMARK SMILES IDX 77 35 52 36 53 37 62 39 78 40 55 41 44 42 45 43 49 44 46 45
REMARK SMILES IDX 48 46 47 47 66 48 67 49 71 50 68 51 70 52 69 53 56 54 57 55
REMARK SMILES IDX 61 56 58 57 60 58 59 59 10 60 11 61 12 62 13 63 14 64 15 65
REMARK SMILES IDX 16 66 17 67 18 68 19 69 26 70 20 71 27 72 21 73 24 74 22 75
REMARK SMILES IDX 23 76 25 77 28 78 29 79 30 80 34 81 31 82 33 83 32 84
REMARK H PARENT 76 27 54 38
REMARK Flexibility Score: inf
ROOT
ATOM      1  O   UNL A   1      35.860  23.016  25.031  1.00  0.00    -0.377 OA
ENDROOT
BRANCH   1   2
ATOM      2  C   UNL A   1      37.263  22.776  25.030  1.00  0.00     0.188 C 
BRANCH   2   3
ATOM      3  C   UNL A   1      37.715  21.315  24.967  1.00  0.00     0.188 C 
BRANCH   3   4
ATOM      4  O   UNL A   1      38.872  21.076  25.763  1.00  0.00    -0.376 OA
BRANCH   4   5
ATOM      5  C   UNL A   1      39.564  19.834  25.634  1.00  0.00     0.202 C 
BRANCH   5   6
ATOM      6  C   UNL A   1      40.894  19.726  26.355  1.00  0.00     0.261 C 
BRANCH   6   7
ATOM      7  O   UNL A   1      41.981  19.202  25.582  1.00  0.00    -0.460 OA
BRANCH   7   8
ATOM      8  C   UNL A   1      43.196  19.707  25.287  1.00  0.00     0.338 C 
ATOM      9  O   UNL A   1      44.003  18.966  24.724  1.00  0.00    -0.246 OA
BRANCH   8  10
ATOM     10  C   UNL A   1      43.644  21.101  25.567  1.00  0.00     0.060 A 
ATOM     11  C   UNL A   1      44.324  21.543  26.703  1.00  0.00     0.016 A 
ATOM     12  C   UNL A   1      43.450  22.021  24.526  1.00  0.00     0.016 A 
ATOM     13  C   UNL A   1      44.773  22.841  26.837  1.00  0.00     0.010 A 
ATOM     14  C   UNL A   1      43.882  23.339  24.648  1.00  0.00     0.010 A 
ATOM     15  C   UNL A   1      44.516  23.746  25.825  1.00  0.00    -0.014 A 
BRANCH  15  16
ATOM     16  C   UNL A   1      44.668  25.160  26.156  1.00  0.00     0.031 A 
ATOM     17  C   UNL A   1      46.013  25.754  25.910  1.00  0.00     0.074 A 
ATOM     18  C   UNL A   1      43.604  25.886  26.523  1.00  0.00     0.049 A 
ATOM     19  N   UNL A   1      46.490  26.904  26.282  1.00  0.00    -0.248 NA
ATOM     20  C   UNL A   1      46.957  24.926  25.132  1.00  0.00     0.031 C 
ATOM     21  C   UNL A   1      42.222  25.403  26.570  1.00  0.00     0.029 A 
ATOM     22  N   UNL A   1      43.525  27.188  26.919  1.00  0.00    -0.354 N 
ATOM     23  C   UNL A   1      47.809  26.908  25.850  1.00  0.00     0.074 A 
ATOM     24  C   UNL A   1      48.055  25.659  25.173  1.00  0.00     0.031 C 
ATOM     25  C   UNL A   1      41.430  26.398  27.002  1.00  0.00     0.029 A 
ATOM     26  C   UNL A   1      42.269  27.541  27.344  1.00  0.00     0.049 A 
ATOM     27  H   UNL A   1      44.288  27.810  26.902  1.00  0.00     0.167 HD
ATOM     28  C   UNL A   1      48.732  27.874  26.047  1.00  0.00     0.031 A 
ATOM     29  C   UNL A   1      41.880  28.640  28.010  1.00  0.00     0.031 A 
ATOM     30  C   UNL A   1      48.421  29.083  26.754  1.00  0.00     0.049 A 
ATOM     31  C   UNL A   1      42.942  29.655  28.334  1.00  0.00     0.074 A 
ATOM     32  C   UNL A   1      49.250  30.130  27.099  1.00  0.00     0.029 A 
ATOM     33  N   UNL A   1      47.149  29.393  27.228  1.00  0.00    -0.354 N 
ATOM     34  N   UNL A   1      44.221  29.632  28.030  1.00  0.00    -0.248 NA
ATOM     35  C   UNL A   1      42.523  30.832  29.099  1.00  0.00     0.031 C 
ATOM     36  C   UNL A   1      48.491  31.043  27.839  1.00  0.00     0.029 A 
ATOM     37  C   UNL A   1      47.172  30.605  27.885  1.00  0.00     0.049 A 
ATOM     38  H   UNL A   1      46.351  28.830  27.111  1.00  0.00     0.167 HD
ATOM     39  C   UNL A   1      44.758  30.804  28.538  1.00  0.00     0.074 A 
ATOM     40  C   UNL A   1      43.660  31.514  29.171  1.00  0.00     0.031 C 
ATOM     41  C   UNL A   1      46.034  31.262  28.484  1.00  0.00     0.031 A 
BRANCH  28  42
ATOM     42  C   UNL A   1      50.138  27.561  25.620  1.00  0.00    -0.014 A 
ATOM     43  C   UNL A   1      50.602  27.822  24.320  1.00  0.00     0.009 A 
ATOM     44  C   UNL A   1      50.986  26.891  26.517  1.00  0.00     0.009 A 
ATOM     45  C   UNL A   1      51.857  27.361  23.910  1.00  0.00     0.001 A 
ATOM     46  C   UNL A   1      52.252  26.463  26.116  1.00  0.00     0.001 A 
ATOM     47  C   UNL A   1      52.680  26.680  24.808  1.00  0.00     0.000 A 
ENDBRANCH  28  42
BRANCH  29  48
ATOM     48  C   UNL A   1      40.473  28.766  28.467  1.00  0.00    -0.014 A 
ATOM     49  C   UNL A   1      40.090  28.356  29.752  1.00  0.00     0.009 A 
ATOM     50  C   UNL A   1      39.507  29.359  27.632  1.00  0.00     0.009 A 
ATOM     51  C   UNL A   1      38.772  28.530  30.187  1.00  0.00     0.001 A 
ATOM     52  C   UNL A   1      38.200  29.558  28.080  1.00  0.00     0.001 A 
ATOM     53  C   UNL A   1      37.831  29.139  29.356  1.00  0.00     0.000 A 
ENDBRANCH  29  48
BRANCH  41  54
ATOM     54  C   UNL A   1      46.292  32.619  29.067  1.00  0.00    -0.014 A 
ATOM     55  C   UNL A   1      46.573  32.790  30.428  1.00  0.00     0.009 A 
ATOM     56  C   UNL A   1      46.366  33.723  28.201  1.00  0.00     0.009 A 
ATOM     57  C   UNL A   1      46.913  34.051  30.917  1.00  0.00     0.001 A 
ATOM     58  C   UNL A   1      46.739  34.972  28.686  1.00  0.00     0.001 A 
ATOM     59  C   UNL A   1      47.009  35.137  30.044  1.00  0.00     0.000 A 
ENDBRANCH  41  54
ENDBRANCH  15  16
ENDBRANCH   8  10
ENDBRANCH   7   8
ENDBRANCH   6   7
ENDBRANCH   5   6
ENDBRANCH   4   5
ENDBRANCH   3   4
ENDBRANCH   2   3
ENDBRANCH   1   2
BRANCH   1  60
ATOM     60  C   UNL A   1      35.218  22.889  26.286  1.00  0.00     0.188 C 
BRANCH  60  61
ATOM     61  C   UNL A   1      34.336  21.655  26.591  1.00  0.00     0.188 C 
BRANCH  61  62
ATOM     62  O   UNL A   1      33.168  21.490  25.817  1.00  0.00    -0.376 OA
BRANCH  62  63
ATOM     63  C   UNL A   1      33.162  20.852  24.549  1.00  0.00     0.202 C 
BRANCH  63  64
ATOM     64  C   UNL A   1      32.855  21.507  23.185  1.00  0.00     0.261 C 
BRANCH  64  65
ATOM     65  O   UNL A   1      32.168  22.752  23.200  1.00  0.00    -0.463 OA
BRANCH  65  66
ATOM     66  C   UNL A   1      32.947  23.861  23.235  1.00  0.00     0.310 C 
ATOM     67  O   UNL A   1      33.876  24.089  22.474  1.00  0.00    -0.252 OA
BRANCH  66  68
ATOM     68  C   UNL A   1      32.411  24.843  24.263  1.00  0.00     0.118 C 
ATOM     69  C   UNL A   1      31.941  26.164  23.644  1.00  0.00     0.022 C 
ATOM     70  C   UNL A   1      31.125  24.303  24.954  1.00  0.00     0.120 C 
ATOM     71  C   UNL A   1      30.569  25.731  23.124  1.00  0.00     0.014 C 
ATOM     72  C   UNL A   1      31.639  27.090  24.860  1.00  0.00     0.097 C 
ATOM     73  C   UNL A   1      30.066  25.282  24.471  1.00  0.00     0.047 C 
ATOM     74  C   UNL A   1      31.043  24.549  26.437  1.00  0.00     0.310 C 
ATOM     75  C   UNL A   1      30.338  26.452  25.420  1.00  0.00     0.194 C 
ATOM     76  O   UNL A   1      30.585  25.814  26.677  1.00  0.00    -0.461 OA
ATOM     77  O   UNL A   1      31.345  23.747  27.315  1.00  0.00    -0.252 OA
BRANCH  72  78
ATOM     78  S   UNL A   1      31.557  28.905  24.593  1.00  0.00    -0.119 SA
BRANCH  78  79
ATOM     79  C   UNL A   1      32.818  29.468  25.703  1.00  0.00     0.008 A 
ATOM     80  C   UNL A   1      32.633  30.655  26.416  1.00  0.00     0.015 A 
ATOM     81  C   UNL A   1      33.925  28.657  25.966  1.00  0.00     0.015 A 
ATOM     82  C   UNL A   1      33.500  30.984  27.454  1.00  0.00     0.001 A 
ATOM     83  C   UNL A   1      34.784  28.981  27.015  1.00  0.00     0.001 A 
ATOM     84  C   UNL A   1      34.561  30.135  27.769  1.00  0.00     0.000 A 
ENDBRANCH  78  79
ENDBRANCH  72  78
ENDBRANCH  66  68
ENDBRANCH  65  66
ENDBRANCH  64  65
ENDBRANCH  63  64
ENDBRANCH  62  63
ENDBRANCH  61  62
ENDBRANCH  60  61
ENDBRANCH   1  60
TORSDOF 22
ENDMDL
MODEL 3
REMARK VINA RESULT:      -9.7      1.382      3.050
REMARK SMILES O=C(OCCOCCOCCOCCOC(=O)[C@H]1[C@H]2C[C@@H]3[C@@H](OC(=O)[C@@H]31)[C@@H]2Sc1ccccc1)c1ccc(-c2c3nc(c(-c4ccccc4)c4ccc([nH]4)c(-c4ccccc4)c4nc(c(-c5ccccc5)c5ccc2[nH]5)C=C4)C=C3)cc1
REMARK SMILES IDX 9 1 8 2 7 3 6 4 5 5 4 6 3 7 2 8 1 9 35 10 36 11 82 12 37 13
REMARK SMILES IDX 81 14 38 15 39 16 40 17 75 18 41 19 80 20 74 21 76 22 42 23
REMARK SMILES IDX 79 24 73 25 72 26 43 28 65 29 50 30 64 31 51 32 54 33 63 34
REMARK SMILES IDX 77 35 52 36 53 37 62 39 78 40 55 41 44 42 45 43 49 44 46 45
REMARK SMILES IDX 48 46 47 47 66 48 67 49 71 50 68 51 70 52 69 53 56 54 57 55
REMARK SMILES IDX 61 56 58 57 60 58 59 59 10 60 11 61 12 62 13 63 14 64 15 65
REMARK SMILES IDX 16 66 17 67 18 68 19 69 26 70 20 71 27 72 21 73 24 74 22 75
REMARK SMILES IDX 23 76 25 77 28 78 29 79 30 80 34 81 31 82 33 83 32 84
REMARK H PARENT 76 27 54 38
REMARK Flexibility Score: inf
ROOT
ATOM      1  O   UNL A   1      36.061  22.490  23.993  1.00  0.00    -0.377 OA
ENDROOT
BRANCH   1   2
ATOM      2  C   UNL A   1      37.339  21.868  24.067  1.00  0.00     0.188 C 
BRANCH   2   3
ATOM      3  C   UNL A   1      37.790  21.375  25.445  1.00  0.00     0.188 C 
BRANCH   3   4
ATOM      4  O   UNL A   1      38.909  22.106  25.937  1.00  0.00    -0.376 OA
BRANCH   4   5
ATOM      5  C   UNL A   1      39.929  21.417  26.660  1.00  0.00     0.202 C 
BRANCH   5   6
ATOM      6  C   UNL A   1      41.238  21.189  25.926  1.00  0.00     0.261 C 
BRANCH   6   7
ATOM      7  O   UNL A   1      41.922  22.372  25.492  1.00  0.00    -0.460 OA
BRANCH   7   8
ATOM      8  C   UNL A   1      42.750  23.216  26.140  1.00  0.00     0.338 C 
ATOM      9  O   UNL A   1      43.959  22.981  26.094  1.00  0.00    -0.246 OA
BRANCH   8  10
ATOM     10  C   UNL A   1      42.329  24.429  26.896  1.00  0.00     0.060 A 
ATOM     11  C   UNL A   1      42.867  25.711  26.775  1.00  0.00     0.016 A 
ATOM     12  C   UNL A   1      41.208  24.269  27.725  1.00  0.00     0.016 A 
ATOM     13  C   UNL A   1      42.355  26.795  27.460  1.00  0.00     0.010 A 
ATOM     14  C   UNL A   1      40.686  25.346  28.435  1.00  0.00     0.010 A 
ATOM     15  C   UNL A   1      41.289  26.601  28.318  1.00  0.00    -0.014 A 
BRANCH  15  16
ATOM     16  C   UNL A   1      41.024  27.665  29.283  1.00  0.00     0.031 A 
ATOM     17  C   UNL A   1      41.944  27.738  30.454  1.00  0.00     0.074 A 
ATOM     18  C   UNL A   1      40.091  28.591  29.027  1.00  0.00     0.049 A 
ATOM     19  N   UNL A   1      41.839  28.434  31.546  1.00  0.00    -0.248 NA
ATOM     20  C   UNL A   1      43.157  26.899  30.380  1.00  0.00     0.031 C 
ATOM     21  C   UNL A   1      39.311  28.692  27.792  1.00  0.00     0.029 A 
ATOM     22  N   UNL A   1      39.650  29.628  29.796  1.00  0.00    -0.354 N 
ATOM     23  C   UNL A   1      42.930  28.063  32.320  1.00  0.00     0.074 A 
ATOM     24  C   UNL A   1      43.694  27.096  31.571  1.00  0.00     0.031 C 
ATOM     25  C   UNL A   1      38.460  29.726  27.901  1.00  0.00     0.029 A 
ATOM     26  C   UNL A   1      38.582  30.286  29.241  1.00  0.00     0.049 A 
ATOM     27  H   UNL A   1      40.055  29.877  30.658  1.00  0.00     0.167 HD
ATOM     28  C   UNL A   1      43.228  28.482  33.569  1.00  0.00     0.031 A 
ATOM     29  C   UNL A   1      37.755  31.181  29.807  1.00  0.00     0.031 A 
ATOM     30  C   UNL A   1      42.405  29.430  34.264  1.00  0.00     0.049 A 
ATOM     31  C   UNL A   1      38.022  31.549  31.240  1.00  0.00     0.074 A 
ATOM     32  C   UNL A   1      42.523  29.909  35.552  1.00  0.00     0.029 A 
ATOM     33  N   UNL A   1      41.289  30.042  33.699  1.00  0.00    -0.354 N 
ATOM     34  N   UNL A   1      38.986  31.131  32.030  1.00  0.00    -0.248 NA
ATOM     35  C   UNL A   1      37.093  32.492  31.866  1.00  0.00     0.031 C 
ATOM     36  C   UNL A   1      41.439  30.763  35.786  1.00  0.00     0.029 A 
ATOM     37  C   UNL A   1      40.692  30.878  34.618  1.00  0.00     0.049 A 
ATOM     38  H   UNL A   1      40.973  29.899  32.778  1.00  0.00     0.167 HD
ATOM     39  C   UNL A   1      38.800  31.779  33.240  1.00  0.00     0.074 A 
ATOM     40  C   UNL A   1      37.628  32.622  33.075  1.00  0.00     0.031 C 
ATOM     41  C   UNL A   1      39.529  31.701  34.382  1.00  0.00     0.031 A 
BRANCH  28  42
ATOM     42  C   UNL A   1      44.380  27.801  34.253  1.00  0.00    -0.014 A 
ATOM     43  C   UNL A   1      45.694  28.288  34.171  1.00  0.00     0.009 A 
ATOM     44  C   UNL A   1      44.151  26.581  34.909  1.00  0.00     0.009 A 
ATOM     45  C   UNL A   1      46.761  27.537  34.673  1.00  0.00     0.001 A 
ATOM     46  C   UNL A   1      45.214  25.849  35.441  1.00  0.00     0.001 A 
ATOM     47  C   UNL A   1      46.520  26.317  35.306  1.00  0.00     0.000 A 
ENDBRANCH  28  42
BRANCH  29  48
ATOM     48  C   UNL A   1      36.588  31.691  29.043  1.00  0.00    -0.014 A 
ATOM     49  C   UNL A   1      35.523  30.846  28.699  1.00  0.00     0.009 A 
ATOM     50  C   UNL A   1      36.504  33.054  28.703  1.00  0.00     0.009 A 
ATOM     51  C   UNL A   1      34.407  31.353  28.027  1.00  0.00     0.001 A 
ATOM     52  C   UNL A   1      35.375  33.563  28.058  1.00  0.00     0.001 A 
ATOM     53  C   UNL A   1      34.329  32.711  27.715  1.00  0.00     0.000 A 
ENDBRANCH  29  48
BRANCH  41  54
ATOM     54  C   UNL A   1      39.117  32.595  35.513  1.00  0.00    -0.014 A 
ATOM     55  C   UNL A   1      38.254  32.150  36.521  1.00  0.00     0.009 A 
ATOM     56  C   UNL A   1      39.706  33.867  35.615  1.00  0.00     0.009 A 
ATOM     57  C   UNL A   1      37.977  32.971  37.614  1.00  0.00     0.001 A 
ATOM     58  C   UNL A   1      39.453  34.669  36.724  1.00  0.00     0.001 A 
ATOM     59  C   UNL A   1      38.585  34.223  37.720  1.00  0.00     0.000 A 
ENDBRANCH  41  54
ENDBRANCH  15  16
ENDBRANCH   8  10
ENDBRANCH   7   8
ENDBRANCH   6   7
ENDBRANCH   5   6
ENDBRANCH   4   5
ENDBRANCH   3   4
ENDBRANCH   2   3
ENDBRANCH   1   2
BRANCH   1  60
ATOM     60  C   UNL A   1      34.986  21.747  24.537  1.00  0.00     0.188 C 
BRANCH  60  61
ATOM     61  C   UNL A   1      33.656  21.612  23.759  1.00  0.00     0.188 C 
BRANCH  61  62
ATOM     62  O   UNL A   1      32.956  22.801  23.466  1.00  0.00    -0.376 OA
BRANCH  62  63
ATOM     63  C   UNL A   1      33.234  23.605  22.329  1.00  0.00     0.202 C 
BRANCH  63  64
ATOM     64  C   UNL A   1      32.686  25.018  22.038  1.00  0.00     0.261 C 
BRANCH  64  65
ATOM     65  O   UNL A   1      33.538  25.918  21.341  1.00  0.00    -0.463 OA
BRANCH  65  66
ATOM     66  C   UNL A   1      33.624  27.171  21.852  1.00  0.00     0.310 C 
ATOM     67  O   UNL A   1      34.463  28.002  21.533  1.00  0.00    -0.252 OA
BRANCH  66  68
ATOM     68  C   UNL A   1      32.444  27.442  22.769  1.00  0.00     0.118 C 
ATOM     69  C   UNL A   1      32.809  27.369  24.256  1.00  0.00     0.022 C 
ATOM     70  C   UNL A   1      31.917  28.897  22.608  1.00  0.00     0.120 C 
ATOM     71  C   UNL A   1      33.451  28.746  24.431  1.00  0.00     0.014 C 
ATOM     72  C   UNL A   1      31.446  27.459  25.007  1.00  0.00     0.097 C 
ATOM     73  C   UNL A   1      32.236  29.506  23.966  1.00  0.00     0.047 C 
ATOM     74  C   UNL A   1      30.419  29.041  22.610  1.00  0.00     0.310 C 
ATOM     75  C   UNL A   1      31.068  28.949  24.783  1.00  0.00     0.194 C 
ATOM     76  O   UNL A   1      29.952  29.063  23.894  1.00  0.00    -0.461 OA
ATOM     77  O   UNL A   1      29.705  29.121  21.616  1.00  0.00    -0.252 OA
BRANCH  72  78
ATOM     78  S   UNL A   1      31.356  26.891  26.750  1.00  0.00    -0.119 SA
BRANCH  78  79
ATOM     79  C   UNL A   1      31.527  25.140  26.545  1.00  0.00     0.008 A 
ATOM     80  C   UNL A   1      32.735  24.520  26.876  1.00  0.00     0.015 A 
ATOM     81  C   UNL A   1      30.418  24.370  26.188  1.00  0.00     0.015 A 
ATOM     82  C   UNL A   1      32.806  23.130  26.943  1.00  0.00     0.001 A 
ATOM     83  C   UNL A   1      30.488  22.980  26.269  1.00  0.00     0.001 A 
ATOM     84  C   UNL A   1      31.676  22.363  26.662  1.00  0.00     0.000 A 
ENDBRANCH  78  79
ENDBRANCH  72  78
ENDBRANCH  66  68
ENDBRANCH  65  66
ENDBRANCH  64  65
ENDBRANCH  63  64
ENDBRANCH  62  63
ENDBRANCH  61  62
ENDBRANCH  60  61
ENDBRANCH   1  60
TORSDOF 22
ENDMDL
