MODEL 1
REMARK VINA RESULT:      -8.9      0.000      0.000
REMARK SMILES COc1ccc(C(=O)Nc2ccccc2C(=O)N[C@@H](C(=O)OCCOCCOCCOCCOC(=O)c2ccc(-c3c4nc(c(-c5ccccc5)c5ccc([nH]5)c(-c5ccccc5)c5nc(c(-c6ccccc6)c6ccc3[nH]6)C=C5)C=C4)cc2)C(C)C)cc1
REMARK SMILES IDX 26 1 25 2 24 3 23 4 22 5 20 6 21 7 19 8 18 9 16 10 17 11
REMARK SMILES IDX 15 13 10 14 11 15 12 16 14 17 13 18 9 19 7 20 8 21 6 23 3 24
REMARK SMILES IDX 4 25 89 26 5 27 88 28 2 29 1 30 85 31 86 32 87 33 27 34
REMARK SMILES IDX 28 35 29 36 30 37 31 38 32 39 33 40 34 41 35 42 36 43 37 44
REMARK SMILES IDX 38 45 84 46 39 47 83 48 40 49 41 50 42 51 77 52 43 53 82 54
REMARK SMILES IDX 76 55 78 56 44 57 81 58 75 59 74 60 45 62 67 63 52 64 66 65
REMARK SMILES IDX 53 66 56 67 65 68 79 69 54 70 55 71 64 73 80 74 57 75 46 76
REMARK SMILES IDX 47 77 51 78 48 79 50 80 49 81 68 82 69 83 73 84 70 85 72 86
REMARK SMILES IDX 71 87 58 88 59 89 63 90 60 91 62 92 61 93
REMARK H PARENT 18 12 9 22 78 61 56 72
REMARK Flexibility Score: inf
ROOT
ATOM      1  C   UNL A   1      40.195  21.183  26.321  1.00  0.00     0.188 C 
ENDROOT
BRANCH   1   2
ATOM      2  O   UNL A   1      38.936  21.740  25.988  1.00  0.00    -0.376 OA
BRANCH   2   3
ATOM      3  C   UNL A   1      38.116  21.081  25.035  1.00  0.00     0.202 C 
BRANCH   3   4
ATOM      4  C   UNL A   1      36.580  21.211  25.057  1.00  0.00     0.261 C 
BRANCH   4   5
ATOM      5  O   UNL A   1      36.052  22.138  26.010  1.00  0.00    -0.462 OA
BRANCH   5   6
ATOM      6  C   UNL A   1      34.913  22.811  25.706  1.00  0.00     0.328 C 
ATOM      7  O   UNL A   1      34.449  23.714  26.391  1.00  0.00    -0.250 OA
BRANCH   6   8
ATOM      8  C   UNL A   1      34.381  22.418  24.295  1.00  0.00     0.195 C 
BRANCH   8   9
ATOM      9  N   UNL A   1      34.402  23.670  23.454  1.00  0.00    -0.338 N 
ATOM     10  C   UNL A   1      33.617  24.776  23.179  1.00  0.00     0.254 C 
ATOM     11  O   UNL A   1      33.995  25.459  22.219  1.00  0.00    -0.269 OA
ATOM     12  H   UNL A   1      35.238  23.716  22.937  1.00  0.00     0.164 HD
BRANCH  10  13
ATOM     13  C   UNL A   1      32.361  25.224  23.863  1.00  0.00     0.063 A 
ATOM     14  C   UNL A   1      32.281  25.852  25.098  1.00  0.00     0.054 A 
ATOM     15  C   UNL A   1      31.080  25.850  25.825  1.00  0.00     0.027 A 
ATOM     16  C   UNL A   1      29.885  25.549  25.181  1.00  0.00     0.002 A 
ATOM     17  C   UNL A   1      31.136  24.981  23.204  1.00  0.00     0.016 A 
ATOM     18  C   UNL A   1      29.907  25.199  23.838  1.00  0.00     0.001 A 
BRANCH  14  19
ATOM     19  N   UNL A   1      33.226  26.762  25.571  1.00  0.00    -0.321 N 
ATOM     20  C   UNL A   1      33.365  28.086  25.210  1.00  0.00     0.255 C 
ATOM     21  O   UNL A   1      34.203  28.771  25.792  1.00  0.00    -0.269 OA
ATOM     22  H   UNL A   1      33.866  26.423  26.238  1.00  0.00     0.170 HD
BRANCH  20  23
ATOM     23  C   UNL A   1      32.441  28.765  24.268  1.00  0.00     0.040 A 
ATOM     24  C   UNL A   1      30.445  29.455  22.460  1.00  0.00     0.118 A 
ATOM     25  C   UNL A   1      30.227  29.663  23.809  1.00  0.00     0.047 A 
ATOM     26  C   UNL A   1      31.703  29.052  22.001  1.00  0.00     0.047 A 
ATOM     27  C   UNL A   1      31.233  29.324  24.702  1.00  0.00     0.017 A 
ATOM     28  C   UNL A   1      32.701  28.686  22.906  1.00  0.00     0.017 A 
BRANCH  24  29
ATOM     29  O   UNL A   1      29.374  29.640  21.632  1.00  0.00    -0.497 OA
ATOM     30  C   UNL A   1      28.351  30.389  22.291  1.00  0.00     0.278 C 
ENDBRANCH  24  29
ENDBRANCH  20  23
ENDBRANCH  14  19
ENDBRANCH  10  13
ENDBRANCH   8   9
BRANCH   8  31
ATOM     31  C   UNL A   1      32.942  21.713  24.446  1.00  0.00     0.017 C 
ATOM     32  C   UNL A   1      32.191  21.174  23.216  1.00  0.00     0.010 C 
ATOM     33  C   UNL A   1      32.996  20.486  25.380  1.00  0.00     0.010 C 
ENDBRANCH   8  31
ENDBRANCH   6   8
ENDBRANCH   5   6
ENDBRANCH   4   5
ENDBRANCH   3   4
ENDBRANCH   2   3
ENDBRANCH   1   2
BRANCH   1  34
ATOM     34  C   UNL A   1      40.765  21.729  27.640  1.00  0.00     0.188 C 
BRANCH  34  35
ATOM     35  O   UNL A   1      42.010  22.387  27.510  1.00  0.00    -0.377 OA
BRANCH  35  36
ATOM     36  C   UNL A   1      41.993  23.773  27.156  1.00  0.00     0.188 C 
BRANCH  36  37
ATOM     37  C   UNL A   1      42.791  24.316  25.939  1.00  0.00     0.188 C 
BRANCH  37  38
ATOM     38  O   UNL A   1      43.494  23.353  25.174  1.00  0.00    -0.376 OA
BRANCH  38  39
ATOM     39  C   UNL A   1      44.913  23.388  25.153  1.00  0.00     0.202 C 
BRANCH  39  40
ATOM     40  C   UNL A   1      45.651  24.017  26.346  1.00  0.00     0.261 C 
BRANCH  40  41
ATOM     41  O   UNL A   1      46.871  24.712  26.050  1.00  0.00    -0.460 OA
BRANCH  41  42
ATOM     42  C   UNL A   1      46.789  25.907  25.422  1.00  0.00     0.338 C 
ATOM     43  O   UNL A   1      46.989  26.144  24.252  1.00  0.00    -0.246 OA
BRANCH  42  44
ATOM     44  C   UNL A   1      46.190  26.862  26.379  1.00  0.00     0.060 A 
ATOM     45  C   UNL A   1      46.871  27.152  27.569  1.00  0.00     0.016 A 
ATOM     46  C   UNL A   1      44.963  27.466  26.100  1.00  0.00     0.016 A 
ATOM     47  C   UNL A   1      46.308  28.016  28.505  1.00  0.00     0.010 A 
ATOM     48  C   UNL A   1      44.381  28.304  27.053  1.00  0.00     0.010 A 
ATOM     49  C   UNL A   1      45.034  28.547  28.274  1.00  0.00    -0.014 A 
BRANCH  49  50
ATOM     50  C   UNL A   1      44.289  29.149  29.403  1.00  0.00     0.031 A 
ATOM     51  C   UNL A   1      43.924  30.604  29.307  1.00  0.00     0.074 A 
ATOM     52  C   UNL A   1      43.925  28.425  30.473  1.00  0.00     0.049 A 
ATOM     53  N   UNL A   1      43.316  31.368  30.176  1.00  0.00    -0.248 NA
ATOM     54  C   UNL A   1      44.301  31.291  28.059  1.00  0.00     0.031 C 
ATOM     55  C   UNL A   1      44.176  26.998  30.659  1.00  0.00     0.029 A 
ATOM     56  N   UNL A   1      43.267  28.808  31.615  1.00  0.00    -0.354 N 
ATOM     57  C   UNL A   1      43.255  32.625  29.590  1.00  0.00     0.074 A 
ATOM     58  C   UNL A   1      43.907  32.530  28.303  1.00  0.00     0.031 C 
ATOM     59  C   UNL A   1      43.694  26.627  31.858  1.00  0.00     0.029 A 
ATOM     60  C   UNL A   1      43.135  27.797  32.534  1.00  0.00     0.049 A 
ATOM     61  H   UNL A   1      42.925  29.719  31.762  1.00  0.00     0.167 HD
ATOM     62  C   UNL A   1      42.706  33.761  30.080  1.00  0.00     0.031 A 
ATOM     63  C   UNL A   1      42.648  27.824  33.790  1.00  0.00     0.031 A 
ATOM     64  C   UNL A   1      42.075  33.858  31.369  1.00  0.00     0.049 A 
ATOM     65  C   UNL A   1      42.109  29.116  34.346  1.00  0.00     0.074 A 
ATOM     66  C   UNL A   1      41.466  34.956  31.949  1.00  0.00     0.029 A 
ATOM     67  N   UNL A   1      41.989  32.820  32.283  1.00  0.00    -0.354 N 
ATOM     68  N   UNL A   1      42.022  30.293  33.772  1.00  0.00    -0.248 NA
ATOM     69  C   UNL A   1      41.593  29.081  35.722  1.00  0.00     0.031 C 
ATOM     70  C   UNL A   1      41.074  34.602  33.243  1.00  0.00     0.029 A 
ATOM     71  C   UNL A   1      41.369  33.262  33.440  1.00  0.00     0.049 A 
ATOM     72  H   UNL A   1      42.318  31.905  32.132  1.00  0.00     0.167 HD
ATOM     73  C   UNL A   1      41.418  31.129  34.704  1.00  0.00     0.074 A 
ATOM     74  C   UNL A   1      41.145  30.319  35.874  1.00  0.00     0.031 C 
ATOM     75  C   UNL A   1      41.111  32.446  34.600  1.00  0.00     0.031 A 
BRANCH  62  76
ATOM     76  C   UNL A   1      42.821  35.002  29.239  1.00  0.00    -0.014 A 
ATOM     77  C   UNL A   1      43.916  35.874  29.353  1.00  0.00     0.009 A 
ATOM     78  C   UNL A   1      41.814  35.298  28.308  1.00  0.00     0.009 A 
ATOM     79  C   UNL A   1      43.977  37.036  28.581  1.00  0.00     0.001 A 
ATOM     80  C   UNL A   1      41.894  36.443  27.513  1.00  0.00     0.001 A 
ATOM     81  C   UNL A   1      42.970  37.317  27.659  1.00  0.00     0.000 A 
ENDBRANCH  62  76
BRANCH  63  82
ATOM     82  C   UNL A   1      42.679  26.592  34.622  1.00  0.00    -0.014 A 
ATOM     83  C   UNL A   1      41.494  25.928  34.973  1.00  0.00     0.009 A 
ATOM     84  C   UNL A   1      43.904  26.077  35.076  1.00  0.00     0.009 A 
ATOM     85  C   UNL A   1      41.535  24.787  35.780  1.00  0.00     0.001 A 
ATOM     86  C   UNL A   1      43.943  24.919  35.855  1.00  0.00     0.001 A 
ATOM     87  C   UNL A   1      42.759  24.280  36.214  1.00  0.00     0.000 A 
ENDBRANCH  63  82
BRANCH  75  88
ATOM     88  C   UNL A   1      40.412  33.091  35.765  1.00  0.00    -0.014 A 
ATOM     89  C   UNL A   1      39.012  33.088  35.876  1.00  0.00     0.009 A 
ATOM     90  C   UNL A   1      41.172  33.669  36.795  1.00  0.00     0.009 A 
ATOM     91  C   UNL A   1      38.389  33.680  36.977  1.00  0.00     0.001 A 
ATOM     92  C   UNL A   1      40.548  34.229  37.911  1.00  0.00     0.001 A 
ATOM     93  C   UNL A   1      39.158  34.244  37.995  1.00  0.00     0.000 A 
ENDBRANCH  75  88
ENDBRANCH  49  50
ENDBRANCH  42  44
ENDBRANCH  41  42
ENDBRANCH  40  41
ENDBRANCH  39  40
ENDBRANCH  38  39
ENDBRANCH  37  38
ENDBRANCH  36  37
ENDBRANCH  35  36
ENDBRANCH  34  35
ENDBRANCH   1  34
TORSDOF 26
ENDMDL
MODEL 2
REMARK VINA RESULT:      -8.7      4.788      7.754
REMARK SMILES COc1ccc(C(=O)Nc2ccccc2C(=O)N[C@@H](C(=O)OCCOCCOCCOCCOC(=O)c2ccc(-c3c4nc(c(-c5ccccc5)c5ccc([nH]5)c(-c5ccccc5)c5nc(c(-c6ccccc6)c6ccc3[nH]6)C=C5)C=C4)cc2)C(C)C)cc1
REMARK SMILES IDX 26 1 25 2 24 3 23 4 22 5 20 6 21 7 19 8 18 9 16 10 17 11
REMARK SMILES IDX 15 13 10 14 11 15 12 16 14 17 13 18 9 19 7 20 8 21 6 23 3 24
REMARK SMILES IDX 4 25 89 26 5 27 88 28 2 29 1 30 85 31 86 32 87 33 27 34
REMARK SMILES IDX 28 35 29 36 30 37 31 38 32 39 33 40 34 41 35 42 36 43 37 44
REMARK SMILES IDX 38 45 84 46 39 47 83 48 40 49 41 50 42 51 77 52 43 53 82 54
REMARK SMILES IDX 76 55 78 56 44 57 81 58 75 59 74 60 45 62 67 63 52 64 66 65
REMARK SMILES IDX 53 66 56 67 65 68 79 69 54 70 55 71 64 73 80 74 57 75 46 76
REMARK SMILES IDX 47 77 51 78 48 79 50 80 49 81 68 82 69 83 73 84 70 85 72 86
REMARK SMILES IDX 71 87 58 88 59 89 63 90 60 91 62 92 61 93
REMARK H PARENT 18 12 9 22 78 61 56 72
REMARK Flexibility Score: inf
ROOT
ATOM      1  C   UNL A   1      40.314  21.233  26.384  1.00  0.00     0.188 C 
ENDROOT
BRANCH   1   2
ATOM      2  O   UNL A   1      39.041  21.804  26.140  1.00  0.00    -0.376 OA
BRANCH   2   3
ATOM      3  C   UNL A   1      38.163  21.174  25.219  1.00  0.00     0.202 C 
BRANCH   3   4
ATOM      4  C   UNL A   1      36.635  21.359  25.297  1.00  0.00     0.261 C 
BRANCH   4   5
ATOM      5  O   UNL A   1      36.191  22.623  25.801  1.00  0.00    -0.462 OA
BRANCH   5   6
ATOM      6  C   UNL A   1      34.896  22.983  25.615  1.00  0.00     0.328 C 
ATOM      7  O   UNL A   1      34.243  23.631  26.423  1.00  0.00    -0.250 OA
BRANCH   6   8
ATOM      8  C   UNL A   1      34.410  22.628  24.177  1.00  0.00     0.195 C 
BRANCH   8   9
ATOM      9  N   UNL A   1      34.426  23.909  23.381  1.00  0.00    -0.338 N 
ATOM     10  C   UNL A   1      33.628  25.012  23.131  1.00  0.00     0.254 C 
ATOM     11  O   UNL A   1      34.012  25.734  22.202  1.00  0.00    -0.269 OA
ATOM     12  H   UNL A   1      35.270  23.985  22.880  1.00  0.00     0.164 HD
BRANCH  10  13
ATOM     13  C   UNL A   1      32.354  25.417  23.808  1.00  0.00     0.063 A 
ATOM     14  C   UNL A   1      32.247  26.066  25.030  1.00  0.00     0.054 A 
ATOM     15  C   UNL A   1      31.048  26.025  25.759  1.00  0.00     0.027 A 
ATOM     16  C   UNL A   1      29.868  25.658  25.124  1.00  0.00     0.002 A 
ATOM     17  C   UNL A   1      31.141  25.105  23.156  1.00  0.00     0.016 A 
ATOM     18  C   UNL A   1      29.904  25.281  23.788  1.00  0.00     0.001 A 
BRANCH  14  19
ATOM     19  N   UNL A   1      33.151  27.028  25.482  1.00  0.00    -0.321 N 
ATOM     20  C   UNL A   1      33.213  28.355  25.113  1.00  0.00     0.255 C 
ATOM     21  O   UNL A   1      34.024  29.086  25.677  1.00  0.00    -0.269 OA
ATOM     22  H   UNL A   1      33.819  26.726  26.139  1.00  0.00     0.170 HD
BRANCH  20  23
ATOM     23  C   UNL A   1      32.238  28.979  24.185  1.00  0.00     0.040 A 
ATOM     24  C   UNL A   1      30.180  29.552  22.406  1.00  0.00     0.118 A 
ATOM     25  C   UNL A   1      29.970  29.749  23.758  1.00  0.00     0.047 A 
ATOM     26  C   UNL A   1      31.452  29.221  21.928  1.00  0.00     0.047 A 
ATOM     27  C   UNL A   1      31.007  29.469  24.636  1.00  0.00     0.017 A 
ATOM     28  C   UNL A   1      32.483  28.913  22.818  1.00  0.00     0.017 A 
BRANCH  24  29
ATOM     29  O   UNL A   1      29.088  29.674  21.594  1.00  0.00    -0.497 OA
ATOM     30  C   UNL A   1      28.712  31.046  21.458  1.00  0.00     0.278 C 
ENDBRANCH  24  29
ENDBRANCH  20  23
ENDBRANCH  14  19
ENDBRANCH  10  13
ENDBRANCH   8   9
BRANCH   8  31
ATOM     31  C   UNL A   1      32.983  21.888  24.265  1.00  0.00     0.017 C 
ATOM     32  C   UNL A   1      32.188  21.547  22.992  1.00  0.00     0.010 C 
ATOM     33  C   UNL A   1      33.083  20.526  24.982  1.00  0.00     0.010 C 
ENDBRANCH   8  31
ENDBRANCH   6   8
ENDBRANCH   5   6
ENDBRANCH   4   5
ENDBRANCH   3   4
ENDBRANCH   2   3
ENDBRANCH   1   2
BRANCH   1  34
ATOM     34  C   UNL A   1      40.954  21.724  27.692  1.00  0.00     0.188 C 
BRANCH  34  35
ATOM     35  O   UNL A   1      42.115  22.510  27.516  1.00  0.00    -0.377 OA
BRANCH  35  36
ATOM     36  C   UNL A   1      42.130  23.813  28.107  1.00  0.00     0.188 C 
BRANCH  36  37
ATOM     37  C   UNL A   1      42.326  25.096  27.254  1.00  0.00     0.188 C 
BRANCH  37  38
ATOM     38  O   UNL A   1      42.138  24.951  25.856  1.00  0.00    -0.376 OA
BRANCH  38  39
ATOM     39  C   UNL A   1      43.266  25.015  24.997  1.00  0.00     0.202 C 
BRANCH  39  40
ATOM     40  C   UNL A   1      44.650  24.671  25.574  1.00  0.00     0.261 C 
BRANCH  40  41
ATOM     41  O   UNL A   1      45.785  25.048  24.780  1.00  0.00    -0.460 OA
BRANCH  41  42
ATOM     42  C   UNL A   1      46.331  26.267  24.987  1.00  0.00     0.338 C 
ATOM     43  O   UNL A   1      46.176  27.271  24.327  1.00  0.00    -0.246 OA
BRANCH  42  44
ATOM     44  C   UNL A   1      46.996  26.229  26.309  1.00  0.00     0.060 A 
ATOM     45  C   UNL A   1      47.603  25.039  26.732  1.00  0.00     0.016 A 
ATOM     46  C   UNL A   1      47.018  27.364  27.121  1.00  0.00     0.016 A 
ATOM     47  C   UNL A   1      48.198  24.965  27.988  1.00  0.00     0.010 A 
ATOM     48  C   UNL A   1      47.584  27.281  28.394  1.00  0.00     0.010 A 
ATOM     49  C   UNL A   1      48.137  26.069  28.846  1.00  0.00    -0.014 A 
BRANCH  49  50
ATOM     50  C   UNL A   1      48.429  25.882  30.285  1.00  0.00     0.031 A 
ATOM     51  C   UNL A   1      49.869  25.889  30.717  1.00  0.00     0.074 A 
ATOM     52  C   UNL A   1      47.448  25.732  31.189  1.00  0.00     0.049 A 
ATOM     53  N   UNL A   1      50.381  25.702  31.904  1.00  0.00    -0.248 NA
ATOM     54  C   UNL A   1      50.866  26.137  29.660  1.00  0.00     0.031 C 
ATOM     55  C   UNL A   1      46.016  25.759  30.901  1.00  0.00     0.029 A 
ATOM     56  N   UNL A   1      47.520  25.518  32.543  1.00  0.00    -0.354 N 
ATOM     57  C   UNL A   1      51.757  25.791  31.735  1.00  0.00     0.074 A 
ATOM     58  C   UNL A   1      52.001  26.024  30.329  1.00  0.00     0.031 C 
ATOM     59  C   UNL A   1      45.341  25.548  32.045  1.00  0.00     0.029 A 
ATOM     60  C   UNL A   1      46.295  25.337  33.134  1.00  0.00     0.049 A 
ATOM     61  H   UNL A   1      48.369  25.496  33.041  1.00  0.00     0.167 HD
ATOM     62  C   UNL A   1      52.732  25.685  32.667  1.00  0.00     0.031 A 
ATOM     63  C   UNL A   1      45.983  25.007  34.402  1.00  0.00     0.031 A 
ATOM     64  C   UNL A   1      52.487  25.434  34.062  1.00  0.00     0.049 A 
ATOM     65  C   UNL A   1      47.087  24.820  35.410  1.00  0.00     0.074 A 
ATOM     66  C   UNL A   1      53.404  25.334  35.093  1.00  0.00     0.029 A 
ATOM     67  N   UNL A   1      51.234  25.225  34.616  1.00  0.00    -0.354 N 
ATOM     68  N   UNL A   1      48.384  24.941  35.250  1.00  0.00    -0.248 NA
ATOM     69  C   UNL A   1      46.683  24.459  36.776  1.00  0.00     0.031 C 
ATOM     70  C   UNL A   1      52.711  24.994  36.258  1.00  0.00     0.029 A 
ATOM     71  C   UNL A   1      51.356  24.959  35.970  1.00  0.00     0.049 A 
ATOM     72  H   UNL A   1      50.384  25.262  34.122  1.00  0.00     0.167 HD
ATOM     73  C   UNL A   1      48.947  24.699  36.497  1.00  0.00     0.074 A 
ATOM     74  C   UNL A   1      47.849  24.440  37.406  1.00  0.00     0.031 C 
ATOM     75  C   UNL A   1      50.254  24.696  36.861  1.00  0.00     0.031 A 
BRANCH  62  76
ATOM     76  C   UNL A   1      54.155  25.783  32.192  1.00  0.00    -0.014 A 
ATOM     77  C   UNL A   1      54.871  24.653  31.765  1.00  0.00     0.009 A 
ATOM     78  C   UNL A   1      54.787  27.036  32.165  1.00  0.00     0.009 A 
ATOM     79  C   UNL A   1      56.203  24.772  31.361  1.00  0.00     0.001 A 
ATOM     80  C   UNL A   1      56.107  27.157  31.727  1.00  0.00     0.001 A 
ATOM     81  C   UNL A   1      56.818  26.023  31.337  1.00  0.00     0.000 A 
ENDBRANCH  62  76
BRANCH  63  82
ATOM     82  C   UNL A   1      44.562  24.797  34.783  1.00  0.00    -0.014 A 
ATOM     83  C   UNL A   1      43.807  25.832  35.355  1.00  0.00     0.009 A 
ATOM     84  C   UNL A   1      43.953  23.547  34.580  1.00  0.00     0.009 A 
ATOM     85  C   UNL A   1      42.480  25.612  35.737  1.00  0.00     0.001 A 
ATOM     86  C   UNL A   1      42.618  23.341  34.932  1.00  0.00     0.001 A 
ATOM     87  C   UNL A   1      41.885  24.371  35.518  1.00  0.00     0.000 A 
ENDBRANCH  63  82
BRANCH  75  88
ATOM     88  C   UNL A   1      50.573  24.442  38.309  1.00  0.00    -0.014 A 
ATOM     89  C   UNL A   1      50.817  23.146  38.791  1.00  0.00     0.009 A 
ATOM     90  C   UNL A   1      50.679  25.527  39.195  1.00  0.00     0.009 A 
ATOM     91  C   UNL A   1      51.128  22.941  40.138  1.00  0.00     0.001 A 
ATOM     92  C   UNL A   1      51.023  25.322  40.532  1.00  0.00     0.001 A 
ATOM     93  C   UNL A   1      51.236  24.029  41.004  1.00  0.00     0.000 A 
ENDBRANCH  75  88
ENDBRANCH  49  50
ENDBRANCH  42  44
ENDBRANCH  41  42
ENDBRANCH  40  41
ENDBRANCH  39  40
ENDBRANCH  38  39
ENDBRANCH  37  38
ENDBRANCH  36  37
ENDBRANCH  35  36
ENDBRANCH  34  35
ENDBRANCH   1  34
TORSDOF 26
ENDMDL
MODEL 3
REMARK VINA RESULT:      -8.6      4.464      7.593
REMARK SMILES COc1ccc(C(=O)Nc2ccccc2C(=O)N[C@@H](C(=O)OCCOCCOCCOCCOC(=O)c2ccc(-c3c4nc(c(-c5ccccc5)c5ccc([nH]5)c(-c5ccccc5)c5nc(c(-c6ccccc6)c6ccc3[nH]6)C=C5)C=C4)cc2)C(C)C)cc1
REMARK SMILES IDX 26 1 25 2 24 3 23 4 22 5 20 6 21 7 19 8 18 9 16 10 17 11
REMARK SMILES IDX 15 13 10 14 11 15 12 16 14 17 13 18 9 19 7 20 8 21 6 23 3 24
REMARK SMILES IDX 4 25 89 26 5 27 88 28 2 29 1 30 85 31 86 32 87 33 27 34
REMARK SMILES IDX 28 35 29 36 30 37 31 38 32 39 33 40 34 41 35 42 36 43 37 44
REMARK SMILES IDX 38 45 84 46 39 47 83 48 40 49 41 50 42 51 77 52 43 53 82 54
REMARK SMILES IDX 76 55 78 56 44 57 81 58 75 59 74 60 45 62 67 63 52 64 66 65
REMARK SMILES IDX 53 66 56 67 65 68 79 69 54 70 55 71 64 73 80 74 57 75 46 76
REMARK SMILES IDX 47 77 51 78 48 79 50 80 49 81 68 82 69 83 73 84 70 85 72 86
REMARK SMILES IDX 71 87 58 88 59 89 63 90 60 91 62 92 61 93
REMARK H PARENT 18 12 9 22 78 61 56 72
REMARK Flexibility Score: inf
ROOT
ATOM      1  C   UNL A   1      40.770  21.757  26.304  1.00  0.00     0.188 C 
ENDROOT
BRANCH   1   2
ATOM      2  O   UNL A   1      39.380  21.577  26.505  1.00  0.00    -0.376 OA
BRANCH   2   3
ATOM      3  C   UNL A   1      38.552  21.281  25.391  1.00  0.00     0.202 C 
BRANCH   3   4
ATOM      4  C   UNL A   1      37.040  21.585  25.399  1.00  0.00     0.261 C 
BRANCH   4   5
ATOM      5  O   UNL A   1      36.684  22.955  25.193  1.00  0.00    -0.462 OA
BRANCH   5   6
ATOM      6  C   UNL A   1      35.371  23.298  25.197  1.00  0.00     0.328 C 
ATOM      7  O   UNL A   1      34.858  24.030  26.034  1.00  0.00    -0.250 OA
BRANCH   6   8
ATOM      8  C   UNL A   1      34.650  22.795  23.910  1.00  0.00     0.195 C 
BRANCH   8   9
ATOM      9  N   UNL A   1      34.471  23.994  23.012  1.00  0.00    -0.338 N 
ATOM     10  C   UNL A   1      33.574  25.022  22.782  1.00  0.00     0.254 C 
ATOM     11  O   UNL A   1      33.779  25.673  21.749  1.00  0.00    -0.269 OA
ATOM     12  H   UNL A   1      35.233  24.069  22.393  1.00  0.00     0.164 HD
BRANCH  10  13
ATOM     13  C   UNL A   1      32.379  25.418  23.593  1.00  0.00     0.063 A 
ATOM     14  C   UNL A   1      32.400  26.006  24.850  1.00  0.00     0.054 A 
ATOM     15  C   UNL A   1      31.272  25.953  25.684  1.00  0.00     0.027 A 
ATOM     16  C   UNL A   1      30.030  25.643  25.145  1.00  0.00     0.002 A 
ATOM     17  C   UNL A   1      31.103  25.165  23.042  1.00  0.00     0.016 A 
ATOM     18  C   UNL A   1      29.934  25.334  23.794  1.00  0.00     0.001 A 
BRANCH  14  19
ATOM     19  N   UNL A   1      33.366  26.925  25.263  1.00  0.00    -0.321 N 
ATOM     20  C   UNL A   1      33.399  28.278  24.998  1.00  0.00     0.255 C 
ATOM     21  O   UNL A   1      34.283  28.958  25.514  1.00  0.00    -0.269 OA
ATOM     22  H   UNL A   1      34.106  26.569  25.805  1.00  0.00     0.170 HD
BRANCH  20  23
ATOM     23  C   UNL A   1      32.326  28.979  24.251  1.00  0.00     0.040 A 
ATOM     24  C   UNL A   1      30.003  29.737  22.925  1.00  0.00     0.118 A 
ATOM     25  C   UNL A   1      30.143  30.054  24.263  1.00  0.00     0.047 A 
ATOM     26  C   UNL A   1      31.072  29.185  22.213  1.00  0.00     0.047 A 
ATOM     27  C   UNL A   1      31.310  29.680  24.913  1.00  0.00     0.017 A 
ATOM     28  C   UNL A   1      32.233  28.785  22.878  1.00  0.00     0.017 A 
BRANCH  24  29
ATOM     29  O   UNL A   1      28.777  29.969  22.367  1.00  0.00    -0.497 OA
ATOM     30  C   UNL A   1      27.848  28.953  22.749  1.00  0.00     0.278 C 
ENDBRANCH  24  29
ENDBRANCH  20  23
ENDBRANCH  14  19
ENDBRANCH  10  13
ENDBRANCH   8   9
BRANCH   8  31
ATOM     31  C   UNL A   1      33.293  22.035  24.324  1.00  0.00     0.017 C 
ATOM     32  C   UNL A   1      32.282  21.581  23.255  1.00  0.00     0.010 C 
ATOM     33  C   UNL A   1      33.575  20.733  25.102  1.00  0.00     0.010 C 
ENDBRANCH   8  31
ENDBRANCH   6   8
ENDBRANCH   5   6
ENDBRANCH   4   5
ENDBRANCH   3   4
ENDBRANCH   2   3
ENDBRANCH   1   2
BRANCH   1  34
ATOM     34  C   UNL A   1      41.567  21.807  27.618  1.00  0.00     0.188 C 
BRANCH  34  35
ATOM     35  O   UNL A   1      42.450  22.906  27.725  1.00  0.00    -0.377 OA
BRANCH  35  36
ATOM     36  C   UNL A   1      42.206  23.852  28.770  1.00  0.00     0.188 C 
BRANCH  36  37
ATOM     37  C   UNL A   1      42.183  25.381  28.499  1.00  0.00     0.188 C 
BRANCH  37  38
ATOM     38  O   UNL A   1      41.205  25.838  27.580  1.00  0.00    -0.376 OA
BRANCH  38  39
ATOM     39  C   UNL A   1      41.570  26.805  26.607  1.00  0.00     0.202 C 
BRANCH  39  40
ATOM     40  C   UNL A   1      42.047  26.319  25.229  1.00  0.00     0.261 C 
BRANCH  40  41
ATOM     41  O   UNL A   1      43.467  26.263  25.026  1.00  0.00    -0.460 OA
BRANCH  41  42
ATOM     42  C   UNL A   1      44.094  25.082  25.225  1.00  0.00     0.338 C 
ATOM     43  O   UNL A   1      44.039  24.088  24.535  1.00  0.00    -0.246 OA
BRANCH  42  44
ATOM     44  C   UNL A   1      45.052  25.278  26.335  1.00  0.00     0.060 A 
ATOM     45  C   UNL A   1      45.676  24.158  26.902  1.00  0.00     0.016 A 
ATOM     46  C   UNL A   1      45.331  26.561  26.809  1.00  0.00     0.016 A 
ATOM     47  C   UNL A   1      46.550  24.313  27.976  1.00  0.00     0.010 A 
ATOM     48  C   UNL A   1      46.179  26.714  27.907  1.00  0.00     0.010 A 
ATOM     49  C   UNL A   1      46.757  25.587  28.518  1.00  0.00    -0.014 A 
BRANCH  49  50
ATOM     50  C   UNL A   1      47.374  25.708  29.858  1.00  0.00     0.031 A 
ATOM     51  C   UNL A   1      46.473  25.621  31.058  1.00  0.00     0.074 A 
ATOM     52  C   UNL A   1      48.698  25.867  30.011  1.00  0.00     0.049 A 
ATOM     53  N   UNL A   1      46.764  25.741  32.327  1.00  0.00    -0.248 NA
ATOM     54  C   UNL A   1      45.047  25.368  30.786  1.00  0.00     0.031 C 
ATOM     55  C   UNL A   1      49.679  25.915  28.930  1.00  0.00     0.029 A 
ATOM     56  N   UNL A   1      49.442  26.027  31.153  1.00  0.00    -0.354 N 
ATOM     57  C   UNL A   1      45.559  25.597  33.001  1.00  0.00     0.074 A 
ATOM     58  C   UNL A   1      44.530  25.405  32.003  1.00  0.00     0.031 C 
ATOM     59  C   UNL A   1      50.899  26.112  29.460  1.00  0.00     0.029 A 
ATOM     60  C   UNL A   1      50.776  26.241  30.912  1.00  0.00     0.049 A 
ATOM     61  H   UNL A   1      49.056  25.993  32.058  1.00  0.00     0.167 HD
ATOM     62  C   UNL A   1      45.327  25.625  34.334  1.00  0.00     0.031 A 
ATOM     63  C   UNL A   1      51.776  26.537  31.765  1.00  0.00     0.031 A 
ATOM     64  C   UNL A   1      46.349  25.835  35.323  1.00  0.00     0.049 A 
ATOM     65  C   UNL A   1      51.484  26.637  33.239  1.00  0.00     0.074 A 
ATOM     66  C   UNL A   1      46.223  25.856  36.700  1.00  0.00     0.029 A 
ATOM     67  N   UNL A   1      47.684  26.078  35.037  1.00  0.00    -0.354 N 
ATOM     68  N   UNL A   1      50.348  26.465  33.873  1.00  0.00    -0.248 NA
ATOM     69  C   UNL A   1      52.616  26.965  34.118  1.00  0.00     0.031 C 
ATOM     70  C   UNL A   1      47.468  26.182  37.245  1.00  0.00     0.029 A 
ATOM     71  C   UNL A   1      48.386  26.288  36.212  1.00  0.00     0.049 A 
ATOM     72  H   UNL A   1      48.074  26.098  34.134  1.00  0.00     0.167 HD
ATOM     73  C   UNL A   1      50.633  26.635  35.223  1.00  0.00     0.074 A 
ATOM     74  C   UNL A   1      52.053  26.908  35.317  1.00  0.00     0.031 C 
ATOM     75  C   UNL A   1      49.799  26.566  36.289  1.00  0.00     0.031 A 
BRANCH  62  76
ATOM     76  C   UNL A   1      43.901  25.482  34.790  1.00  0.00    -0.014 A 
ATOM     77  C   UNL A   1      43.071  26.597  34.982  1.00  0.00     0.009 A 
ATOM     78  C   UNL A   1      43.379  24.200  35.025  1.00  0.00     0.009 A 
ATOM     79  C   UNL A   1      41.761  26.434  35.438  1.00  0.00     0.001 A 
ATOM     80  C   UNL A   1      42.059  24.037  35.448  1.00  0.00     0.001 A 
ATOM     81  C   UNL A   1      41.255  25.155  35.666  1.00  0.00     0.000 A 
ENDBRANCH  62  76
BRANCH  63  82
ATOM     82  C   UNL A   1      53.143  26.796  31.241  1.00  0.00    -0.014 A 
ATOM     83  C   UNL A   1      53.516  28.074  30.798  1.00  0.00     0.009 A 
ATOM     84  C   UNL A   1      54.084  25.755  31.175  1.00  0.00     0.009 A 
ATOM     85  C   UNL A   1      54.795  28.297  30.281  1.00  0.00     0.001 A 
ATOM     86  C   UNL A   1      55.370  25.989  30.688  1.00  0.00     0.001 A 
ATOM     87  C   UNL A   1      55.723  27.257  30.233  1.00  0.00     0.000 A 
ENDBRANCH  63  82
BRANCH  75  88
ATOM     88  C   UNL A   1      50.399  26.752  37.656  1.00  0.00    -0.014 A 
ATOM     89  C   UNL A   1      50.358  27.992  38.315  1.00  0.00     0.009 A 
ATOM     90  C   UNL A   1      50.972  25.652  38.315  1.00  0.00     0.009 A 
ATOM     91  C   UNL A   1      50.909  28.132  39.591  1.00  0.00     0.001 A 
ATOM     92  C   UNL A   1      51.491  25.788  39.604  1.00  0.00     0.001 A 
ATOM     93  C   UNL A   1      51.469  27.029  40.236  1.00  0.00     0.000 A 
ENDBRANCH  75  88
ENDBRANCH  49  50
ENDBRANCH  42  44
ENDBRANCH  41  42
ENDBRANCH  40  41
ENDBRANCH  39  40
ENDBRANCH  38  39
ENDBRANCH  37  38
ENDBRANCH  36  37
ENDBRANCH  35  36
ENDBRANCH  34  35
ENDBRANCH   1  34
TORSDOF 26
ENDMDL
