MODEL 1
REMARK VINA RESULT:      -9.6      0.000      0.000
REMARK SMILES O=C(OCCOCCOCCOCCOC(=O)[C@@]1([C@H]2CCO[C@@]3(CCOC3)C2)CCOC1)c1ccc(-c2c3nc(c(-c4ccccc4)c4ccc([nH]4)c(-c4ccccc4)c4nc(c(-c5ccccc5)c5ccc2[nH]5)C=C4)C=C3)cc1
REMARK SMILES IDX 8 1 7 2 6 3 5 4 4 5 3 6 2 7 1 8 33 9 34 10 80 11 35 12 79 13
REMARK SMILES IDX 36 14 37 15 38 16 73 17 39 18 78 19 72 20 74 21 40 22 77 23
REMARK SMILES IDX 71 24 70 25 41 27 63 28 48 29 62 30 49 31 52 32 61 33 75 34
REMARK SMILES IDX 50 35 51 36 60 38 76 39 53 40 42 41 43 42 47 43 44 44 46 45
REMARK SMILES IDX 45 46 64 47 65 48 69 49 66 50 68 51 67 52 54 53 55 54 59 55
REMARK SMILES IDX 56 56 58 57 57 58 9 59 10 60 11 61 12 62 13 63 14 64 15 65
REMARK SMILES IDX 16 66 17 67 18 68 29 69 32 70 30 71 31 72 19 73 20 74 28 75
REMARK SMILES IDX 21 76 23 77 22 78 24 79 27 80 25 81 26 82
REMARK H PARENT 74 26 52 37
REMARK Flexibility Score: inf
ROOT
ATOM      1  C   UNL A   1      35.604  33.702  28.072  1.00  0.00     0.188 C 
ENDROOT
BRANCH   1   2
ATOM      2  C   UNL A   1      34.278  34.434  28.216  1.00  0.00     0.188 C 
BRANCH   2   3
ATOM      3  O   UNL A   1      34.295  35.297  29.360  1.00  0.00    -0.376 OA
BRANCH   3   4
ATOM      4  C   UNL A   1      33.864  34.699  30.584  1.00  0.00     0.202 C 
BRANCH   4   5
ATOM      5  C   UNL A   1      34.974  34.393  31.582  1.00  0.00     0.261 C 
BRANCH   5   6
ATOM      6  O   UNL A   1      34.941  33.055  32.092  1.00  0.00    -0.460 OA
BRANCH   6   7
ATOM      7  C   UNL A   1      35.921  32.343  32.697  1.00  0.00     0.338 C 
ATOM      8  O   UNL A   1      36.064  32.498  33.911  1.00  0.00    -0.246 OA
BRANCH   7   9
ATOM      9  C   UNL A   1      36.895  31.433  31.998  1.00  0.00     0.060 A 
ATOM     10  C   UNL A   1      37.722  30.479  32.597  1.00  0.00     0.016 A 
ATOM     11  C   UNL A   1      36.944  31.539  30.594  1.00  0.00     0.016 A 
ATOM     12  C   UNL A   1      38.540  29.637  31.857  1.00  0.00     0.010 A 
ATOM     13  C   UNL A   1      37.828  30.764  29.841  1.00  0.00     0.010 A 
ATOM     14  C   UNL A   1      38.648  29.837  30.489  1.00  0.00    -0.014 A 
BRANCH  14  15
ATOM     15  C   UNL A   1      39.876  29.351  29.851  1.00  0.00     0.031 A 
ATOM     16  C   UNL A   1      41.015  30.324  29.783  1.00  0.00     0.074 A 
ATOM     17  C   UNL A   1      40.001  28.072  29.474  1.00  0.00     0.049 A 
ATOM     18  N   UNL A   1      42.164  30.220  29.176  1.00  0.00    -0.248 NA
ATOM     19  C   UNL A   1      40.833  31.589  30.522  1.00  0.00     0.031 C 
ATOM     20  C   UNL A   1      39.003  27.025  29.686  1.00  0.00     0.029 A 
ATOM     21  N   UNL A   1      41.033  27.440  28.838  1.00  0.00    -0.354 N 
ATOM     22  C   UNL A   1      42.817  31.421  29.424  1.00  0.00     0.074 A 
ATOM     23  C   UNL A   1      41.961  32.228  30.256  1.00  0.00     0.031 C 
ATOM     24  C   UNL A   1      39.464  25.877  29.159  1.00  0.00     0.029 A 
ATOM     25  C   UNL A   1      40.750  26.136  28.520  1.00  0.00     0.049 A 
ATOM     26  H   UNL A   1      41.890  27.876  28.629  1.00  0.00     0.167 HD
ATOM     27  C   UNL A   1      44.019  31.826  28.955  1.00  0.00     0.031 A 
ATOM     28  C   UNL A   1      41.439  25.284  27.739  1.00  0.00     0.031 A 
ATOM     29  C   UNL A   1      44.811  31.009  28.084  1.00  0.00     0.049 A 
ATOM     30  C   UNL A   1      42.716  25.787  27.117  1.00  0.00     0.074 A 
ATOM     31  C   UNL A   1      45.997  31.309  27.447  1.00  0.00     0.029 A 
ATOM     32  N   UNL A   1      44.467  29.710  27.724  1.00  0.00    -0.354 N 
ATOM     33  N   UNL A   1      43.297  26.958  27.263  1.00  0.00    -0.248 NA
ATOM     34  C   UNL A   1      43.423  24.871  26.214  1.00  0.00     0.031 C 
ATOM     35  C   UNL A   1      46.344  30.206  26.658  1.00  0.00     0.029 A 
ATOM     36  C   UNL A   1      45.409  29.197  26.857  1.00  0.00     0.049 A 
ATOM     37  H   UNL A   1      43.670  29.229  28.041  1.00  0.00     0.167 HD
ATOM     38  C   UNL A   1      44.447  26.915  26.486  1.00  0.00     0.074 A 
ATOM     39  C   UNL A   1      44.481  25.598  25.878  1.00  0.00     0.031 C 
ATOM     40  C   UNL A   1      45.391  27.870  26.292  1.00  0.00     0.031 A 
BRANCH  27  41
ATOM     41  C   UNL A   1      44.423  33.236  29.274  1.00  0.00    -0.014 A 
ATOM     42  C   UNL A   1      45.271  33.541  30.351  1.00  0.00     0.009 A 
ATOM     43  C   UNL A   1      43.851  34.290  28.544  1.00  0.00     0.009 A 
ATOM     44  C   UNL A   1      45.491  34.871  30.724  1.00  0.00     0.001 A 
ATOM     45  C   UNL A   1      44.096  35.618  28.901  1.00  0.00     0.001 A 
ATOM     46  C   UNL A   1      44.901  35.907  30.001  1.00  0.00     0.000 A 
ENDBRANCH  27  41
BRANCH  28  47
ATOM     47  C   UNL A   1      40.885  23.937  27.446  1.00  0.00    -0.014 A 
ATOM     48  C   UNL A   1      39.833  23.764  26.537  1.00  0.00     0.009 A 
ATOM     49  C   UNL A   1      41.449  22.797  28.048  1.00  0.00     0.009 A 
ATOM     50  C   UNL A   1      39.359  22.482  26.237  1.00  0.00     0.001 A 
ATOM     51  C   UNL A   1      40.993  21.517  27.726  1.00  0.00     0.001 A 
ATOM     52  C   UNL A   1      39.945  21.361  26.823  1.00  0.00     0.000 A 
ENDBRANCH  28  47
BRANCH  40  53
ATOM     53  C   UNL A   1      46.560  27.505  25.428  1.00  0.00    -0.014 A 
ATOM     54  C   UNL A   1      46.647  27.943  24.100  1.00  0.00     0.009 A 
ATOM     55  C   UNL A   1      47.636  26.807  25.999  1.00  0.00     0.009 A 
ATOM     56  C   UNL A   1      47.793  27.675  23.351  1.00  0.00     0.001 A 
ATOM     57  C   UNL A   1      48.789  26.564  25.255  1.00  0.00     0.001 A 
ATOM     58  C   UNL A   1      48.865  26.996  23.931  1.00  0.00     0.000 A 
ENDBRANCH  40  53
ENDBRANCH  14  15
ENDBRANCH   7   9
ENDBRANCH   6   7
ENDBRANCH   5   6
ENDBRANCH   4   5
ENDBRANCH   3   4
ENDBRANCH   2   3
ENDBRANCH   1   2
BRANCH   1  59
ATOM     59  O   UNL A   1      35.457  32.367  27.614  1.00  0.00    -0.377 OA
BRANCH  59  60
ATOM     60  C   UNL A   1      34.442  31.596  28.239  1.00  0.00     0.188 C 
BRANCH  60  61
ATOM     61  C   UNL A   1      33.965  30.311  27.576  1.00  0.00     0.188 C 
BRANCH  61  62
ATOM     62  O   UNL A   1      32.554  30.222  27.497  1.00  0.00    -0.376 OA
BRANCH  62  63
ATOM     63  C   UNL A   1      31.988  30.767  26.313  1.00  0.00     0.202 C 
BRANCH  63  64
ATOM     64  C   UNL A   1      31.591  29.779  25.194  1.00  0.00     0.261 C 
BRANCH  64  65
ATOM     65  O   UNL A   1      32.468  28.658  24.913  1.00  0.00    -0.463 OA
BRANCH  65  66
ATOM     66  C   UNL A   1      32.323  27.993  23.748  1.00  0.00     0.314 C 
ATOM     67  O   UNL A   1      32.677  28.471  22.674  1.00  0.00    -0.252 OA
BRANCH  66  68
ATOM     68  C   UNL A   1      31.750  26.551  23.889  1.00  0.00     0.096 C 
ATOM     69  C   UNL A   1      31.505  26.366  25.408  1.00  0.00     0.050 C 
ATOM     70  C   UNL A   1      30.294  26.541  23.403  1.00  0.00     0.179 C 
ATOM     71  C   UNL A   1      30.261  25.507  25.489  1.00  0.00     0.161 C 
ATOM     72  O   UNL A   1      29.548  25.668  24.260  1.00  0.00    -0.380 OA
BRANCH  68  73
ATOM     73  C   UNL A   1      32.531  25.263  23.393  1.00  0.00     0.014 C 
ATOM     74  C   UNL A   1      32.489  24.656  21.969  1.00  0.00     0.033 C 
ATOM     75  C   UNL A   1      33.989  25.266  23.819  1.00  0.00     0.043 C 
ATOM     76  C   UNL A   1      33.314  23.344  21.846  1.00  0.00     0.161 C 
ATOM     77  C   UNL A   1      34.498  23.816  23.863  1.00  0.00     0.094 C 
ATOM     78  O   UNL A   1      34.586  23.362  22.516  1.00  0.00    -0.372 OA
ATOM     79  C   UNL A   1      35.812  23.800  24.629  1.00  0.00     0.066 C 
ATOM     80  C   UNL A   1      33.730  22.840  24.769  1.00  0.00     0.195 C 
ATOM     81  C   UNL A   1      35.318  23.873  26.075  1.00  0.00     0.163 C 
ATOM     82  O   UNL A   1      34.021  23.247  26.110  1.00  0.00    -0.378 OA
ENDBRANCH  68  73
ENDBRANCH  66  68
ENDBRANCH  65  66
ENDBRANCH  64  65
ENDBRANCH  63  64
ENDBRANCH  62  63
ENDBRANCH  61  62
ENDBRANCH  60  61
ENDBRANCH  59  60
ENDBRANCH   1  59
TORSDOF 21
ENDMDL
MODEL 2
REMARK VINA RESULT:      -9.4      4.422     10.102
REMARK SMILES O=C(OCCOCCOCCOCCOC(=O)[C@@]1([C@H]2CCO[C@@]3(CCOC3)C2)CCOC1)c1ccc(-c2c3nc(c(-c4ccccc4)c4ccc([nH]4)c(-c4ccccc4)c4nc(c(-c5ccccc5)c5ccc2[nH]5)C=C4)C=C3)cc1
REMARK SMILES IDX 8 1 7 2 6 3 5 4 4 5 3 6 2 7 1 8 33 9 34 10 80 11 35 12 79 13
REMARK SMILES IDX 36 14 37 15 38 16 73 17 39 18 78 19 72 20 74 21 40 22 77 23
REMARK SMILES IDX 71 24 70 25 41 27 63 28 48 29 62 30 49 31 52 32 61 33 75 34
REMARK SMILES IDX 50 35 51 36 60 38 76 39 53 40 42 41 43 42 47 43 44 44 46 45
REMARK SMILES IDX 45 46 64 47 65 48 69 49 66 50 68 51 67 52 54 53 55 54 59 55
REMARK SMILES IDX 56 56 58 57 57 58 9 59 10 60 11 61 12 62 13 63 14 64 15 65
REMARK SMILES IDX 16 66 17 67 18 68 29 69 32 70 30 71 31 72 19 73 20 74 28 75
REMARK SMILES IDX 21 76 23 77 22 78 24 79 27 80 25 81 26 82
REMARK H PARENT 74 26 52 37
REMARK Flexibility Score: inf
ROOT
ATOM      1  C   UNL A   1      43.098  20.398  25.643  1.00  0.00     0.188 C 
ENDROOT
BRANCH   1   2
ATOM      2  C   UNL A   1      43.982  21.627  25.493  1.00  0.00     0.188 C 
BRANCH   2   3
ATOM      3  O   UNL A   1      43.467  22.504  24.484  1.00  0.00    -0.376 OA
BRANCH   3   4
ATOM      4  C   UNL A   1      43.717  23.895  24.697  1.00  0.00     0.202 C 
BRANCH   4   5
ATOM      5  C   UNL A   1      42.713  24.605  25.596  1.00  0.00     0.261 C 
BRANCH   5   6
ATOM      6  O   UNL A   1      42.139  25.778  25.009  1.00  0.00    -0.460 OA
BRANCH   6   7
ATOM      7  C   UNL A   1      42.131  27.052  25.469  1.00  0.00     0.338 C 
ATOM      8  O   UNL A   1      42.278  27.951  24.641  1.00  0.00    -0.246 OA
BRANCH   7   9
ATOM      9  C   UNL A   1      42.030  27.455  26.915  1.00  0.00     0.060 A 
ATOM     10  C   UNL A   1      41.187  26.894  27.880  1.00  0.00     0.016 A 
ATOM     11  C   UNL A   1      42.902  28.478  27.338  1.00  0.00     0.016 A 
ATOM     12  C   UNL A   1      41.217  27.289  29.210  1.00  0.00     0.010 A 
ATOM     13  C   UNL A   1      42.880  28.951  28.650  1.00  0.00     0.010 A 
ATOM     14  C   UNL A   1      42.005  28.371  29.573  1.00  0.00    -0.014 A 
BRANCH  14  15
ATOM     15  C   UNL A   1      41.606  29.095  30.783  1.00  0.00     0.031 A 
ATOM     16  C   UNL A   1      40.360  29.922  30.679  1.00  0.00     0.074 A 
ATOM     17  C   UNL A   1      42.254  28.917  31.943  1.00  0.00     0.049 A 
ATOM     18  N   UNL A   1      39.840  30.757  31.534  1.00  0.00    -0.248 NA
ATOM     19  C   UNL A   1      39.583  29.769  29.433  1.00  0.00     0.031 C 
ATOM     20  C   UNL A   1      43.356  27.980  32.162  1.00  0.00     0.029 A 
ATOM     21  N   UNL A   1      42.066  29.516  33.156  1.00  0.00    -0.354 N 
ATOM     22  C   UNL A   1      38.704  31.257  30.910  1.00  0.00     0.074 A 
ATOM     23  C   UNL A   1      38.588  30.620  29.623  1.00  0.00     0.031 C 
ATOM     24  C   UNL A   1      43.767  28.090  33.437  1.00  0.00     0.029 A 
ATOM     25  C   UNL A   1      43.002  29.149  34.089  1.00  0.00     0.049 A 
ATOM     26  H   UNL A   1      41.334  30.148  33.342  1.00  0.00     0.167 HD
ATOM     27  C   UNL A   1      37.855  32.206  31.366  1.00  0.00     0.031 A 
ATOM     28  C   UNL A   1      43.238  29.671  35.306  1.00  0.00     0.031 A 
ATOM     29  C   UNL A   1      38.044  32.853  32.631  1.00  0.00     0.049 A 
ATOM     30  C   UNL A   1      42.366  30.814  35.755  1.00  0.00     0.074 A 
ATOM     31  C   UNL A   1      37.335  33.894  33.191  1.00  0.00     0.029 A 
ATOM     32  N   UNL A   1      39.044  32.503  33.532  1.00  0.00    -0.354 N 
ATOM     33  N   UNL A   1      41.348  31.366  35.131  1.00  0.00    -0.248 NA
ATOM     34  C   UNL A   1      42.677  31.419  37.055  1.00  0.00     0.031 C 
ATOM     35  C   UNL A   1      37.942  34.210  34.413  1.00  0.00     0.029 A 
ATOM     36  C   UNL A   1      38.986  33.321  34.641  1.00  0.00     0.049 A 
ATOM     37  H   UNL A   1      39.697  31.780  33.398  1.00  0.00     0.167 HD
ATOM     38  C   UNL A   1      40.884  32.371  35.969  1.00  0.00     0.074 A 
ATOM     39  C   UNL A   1      41.730  32.345  37.148  1.00  0.00     0.031 C 
ATOM     40  C   UNL A   1      39.855  33.237  35.789  1.00  0.00     0.031 A 
BRANCH  27  41
ATOM     41  C   UNL A   1      36.781  32.656  30.418  1.00  0.00    -0.014 A 
ATOM     42  C   UNL A   1      36.994  33.688  29.489  1.00  0.00     0.009 A 
ATOM     43  C   UNL A   1      35.495  32.107  30.537  1.00  0.00     0.009 A 
ATOM     44  C   UNL A   1      35.928  34.197  28.741  1.00  0.00     0.001 A 
ATOM     45  C   UNL A   1      34.438  32.598  29.767  1.00  0.00     0.001 A 
ATOM     46  C   UNL A   1      34.651  33.654  28.882  1.00  0.00     0.000 A 
ENDBRANCH  27  41
BRANCH  28  47
ATOM     47  C   UNL A   1      44.385  29.177  36.111  1.00  0.00    -0.014 A 
ATOM     48  C   UNL A   1      44.201  28.262  37.156  1.00  0.00     0.009 A 
ATOM     49  C   UNL A   1      45.694  29.588  35.799  1.00  0.00     0.009 A 
ATOM     50  C   UNL A   1      45.300  27.769  37.869  1.00  0.00     0.001 A 
ATOM     51  C   UNL A   1      46.791  29.074  36.494  1.00  0.00     0.001 A 
ATOM     52  C   UNL A   1      46.592  28.167  37.532  1.00  0.00     0.000 A 
ENDBRANCH  28  47
BRANCH  40  53
ATOM     53  C   UNL A   1      39.560  34.186  36.910  1.00  0.00    -0.014 A 
ATOM     54  C   UNL A   1      38.812  33.785  38.025  1.00  0.00     0.009 A 
ATOM     55  C   UNL A   1      40.139  35.465  36.890  1.00  0.00     0.009 A 
ATOM     56  C   UNL A   1      38.640  34.657  39.100  1.00  0.00     0.001 A 
ATOM     57  C   UNL A   1      39.987  36.323  37.976  1.00  0.00     0.001 A 
ATOM     58  C   UNL A   1      39.234  35.920  39.079  1.00  0.00     0.000 A 
ENDBRANCH  40  53
ENDBRANCH  14  15
ENDBRANCH   7   9
ENDBRANCH   6   7
ENDBRANCH   5   6
ENDBRANCH   4   5
ENDBRANCH   3   4
ENDBRANCH   2   3
ENDBRANCH   1   2
BRANCH   1  59
ATOM     59  O   UNL A   1      42.598  20.229  26.959  1.00  0.00    -0.377 OA
BRANCH  59  60
ATOM     60  C   UNL A   1      41.422  20.956  27.284  1.00  0.00     0.188 C 
BRANCH  60  61
ATOM     61  C   UNL A   1      40.405  21.257  26.192  1.00  0.00     0.188 C 
BRANCH  61  62
ATOM     62  O   UNL A   1      39.204  21.815  26.695  1.00  0.00    -0.376 OA
BRANCH  62  63
ATOM     63  C   UNL A   1      38.462  22.580  25.755  1.00  0.00     0.202 C 
BRANCH  63  64
ATOM     64  C   UNL A   1      37.175  21.948  25.181  1.00  0.00     0.261 C 
BRANCH  64  65
ATOM     65  O   UNL A   1      35.971  22.755  25.121  1.00  0.00    -0.463 OA
BRANCH  65  66
ATOM     66  C   UNL A   1      34.791  22.190  25.452  1.00  0.00     0.314 C 
ATOM     67  O   UNL A   1      34.682  21.403  26.386  1.00  0.00    -0.252 OA
BRANCH  66  68
ATOM     68  C   UNL A   1      33.577  22.680  24.607  1.00  0.00     0.096 C 
ATOM     69  C   UNL A   1      34.204  23.347  23.357  1.00  0.00     0.050 C 
ATOM     70  C   UNL A   1      32.915  21.471  23.933  1.00  0.00     0.179 C 
ATOM     71  C   UNL A   1      33.239  23.029  22.234  1.00  0.00     0.161 C 
ATOM     72  O   UNL A   1      32.500  21.869  22.621  1.00  0.00    -0.380 OA
BRANCH  68  73
ATOM     73  C   UNL A   1      32.492  23.693  25.167  1.00  0.00     0.014 C 
ATOM     74  C   UNL A   1      31.140  23.319  25.825  1.00  0.00     0.033 C 
ATOM     75  C   UNL A   1      33.104  24.785  26.028  1.00  0.00     0.043 C 
ATOM     76  C   UNL A   1      30.281  24.561  26.191  1.00  0.00     0.161 C 
ATOM     77  C   UNL A   1      32.172  26.007  26.019  1.00  0.00     0.094 C 
ATOM     78  O   UNL A   1      31.013  25.656  26.769  1.00  0.00    -0.372 OA
ATOM     79  C   UNL A   1      32.947  27.197  26.564  1.00  0.00     0.066 C 
ATOM     80  C   UNL A   1      31.829  26.607  24.646  1.00  0.00     0.195 C 
ATOM     81  C   UNL A   1      33.789  27.589  25.348  1.00  0.00     0.163 C 
ATOM     82  O   UNL A   1      33.039  27.212  24.176  1.00  0.00    -0.378 OA
ENDBRANCH  68  73
ENDBRANCH  66  68
ENDBRANCH  65  66
ENDBRANCH  64  65
ENDBRANCH  63  64
ENDBRANCH  62  63
ENDBRANCH  61  62
ENDBRANCH  60  61
ENDBRANCH  59  60
ENDBRANCH   1  59
TORSDOF 21
ENDMDL
MODEL 3
REMARK VINA RESULT:      -9.3      4.278     10.075
REMARK SMILES O=C(OCCOCCOCCOCCOC(=O)[C@@]1([C@H]2CCO[C@@]3(CCOC3)C2)CCOC1)c1ccc(-c2c3nc(c(-c4ccccc4)c4ccc([nH]4)c(-c4ccccc4)c4nc(c(-c5ccccc5)c5ccc2[nH]5)C=C4)C=C3)cc1
REMARK SMILES IDX 8 1 7 2 6 3 5 4 4 5 3 6 2 7 1 8 33 9 34 10 80 11 35 12 79 13
REMARK SMILES IDX 36 14 37 15 38 16 73 17 39 18 78 19 72 20 74 21 40 22 77 23
REMARK SMILES IDX 71 24 70 25 41 27 63 28 48 29 62 30 49 31 52 32 61 33 75 34
REMARK SMILES IDX 50 35 51 36 60 38 76 39 53 40 42 41 43 42 47 43 44 44 46 45
REMARK SMILES IDX 45 46 64 47 65 48 69 49 66 50 68 51 67 52 54 53 55 54 59 55
REMARK SMILES IDX 56 56 58 57 57 58 9 59 10 60 11 61 12 62 13 63 14 64 15 65
REMARK SMILES IDX 16 66 17 67 18 68 29 69 32 70 30 71 31 72 19 73 20 74 28 75
REMARK SMILES IDX 21 76 23 77 22 78 24 79 27 80 25 81 26 82
REMARK H PARENT 74 26 52 37
REMARK Flexibility Score: inf
ROOT
ATOM      1  C   UNL A   1      42.638  19.837  26.058  1.00  0.00     0.188 C 
ENDROOT
BRANCH   1   2
ATOM      2  C   UNL A   1      44.032  19.854  25.451  1.00  0.00     0.188 C 
BRANCH   2   3
ATOM      3  O   UNL A   1      44.099  20.775  24.356  1.00  0.00    -0.376 OA
BRANCH   3   4
ATOM      4  C   UNL A   1      44.888  21.944  24.587  1.00  0.00     0.202 C 
BRANCH   4   5
ATOM      5  C   UNL A   1      44.183  23.268  24.317  1.00  0.00     0.261 C 
BRANCH   5   6
ATOM      6  O   UNL A   1      44.925  24.416  24.740  1.00  0.00    -0.460 OA
BRANCH   6   7
ATOM      7  C   UNL A   1      45.241  24.819  25.995  1.00  0.00     0.338 C 
ATOM      8  O   UNL A   1      46.310  24.424  26.461  1.00  0.00    -0.246 OA
BRANCH   7   9
ATOM      9  C   UNL A   1      44.360  25.648  26.890  1.00  0.00     0.060 A 
ATOM     10  C   UNL A   1      44.463  27.024  27.118  1.00  0.00     0.016 A 
ATOM     11  C   UNL A   1      43.308  24.966  27.531  1.00  0.00     0.016 A 
ATOM     12  C   UNL A   1      43.557  27.714  27.911  1.00  0.00     0.010 A 
ATOM     13  C   UNL A   1      42.443  25.627  28.405  1.00  0.00     0.010 A 
ATOM     14  C   UNL A   1      42.599  26.999  28.614  1.00  0.00    -0.014 A 
BRANCH  14  15
ATOM     15  C   UNL A   1      42.059  27.638  29.819  1.00  0.00     0.031 A 
ATOM     16  C   UNL A   1      40.703  28.262  29.685  1.00  0.00     0.074 A 
ATOM     17  C   UNL A   1      42.695  27.547  30.995  1.00  0.00     0.049 A 
ATOM     18  N   UNL A   1      40.036  28.995  30.532  1.00  0.00    -0.248 NA
ATOM     19  C   UNL A   1      39.993  28.007  28.416  1.00  0.00     0.031 C 
ATOM     20  C   UNL A   1      43.923  26.790  31.238  1.00  0.00     0.029 A 
ATOM     21  N   UNL A   1      42.383  28.094  32.208  1.00  0.00    -0.354 N 
ATOM     22  C   UNL A   1      38.854  29.321  29.879  1.00  0.00     0.074 A 
ATOM     23  C   UNL A   1      38.873  28.690  28.585  1.00  0.00     0.031 C 
ATOM     24  C   UNL A   1      44.276  26.946  32.525  1.00  0.00     0.029 A 
ATOM     25  C   UNL A   1      43.339  27.864  33.163  1.00  0.00     0.049 A 
ATOM     26  H   UNL A   1      41.557  28.602  32.377  1.00  0.00     0.167 HD
ATOM     27  C   UNL A   1      37.856  30.121  30.319  1.00  0.00     0.031 A 
ATOM     28  C   UNL A   1      43.458  28.402  34.391  1.00  0.00     0.031 A 
ATOM     29  C   UNL A   1      37.907  30.773  31.594  1.00  0.00     0.049 A 
ATOM     30  C   UNL A   1      42.407  29.390  34.825  1.00  0.00     0.074 A 
ATOM     31  C   UNL A   1      37.030  31.684  32.143  1.00  0.00     0.029 A 
ATOM     32  N   UNL A   1      38.925  30.571  32.521  1.00  0.00    -0.354 N 
ATOM     33  N   UNL A   1      41.332  29.785  34.177  1.00  0.00    -0.248 NA
ATOM     34  C   UNL A   1      42.584  30.018  36.138  1.00  0.00     0.031 C 
ATOM     35  C   UNL A   1      37.546  32.074  33.384  1.00  0.00     0.029 A 
ATOM     36  C   UNL A   1      38.709  31.356  33.634  1.00  0.00     0.049 A 
ATOM     37  H   UNL A   1      39.685  29.959  32.400  1.00  0.00     0.167 HD
ATOM     38  C   UNL A   1      40.695  30.695  35.009  1.00  0.00     0.074 A 
ATOM     39  C   UNL A   1      41.503  30.785  36.211  1.00  0.00     0.031 C 
ATOM     40  C   UNL A   1      39.549  31.392  34.806  1.00  0.00     0.031 A 
BRANCH  27  41
ATOM     41  C   UNL A   1      36.751  30.411  29.344  1.00  0.00    -0.014 A 
ATOM     42  C   UNL A   1      35.902  29.402  28.861  1.00  0.00     0.009 A 
ATOM     43  C   UNL A   1      36.631  31.706  28.817  1.00  0.00     0.009 A 
ATOM     44  C   UNL A   1      34.997  29.673  27.830  1.00  0.00     0.001 A 
ATOM     45  C   UNL A   1      35.705  31.980  27.808  1.00  0.00     0.001 A 
ATOM     46  C   UNL A   1      34.901  30.960  27.303  1.00  0.00     0.000 A 
ENDBRANCH  27  41
BRANCH  28  47
ATOM     47  C   UNL A   1      44.645  28.081  35.226  1.00  0.00    -0.014 A 
ATOM     48  C   UNL A   1      44.555  27.202  36.313  1.00  0.00     0.009 A 
ATOM     49  C   UNL A   1      45.902  28.623  34.900  1.00  0.00     0.009 A 
ATOM     50  C   UNL A   1      45.696  26.874  37.055  1.00  0.00     0.001 A 
ATOM     51  C   UNL A   1      47.043  28.272  35.624  1.00  0.00     0.001 A 
ATOM     52  C   UNL A   1      46.938  27.400  36.704  1.00  0.00     0.000 A 
ENDBRANCH  28  47
BRANCH  40  53
ATOM     53  C   UNL A   1      39.079  32.270  35.926  1.00  0.00    -0.014 A 
ATOM     54  C   UNL A   1      38.244  31.775  36.937  1.00  0.00     0.009 A 
ATOM     55  C   UNL A   1      39.578  33.579  36.021  1.00  0.00     0.009 A 
ATOM     56  C   UNL A   1      37.906  32.585  38.021  1.00  0.00     0.001 A 
ATOM     57  C   UNL A   1      39.259  34.376  37.118  1.00  0.00     0.001 A 
ATOM     58  C   UNL A   1      38.421  33.879  38.115  1.00  0.00     0.000 A 
ENDBRANCH  40  53
ENDBRANCH  14  15
ENDBRANCH   7   9
ENDBRANCH   6   7
ENDBRANCH   5   6
ENDBRANCH   4   5
ENDBRANCH   3   4
ENDBRANCH   2   3
ENDBRANCH   1   2
BRANCH   1  59
ATOM     59  O   UNL A   1      41.780  20.827  25.513  1.00  0.00    -0.377 OA
BRANCH  59  60
ATOM     60  C   UNL A   1      41.335  21.836  26.406  1.00  0.00     0.188 C 
BRANCH  60  61
ATOM     61  C   UNL A   1      39.878  21.851  26.851  1.00  0.00     0.188 C 
BRANCH  61  62
ATOM     62  O   UNL A   1      38.981  21.518  25.807  1.00  0.00    -0.376 OA
BRANCH  62  63
ATOM     63  C   UNL A   1      37.815  22.328  25.742  1.00  0.00     0.202 C 
BRANCH  63  64
ATOM     64  C   UNL A   1      36.526  21.676  25.194  1.00  0.00     0.261 C 
BRANCH  64  65
ATOM     65  O   UNL A   1      35.261  21.998  25.828  1.00  0.00    -0.463 OA
BRANCH  65  66
ATOM     66  C   UNL A   1      34.175  22.197  25.051  1.00  0.00     0.314 C 
ATOM     67  O   UNL A   1      34.011  21.598  23.992  1.00  0.00    -0.252 OA
BRANCH  66  68
ATOM     68  C   UNL A   1      33.121  23.178  25.645  1.00  0.00     0.096 C 
ATOM     69  C   UNL A   1      31.750  22.607  25.203  1.00  0.00     0.050 C 
ATOM     70  C   UNL A   1      33.010  22.939  27.157  1.00  0.00     0.179 C 
ATOM     71  C   UNL A   1      30.823  22.911  26.361  1.00  0.00     0.161 C 
ATOM     72  O   UNL A   1      31.633  23.078  27.527  1.00  0.00    -0.380 OA
BRANCH  68  73
ATOM     73  C   UNL A   1      33.100  24.727  25.304  1.00  0.00     0.014 C 
ATOM     74  C   UNL A   1      33.471  25.884  26.265  1.00  0.00     0.033 C 
ATOM     75  C   UNL A   1      33.765  25.040  23.974  1.00  0.00     0.043 C 
ATOM     76  C   UNL A   1      33.265  27.287  25.630  1.00  0.00     0.161 C 
ATOM     77  C   UNL A   1      33.196  26.361  23.432  1.00  0.00     0.094 C 
ATOM     78  O   UNL A   1      33.696  27.404  24.263  1.00  0.00    -0.372 OA
ATOM     79  C   UNL A   1      33.581  26.475  21.965  1.00  0.00     0.066 C 
ATOM     80  C   UNL A   1      31.673  26.434  23.242  1.00  0.00     0.195 C 
ATOM     81  C   UNL A   1      32.558  25.544  21.313  1.00  0.00     0.163 C 
ATOM     82  O   UNL A   1      31.379  25.566  22.141  1.00  0.00    -0.378 OA
ENDBRANCH  68  73
ENDBRANCH  66  68
ENDBRANCH  65  66
ENDBRANCH  64  65
ENDBRANCH  63  64
ENDBRANCH  62  63
ENDBRANCH  61  62
ENDBRANCH  60  61
ENDBRANCH  59  60
ENDBRANCH   1  59
TORSDOF 21
ENDMDL
