MODEL 1
REMARK VINA RESULT:     -10.4      0.000      0.000
REMARK SMILES O=C(OCCOCCOCCOCCOC(=O)[C@@H](Cc1cccc(F)c1)[C@H]1CCOC2(CCC2)C1)c1ccc(-c2c3nc(c(-c4ccccc4)c4ccc([nH]4)c(-c4ccccc4)c4nc(c(-c5ccccc5)c5ccc2[nH]5)C=C4)C=C3)cc1
REMARK SMILES IDX 9 1 8 2 7 3 6 4 5 5 4 6 3 7 2 8 1 9 36 10 37 11 83 12 38 13
REMARK SMILES IDX 82 14 39 15 40 16 41 17 76 18 42 19 81 20 75 21 77 22 43 23
REMARK SMILES IDX 80 24 74 25 73 26 44 28 66 29 51 30 65 31 52 32 55 33 64 34
REMARK SMILES IDX 78 35 53 36 54 37 63 39 79 40 56 41 45 42 46 43 50 44 47 45
REMARK SMILES IDX 49 46 48 47 67 48 68 49 72 50 69 51 71 52 70 53 57 54 58 55
REMARK SMILES IDX 62 56 59 57 61 58 60 59 10 60 11 61 12 62 13 63 14 64 15 65
REMARK SMILES IDX 16 66 17 67 18 68 19 69 20 70 21 71 26 72 22 73 24 74 23 75
REMARK SMILES IDX 25 76 27 77 28 78 35 79 29 80 31 81 30 82 32 83 34 84 33 85
REMARK H PARENT 77 27 55 38
REMARK Flexibility Score: inf
ROOT
ATOM      1  O   UNL A   1      42.122  21.260  27.350  1.00  0.00    -0.377 OA
ENDROOT
BRANCH   1   2
ATOM      2  C   UNL A   1      42.660  21.329  26.039  1.00  0.00     0.188 C 
BRANCH   2   3
ATOM      3  C   UNL A   1      43.505  20.145  25.630  1.00  0.00     0.188 C 
BRANCH   3   4
ATOM      4  O   UNL A   1      44.803  20.582  25.289  1.00  0.00    -0.376 OA
BRANCH   4   5
ATOM      5  C   UNL A   1      45.001  21.339  24.111  1.00  0.00     0.202 C 
BRANCH   5   6
ATOM      6  C   UNL A   1      45.613  22.724  24.248  1.00  0.00     0.261 C 
BRANCH   6   7
ATOM      7  O   UNL A   1      44.812  23.809  24.784  1.00  0.00    -0.460 OA
BRANCH   7   8
ATOM      8  C   UNL A   1      44.987  25.076  25.184  1.00  0.00     0.338 C 
ATOM      9  O   UNL A   1      45.913  25.725  24.662  1.00  0.00    -0.246 OA
BRANCH   8  10
ATOM     10  C   UNL A   1      44.204  25.775  26.231  1.00  0.00     0.060 A 
ATOM     11  C   UNL A   1      44.214  27.148  26.421  1.00  0.00     0.016 A 
ATOM     12  C   UNL A   1      43.291  25.033  26.996  1.00  0.00     0.016 A 
ATOM     13  C   UNL A   1      43.459  27.780  27.382  1.00  0.00     0.010 A 
ATOM     14  C   UNL A   1      42.484  25.656  27.957  1.00  0.00     0.010 A 
ATOM     15  C   UNL A   1      42.606  27.033  28.171  1.00  0.00    -0.014 A 
BRANCH  15  16
ATOM     16  C   UNL A   1      42.080  27.719  29.353  1.00  0.00     0.031 A 
ATOM     17  C   UNL A   1      40.718  28.326  29.225  1.00  0.00     0.074 A 
ATOM     18  C   UNL A   1      42.686  27.565  30.543  1.00  0.00     0.049 A 
ATOM     19  N   UNL A   1      40.036  29.021  30.089  1.00  0.00    -0.248 NA
ATOM     20  C   UNL A   1      40.013  28.088  27.950  1.00  0.00     0.031 C 
ATOM     21  C   UNL A   1      43.890  26.760  30.784  1.00  0.00     0.029 A 
ATOM     22  N   UNL A   1      42.341  28.026  31.781  1.00  0.00    -0.354 N 
ATOM     23  C   UNL A   1      38.850  29.347  29.444  1.00  0.00     0.074 A 
ATOM     24  C   UNL A   1      38.889  28.760  28.128  1.00  0.00     0.031 C 
ATOM     25  C   UNL A   1      44.172  26.776  32.098  1.00  0.00     0.029 A 
ATOM     26  C   UNL A   1      43.227  27.662  32.765  1.00  0.00     0.049 A 
ATOM     27  H   UNL A   1      41.536  28.567  31.952  1.00  0.00     0.167 HD
ATOM     28  C   UNL A   1      37.834  30.100  29.918  1.00  0.00     0.031 A 
ATOM     29  C   UNL A   1      43.284  28.061  34.048  1.00  0.00     0.031 A 
ATOM     30  C   UNL A   1      37.857  30.678  31.229  1.00  0.00     0.049 A 
ATOM     31  C   UNL A   1      42.232  29.035  34.505  1.00  0.00     0.074 A 
ATOM     32  C   UNL A   1      36.974  31.566  31.809  1.00  0.00     0.029 A 
ATOM     33  N   UNL A   1      38.842  30.406  32.173  1.00  0.00    -0.354 N 
ATOM     34  N   UNL A   1      41.178  29.475  33.854  1.00  0.00    -0.248 NA
ATOM     35  C   UNL A   1      42.387  29.592  35.852  1.00  0.00     0.031 C 
ATOM     36  C   UNL A   1      37.458  31.874  33.085  1.00  0.00     0.029 A 
ATOM     37  C   UNL A   1      38.604  31.126  33.325  1.00  0.00     0.049 A 
ATOM     38  H   UNL A   1      39.597  29.790  32.038  1.00  0.00     0.167 HD
ATOM     39  C   UNL A   1      40.533  30.349  34.716  1.00  0.00     0.074 A 
ATOM     40  C   UNL A   1      41.307  30.357  35.945  1.00  0.00     0.031 C 
ATOM     41  C   UNL A   1      39.411  31.084  34.518  1.00  0.00     0.031 A 
BRANCH  28  42
ATOM     42  C   UNL A   1      36.731  30.425  28.953  1.00  0.00    -0.014 A 
ATOM     43  C   UNL A   1      36.416  31.747  28.597  1.00  0.00     0.009 A 
ATOM     44  C   UNL A   1      35.932  29.382  28.460  1.00  0.00     0.009 A 
ATOM     45  C   UNL A   1      35.297  32.016  27.804  1.00  0.00     0.001 A 
ATOM     46  C   UNL A   1      34.830  29.651  27.647  1.00  0.00     0.001 A 
ATOM     47  C   UNL A   1      34.506  30.969  27.331  1.00  0.00     0.000 A 
ENDBRANCH  28  42
BRANCH  29  48
ATOM     48  C   UNL A   1      44.408  27.642  34.929  1.00  0.00    -0.014 A 
ATOM     49  C   UNL A   1      44.282  26.556  35.806  1.00  0.00     0.009 A 
ATOM     50  C   UNL A   1      45.622  28.353  34.912  1.00  0.00     0.009 A 
ATOM     51  C   UNL A   1      45.334  26.208  36.662  1.00  0.00     0.001 A 
ATOM     52  C   UNL A   1      46.681  27.985  35.743  1.00  0.00     0.001 A 
ATOM     53  C   UNL A   1      46.533  26.920  36.627  1.00  0.00     0.000 A 
ENDBRANCH  29  48
BRANCH  41  54
ATOM     54  C   UNL A   1      38.944  31.914  35.675  1.00  0.00    -0.014 A 
ATOM     55  C   UNL A   1      39.233  33.285  35.751  1.00  0.00     0.009 A 
ATOM     56  C   UNL A   1      38.148  31.319  36.665  1.00  0.00     0.009 A 
ATOM     57  C   UNL A   1      38.752  34.040  36.819  1.00  0.00     0.001 A 
ATOM     58  C   UNL A   1      37.641  32.085  37.713  1.00  0.00     0.001 A 
ATOM     59  C   UNL A   1      37.951  33.442  37.793  1.00  0.00     0.000 A 
ENDBRANCH  41  54
ENDBRANCH  15  16
ENDBRANCH   8  10
ENDBRANCH   7   8
ENDBRANCH   6   7
ENDBRANCH   5   6
ENDBRANCH   4   5
ENDBRANCH   3   4
ENDBRANCH   2   3
ENDBRANCH   1   2
BRANCH   1  60
ATOM     60  C   UNL A   1      40.736  21.502  27.593  1.00  0.00     0.188 C 
BRANCH  60  61
ATOM     61  C   UNL A   1      40.148  22.877  27.233  1.00  0.00     0.188 C 
BRANCH  61  62
ATOM     62  O   UNL A   1      38.957  22.807  26.478  1.00  0.00    -0.376 OA
BRANCH  62  63
ATOM     63  C   UNL A   1      38.690  21.617  25.747  1.00  0.00     0.202 C 
BRANCH  63  64
ATOM     64  C   UNL A   1      37.415  21.412  24.898  1.00  0.00     0.261 C 
BRANCH  64  65
ATOM     65  O   UNL A   1      36.406  22.440  24.930  1.00  0.00    -0.463 OA
BRANCH  65  66
ATOM     66  C   UNL A   1      35.803  22.706  23.750  1.00  0.00     0.309 C 
ATOM     67  O   UNL A   1      36.438  23.016  22.735  1.00  0.00    -0.252 OA
BRANCH  66  68
ATOM     68  C   UNL A   1      34.271  22.666  23.702  1.00  0.00     0.107 C 
BRANCH  68  69
ATOM     69  C   UNL A   1      33.344  21.652  24.411  1.00  0.00     0.051 C 
BRANCH  69  70
ATOM     70  C   UNL A   1      33.333  20.161  24.175  1.00  0.00    -0.044 A 
ATOM     71  C   UNL A   1      34.253  19.272  24.738  1.00  0.00     0.004 A 
ATOM     72  C   UNL A   1      32.463  19.656  23.191  1.00  0.00     0.043 A 
ATOM     73  C   UNL A   1      34.320  17.933  24.330  1.00  0.00     0.003 A 
ATOM     74  C   UNL A   1      32.525  18.322  22.797  1.00  0.00     0.123 A 
ATOM     75  C   UNL A   1      33.453  17.457  23.353  1.00  0.00     0.039 A 
ATOM     76  F   UNL A   1      31.696  17.878  21.843  1.00  0.00    -0.207 F 
ENDBRANCH  69  70
ENDBRANCH  68  69
BRANCH  68  77
ATOM     77  C   UNL A   1      33.679  24.083  23.740  1.00  0.00     0.009 C 
ATOM     78  C   UNL A   1      33.087  24.549  22.408  1.00  0.00     0.033 C 
ATOM     79  C   UNL A   1      32.612  24.206  24.842  1.00  0.00     0.040 C 
ATOM     80  C   UNL A   1      32.606  25.987  22.547  1.00  0.00     0.161 C 
ATOM     81  C   UNL A   1      32.197  25.665  24.942  1.00  0.00     0.069 C 
ATOM     82  O   UNL A   1      31.710  26.121  23.651  1.00  0.00    -0.375 OA
ATOM     83  C   UNL A   1      31.241  25.950  26.134  1.00  0.00     0.035 C 
ATOM     84  C   UNL A   1      33.223  26.586  25.666  1.00  0.00     0.035 C 
ATOM     85  C   UNL A   1      32.026  27.256  26.362  1.00  0.00     0.006 C 
ENDBRANCH  68  77
ENDBRANCH  66  68
ENDBRANCH  65  66
ENDBRANCH  64  65
ENDBRANCH  63  64
ENDBRANCH  62  63
ENDBRANCH  61  62
ENDBRANCH  60  61
ENDBRANCH   1  60
TORSDOF 23
ENDMDL
MODEL 2
REMARK VINA RESULT:     -10.0      1.189      5.833
REMARK SMILES O=C(OCCOCCOCCOCCOC(=O)[C@@H](Cc1cccc(F)c1)[C@H]1CCOC2(CCC2)C1)c1ccc(-c2c3nc(c(-c4ccccc4)c4ccc([nH]4)c(-c4ccccc4)c4nc(c(-c5ccccc5)c5ccc2[nH]5)C=C4)C=C3)cc1
REMARK SMILES IDX 9 1 8 2 7 3 6 4 5 5 4 6 3 7 2 8 1 9 36 10 37 11 83 12 38 13
REMARK SMILES IDX 82 14 39 15 40 16 41 17 76 18 42 19 81 20 75 21 77 22 43 23
REMARK SMILES IDX 80 24 74 25 73 26 44 28 66 29 51 30 65 31 52 32 55 33 64 34
REMARK SMILES IDX 78 35 53 36 54 37 63 39 79 40 56 41 45 42 46 43 50 44 47 45
REMARK SMILES IDX 49 46 48 47 67 48 68 49 72 50 69 51 71 52 70 53 57 54 58 55
REMARK SMILES IDX 62 56 59 57 61 58 60 59 10 60 11 61 12 62 13 63 14 64 15 65
REMARK SMILES IDX 16 66 17 67 18 68 19 69 20 70 21 71 26 72 22 73 24 74 23 75
REMARK SMILES IDX 25 76 27 77 28 78 35 79 29 80 31 81 30 82 32 83 34 84 33 85
REMARK H PARENT 77 27 55 38
REMARK Flexibility Score: inf
ROOT
ATOM      1  O   UNL A   1      41.563  19.283  25.813  1.00  0.00    -0.377 OA
ENDROOT
BRANCH   1   2
ATOM      2  C   UNL A   1      42.819  19.943  25.837  1.00  0.00     0.188 C 
BRANCH   2   3
ATOM      3  C   UNL A   1      43.927  19.239  25.088  1.00  0.00     0.188 C 
BRANCH   3   4
ATOM      4  O   UNL A   1      44.654  20.175  24.323  1.00  0.00    -0.376 OA
BRANCH   4   5
ATOM      5  C   UNL A   1      45.862  20.708  24.829  1.00  0.00     0.202 C 
BRANCH   5   6
ATOM      6  C   UNL A   1      45.781  21.928  25.733  1.00  0.00     0.261 C 
BRANCH   6   7
ATOM      7  O   UNL A   1      45.024  23.088  25.300  1.00  0.00    -0.460 OA
BRANCH   7   8
ATOM      8  C   UNL A   1      43.746  23.492  25.271  1.00  0.00     0.338 C 
ATOM      9  O   UNL A   1      43.027  23.072  24.345  1.00  0.00    -0.246 OA
BRANCH   8  10
ATOM     10  C   UNL A   1      43.109  24.437  26.220  1.00  0.00     0.060 A 
ATOM     11  C   UNL A   1      43.410  25.788  26.290  1.00  0.00     0.016 A 
ATOM     12  C   UNL A   1      42.041  23.981  27.008  1.00  0.00     0.016 A 
ATOM     13  C   UNL A   1      42.789  26.653  27.160  1.00  0.00     0.010 A 
ATOM     14  C   UNL A   1      41.367  24.848  27.877  1.00  0.00     0.010 A 
ATOM     15  C   UNL A   1      41.778  26.182  27.976  1.00  0.00    -0.014 A 
BRANCH  15  16
ATOM     16  C   UNL A   1      41.387  27.073  29.071  1.00  0.00     0.031 A 
ATOM     17  C   UNL A   1      42.307  27.127  30.250  1.00  0.00     0.074 A 
ATOM     18  C   UNL A   1      40.406  27.972  28.886  1.00  0.00     0.049 A 
ATOM     19  N   UNL A   1      42.186  27.789  31.365  1.00  0.00    -0.248 NA
ATOM     20  C   UNL A   1      43.557  26.348  30.143  1.00  0.00     0.031 C 
ATOM     21  C   UNL A   1      39.634  28.144  27.649  1.00  0.00     0.029 A 
ATOM     22  N   UNL A   1      39.929  28.948  29.713  1.00  0.00    -0.354 N 
ATOM     23  C   UNL A   1      43.313  27.464  32.110  1.00  0.00     0.074 A 
ATOM     24  C   UNL A   1      44.117  26.566  31.320  1.00  0.00     0.031 C 
ATOM     25  C   UNL A   1      38.790  29.177  27.799  1.00  0.00     0.029 A 
ATOM     26  C   UNL A   1      38.899  29.672  29.165  1.00  0.00     0.049 A 
ATOM     27  H   UNL A   1      40.288  29.116  30.614  1.00  0.00     0.167 HD
ATOM     28  C   UNL A   1      43.619  27.868  33.361  1.00  0.00     0.031 A 
ATOM     29  C   UNL A   1      38.103  30.590  29.742  1.00  0.00     0.031 A 
ATOM     30  C   UNL A   1      42.769  28.747  34.110  1.00  0.00     0.049 A 
ATOM     31  C   UNL A   1      38.362  30.899  31.192  1.00  0.00     0.074 A 
ATOM     32  C   UNL A   1      42.869  29.146  35.428  1.00  0.00     0.029 A 
ATOM     33  N   UNL A   1      41.644  29.368  33.578  1.00  0.00    -0.354 N 
ATOM     34  N   UNL A   1      39.343  30.481  31.961  1.00  0.00    -0.248 NA
ATOM     35  C   UNL A   1      37.399  31.777  31.863  1.00  0.00     0.031 C 
ATOM     36  C   UNL A   1      41.769  29.966  35.707  1.00  0.00     0.029 A 
ATOM     37  C   UNL A   1      41.024  30.130  34.547  1.00  0.00     0.049 A 
ATOM     38  H   UNL A   1      41.336  29.276  32.649  1.00  0.00     0.167 HD
ATOM     39  C   UNL A   1      39.126  31.056  33.204  1.00  0.00     0.074 A 
ATOM     40  C   UNL A   1      37.930  31.870  33.075  1.00  0.00     0.031 C 
ATOM     41  C   UNL A   1      39.837  30.924  34.351  1.00  0.00     0.031 A 
BRANCH  28  42
ATOM     42  C   UNL A   1      44.828  27.243  33.993  1.00  0.00    -0.014 A 
ATOM     43  C   UNL A   1      44.821  25.924  34.475  1.00  0.00     0.009 A 
ATOM     44  C   UNL A   1      45.974  28.030  34.189  1.00  0.00     0.009 A 
ATOM     45  C   UNL A   1      45.920  25.424  35.179  1.00  0.00     0.001 A 
ATOM     46  C   UNL A   1      47.080  27.520  34.870  1.00  0.00     0.001 A 
ATOM     47  C   UNL A   1      47.047  26.222  35.376  1.00  0.00     0.000 A 
ENDBRANCH  28  42
BRANCH  29  48
ATOM     48  C   UNL A   1      36.951  31.175  29.004  1.00  0.00    -0.014 A 
ATOM     49  C   UNL A   1      36.929  32.528  28.641  1.00  0.00     0.009 A 
ATOM     50  C   UNL A   1      35.842  30.375  28.675  1.00  0.00     0.009 A 
ATOM     51  C   UNL A   1      35.815  33.072  27.990  1.00  0.00     0.001 A 
ATOM     52  C   UNL A   1      34.746  30.910  27.997  1.00  0.00     0.001 A 
ATOM     53  C   UNL A   1      34.727  32.262  27.665  1.00  0.00     0.000 A 
ENDBRANCH  29  48
BRANCH  41  54
ATOM     54  C   UNL A   1      39.357  31.716  35.529  1.00  0.00    -0.014 A 
ATOM     55  C   UNL A   1      39.838  33.009  35.782  1.00  0.00     0.009 A 
ATOM     56  C   UNL A   1      38.359  31.176  36.355  1.00  0.00     0.009 A 
ATOM     57  C   UNL A   1      39.344  33.738  36.862  1.00  0.00     0.001 A 
ATOM     58  C   UNL A   1      37.845  31.919  37.414  1.00  0.00     0.001 A 
ATOM     59  C   UNL A   1      38.344  33.197  37.672  1.00  0.00     0.000 A 
ENDBRANCH  41  54
ENDBRANCH  15  16
ENDBRANCH   8  10
ENDBRANCH   7   8
ENDBRANCH   6   7
ENDBRANCH   5   6
ENDBRANCH   4   5
ENDBRANCH   3   4
ENDBRANCH   2   3
ENDBRANCH   1   2
BRANCH   1  60
ATOM     60  C   UNL A   1      40.439  19.811  26.517  1.00  0.00     0.188 C 
BRANCH  60  61
ATOM     61  C   UNL A   1      39.294  20.454  25.715  1.00  0.00     0.188 C 
BRANCH  61  62
ATOM     62  O   UNL A   1      39.306  21.865  25.740  1.00  0.00    -0.376 OA
BRANCH  62  63
ATOM     63  C   UNL A   1      38.084  22.547  25.993  1.00  0.00     0.202 C 
BRANCH  63  64
ATOM     64  C   UNL A   1      36.916  22.597  24.982  1.00  0.00     0.261 C 
BRANCH  64  65
ATOM     65  O   UNL A   1      35.703  23.265  25.378  1.00  0.00    -0.463 OA
BRANCH  65  66
ATOM     66  C   UNL A   1      34.703  22.462  25.802  1.00  0.00     0.309 C 
ATOM     67  O   UNL A   1      34.792  21.776  26.827  1.00  0.00    -0.252 OA
BRANCH  66  68
ATOM     68  C   UNL A   1      33.439  22.372  24.938  1.00  0.00     0.107 C 
BRANCH  68  69
ATOM     69  C   UNL A   1      32.326  21.303  25.025  1.00  0.00     0.051 C 
BRANCH  69  70
ATOM     70  C   UNL A   1      32.446  19.872  24.559  1.00  0.00    -0.044 A 
ATOM     71  C   UNL A   1      32.907  18.824  25.359  1.00  0.00     0.004 A 
ATOM     72  C   UNL A   1      32.257  19.608  23.190  1.00  0.00     0.043 A 
ATOM     73  C   UNL A   1      33.187  17.561  24.820  1.00  0.00     0.003 A 
ATOM     74  C   UNL A   1      32.525  18.349  22.660  1.00  0.00     0.123 A 
ATOM     75  C   UNL A   1      32.997  17.323  23.464  1.00  0.00     0.039 A 
ATOM     76  F   UNL A   1      32.355  18.136  21.349  1.00  0.00    -0.207 F 
ENDBRANCH  69  70
ENDBRANCH  68  69
BRANCH  68  77
ATOM     77  C   UNL A   1      32.853  23.767  24.670  1.00  0.00     0.009 C 
ATOM     78  C   UNL A   1      31.355  23.764  24.353  1.00  0.00     0.033 C 
ATOM     79  C   UNL A   1      33.121  24.716  25.852  1.00  0.00     0.040 C 
ATOM     80  C   UNL A   1      30.908  25.184  24.029  1.00  0.00     0.161 C 
ATOM     81  C   UNL A   1      32.674  26.112  25.452  1.00  0.00     0.069 C 
ATOM     82  O   UNL A   1      31.271  26.085  25.077  1.00  0.00    -0.375 OA
ATOM     83  C   UNL A   1      33.044  27.198  26.501  1.00  0.00     0.035 C 
ATOM     84  C   UNL A   1      33.642  26.853  24.483  1.00  0.00     0.035 C 
ATOM     85  C   UNL A   1      33.400  28.120  25.320  1.00  0.00     0.006 C 
ENDBRANCH  68  77
ENDBRANCH  66  68
ENDBRANCH  65  66
ENDBRANCH  64  65
ENDBRANCH  63  64
ENDBRANCH  62  63
ENDBRANCH  61  62
ENDBRANCH  60  61
ENDBRANCH   1  60
TORSDOF 23
ENDMDL
MODEL 3
REMARK VINA RESULT:      -9.7      1.529      3.666
REMARK SMILES O=C(OCCOCCOCCOCCOC(=O)[C@@H](Cc1cccc(F)c1)[C@H]1CCOC2(CCC2)C1)c1ccc(-c2c3nc(c(-c4ccccc4)c4ccc([nH]4)c(-c4ccccc4)c4nc(c(-c5ccccc5)c5ccc2[nH]5)C=C4)C=C3)cc1
REMARK SMILES IDX 9 1 8 2 7 3 6 4 5 5 4 6 3 7 2 8 1 9 36 10 37 11 83 12 38 13
REMARK SMILES IDX 82 14 39 15 40 16 41 17 76 18 42 19 81 20 75 21 77 22 43 23
REMARK SMILES IDX 80 24 74 25 73 26 44 28 66 29 51 30 65 31 52 32 55 33 64 34
REMARK SMILES IDX 78 35 53 36 54 37 63 39 79 40 56 41 45 42 46 43 50 44 47 45
REMARK SMILES IDX 49 46 48 47 67 48 68 49 72 50 69 51 71 52 70 53 57 54 58 55
REMARK SMILES IDX 62 56 59 57 61 58 60 59 10 60 11 61 12 62 13 63 14 64 15 65
REMARK SMILES IDX 16 66 17 67 18 68 19 69 20 70 21 71 26 72 22 73 24 74 23 75
REMARK SMILES IDX 25 76 27 77 28 78 35 79 29 80 31 81 30 82 32 83 34 84 33 85
REMARK H PARENT 77 27 55 38
REMARK Flexibility Score: inf
ROOT
ATOM      1  O   UNL A   1      41.756  21.361  27.174  1.00  0.00    -0.377 OA
ENDROOT
BRANCH   1   2
ATOM      2  C   UNL A   1      42.401  21.524  25.921  1.00  0.00     0.188 C 
BRANCH   2   3
ATOM      3  C   UNL A   1      43.450  20.483  25.600  1.00  0.00     0.188 C 
BRANCH   3   4
ATOM      4  O   UNL A   1      44.718  21.096  25.515  1.00  0.00    -0.376 OA
BRANCH   4   5
ATOM      5  C   UNL A   1      45.176  21.592  24.274  1.00  0.00     0.202 C 
BRANCH   5   6
ATOM      6  C   UNL A   1      45.669  23.030  24.217  1.00  0.00     0.261 C 
BRANCH   6   7
ATOM      7  O   UNL A   1      44.809  24.098  24.691  1.00  0.00    -0.460 OA
BRANCH   7   8
ATOM      8  C   UNL A   1      44.934  25.356  25.138  1.00  0.00     0.338 C 
ATOM      9  O   UNL A   1      45.819  26.068  24.626  1.00  0.00    -0.246 OA
BRANCH   8  10
ATOM     10  C   UNL A   1      44.139  25.977  26.225  1.00  0.00     0.060 A 
ATOM     11  C   UNL A   1      44.026  27.344  26.420  1.00  0.00     0.016 A 
ATOM     12  C   UNL A   1      43.340  25.151  27.030  1.00  0.00     0.016 A 
ATOM     13  C   UNL A   1      43.262  27.902  27.419  1.00  0.00     0.010 A 
ATOM     14  C   UNL A   1      42.525  25.694  28.032  1.00  0.00     0.010 A 
ATOM     15  C   UNL A   1      42.524  27.076  28.245  1.00  0.00    -0.014 A 
BRANCH  15  16
ATOM     16  C   UNL A   1      41.993  27.710  29.455  1.00  0.00     0.031 A 
ATOM     17  C   UNL A   1      40.618  28.292  29.358  1.00  0.00     0.074 A 
ATOM     18  C   UNL A   1      42.611  27.527  30.634  1.00  0.00     0.049 A 
ATOM     19  N   UNL A   1      39.928  28.942  30.250  1.00  0.00    -0.248 NA
ATOM     20  C   UNL A   1      39.908  28.084  28.080  1.00  0.00     0.031 C 
ATOM     21  C   UNL A   1      43.834  26.740  30.839  1.00  0.00     0.029 A 
ATOM     22  N   UNL A   1      42.267  27.937  31.890  1.00  0.00    -0.354 N 
ATOM     23  C   UNL A   1      38.730  29.265  29.625  1.00  0.00     0.074 A 
ATOM     24  C   UNL A   1      38.772  28.726  28.289  1.00  0.00     0.031 C 
ATOM     25  C   UNL A   1      44.125  26.715  32.150  1.00  0.00     0.029 A 
ATOM     26  C   UNL A   1      43.167  27.557  32.854  1.00  0.00     0.049 A 
ATOM     27  H   UNL A   1      41.452  28.455  32.085  1.00  0.00     0.167 HD
ATOM     28  C   UNL A   1      37.703  29.980  30.133  1.00  0.00     0.031 A 
ATOM     29  C   UNL A   1      43.226  27.912  34.150  1.00  0.00     0.031 A 
ATOM     30  C   UNL A   1      37.724  30.511  31.463  1.00  0.00     0.049 A 
ATOM     31  C   UNL A   1      42.158  28.848  34.648  1.00  0.00     0.074 A 
ATOM     32  C   UNL A   1      36.827  31.360  32.080  1.00  0.00     0.029 A 
ATOM     33  N   UNL A   1      38.722  30.227  32.389  1.00  0.00    -0.354 N 
ATOM     34  N   UNL A   1      41.090  29.287  34.020  1.00  0.00    -0.248 NA
ATOM     35  C   UNL A   1      42.311  29.360  36.013  1.00  0.00     0.031 C 
ATOM     36  C   UNL A   1      37.315  31.633  33.363  1.00  0.00     0.029 A 
ATOM     37  C   UNL A   1      38.478  30.902  33.568  1.00  0.00     0.049 A 
ATOM     38  H   UNL A   1      39.489  29.632  32.228  1.00  0.00     0.167 HD
ATOM     39  C   UNL A   1      40.434  30.116  34.918  1.00  0.00     0.074 A 
ATOM     40  C   UNL A   1      41.216  30.098  36.140  1.00  0.00     0.031 C 
ATOM     41  C   UNL A   1      39.295  30.835  34.754  1.00  0.00     0.031 A 
BRANCH  28  42
ATOM     42  C   UNL A   1      36.586  30.315  29.187  1.00  0.00    -0.014 A 
ATOM     43  C   UNL A   1      35.748  29.329  28.641  1.00  0.00     0.009 A 
ATOM     44  C   UNL A   1      36.431  31.645  28.765  1.00  0.00     0.009 A 
ATOM     45  C   UNL A   1      34.811  29.664  27.660  1.00  0.00     0.001 A 
ATOM     46  C   UNL A   1      35.476  31.981  27.805  1.00  0.00     0.001 A 
ATOM     47  C   UNL A   1      34.676  30.989  27.244  1.00  0.00     0.000 A 
ENDBRANCH  28  42
BRANCH  29  48
ATOM     48  C   UNL A   1      44.365  27.487  35.008  1.00  0.00    -0.014 A 
ATOM     49  C   UNL A   1      45.555  28.226  35.060  1.00  0.00     0.009 A 
ATOM     50  C   UNL A   1      44.274  26.309  35.772  1.00  0.00     0.009 A 
ATOM     51  C   UNL A   1      46.633  27.784  35.836  1.00  0.00     0.001 A 
ATOM     52  C   UNL A   1      45.338  25.886  36.570  1.00  0.00     0.001 A 
ATOM     53  C   UNL A   1      46.523  26.618  36.593  1.00  0.00     0.000 A 
ENDBRANCH  29  48
BRANCH  41  54
ATOM     54  C   UNL A   1      38.820  31.613  35.942  1.00  0.00    -0.014 A 
ATOM     55  C   UNL A   1      39.173  32.960  36.119  1.00  0.00     0.009 A 
ATOM     56  C   UNL A   1      37.953  31.000  36.859  1.00  0.00     0.009 A 
ATOM     57  C   UNL A   1      38.683  33.671  37.213  1.00  0.00     0.001 A 
ATOM     58  C   UNL A   1      37.439  31.723  37.932  1.00  0.00     0.001 A 
ATOM     59  C   UNL A   1      37.812  33.055  38.113  1.00  0.00     0.000 A 
ENDBRANCH  41  54
ENDBRANCH  15  16
ENDBRANCH   8  10
ENDBRANCH   7   8
ENDBRANCH   6   7
ENDBRANCH   5   6
ENDBRANCH   4   5
ENDBRANCH   3   4
ENDBRANCH   2   3
ENDBRANCH   1   2
BRANCH   1  60
ATOM     60  C   UNL A   1      40.340  21.482  27.296  1.00  0.00     0.188 C 
BRANCH  60  61
ATOM     61  C   UNL A   1      39.607  22.534  26.446  1.00  0.00     0.188 C 
BRANCH  61  62
ATOM     62  O   UNL A   1      38.351  22.103  25.966  1.00  0.00    -0.376 OA
BRANCH  62  63
ATOM     63  C   UNL A   1      37.426  23.085  25.517  1.00  0.00     0.202 C 
BRANCH  63  64
ATOM     64  C   UNL A   1      35.940  22.779  25.226  1.00  0.00     0.261 C 
BRANCH  64  65
ATOM     65  O   UNL A   1      35.495  21.412  25.330  1.00  0.00    -0.463 OA
BRANCH  65  66
ATOM     66  C   UNL A   1      34.277  21.234  25.888  1.00  0.00     0.309 C 
ATOM     67  O   UNL A   1      34.122  21.059  27.102  1.00  0.00    -0.252 OA
BRANCH  66  68
ATOM     68  C   UNL A   1      33.060  21.198  24.957  1.00  0.00     0.107 C 
BRANCH  68  69
ATOM     69  C   UNL A   1      32.662  22.258  23.903  1.00  0.00     0.051 C 
BRANCH  69  70
ATOM     70  C   UNL A   1      31.842  23.497  24.173  1.00  0.00    -0.044 A 
ATOM     71  C   UNL A   1      31.081  24.158  23.205  1.00  0.00     0.004 A 
ATOM     72  C   UNL A   1      31.995  24.129  25.421  1.00  0.00     0.043 A 
ATOM     73  C   UNL A   1      30.503  25.410  23.459  1.00  0.00     0.003 A 
ATOM     74  C   UNL A   1      31.410  25.367  25.673  1.00  0.00     0.123 A 
ATOM     75  C   UNL A   1      30.670  26.017  24.698  1.00  0.00     0.039 A 
ATOM     76  F   UNL A   1      31.592  25.951  26.864  1.00  0.00    -0.207 F 
ENDBRANCH  69  70
ENDBRANCH  68  69
BRANCH  68  77
ATOM     77  C   UNL A   1      32.800  19.775  24.440  1.00  0.00     0.009 C 
ATOM     78  C   UNL A   1      32.467  19.703  22.948  1.00  0.00     0.033 C 
ATOM     79  C   UNL A   1      33.994  18.851  24.740  1.00  0.00     0.040 C 
ATOM     80  C   UNL A   1      32.153  18.261  22.572  1.00  0.00     0.161 C 
ATOM     81  C   UNL A   1      33.603  17.431  24.365  1.00  0.00     0.069 C 
ATOM     82  O   UNL A   1      33.213  17.388  22.966  1.00  0.00    -0.375 OA
ATOM     83  C   UNL A   1      34.667  16.374  24.775  1.00  0.00     0.035 C 
ATOM     84  C   UNL A   1      32.652  16.728  25.377  1.00  0.00     0.035 C 
ATOM     85  C   UNL A   1      33.499  15.459  25.187  1.00  0.00     0.006 C 
ENDBRANCH  68  77
ENDBRANCH  66  68
ENDBRANCH  65  66
ENDBRANCH  64  65
ENDBRANCH  63  64
ENDBRANCH  62  63
ENDBRANCH  61  62
ENDBRANCH  60  61
ENDBRANCH   1  60
TORSDOF 23
ENDMDL
