MODEL 1
REMARK VINA RESULT:      -9.3      0.000      0.000
REMARK SMILES O=C(OCCOCCOCCOCCOC(=O)[C@]1(NC(=O)c2nc(C3CC3)n[nH]2)CCSC1)c1ccc(-c2c3nc(c(-c4ccccc4)c4ccc([nH]4)c(-c4ccccc4)c4nc(c(-c5ccccc5)c5ccc2[nH]5)C=C4)C=C3)cc1
REMARK SMILES IDX 10 1 9 2 8 3 7 4 6 5 5 6 4 7 3 8 2 9 1 10 34 11 35 12 81 13
REMARK SMILES IDX 36 14 80 15 37 16 38 17 39 18 74 19 40 20 79 21 73 22 75 23
REMARK SMILES IDX 41 24 78 25 72 26 71 27 42 29 64 30 49 31 63 32 50 33 53 34
REMARK SMILES IDX 62 35 76 36 51 37 52 38 61 40 77 41 54 42 43 43 44 44 48 45
REMARK SMILES IDX 45 46 47 47 46 48 65 49 66 50 70 51 67 52 69 53 68 54 55 55
REMARK SMILES IDX 56 56 60 57 57 58 59 59 58 60 11 61 12 62 13 63 14 64 15 65
REMARK SMILES IDX 16 66 17 67 18 68 30 69 33 70 31 71 32 72 19 73 20 74 21 76
REMARK SMILES IDX 22 77 23 78 29 79 24 80 28 81 25 83 26 84 27 85
REMARK H PARENT 75 28 53 39 19 75 29 82
REMARK Flexibility Score: inf
ROOT
ATOM      1  C   UNL A   1      38.908  21.798  26.092  1.00  0.00     0.188 C 
ENDROOT
BRANCH   1   2
ATOM      2  O   UNL A   1      40.074  21.131  26.578  1.00  0.00    -0.377 OA
BRANCH   2   3
ATOM      3  C   UNL A   1      41.350  21.658  26.207  1.00  0.00     0.188 C 
BRANCH   3   4
ATOM      4  C   UNL A   1      42.460  20.624  26.112  1.00  0.00     0.188 C 
BRANCH   4   5
ATOM      5  O   UNL A   1      43.288  20.932  25.006  1.00  0.00    -0.376 OA
BRANCH   5   6
ATOM      6  C   UNL A   1      44.617  20.443  25.045  1.00  0.00     0.202 C 
BRANCH   6   7
ATOM      7  C   UNL A   1      45.658  21.538  25.147  1.00  0.00     0.261 C 
BRANCH   7   8
ATOM      8  O   UNL A   1      45.768  22.262  26.390  1.00  0.00    -0.460 OA
BRANCH   8   9
ATOM      9  C   UNL A   1      45.117  23.337  26.883  1.00  0.00     0.338 C 
ATOM     10  O   UNL A   1      44.191  23.153  27.672  1.00  0.00    -0.246 OA
BRANCH   9  11
ATOM     11  C   UNL A   1      45.591  24.737  26.696  1.00  0.00     0.060 A 
ATOM     12  C   UNL A   1      45.729  25.396  25.477  1.00  0.00     0.016 A 
ATOM     13  C   UNL A   1      45.857  25.463  27.871  1.00  0.00     0.016 A 
ATOM     14  C   UNL A   1      46.159  26.705  25.400  1.00  0.00     0.010 A 
ATOM     15  C   UNL A   1      46.317  26.778  27.810  1.00  0.00     0.010 A 
ATOM     16  C   UNL A   1      46.509  27.377  26.561  1.00  0.00    -0.014 A 
BRANCH  16  17
ATOM     17  C   UNL A   1      47.361  28.557  26.383  1.00  0.00     0.031 A 
ATOM     18  C   UNL A   1      46.689  29.892  26.499  1.00  0.00     0.074 A 
ATOM     19  C   UNL A   1      48.697  28.422  26.354  1.00  0.00     0.049 A 
ATOM     20  N   UNL A   1      47.184  31.087  26.341  1.00  0.00    -0.248 NA
ATOM     21  C   UNL A   1      45.258  29.877  26.869  1.00  0.00     0.031 C 
ATOM     22  C   UNL A   1      49.423  27.154  26.466  1.00  0.00     0.029 A 
ATOM     23  N   UNL A   1      49.679  29.366  26.271  1.00  0.00    -0.354 N 
ATOM     24  C   UNL A   1      46.118  31.956  26.542  1.00  0.00     0.074 A 
ATOM     25  C   UNL A   1      44.952  31.162  26.839  1.00  0.00     0.031 C 
ATOM     26  C   UNL A   1      50.742  27.404  26.451  1.00  0.00     0.029 A 
ATOM     27  C   UNL A   1      50.943  28.833  26.245  1.00  0.00     0.049 A 
ATOM     28  H   UNL A   1      49.498  30.333  26.233  1.00  0.00     0.167 HD
ATOM     29  C   UNL A   1      46.125  33.305  26.463  1.00  0.00     0.031 A 
ATOM     30  C   UNL A   1      52.117  29.447  26.021  1.00  0.00     0.031 A 
ATOM     31  C   UNL A   1      47.312  34.047  26.154  1.00  0.00     0.049 A 
ATOM     32  C   UNL A   1      52.079  30.932  25.785  1.00  0.00     0.074 A 
ATOM     33  C   UNL A   1      47.463  35.402  25.945  1.00  0.00     0.029 A 
ATOM     34  N   UNL A   1      48.569  33.468  26.012  1.00  0.00    -0.354 N 
ATOM     35  N   UNL A   1      51.055  31.754  25.852  1.00  0.00    -0.248 NA
ATOM     36  C   UNL A   1      53.346  31.575  25.425  1.00  0.00     0.031 C 
ATOM     37  C   UNL A   1      48.803  35.634  25.615  1.00  0.00     0.029 A 
ATOM     38  C   UNL A   1      49.500  34.435  25.692  1.00  0.00     0.049 A 
ATOM     39  H   UNL A   1      48.765  32.511  26.122  1.00  0.00     0.167 HD
ATOM     40  C   UNL A   1      51.556  33.014  25.567  1.00  0.00     0.074 A 
ATOM     41  C   UNL A   1      52.982  32.847  25.346  1.00  0.00     0.031 C 
ATOM     42  C   UNL A   1      50.909  34.205  25.488  1.00  0.00     0.031 A 
BRANCH  29  43
ATOM     43  C   UNL A   1      44.800  34.002  26.594  1.00  0.00    -0.014 A 
ATOM     44  C   UNL A   1      43.994  34.288  25.479  1.00  0.00     0.009 A 
ATOM     45  C   UNL A   1      44.385  34.441  27.860  1.00  0.00     0.009 A 
ATOM     46  C   UNL A   1      42.824  35.039  25.628  1.00  0.00     0.001 A 
ATOM     47  C   UNL A   1      43.201  35.165  28.009  1.00  0.00     0.001 A 
ATOM     48  C   UNL A   1      42.428  35.475  26.891  1.00  0.00     0.000 A 
ENDBRANCH  29  43
BRANCH  30  49
ATOM     49  C   UNL A   1      53.376  28.662  25.918  1.00  0.00    -0.014 A 
ATOM     50  C   UNL A   1      53.778  28.086  24.705  1.00  0.00     0.009 A 
ATOM     51  C   UNL A   1      54.183  28.469  27.053  1.00  0.00     0.009 A 
ATOM     52  C   UNL A   1      54.941  27.311  24.639  1.00  0.00     0.001 A 
ATOM     53  C   UNL A   1      55.362  27.722  26.978  1.00  0.00     0.001 A 
ATOM     54  C   UNL A   1      55.732  27.133  25.772  1.00  0.00     0.000 A 
ENDBRANCH  30  49
BRANCH  42  55
ATOM     55  C   UNL A   1      51.755  35.409  25.201  1.00  0.00    -0.014 A 
ATOM     56  C   UNL A   1      52.331  36.160  26.235  1.00  0.00     0.009 A 
ATOM     57  C   UNL A   1      52.021  35.755  23.867  1.00  0.00     0.009 A 
ATOM     58  C   UNL A   1      53.132  37.262  25.936  1.00  0.00     0.001 A 
ATOM     59  C   UNL A   1      52.850  36.833  23.572  1.00  0.00     0.001 A 
ATOM     60  C   UNL A   1      53.396  37.592  24.606  1.00  0.00     0.000 A 
ENDBRANCH  42  55
ENDBRANCH  16  17
ENDBRANCH   9  11
ENDBRANCH   8   9
ENDBRANCH   7   8
ENDBRANCH   6   7
ENDBRANCH   5   6
ENDBRANCH   4   5
ENDBRANCH   3   4
ENDBRANCH   2   3
ENDBRANCH   1   2
BRANCH   1  61
ATOM     61  C   UNL A   1      37.963  21.111  25.103  1.00  0.00     0.188 C 
BRANCH  61  62
ATOM     62  O   UNL A   1      36.732  21.779  24.941  1.00  0.00    -0.376 OA
BRANCH  62  63
ATOM     63  C   UNL A   1      36.602  22.970  25.698  1.00  0.00     0.202 C 
BRANCH  63  64
ATOM     64  C   UNL A   1      35.367  23.869  25.506  1.00  0.00     0.261 C 
BRANCH  64  65
ATOM     65  O   UNL A   1      34.007  23.401  25.282  1.00  0.00    -0.461 OA
BRANCH  65  66
ATOM     66  C   UNL A   1      33.263  22.562  26.047  1.00  0.00     0.332 C 
ATOM     67  O   UNL A   1      33.542  22.209  27.190  1.00  0.00    -0.249 OA
BRANCH  66  68
ATOM     68  C   UNL A   1      32.003  22.079  25.273  1.00  0.00     0.148 C 
ATOM     69  C   UNL A   1      32.087  20.584  24.827  1.00  0.00     0.052 C 
ATOM     70  C   UNL A   1      31.823  22.871  23.956  1.00  0.00     0.110 C 
ATOM     71  C   UNL A   1      32.706  20.406  23.438  1.00  0.00     0.072 C 
ATOM     72  S   UNL A   1      32.686  22.009  22.616  1.00  0.00    -0.159 SA
BRANCH  68  73
ATOM     73  N   UNL A   1      30.750  22.269  26.074  1.00  0.00    -0.333 N 
ATOM     74  C   UNL A   1      30.257  23.339  26.782  1.00  0.00     0.289 C 
ATOM     75  H   UNL A   1      30.168  21.476  26.095  1.00  0.00     0.165 HD
ATOM     76  O   UNL A   1      29.624  23.063  27.805  1.00  0.00    -0.266 OA
BRANCH  74  77
ATOM     77  C   UNL A   1      30.469  24.709  26.379  1.00  0.00     0.214 A 
ATOM     78  N   UNL A   1      29.812  25.437  25.490  1.00  0.00    -0.207 NA
ATOM     79  N   UNL A   1      31.462  25.480  26.909  1.00  0.00    -0.255 N 
ATOM     80  C   UNL A   1      30.580  26.576  25.372  1.00  0.00     0.154 A 
ATOM     81  N   UNL A   1      31.601  26.635  26.239  1.00  0.00    -0.158 NA
ATOM     82  H   UNL A   1      32.007  25.222  27.686  1.00  0.00     0.192 HD
BRANCH  80  83
ATOM     83  C   UNL A   1      30.494  27.596  24.230  1.00  0.00     0.060 C 
ATOM     84  C   UNL A   1      30.613  27.127  22.788  1.00  0.00     0.012 C 
ATOM     85  C   UNL A   1      29.323  27.666  23.282  1.00  0.00     0.012 C 
ENDBRANCH  80  83
ENDBRANCH  74  77
ENDBRANCH  68  73
ENDBRANCH  66  68
ENDBRANCH  65  66
ENDBRANCH  64  65
ENDBRANCH  63  64
ENDBRANCH  62  63
ENDBRANCH  61  62
ENDBRANCH   1  61
TORSDOF 23
ENDMDL
MODEL 2
REMARK VINA RESULT:      -8.5      6.632     10.425
REMARK SMILES O=C(OCCOCCOCCOCCOC(=O)[C@]1(NC(=O)c2nc(C3CC3)n[nH]2)CCSC1)c1ccc(-c2c3nc(c(-c4ccccc4)c4ccc([nH]4)c(-c4ccccc4)c4nc(c(-c5ccccc5)c5ccc2[nH]5)C=C4)C=C3)cc1
REMARK SMILES IDX 10 1 9 2 8 3 7 4 6 5 5 6 4 7 3 8 2 9 1 10 34 11 35 12 81 13
REMARK SMILES IDX 36 14 80 15 37 16 38 17 39 18 74 19 40 20 79 21 73 22 75 23
REMARK SMILES IDX 41 24 78 25 72 26 71 27 42 29 64 30 49 31 63 32 50 33 53 34
REMARK SMILES IDX 62 35 76 36 51 37 52 38 61 40 77 41 54 42 43 43 44 44 48 45
REMARK SMILES IDX 45 46 47 47 46 48 65 49 66 50 70 51 67 52 69 53 68 54 55 55
REMARK SMILES IDX 56 56 60 57 57 58 59 59 58 60 11 61 12 62 13 63 14 64 15 65
REMARK SMILES IDX 16 66 17 67 18 68 30 69 33 70 31 71 32 72 19 73 20 74 21 76
REMARK SMILES IDX 22 77 23 78 29 79 24 80 28 81 25 83 26 84 27 85
REMARK H PARENT 75 28 53 39 19 75 29 82
REMARK Flexibility Score: inf
ROOT
ATOM      1  C   UNL A   1      39.868  23.922  26.941  1.00  0.00     0.188 C 
ENDROOT
BRANCH   1   2
ATOM      2  O   UNL A   1      40.563  22.699  27.191  1.00  0.00    -0.377 OA
BRANCH   2   3
ATOM      3  C   UNL A   1      41.213  22.061  26.091  1.00  0.00     0.188 C 
BRANCH   3   4
ATOM      4  C   UNL A   1      42.701  22.349  25.978  1.00  0.00     0.188 C 
BRANCH   4   5
ATOM      5  O   UNL A   1      43.144  22.004  24.679  1.00  0.00    -0.376 OA
BRANCH   5   6
ATOM      6  C   UNL A   1      44.410  22.499  24.281  1.00  0.00     0.202 C 
BRANCH   6   7
ATOM      7  C   UNL A   1      44.931  23.605  25.174  1.00  0.00     0.261 C 
BRANCH   7   8
ATOM      8  O   UNL A   1      45.027  24.936  24.627  1.00  0.00    -0.460 OA
BRANCH   8   9
ATOM      9  C   UNL A   1      45.560  26.083  25.099  1.00  0.00     0.338 C 
ATOM     10  O   UNL A   1      46.365  26.692  24.395  1.00  0.00    -0.246 OA
BRANCH   9  11
ATOM     11  C   UNL A   1      45.072  26.766  26.330  1.00  0.00     0.060 A 
ATOM     12  C   UNL A   1      43.744  27.058  26.629  1.00  0.00     0.016 A 
ATOM     13  C   UNL A   1      46.048  27.081  27.292  1.00  0.00     0.016 A 
ATOM     14  C   UNL A   1      43.380  27.679  27.807  1.00  0.00     0.010 A 
ATOM     15  C   UNL A   1      45.702  27.733  28.476  1.00  0.00     0.010 A 
ATOM     16  C   UNL A   1      44.364  28.070  28.702  1.00  0.00    -0.014 A 
BRANCH  16  17
ATOM     17  C   UNL A   1      43.970  29.094  29.675  1.00  0.00     0.031 A 
ATOM     18  C   UNL A   1      43.696  28.622  31.071  1.00  0.00     0.074 A 
ATOM     19  C   UNL A   1      44.087  30.395  29.364  1.00  0.00     0.049 A 
ATOM     20  N   UNL A   1      43.289  29.295  32.110  1.00  0.00    -0.248 NA
ATOM     21  C   UNL A   1      43.937  27.189  31.339  1.00  0.00     0.031 C 
ATOM     22  C   UNL A   1      44.570  30.920  28.083  1.00  0.00     0.029 A 
ATOM     23  N   UNL A   1      43.855  31.509  30.117  1.00  0.00    -0.354 N 
ATOM     24  C   UNL A   1      43.178  28.361  33.133  1.00  0.00     0.074 A 
ATOM     25  C   UNL A   1      43.565  27.078  32.602  1.00  0.00     0.031 C 
ATOM     26  C   UNL A   1      44.603  32.261  28.146  1.00  0.00     0.029 A 
ATOM     27  C   UNL A   1      44.067  32.680  29.435  1.00  0.00     0.049 A 
ATOM     28  H   UNL A   1      43.563  31.475  31.058  1.00  0.00     0.167 HD
ATOM     29  C   UNL A   1      42.769  28.571  34.403  1.00  0.00     0.031 A 
ATOM     30  C   UNL A   1      43.796  33.941  29.812  1.00  0.00     0.031 A 
ATOM     31  C   UNL A   1      42.385  29.868  34.880  1.00  0.00     0.049 A 
ATOM     32  C   UNL A   1      43.197  34.134  31.178  1.00  0.00     0.074 A 
ATOM     33  C   UNL A   1      41.860  30.227  36.103  1.00  0.00     0.029 A 
ATOM     34  N   UNL A   1      42.496  31.030  34.124  1.00  0.00    -0.354 N 
ATOM     35  N   UNL A   1      42.973  33.241  32.116  1.00  0.00    -0.248 NA
ATOM     36  C   UNL A   1      42.796  35.498  31.535  1.00  0.00     0.031 C 
ATOM     37  C   UNL A   1      41.595  31.601  36.065  1.00  0.00     0.029 A 
ATOM     38  C   UNL A   1      42.025  32.108  34.846  1.00  0.00     0.049 A 
ATOM     39  H   UNL A   1      42.856  31.078  33.210  1.00  0.00     0.167 HD
ATOM     40  C   UNL A   1      42.427  33.935  33.184  1.00  0.00     0.074 A 
ATOM     41  C   UNL A   1      42.374  35.329  32.781  1.00  0.00     0.031 C 
ATOM     42  C   UNL A   1      42.002  33.476  34.388  1.00  0.00     0.031 A 
BRANCH  29  43
ATOM     43  C   UNL A   1      42.612  27.359  35.278  1.00  0.00    -0.014 A 
ATOM     44  C   UNL A   1      41.547  26.457  35.120  1.00  0.00     0.009 A 
ATOM     45  C   UNL A   1      43.518  27.157  36.330  1.00  0.00     0.009 A 
ATOM     46  C   UNL A   1      41.371  25.405  36.024  1.00  0.00     0.001 A 
ATOM     47  C   UNL A   1      43.357  26.090  37.214  1.00  0.00     0.001 A 
ATOM     48  C   UNL A   1      42.276  25.222  37.068  1.00  0.00     0.000 A 
ENDBRANCH  29  43
BRANCH  30  49
ATOM     49  C   UNL A   1      43.996  35.074  28.869  1.00  0.00    -0.014 A 
ATOM     50  C   UNL A   1      45.261  35.642  28.672  1.00  0.00     0.009 A 
ATOM     51  C   UNL A   1      42.902  35.611  28.167  1.00  0.00     0.009 A 
ATOM     52  C   UNL A   1      45.422  36.739  27.817  1.00  0.00     0.001 A 
ATOM     53  C   UNL A   1      43.069  36.684  27.289  1.00  0.00     0.001 A 
ATOM     54  C   UNL A   1      44.328  37.255  27.125  1.00  0.00     0.000 A 
ENDBRANCH  30  49
BRANCH  42  55
ATOM     55  C   UNL A   1      41.497  34.503  35.357  1.00  0.00    -0.014 A 
ATOM     56  C   UNL A   1      40.137  34.835  35.425  1.00  0.00     0.009 A 
ATOM     57  C   UNL A   1      42.398  35.101  36.251  1.00  0.00     0.009 A 
ATOM     58  C   UNL A   1      39.693  35.778  36.352  1.00  0.00     0.001 A 
ATOM     59  C   UNL A   1      41.946  36.014  37.200  1.00  0.00     0.001 A 
ATOM     60  C   UNL A   1      40.596  36.360  37.243  1.00  0.00     0.000 A 
ENDBRANCH  42  55
ENDBRANCH  16  17
ENDBRANCH   9  11
ENDBRANCH   8   9
ENDBRANCH   7   8
ENDBRANCH   6   7
ENDBRANCH   5   6
ENDBRANCH   4   5
ENDBRANCH   3   4
ENDBRANCH   2   3
ENDBRANCH   1   2
BRANCH   1  61
ATOM     61  C   UNL A   1      40.590  25.269  27.019  1.00  0.00     0.188 C 
BRANCH  61  62
ATOM     62  O   UNL A   1      40.310  25.994  28.196  1.00  0.00    -0.376 OA
BRANCH  62  63
ATOM     63  C   UNL A   1      39.227  26.902  28.087  1.00  0.00     0.202 C 
BRANCH  63  64
ATOM     64  C   UNL A   1      39.195  28.166  28.964  1.00  0.00     0.261 C 
BRANCH  64  65
ATOM     65  O   UNL A   1      38.701  29.471  28.550  1.00  0.00    -0.461 OA
BRANCH  65  66
ATOM     66  C   UNL A   1      38.274  30.500  29.324  1.00  0.00     0.332 C 
ATOM     67  O   UNL A   1      38.961  31.454  29.678  1.00  0.00    -0.249 OA
BRANCH  66  68
ATOM     68  C   UNL A   1      36.785  30.304  29.732  1.00  0.00     0.148 C 
ATOM     69  C   UNL A   1      35.913  29.671  28.601  1.00  0.00     0.052 C 
ATOM     70  C   UNL A   1      36.109  31.662  30.035  1.00  0.00     0.110 C 
ATOM     71  C   UNL A   1      35.268  30.716  27.685  1.00  0.00     0.072 C 
ATOM     72  S   UNL A   1      35.362  32.311  28.517  1.00  0.00    -0.159 SA
BRANCH  68  73
ATOM     73  N   UNL A   1      36.651  29.462  30.965  1.00  0.00    -0.333 N 
ATOM     74  C   UNL A   1      37.184  29.577  32.228  1.00  0.00     0.289 C 
ATOM     75  H   UNL A   1      36.069  28.678  30.850  1.00  0.00     0.165 HD
ATOM     76  O   UNL A   1      37.454  28.516  32.797  1.00  0.00    -0.266 OA
BRANCH  74  77
ATOM     77  C   UNL A   1      37.435  30.852  32.858  1.00  0.00     0.214 A 
ATOM     78  N   UNL A   1      36.632  31.597  33.601  1.00  0.00    -0.207 NA
ATOM     79  N   UNL A   1      38.631  31.498  32.747  1.00  0.00    -0.255 N 
ATOM     80  C   UNL A   1      37.325  32.780  33.743  1.00  0.00     0.154 A 
ATOM     81  N   UNL A   1      38.564  32.747  33.232  1.00  0.00    -0.158 NA
ATOM     82  H   UNL A   1      39.443  31.097  32.361  1.00  0.00     0.192 HD
BRANCH  80  83
ATOM     83  C   UNL A   1      36.725  34.117  34.197  1.00  0.00     0.060 C 
ATOM     84  C   UNL A   1      35.973  34.985  33.199  1.00  0.00     0.012 C 
ATOM     85  C   UNL A   1      35.240  34.347  34.319  1.00  0.00     0.012 C 
ENDBRANCH  80  83
ENDBRANCH  74  77
ENDBRANCH  68  73
ENDBRANCH  66  68
ENDBRANCH  65  66
ENDBRANCH  64  65
ENDBRANCH  63  64
ENDBRANCH  62  63
ENDBRANCH  61  62
ENDBRANCH   1  61
TORSDOF 23
ENDMDL
MODEL 3
REMARK VINA RESULT:      -8.0      2.593      6.951
REMARK SMILES O=C(OCCOCCOCCOCCOC(=O)[C@]1(NC(=O)c2nc(C3CC3)n[nH]2)CCSC1)c1ccc(-c2c3nc(c(-c4ccccc4)c4ccc([nH]4)c(-c4ccccc4)c4nc(c(-c5ccccc5)c5ccc2[nH]5)C=C4)C=C3)cc1
REMARK SMILES IDX 10 1 9 2 8 3 7 4 6 5 5 6 4 7 3 8 2 9 1 10 34 11 35 12 81 13
REMARK SMILES IDX 36 14 80 15 37 16 38 17 39 18 74 19 40 20 79 21 73 22 75 23
REMARK SMILES IDX 41 24 78 25 72 26 71 27 42 29 64 30 49 31 63 32 50 33 53 34
REMARK SMILES IDX 62 35 76 36 51 37 52 38 61 40 77 41 54 42 43 43 44 44 48 45
REMARK SMILES IDX 45 46 47 47 46 48 65 49 66 50 70 51 67 52 69 53 68 54 55 55
REMARK SMILES IDX 56 56 60 57 57 58 59 59 58 60 11 61 12 62 13 63 14 64 15 65
REMARK SMILES IDX 16 66 17 67 18 68 30 69 33 70 31 71 32 72 19 73 20 74 21 76
REMARK SMILES IDX 22 77 23 78 29 79 24 80 28 81 25 83 26 84 27 85
REMARK H PARENT 75 28 53 39 19 75 29 82
REMARK Flexibility Score: inf
ROOT
ATOM      1  C   UNL A   1      39.151  28.908  27.941  1.00  0.00     0.188 C 
ENDROOT
BRANCH   1   2
ATOM      2  O   UNL A   1      39.760  27.687  27.519  1.00  0.00    -0.377 OA
BRANCH   2   3
ATOM      3  C   UNL A   1      39.347  26.477  28.158  1.00  0.00     0.188 C 
BRANCH   3   4
ATOM      4  C   UNL A   1      39.025  25.336  27.208  1.00  0.00     0.188 C 
BRANCH   4   5
ATOM      5  O   UNL A   1      39.480  24.119  27.772  1.00  0.00    -0.376 OA
BRANCH   5   6
ATOM      6  C   UNL A   1      39.707  23.044  26.879  1.00  0.00     0.202 C 
BRANCH   6   7
ATOM      7  C   UNL A   1      41.172  22.698  26.713  1.00  0.00     0.261 C 
BRANCH   7   8
ATOM      8  O   UNL A   1      42.135  23.770  26.762  1.00  0.00    -0.460 OA
BRANCH   8   9
ATOM      9  C   UNL A   1      42.841  24.321  27.773  1.00  0.00     0.338 C 
ATOM     10  O   UNL A   1      42.689  23.873  28.909  1.00  0.00    -0.246 OA
BRANCH   9  11
ATOM     11  C   UNL A   1      43.948  25.295  27.562  1.00  0.00     0.060 A 
ATOM     12  C   UNL A   1      44.732  25.867  28.561  1.00  0.00     0.016 A 
ATOM     13  C   UNL A   1      44.256  25.604  26.225  1.00  0.00     0.016 A 
ATOM     14  C   UNL A   1      45.754  26.749  28.271  1.00  0.00     0.010 A 
ATOM     15  C   UNL A   1      45.267  26.514  25.916  1.00  0.00     0.010 A 
ATOM     16  C   UNL A   1      45.982  27.118  26.954  1.00  0.00    -0.014 A 
BRANCH  16  17
ATOM     17  C   UNL A   1      46.742  28.357  26.763  1.00  0.00     0.031 A 
ATOM     18  C   UNL A   1      48.174  28.207  26.344  1.00  0.00     0.074 A 
ATOM     19  C   UNL A   1      46.104  29.539  26.740  1.00  0.00     0.049 A 
ATOM     20  N   UNL A   1      49.082  29.121  26.151  1.00  0.00    -0.248 NA
ATOM     21  C   UNL A   1      48.641  26.830  26.083  1.00  0.00     0.031 C 
ATOM     22  C   UNL A   1      44.661  29.726  26.917  1.00  0.00     0.029 A 
ATOM     23  N   UNL A   1      46.581  30.796  26.509  1.00  0.00    -0.354 N 
ATOM     24  C   UNL A   1      50.233  28.427  25.798  1.00  0.00     0.074 A 
ATOM     25  C   UNL A   1      49.916  27.021  25.795  1.00  0.00     0.031 C 
ATOM     26  C   UNL A   1      44.371  31.030  26.782  1.00  0.00     0.029 A 
ATOM     27  C   UNL A   1      45.615  31.767  26.593  1.00  0.00     0.049 A 
ATOM     28  H   UNL A   1      47.525  30.988  26.304  1.00  0.00     0.167 HD
ATOM     29  C   UNL A   1      51.453  28.936  25.520  1.00  0.00     0.031 A 
ATOM     30  C   UNL A   1      45.752  33.104  26.572  1.00  0.00     0.031 A 
ATOM     31  C   UNL A   1      51.719  30.345  25.547  1.00  0.00     0.049 A 
ATOM     32  C   UNL A   1      47.146  33.647  26.413  1.00  0.00     0.074 A 
ATOM     33  C   UNL A   1      52.916  31.009  25.384  1.00  0.00     0.029 A 
ATOM     34  N   UNL A   1      50.740  31.311  25.755  1.00  0.00    -0.354 N 
ATOM     35  N   UNL A   1      48.267  32.994  26.198  1.00  0.00    -0.248 NA
ATOM     36  C   UNL A   1      47.302  35.101  26.509  1.00  0.00     0.031 C 
ATOM     37  C   UNL A   1      52.670  32.377  25.555  1.00  0.00     0.029 A 
ATOM     38  C   UNL A   1      51.308  32.567  25.749  1.00  0.00     0.049 A 
ATOM     39  H   UNL A   1      49.783  31.125  25.887  1.00  0.00     0.167 HD
ATOM     40  C   UNL A   1      49.260  33.958  26.110  1.00  0.00     0.074 A 
ATOM     41  C   UNL A   1      48.599  35.241  26.276  1.00  0.00     0.031 C 
ATOM     42  C   UNL A   1      50.594  33.810  25.916  1.00  0.00     0.031 A 
BRANCH  29  43
ATOM     43  C   UNL A   1      52.567  27.953  25.297  1.00  0.00    -0.014 A 
ATOM     44  C   UNL A   1      52.778  27.332  24.055  1.00  0.00     0.009 A 
ATOM     45  C   UNL A   1      53.381  27.590  26.381  1.00  0.00     0.009 A 
ATOM     46  C   UNL A   1      53.752  26.338  23.917  1.00  0.00     0.001 A 
ATOM     47  C   UNL A   1      54.372  26.619  26.233  1.00  0.00     0.001 A 
ATOM     48  C   UNL A   1      54.548  25.984  25.005  1.00  0.00     0.000 A 
ENDBRANCH  29  43
BRANCH  30  49
ATOM     49  C   UNL A   1      44.579  33.991  26.796  1.00  0.00    -0.014 A 
ATOM     50  C   UNL A   1      44.168  34.341  28.089  1.00  0.00     0.009 A 
ATOM     51  C   UNL A   1      43.846  34.483  25.702  1.00  0.00     0.009 A 
ATOM     52  C   UNL A   1      43.033  35.137  28.282  1.00  0.00     0.001 A 
ATOM     53  C   UNL A   1      42.733  35.305  25.894  1.00  0.00     0.001 A 
ATOM     54  C   UNL A   1      42.321  35.621  27.186  1.00  0.00     0.000 A 
ENDBRANCH  30  49
BRANCH  42  55
ATOM     55  C   UNL A   1      51.402  35.070  25.823  1.00  0.00    -0.014 A 
ATOM     56  C   UNL A   1      51.573  35.739  24.603  1.00  0.00     0.009 A 
ATOM     57  C   UNL A   1      51.949  35.619  26.992  1.00  0.00     0.009 A 
ATOM     58  C   UNL A   1      52.311  36.921  24.551  1.00  0.00     0.001 A 
ATOM     59  C   UNL A   1      52.653  36.818  26.944  1.00  0.00     0.001 A 
ATOM     60  C   UNL A   1      52.843  37.463  25.722  1.00  0.00     0.000 A 
ENDBRANCH  42  55
ENDBRANCH  16  17
ENDBRANCH   9  11
ENDBRANCH   8   9
ENDBRANCH   7   8
ENDBRANCH   6   7
ENDBRANCH   5   6
ENDBRANCH   4   5
ENDBRANCH   3   4
ENDBRANCH   2   3
ENDBRANCH   1   2
BRANCH   1  61
ATOM     61  C   UNL A   1      37.662  28.968  28.289  1.00  0.00     0.188 C 
BRANCH  61  62
ATOM     62  O   UNL A   1      36.921  29.835  27.460  1.00  0.00    -0.376 OA
BRANCH  62  63
ATOM     63  C   UNL A   1      35.519  29.789  27.661  1.00  0.00     0.202 C 
BRANCH  63  64
ATOM     64  C   UNL A   1      34.676  28.723  26.941  1.00  0.00     0.261 C 
BRANCH  64  65
ATOM     65  O   UNL A   1      33.749  28.975  25.846  1.00  0.00    -0.461 OA
BRANCH  65  66
ATOM     66  C   UNL A   1      33.500  28.210  24.754  1.00  0.00     0.332 C 
ATOM     67  O   UNL A   1      34.280  28.027  23.823  1.00  0.00    -0.249 OA
BRANCH  66  68
ATOM     68  C   UNL A   1      32.069  27.602  24.820  1.00  0.00     0.148 C 
ATOM     69  C   UNL A   1      31.671  26.816  23.529  1.00  0.00     0.052 C 
ATOM     70  C   UNL A   1      30.999  28.711  24.950  1.00  0.00     0.110 C 
ATOM     71  C   UNL A   1      30.981  27.696  22.481  1.00  0.00     0.072 C 
ATOM     72  S   UNL A   1      30.454  29.213  23.296  1.00  0.00    -0.159 SA
BRANCH  68  73
ATOM     73  N   UNL A   1      31.904  26.693  26.001  1.00  0.00    -0.333 N 
ATOM     74  C   UNL A   1      32.178  25.359  26.190  1.00  0.00     0.289 C 
ATOM     75  H   UNL A   1      31.529  27.138  26.795  1.00  0.00     0.165 HD
ATOM     76  O   UNL A   1      31.404  24.750  26.934  1.00  0.00    -0.266 OA
BRANCH  74  77
ATOM     77  C   UNL A   1      33.288  24.691  25.554  1.00  0.00     0.214 A 
ATOM     78  N   UNL A   1      33.326  23.520  24.937  1.00  0.00    -0.207 NA
ATOM     79  N   UNL A   1      34.540  25.232  25.516  1.00  0.00    -0.255 N 
ATOM     80  C   UNL A   1      34.672  23.309  24.725  1.00  0.00     0.154 A 
ATOM     81  N   UNL A   1      35.445  24.349  25.066  1.00  0.00    -0.158 NA
ATOM     82  H   UNL A   1      34.752  26.155  25.785  1.00  0.00     0.192 HD
BRANCH  80  83
ATOM     83  C   UNL A   1      35.320  21.963  24.378  1.00  0.00     0.060 C 
ATOM     84  C   UNL A   1      36.836  21.845  24.327  1.00  0.00     0.012 C 
ATOM     85  C   UNL A   1      36.078  21.136  25.386  1.00  0.00     0.012 C 
ENDBRANCH  80  83
ENDBRANCH  74  77
ENDBRANCH  68  73
ENDBRANCH  66  68
ENDBRANCH  65  66
ENDBRANCH  64  65
ENDBRANCH  63  64
ENDBRANCH  62  63
ENDBRANCH  61  62
ENDBRANCH   1  61
TORSDOF 23
ENDMDL
