MODEL 1
REMARK VINA RESULT:     -10.4      0.000      0.000
REMARK SMILES CCN(C(=O)Cc1c(C(=O)OCCOCCOCCOCCOC(=O)c2ccc(-c3c4nc(c(-c5ccccc5)c5ccc([nH]5)c(-c5ccccc5)c5nc(c(-c6ccccc6)c6ccc3[nH]6)C=C5)C=C4)cc2)[nH]c2ccc(Cl)cc12)c1ccc(C)c(C)c1
REMARK SMILES IDX 16 1 15 2 14 3 13 4 12 5 11 6 9 7 10 8 8 9 7 10 81 11 74 12
REMARK SMILES IDX 75 13 80 14 76 16 78 17 77 18 79 19 6 20 4 21 5 22 3 23 2 24
REMARK SMILES IDX 1 25 82 26 83 27 89 28 84 29 87 30 85 31 88 32 86 33 17 34
REMARK SMILES IDX 18 35 19 36 20 37 21 38 22 39 23 40 24 41 25 42 26 43 27 44
REMARK SMILES IDX 73 45 28 46 72 47 29 48 30 49 31 50 66 51 32 52 71 53 65 54
REMARK SMILES IDX 67 55 33 56 70 57 64 58 63 59 34 61 56 62 41 63 55 64 42 65
REMARK SMILES IDX 45 66 54 67 68 68 43 69 44 70 53 72 69 73 46 74 35 75 36 76
REMARK SMILES IDX 40 77 37 78 39 79 38 80 57 81 58 82 62 83 59 84 61 85 60 86
REMARK SMILES IDX 47 87 48 88 52 89 49 90 51 91 50 92
REMARK H PARENT 74 15 67 60 45 71
REMARK Flexibility Score: inf
ROOT
ATOM      1  C   UNL A   1      37.508  21.680  24.314  1.00  0.00     0.188 C 
ENDROOT
BRANCH   1   2
ATOM      2  C   UNL A   1      36.162  22.419  24.279  1.00  0.00     0.188 C 
BRANCH   2   3
ATOM      3  O   UNL A   1      35.311  22.181  25.396  1.00  0.00    -0.376 OA
BRANCH   3   4
ATOM      4  C   UNL A   1      35.122  23.282  26.272  1.00  0.00     0.202 C 
BRANCH   4   5
ATOM      5  C   UNL A   1      34.008  23.059  27.294  1.00  0.00     0.261 C 
BRANCH   5   6
ATOM      6  O   UNL A   1      32.836  23.896  27.259  1.00  0.00    -0.459 OA
BRANCH   6   7
ATOM      7  C   UNL A   1      31.656  23.422  26.807  1.00  0.00     0.355 C 
ATOM      8  O   UNL A   1      30.546  23.696  27.252  1.00  0.00    -0.244 OA
BRANCH   7   9
ATOM      9  C   UNL A   1      31.856  22.440  25.768  1.00  0.00     0.129 A 
ATOM     10  C   UNL A   1      31.930  22.533  24.371  1.00  0.00     0.002 A 
ATOM     11  C   UNL A   1      32.116  21.184  23.893  1.00  0.00     0.005 A 
ATOM     12  N   UNL A   1      32.171  21.149  26.111  1.00  0.00    -0.349 N 
ATOM     13  C   UNL A   1      32.276  20.357  25.005  1.00  0.00     0.046 A 
ATOM     14  C   UNL A   1      32.155  20.585  22.615  1.00  0.00     0.031 A 
ATOM     15  H   UNL A   1      32.303  20.836  27.035  1.00  0.00     0.167 HD
ATOM     16  C   UNL A   1      32.499  18.978  24.922  1.00  0.00     0.028 A 
ATOM     17  C   UNL A   1      32.345  19.200  22.517  1.00  0.00     0.041 A 
ATOM     18  C   UNL A   1      32.523  18.409  23.650  1.00  0.00     0.022 A 
ATOM     19  Cl  UNL A   1      32.346  18.452  20.966  1.00  0.00    -0.084 Cl
BRANCH  10  20
ATOM     20  C   UNL A   1      31.766  23.768  23.509  1.00  0.00     0.139 C 
BRANCH  20  21
ATOM     21  C   UNL A   1      32.608  25.038  23.804  1.00  0.00     0.231 C 
ATOM     22  O   UNL A   1      33.784  25.055  23.416  1.00  0.00    -0.274 OA
BRANCH  21  23
ATOM     23  N   UNL A   1      31.980  26.196  24.325  1.00  0.00    -0.312 N 
BRANCH  23  24
ATOM     24  C   UNL A   1      32.425  26.724  25.608  1.00  0.00     0.122 C 
ATOM     25  C   UNL A   1      32.491  28.196  26.002  1.00  0.00     0.028 C 
ENDBRANCH  23  24
BRANCH  23  26
ATOM     26  C   UNL A   1      30.776  26.711  23.738  1.00  0.00     0.044 A 
ATOM     27  C   UNL A   1      29.521  26.275  24.166  1.00  0.00     0.026 A 
ATOM     28  C   UNL A   1      30.820  27.812  22.880  1.00  0.00     0.030 A 
ATOM     29  C   UNL A   1      28.376  27.030  23.876  1.00  0.00     0.006 A 
ATOM     30  C   UNL A   1      29.710  28.645  22.679  1.00  0.00    -0.046 A 
ATOM     31  C   UNL A   1      28.467  28.254  23.192  1.00  0.00    -0.048 A 
ATOM     32  C   UNL A   1      29.930  29.957  21.973  1.00  0.00     0.044 C 
ATOM     33  C   UNL A   1      27.223  29.075  22.996  1.00  0.00     0.044 C 
ENDBRANCH  23  26
ENDBRANCH  21  23
ENDBRANCH  20  21
ENDBRANCH  10  20
ENDBRANCH   7   9
ENDBRANCH   6   7
ENDBRANCH   5   6
ENDBRANCH   4   5
ENDBRANCH   3   4
ENDBRANCH   2   3
ENDBRANCH   1   2
BRANCH   1  34
ATOM     34  O   UNL A   1      37.729  20.722  25.339  1.00  0.00    -0.377 OA
BRANCH  34  35
ATOM     35  C   UNL A   1      39.004  20.100  25.452  1.00  0.00     0.188 C 
BRANCH  35  36
ATOM     36  C   UNL A   1      40.161  20.855  26.125  1.00  0.00     0.188 C 
BRANCH  36  37
ATOM     37  O   UNL A   1      41.455  20.364  25.792  1.00  0.00    -0.376 OA
BRANCH  37  38
ATOM     38  C   UNL A   1      42.557  21.127  26.268  1.00  0.00     0.202 C 
BRANCH  38  39
ATOM     39  C   UNL A   1      43.404  21.751  25.153  1.00  0.00     0.261 C 
BRANCH  39  40
ATOM     40  O   UNL A   1      42.974  23.059  24.745  1.00  0.00    -0.460 OA
BRANCH  40  41
ATOM     41  C   UNL A   1      43.803  24.087  25.025  1.00  0.00     0.338 C 
ATOM     42  O   UNL A   1      44.918  24.290  24.583  1.00  0.00    -0.246 OA
BRANCH  41  43
ATOM     43  C   UNL A   1      43.061  25.043  25.859  1.00  0.00     0.060 A 
ATOM     44  C   UNL A   1      43.434  26.392  25.829  1.00  0.00     0.016 A 
ATOM     45  C   UNL A   1      42.031  24.599  26.692  1.00  0.00     0.016 A 
ATOM     46  C   UNL A   1      42.806  27.300  26.680  1.00  0.00     0.010 A 
ATOM     47  C   UNL A   1      41.421  25.503  27.560  1.00  0.00     0.010 A 
ATOM     48  C   UNL A   1      41.836  26.845  27.584  1.00  0.00    -0.014 A 
BRANCH  48  49
ATOM     49  C   UNL A   1      41.432  27.702  28.719  1.00  0.00     0.031 A 
ATOM     50  C   UNL A   1      42.192  27.566  30.010  1.00  0.00     0.074 A 
ATOM     51  C   UNL A   1      40.404  28.560  28.619  1.00  0.00     0.049 A 
ATOM     52  N   UNL A   1      42.003  28.173  31.152  1.00  0.00    -0.248 NA
ATOM     53  C   UNL A   1      43.318  26.615  30.010  1.00  0.00     0.031 C 
ATOM     54  C   UNL A   1      39.611  28.803  27.416  1.00  0.00     0.029 A 
ATOM     55  N   UNL A   1      39.845  29.379  29.567  1.00  0.00    -0.354 N 
ATOM     56  C   UNL A   1      42.991  27.690  31.998  1.00  0.00     0.074 A 
ATOM     57  C   UNL A   1      43.767  26.727  31.250  1.00  0.00     0.031 C 
ATOM     58  C   UNL A   1      38.651  29.701  27.704  1.00  0.00     0.029 A 
ATOM     59  C   UNL A   1      38.752  30.072  29.115  1.00  0.00     0.049 A 
ATOM     60  H   UNL A   1      40.194  29.460  30.484  1.00  0.00     0.167 HD
ATOM     61  C   UNL A   1      43.234  28.015  33.288  1.00  0.00     0.031 A 
ATOM     62  C   UNL A   1      37.917  30.896  29.775  1.00  0.00     0.031 A 
ATOM     63  C   UNL A   1      42.437  28.929  34.054  1.00  0.00     0.049 A 
ATOM     64  C   UNL A   1      38.145  31.163  31.240  1.00  0.00     0.074 A 
ATOM     65  C   UNL A   1      42.596  29.321  35.371  1.00  0.00     0.029 A 
ATOM     66  N   UNL A   1      41.313  29.578  33.571  1.00  0.00    -0.354 N 
ATOM     67  N   UNL A   1      39.104  30.729  32.019  1.00  0.00    -0.248 NA
ATOM     68  C   UNL A   1      37.167  32.031  31.913  1.00  0.00     0.031 C 
ATOM     69  C   UNL A   1      41.539  30.179  35.697  1.00  0.00     0.029 A 
ATOM     70  C   UNL A   1      40.749  30.347  34.571  1.00  0.00     0.049 A 
ATOM     71  H   UNL A   1      40.967  29.503  32.652  1.00  0.00     0.167 HD
ATOM     72  C   UNL A   1      38.858  31.285  33.269  1.00  0.00     0.074 A 
ATOM     73  C   UNL A   1      37.664  32.094  33.141  1.00  0.00     0.031 C 
ATOM     74  C   UNL A   1      39.558  31.141  34.421  1.00  0.00     0.031 A 
BRANCH  61  75
ATOM     75  C   UNL A   1      44.396  27.338  33.948  1.00  0.00    -0.014 A 
ATOM     76  C   UNL A   1      44.236  26.102  34.594  1.00  0.00     0.009 A 
ATOM     77  C   UNL A   1      45.660  27.945  33.935  1.00  0.00     0.009 A 
ATOM     78  C   UNL A   1      45.316  25.499  35.238  1.00  0.00     0.001 A 
ATOM     79  C   UNL A   1      46.742  27.331  34.567  1.00  0.00     0.001 A 
ATOM     80  C   UNL A   1      46.569  26.113  35.224  1.00  0.00     0.000 A 
ENDBRANCH  61  75
BRANCH  62  81
ATOM     81  C   UNL A   1      36.764  31.511  29.072  1.00  0.00    -0.014 A 
ATOM     82  C   UNL A   1      36.829  32.839  28.625  1.00  0.00     0.009 A 
ATOM     83  C   UNL A   1      35.583  30.781  28.869  1.00  0.00     0.009 A 
ATOM     84  C   UNL A   1      35.725  33.430  28.005  1.00  0.00     0.001 A 
ATOM     85  C   UNL A   1      34.489  31.368  28.232  1.00  0.00     0.001 A 
ATOM     86  C   UNL A   1      34.558  32.693  27.807  1.00  0.00     0.000 A 
ENDBRANCH  62  81
BRANCH  74  87
ATOM     87  C   UNL A   1      39.063  31.887  35.622  1.00  0.00    -0.014 A 
ATOM     88  C   UNL A   1      39.449  33.216  35.857  1.00  0.00     0.009 A 
ATOM     89  C   UNL A   1      38.158  31.271  36.502  1.00  0.00     0.009 A 
ATOM     90  C   UNL A   1      38.954  33.906  36.964  1.00  0.00     0.001 A 
ATOM     91  C   UNL A   1      37.650  31.972  37.595  1.00  0.00     0.001 A 
ATOM     92  C   UNL A   1      38.052  33.286  37.829  1.00  0.00     0.000 A 
ENDBRANCH  74  87
ENDBRANCH  48  49
ENDBRANCH  41  43
ENDBRANCH  40  41
ENDBRANCH  39  40
ENDBRANCH  38  39
ENDBRANCH  37  38
ENDBRANCH  36  37
ENDBRANCH  35  36
ENDBRANCH  34  35
ENDBRANCH   1  34
TORSDOF 25
ENDMDL
MODEL 2
REMARK VINA RESULT:     -10.0      3.240      4.201
REMARK SMILES CCN(C(=O)Cc1c(C(=O)OCCOCCOCCOCCOC(=O)c2ccc(-c3c4nc(c(-c5ccccc5)c5ccc([nH]5)c(-c5ccccc5)c5nc(c(-c6ccccc6)c6ccc3[nH]6)C=C5)C=C4)cc2)[nH]c2ccc(Cl)cc12)c1ccc(C)c(C)c1
REMARK SMILES IDX 16 1 15 2 14 3 13 4 12 5 11 6 9 7 10 8 8 9 7 10 81 11 74 12
REMARK SMILES IDX 75 13 80 14 76 16 78 17 77 18 79 19 6 20 4 21 5 22 3 23 2 24
REMARK SMILES IDX 1 25 82 26 83 27 89 28 84 29 87 30 85 31 88 32 86 33 17 34
REMARK SMILES IDX 18 35 19 36 20 37 21 38 22 39 23 40 24 41 25 42 26 43 27 44
REMARK SMILES IDX 73 45 28 46 72 47 29 48 30 49 31 50 66 51 32 52 71 53 65 54
REMARK SMILES IDX 67 55 33 56 70 57 64 58 63 59 34 61 56 62 41 63 55 64 42 65
REMARK SMILES IDX 45 66 54 67 68 68 43 69 44 70 53 72 69 73 46 74 35 75 36 76
REMARK SMILES IDX 40 77 37 78 39 79 38 80 57 81 58 82 62 83 59 84 61 85 60 86
REMARK SMILES IDX 47 87 48 88 52 89 49 90 51 91 50 92
REMARK H PARENT 74 15 67 60 45 71
REMARK Flexibility Score: inf
ROOT
ATOM      1  C   UNL A   1      37.019  21.923  24.283  1.00  0.00     0.188 C 
ENDROOT
BRANCH   1   2
ATOM      2  C   UNL A   1      36.053  23.035  24.718  1.00  0.00     0.188 C 
BRANCH   2   3
ATOM      3  O   UNL A   1      34.954  22.605  25.516  1.00  0.00    -0.376 OA
BRANCH   3   4
ATOM      4  C   UNL A   1      34.942  23.081  26.853  1.00  0.00     0.202 C 
BRANCH   4   5
ATOM      5  C   UNL A   1      33.641  22.771  27.595  1.00  0.00     0.261 C 
BRANCH   5   6
ATOM      6  O   UNL A   1      32.521  23.669  27.466  1.00  0.00    -0.459 OA
BRANCH   6   7
ATOM      7  C   UNL A   1      31.369  23.266  26.891  1.00  0.00     0.355 C 
ATOM      8  O   UNL A   1      30.235  23.545  27.264  1.00  0.00    -0.244 OA
BRANCH   7   9
ATOM      9  C   UNL A   1      31.626  22.351  25.803  1.00  0.00     0.129 A 
ATOM     10  C   UNL A   1      31.615  22.500  24.410  1.00  0.00     0.002 A 
ATOM     11  C   UNL A   1      31.929  21.199  23.868  1.00  0.00     0.005 A 
ATOM     12  N   UNL A   1      32.104  21.094  26.079  1.00  0.00    -0.349 N 
ATOM     13  C   UNL A   1      32.242  20.358  24.937  1.00  0.00     0.046 A 
ATOM     14  C   UNL A   1      31.970  20.654  22.567  1.00  0.00     0.031 A 
ATOM     15  H   UNL A   1      32.320  20.766  26.982  1.00  0.00     0.167 HD
ATOM     16  C   UNL A   1      32.617  19.019  24.788  1.00  0.00     0.028 A 
ATOM     17  C   UNL A   1      32.312  19.305  22.404  1.00  0.00     0.041 A 
ATOM     18  C   UNL A   1      32.639  18.502  23.493  1.00  0.00     0.022 A 
ATOM     19  Cl  UNL A   1      32.317  18.617  20.825  1.00  0.00    -0.084 Cl
BRANCH  10  20
ATOM     20  C   UNL A   1      31.265  23.737  23.608  1.00  0.00     0.139 C 
BRANCH  20  21
ATOM     21  C   UNL A   1      32.381  24.727  23.180  1.00  0.00     0.231 C 
ATOM     22  O   UNL A   1      32.964  24.514  22.109  1.00  0.00    -0.274 OA
BRANCH  21  23
ATOM     23  N   UNL A   1      32.575  25.927  23.907  1.00  0.00    -0.312 N 
BRANCH  23  24
ATOM     24  C   UNL A   1      33.482  25.925  25.047  1.00  0.00     0.122 C 
ATOM     25  C   UNL A   1      33.703  27.073  26.025  1.00  0.00     0.028 C 
ENDBRANCH  23  24
BRANCH  23  26
ATOM     26  C   UNL A   1      31.729  27.067  23.691  1.00  0.00     0.044 A 
ATOM     27  C   UNL A   1      32.179  28.172  22.968  1.00  0.00     0.026 A 
ATOM     28  C   UNL A   1      30.371  27.013  24.011  1.00  0.00     0.030 A 
ATOM     29  C   UNL A   1      31.261  29.092  22.443  1.00  0.00     0.006 A 
ATOM     30  C   UNL A   1      29.427  27.850  23.399  1.00  0.00    -0.046 A 
ATOM     31  C   UNL A   1      29.877  28.904  22.593  1.00  0.00    -0.048 A 
ATOM     32  C   UNL A   1      27.969  27.529  23.589  1.00  0.00     0.044 C 
ATOM     33  C   UNL A   1      28.932  29.863  21.924  1.00  0.00     0.044 C 
ENDBRANCH  23  26
ENDBRANCH  21  23
ENDBRANCH  20  21
ENDBRANCH  10  20
ENDBRANCH   7   9
ENDBRANCH   6   7
ENDBRANCH   5   6
ENDBRANCH   4   5
ENDBRANCH   3   4
ENDBRANCH   2   3
ENDBRANCH   1   2
BRANCH   1  34
ATOM     34  O   UNL A   1      37.174  20.791  25.127  1.00  0.00    -0.377 OA
BRANCH  34  35
ATOM     35  C   UNL A   1      38.301  19.940  24.955  1.00  0.00     0.188 C 
BRANCH  35  36
ATOM     36  C   UNL A   1      39.580  20.198  25.768  1.00  0.00     0.188 C 
BRANCH  36  37
ATOM     37  O   UNL A   1      40.571  19.184  25.641  1.00  0.00    -0.376 OA
BRANCH  37  38
ATOM     38  C   UNL A   1      41.763  19.375  26.392  1.00  0.00     0.202 C 
BRANCH  38  39
ATOM     39  C   UNL A   1      43.046  19.140  25.587  1.00  0.00     0.261 C 
BRANCH  39  40
ATOM     40  O   UNL A   1      43.431  20.244  24.752  1.00  0.00    -0.460 OA
BRANCH  40  41
ATOM     41  C   UNL A   1      44.519  20.946  25.134  1.00  0.00     0.338 C 
ATOM     42  O   UNL A   1      45.689  20.658  24.969  1.00  0.00    -0.246 OA
BRANCH  41  43
ATOM     43  C   UNL A   1      44.054  22.237  25.663  1.00  0.00     0.060 A 
ATOM     44  C   UNL A   1      43.875  23.302  24.773  1.00  0.00     0.016 A 
ATOM     45  C   UNL A   1      43.837  22.398  27.033  1.00  0.00     0.016 A 
ATOM     46  C   UNL A   1      43.524  24.558  25.264  1.00  0.00     0.010 A 
ATOM     47  C   UNL A   1      43.511  23.660  27.526  1.00  0.00     0.010 A 
ATOM     48  C   UNL A   1      43.395  24.750  26.647  1.00  0.00    -0.014 A 
BRANCH  48  49
ATOM     49  C   UNL A   1      43.386  26.121  27.199  1.00  0.00     0.031 A 
ATOM     50  C   UNL A   1      44.710  26.770  27.496  1.00  0.00     0.074 A 
ATOM     51  C   UNL A   1      42.237  26.767  27.456  1.00  0.00     0.049 A 
ATOM     52  N   UNL A   1      44.961  27.942  28.018  1.00  0.00    -0.248 NA
ATOM     53  C   UNL A   1      45.913  25.989  27.155  1.00  0.00     0.031 C 
ATOM     54  C   UNL A   1      40.894  26.256  27.186  1.00  0.00     0.029 A 
ATOM     55  N   UNL A   1      42.026  27.998  28.022  1.00  0.00    -0.354 N 
ATOM     56  C   UNL A   1      46.345  28.043  28.056  1.00  0.00     0.074 A 
ATOM     57  C   UNL A   1      46.883  26.811  27.523  1.00  0.00     0.031 C 
ATOM     58  C   UNL A   1      39.994  27.164  27.605  1.00  0.00     0.029 A 
ATOM     59  C   UNL A   1      40.699  28.302  28.192  1.00  0.00     0.049 A 
ATOM     60  H   UNL A   1      42.756  28.604  28.283  1.00  0.00     0.167 HD
ATOM     61  C   UNL A   1      47.107  29.070  28.496  1.00  0.00     0.031 A 
ATOM     62  C   UNL A   1      40.125  29.370  28.776  1.00  0.00     0.031 A 
ATOM     63  C   UNL A   1      46.583  30.273  29.075  1.00  0.00     0.049 A 
ATOM     64  C   UNL A   1      40.995  30.455  29.355  1.00  0.00     0.074 A 
ATOM     65  C   UNL A   1      47.272  31.370  29.559  1.00  0.00     0.029 A 
ATOM     66  N   UNL A   1      45.235  30.524  29.268  1.00  0.00    -0.354 N 
ATOM     67  N   UNL A   1      42.301  30.557  29.350  1.00  0.00    -0.248 NA
ATOM     68  C   UNL A   1      40.306  31.569  30.023  1.00  0.00     0.031 C 
ATOM     69  C   UNL A   1      46.337  32.271  30.084  1.00  0.00     0.029 A 
ATOM     70  C   UNL A   1      45.069  31.746  29.890  1.00  0.00     0.049 A 
ATOM     71  H   UNL A   1      44.503  29.921  29.001  1.00  0.00     0.167 HD
ATOM     72  C   UNL A   1      42.590  31.752  29.997  1.00  0.00     0.074 A 
ATOM     73  C   UNL A   1      41.324  32.344  30.373  1.00  0.00     0.031 C 
ATOM     74  C   UNL A   1      43.797  32.312  30.257  1.00  0.00     0.031 A 
BRANCH  61  75
ATOM     75  C   UNL A   1      48.592  28.901  28.394  1.00  0.00    -0.014 A 
ATOM     76  C   UNL A   1      49.269  29.206  27.203  1.00  0.00     0.009 A 
ATOM     77  C   UNL A   1      49.320  28.422  29.493  1.00  0.00     0.009 A 
ATOM     78  C   UNL A   1      50.647  29.008  27.107  1.00  0.00     0.001 A 
ATOM     79  C   UNL A   1      50.700  28.240  29.397  1.00  0.00     0.001 A 
ATOM     80  C   UNL A   1      51.362  28.526  28.203  1.00  0.00     0.000 A 
ENDBRANCH  61  75
BRANCH  62  81
ATOM     81  C   UNL A   1      38.647  29.463  28.875  1.00  0.00    -0.014 A 
ATOM     82  C   UNL A   1      37.882  29.839  27.761  1.00  0.00     0.009 A 
ATOM     83  C   UNL A   1      37.999  29.201  30.091  1.00  0.00     0.009 A 
ATOM     84  C   UNL A   1      36.495  29.971  27.871  1.00  0.00     0.001 A 
ATOM     85  C   UNL A   1      36.611  29.315  30.191  1.00  0.00     0.001 A 
ATOM     86  C   UNL A   1      35.861  29.707  29.084  1.00  0.00     0.000 A 
ENDBRANCH  62  81
BRANCH  74  87
ATOM     87  C   UNL A   1      43.802  33.636  30.960  1.00  0.00    -0.014 A 
ATOM     88  C   UNL A   1      43.849  33.710  32.360  1.00  0.00     0.009 A 
ATOM     89  C   UNL A   1      43.812  34.823  30.210  1.00  0.00     0.009 A 
ATOM     90  C   UNL A   1      43.884  34.951  32.997  1.00  0.00     0.001 A 
ATOM     91  C   UNL A   1      43.867  36.061  30.850  1.00  0.00     0.001 A 
ATOM     92  C   UNL A   1      43.897  36.125  32.242  1.00  0.00     0.000 A 
ENDBRANCH  74  87
ENDBRANCH  48  49
ENDBRANCH  41  43
ENDBRANCH  40  41
ENDBRANCH  39  40
ENDBRANCH  38  39
ENDBRANCH  37  38
ENDBRANCH  36  37
ENDBRANCH  35  36
ENDBRANCH  34  35
ENDBRANCH   1  34
TORSDOF 25
ENDMDL
MODEL 3
REMARK VINA RESULT:      -9.8      3.397      8.248
REMARK SMILES CCN(C(=O)Cc1c(C(=O)OCCOCCOCCOCCOC(=O)c2ccc(-c3c4nc(c(-c5ccccc5)c5ccc([nH]5)c(-c5ccccc5)c5nc(c(-c6ccccc6)c6ccc3[nH]6)C=C5)C=C4)cc2)[nH]c2ccc(Cl)cc12)c1ccc(C)c(C)c1
REMARK SMILES IDX 16 1 15 2 14 3 13 4 12 5 11 6 9 7 10 8 8 9 7 10 81 11 74 12
REMARK SMILES IDX 75 13 80 14 76 16 78 17 77 18 79 19 6 20 4 21 5 22 3 23 2 24
REMARK SMILES IDX 1 25 82 26 83 27 89 28 84 29 87 30 85 31 88 32 86 33 17 34
REMARK SMILES IDX 18 35 19 36 20 37 21 38 22 39 23 40 24 41 25 42 26 43 27 44
REMARK SMILES IDX 73 45 28 46 72 47 29 48 30 49 31 50 66 51 32 52 71 53 65 54
REMARK SMILES IDX 67 55 33 56 70 57 64 58 63 59 34 61 56 62 41 63 55 64 42 65
REMARK SMILES IDX 45 66 54 67 68 68 43 69 44 70 53 72 69 73 46 74 35 75 36 76
REMARK SMILES IDX 40 77 37 78 39 79 38 80 57 81 58 82 62 83 59 84 61 85 60 86
REMARK SMILES IDX 47 87 48 88 52 89 49 90 51 91 50 92
REMARK H PARENT 74 15 67 60 45 71
REMARK Flexibility Score: inf
ROOT
ATOM      1  C   UNL A   1      33.172  31.563  27.108  1.00  0.00     0.188 C 
ENDROOT
BRANCH   1   2
ATOM      2  C   UNL A   1      32.117  30.461  26.931  1.00  0.00     0.188 C 
BRANCH   2   3
ATOM      3  O   UNL A   1      32.470  29.191  27.472  1.00  0.00    -0.376 OA
BRANCH   3   4
ATOM      4  C   UNL A   1      31.394  28.287  27.672  1.00  0.00     0.202 C 
BRANCH   4   5
ATOM      5  C   UNL A   1      31.240  27.269  26.542  1.00  0.00     0.261 C 
BRANCH   5   6
ATOM      6  O   UNL A   1      31.143  25.866  26.860  1.00  0.00    -0.459 OA
BRANCH   6   7
ATOM      7  C   UNL A   1      30.964  24.944  25.892  1.00  0.00     0.355 C 
ATOM      8  O   UNL A   1      29.909  24.685  25.324  1.00  0.00    -0.244 OA
BRANCH   7   9
ATOM      9  C   UNL A   1      32.177  24.196  25.659  1.00  0.00     0.129 A 
ATOM     10  C   UNL A   1      33.359  24.488  24.965  1.00  0.00     0.002 A 
ATOM     11  C   UNL A   1      34.186  23.311  25.075  1.00  0.00     0.005 A 
ATOM     12  N   UNL A   1      32.364  22.998  26.303  1.00  0.00    -0.349 N 
ATOM     13  C   UNL A   1      33.539  22.415  25.926  1.00  0.00     0.046 A 
ATOM     14  C   UNL A   1      35.424  22.918  24.522  1.00  0.00     0.031 A 
ATOM     15  H   UNL A   1      31.733  22.610  26.952  1.00  0.00     0.167 HD
ATOM     16  C   UNL A   1      34.060  21.166  26.281  1.00  0.00     0.028 A 
ATOM     17  C   UNL A   1      35.944  21.656  24.842  1.00  0.00     0.041 A 
ATOM     18  C   UNL A   1      35.279  20.797  25.714  1.00  0.00     0.022 A 
ATOM     19  Cl  UNL A   1      37.430  21.147  24.136  1.00  0.00    -0.084 Cl
BRANCH  10  20
ATOM     20  C   UNL A   1      33.693  25.741  24.181  1.00  0.00     0.139 C 
BRANCH  20  21
ATOM     21  C   UNL A   1      32.838  26.134  22.946  1.00  0.00     0.231 C 
ATOM     22  O   UNL A   1      32.415  25.223  22.221  1.00  0.00    -0.274 OA
BRANCH  21  23
ATOM     23  N   UNL A   1      32.408  27.473  22.784  1.00  0.00    -0.312 N 
BRANCH  23  24
ATOM     24  C   UNL A   1      33.357  28.553  23.020  1.00  0.00     0.122 C 
ATOM     25  C   UNL A   1      34.032  28.886  24.346  1.00  0.00     0.028 C 
ENDBRANCH  23  24
BRANCH  23  26
ATOM     26  C   UNL A   1      31.017  27.790  22.625  1.00  0.00     0.044 A 
ATOM     27  C   UNL A   1      30.025  26.986  23.187  1.00  0.00     0.026 A 
ATOM     28  C   UNL A   1      30.627  29.020  22.091  1.00  0.00     0.030 A 
ATOM     29  C   UNL A   1      28.726  27.484  23.357  1.00  0.00     0.006 A 
ATOM     30  C   UNL A   1      29.370  29.583  22.355  1.00  0.00    -0.046 A 
ATOM     31  C   UNL A   1      28.403  28.806  23.008  1.00  0.00    -0.048 A 
ATOM     32  C   UNL A   1      29.147  31.024  21.981  1.00  0.00     0.044 C 
ATOM     33  C   UNL A   1      27.024  29.324  23.304  1.00  0.00     0.044 C 
ENDBRANCH  23  26
ENDBRANCH  21  23
ENDBRANCH  20  21
ENDBRANCH  10  20
ENDBRANCH   7   9
ENDBRANCH   6   7
ENDBRANCH   5   6
ENDBRANCH   4   5
ENDBRANCH   3   4
ENDBRANCH   2   3
ENDBRANCH   1   2
BRANCH   1  34
ATOM     34  O   UNL A   1      34.395  31.234  27.751  1.00  0.00    -0.377 OA
BRANCH  34  35
ATOM     35  C   UNL A   1      34.951  32.136  28.700  1.00  0.00     0.188 C 
BRANCH  35  36
ATOM     36  C   UNL A   1      34.222  33.451  29.016  1.00  0.00     0.188 C 
BRANCH  36  37
ATOM     37  O   UNL A   1      34.638  34.559  28.224  1.00  0.00    -0.376 OA
BRANCH  37  38
ATOM     38  C   UNL A   1      34.069  35.818  28.560  1.00  0.00     0.202 C 
BRANCH  38  39
ATOM     39  C   UNL A   1      32.903  35.725  29.551  1.00  0.00     0.261 C 
BRANCH  39  40
ATOM     40  O   UNL A   1      33.179  36.286  30.844  1.00  0.00    -0.460 OA
BRANCH  40  41
ATOM     41  C   UNL A   1      32.740  35.592  31.915  1.00  0.00     0.338 C 
ATOM     42  O   UNL A   1      31.589  35.397  32.258  1.00  0.00    -0.246 OA
BRANCH  41  43
ATOM     43  C   UNL A   1      33.906  34.952  32.541  1.00  0.00     0.060 A 
ATOM     44  C   UNL A   1      35.152  35.581  32.439  1.00  0.00     0.016 A 
ATOM     45  C   UNL A   1      33.771  33.722  33.188  1.00  0.00     0.016 A 
ATOM     46  C   UNL A   1      36.287  34.948  32.945  1.00  0.00     0.010 A 
ATOM     47  C   UNL A   1      34.909  33.078  33.670  1.00  0.00     0.010 A 
ATOM     48  C   UNL A   1      36.172  33.671  33.512  1.00  0.00    -0.014 A 
BRANCH  48  49
ATOM     49  C   UNL A   1      37.383  32.848  33.715  1.00  0.00     0.031 A 
ATOM     50  C   UNL A   1      38.187  33.075  34.966  1.00  0.00     0.074 A 
ATOM     51  C   UNL A   1      37.777  31.942  32.806  1.00  0.00     0.049 A 
ATOM     52  N   UNL A   1      39.303  32.511  35.349  1.00  0.00    -0.248 NA
ATOM     53  C   UNL A   1      37.658  34.074  35.912  1.00  0.00     0.031 C 
ATOM     54  C   UNL A   1      37.068  31.611  31.571  1.00  0.00     0.029 A 
ATOM     55  N   UNL A   1      38.891  31.142  32.784  1.00  0.00    -0.354 N 
ATOM     56  C   UNL A   1      39.600  33.074  36.582  1.00  0.00     0.074 A 
ATOM     57  C   UNL A   1      38.563  34.037  36.878  1.00  0.00     0.031 C 
ATOM     58  C   UNL A   1      37.778  30.685  30.900  1.00  0.00     0.029 A 
ATOM     59  C   UNL A   1      38.996  30.381  31.648  1.00  0.00     0.049 A 
ATOM     60  H   UNL A   1      39.551  31.117  33.513  1.00  0.00     0.167 HD
ATOM     61  C   UNL A   1      40.646  32.818  37.400  1.00  0.00     0.031 A 
ATOM     62  C   UNL A   1      39.980  29.552  31.251  1.00  0.00     0.031 A 
ATOM     63  C   UNL A   1      41.708  31.904  37.090  1.00  0.00     0.049 A 
ATOM     64  C   UNL A   1      41.187  29.360  32.131  1.00  0.00     0.074 A 
ATOM     65  C   UNL A   1      42.817  31.579  37.848  1.00  0.00     0.029 A 
ATOM     66  N   UNL A   1      41.799  31.185  35.910  1.00  0.00    -0.354 N 
ATOM     67  N   UNL A   1      41.439  29.870  33.311  1.00  0.00    -0.248 NA
ATOM     68  C   UNL A   1      42.247  28.480  31.616  1.00  0.00     0.031 C 
ATOM     69  C   UNL A   1      43.604  30.690  37.106  1.00  0.00     0.029 A 
ATOM     70  C   UNL A   1      42.961  30.438  35.904  1.00  0.00     0.049 A 
ATOM     71  H   UNL A   1      41.135  31.204  35.183  1.00  0.00     0.167 HD
ATOM     72  C   UNL A   1      42.675  29.360  33.688  1.00  0.00     0.074 A 
ATOM     73  C   UNL A   1      43.118  28.494  32.616  1.00  0.00     0.031 C 
ATOM     74  C   UNL A   1      43.382  29.586  34.823  1.00  0.00     0.031 A 
BRANCH  61  75
ATOM     75  C   UNL A   1      40.695  33.575  38.692  1.00  0.00    -0.014 A 
ATOM     76  C   UNL A   1      40.057  33.079  39.840  1.00  0.00     0.009 A 
ATOM     77  C   UNL A   1      41.373  34.800  38.760  1.00  0.00     0.009 A 
ATOM     78  C   UNL A   1      40.076  33.811  41.027  1.00  0.00     0.001 A 
ATOM     79  C   UNL A   1      41.403  35.522  39.954  1.00  0.00     0.001 A 
ATOM     80  C   UNL A   1      40.749  35.031  41.084  1.00  0.00     0.000 A 
ENDBRANCH  61  75
BRANCH  62  81
ATOM     81  C   UNL A   1      39.887  28.855  29.944  1.00  0.00    -0.014 A 
ATOM     82  C   UNL A   1      40.554  29.362  28.819  1.00  0.00     0.009 A 
ATOM     83  C   UNL A   1      39.110  27.695  29.811  1.00  0.00     0.009 A 
ATOM     84  C   UNL A   1      40.426  28.730  27.579  1.00  0.00     0.001 A 
ATOM     85  C   UNL A   1      39.000  27.055  28.575  1.00  0.00     0.001 A 
ATOM     86  C   UNL A   1      39.652  27.576  27.459  1.00  0.00     0.000 A 
ENDBRANCH  62  81
BRANCH  74  87
ATOM     87  C   UNL A   1      44.692  28.872  34.968  1.00  0.00    -0.014 A 
ATOM     88  C   UNL A   1      45.879  29.434  34.475  1.00  0.00     0.009 A 
ATOM     89  C   UNL A   1      44.746  27.648  35.653  1.00  0.00     0.009 A 
ATOM     90  C   UNL A   1      47.095  28.771  34.646  1.00  0.00     0.001 A 
ATOM     91  C   UNL A   1      45.966  26.998  35.840  1.00  0.00     0.001 A 
ATOM     92  C   UNL A   1      47.138  27.556  35.332  1.00  0.00     0.000 A 
ENDBRANCH  74  87
ENDBRANCH  48  49
ENDBRANCH  41  43
ENDBRANCH  40  41
ENDBRANCH  39  40
ENDBRANCH  38  39
ENDBRANCH  37  38
ENDBRANCH  36  37
ENDBRANCH  35  36
ENDBRANCH  34  35
ENDBRANCH   1  34
TORSDOF 25
ENDMDL
