MODEL 1
REMARK VINA RESULT:      -8.9      0.000      0.000
REMARK SMILES CCc1ccc(OCC(=O)Nc2cc(C)c(O)c(C(=O)OCCOCCOCCOCCOC(=O)c3ccc(-c4c5nc(c(-c6ccccc6)c6ccc([nH]6)c(-c6ccccc6)c6nc(c(-c7ccccc7)c7ccc4[nH]7)C=C6)C=C5)cc3)c2)cc1
REMARK SMILES IDX 25 1 24 2 23 3 22 4 21 5 19 6 20 7 18 8 12 9 13 10 84 11
REMARK SMILES IDX 14 12 15 13 16 14 11 15 9 16 10 17 8 19 7 20 6 21 3 22 4 23
REMARK SMILES IDX 86 24 5 25 85 26 2 27 1 28 17 29 26 31 27 32 28 33 29 34
REMARK SMILES IDX 30 35 31 36 32 37 33 38 34 39 35 40 36 41 37 42 83 43 38 44
REMARK SMILES IDX 82 45 39 46 40 47 41 48 76 49 42 50 81 51 75 52 77 53 43 54
REMARK SMILES IDX 80 55 74 56 73 57 44 59 66 60 51 61 65 62 52 63 55 64 64 65
REMARK SMILES IDX 78 66 53 67 54 68 63 70 79 71 56 72 45 73 46 74 50 75 47 76
REMARK SMILES IDX 49 77 48 78 67 79 68 80 72 81 69 82 71 83 70 84 57 85 58 86
REMARK SMILES IDX 62 87 59 88 61 89 60 90
REMARK H PARENT 11 18 17 30 77 58 55 69
REMARK Flexibility Score: inf
ROOT
ATOM      1  C   UNL A   1      36.185  31.077  28.405  1.00  0.00     0.188 C 
ENDROOT
BRANCH   1   2
ATOM      2  O   UNL A   1      35.077  31.951  28.255  1.00  0.00    -0.376 OA
BRANCH   2   3
ATOM      3  C   UNL A   1      34.081  31.703  27.288  1.00  0.00     0.202 C 
BRANCH   3   4
ATOM      4  C   UNL A   1      33.648  30.250  27.087  1.00  0.00     0.261 C 
BRANCH   4   5
ATOM      5  O   UNL A   1      32.254  30.051  26.837  1.00  0.00    -0.460 OA
BRANCH   5   6
ATOM      6  C   UNL A   1      31.753  28.802  26.960  1.00  0.00     0.342 C 
ATOM      7  O   UNL A   1      31.530  28.196  27.994  1.00  0.00    -0.246 OA
BRANCH   6   8
ATOM      8  C   UNL A   1      31.270  28.362  25.628  1.00  0.00     0.104 A 
ATOM      9  C   UNL A   1      30.946  26.543  24.048  1.00  0.00     0.042 A 
ATOM     10  C   UNL A   1      30.643  27.492  23.064  1.00  0.00     0.033 A 
ATOM     11  C   UNL A   1      31.295  26.999  25.309  1.00  0.00     0.045 A 
ATOM     12  C   UNL A   1      30.632  28.872  23.352  1.00  0.00    -0.006 A 
ATOM     13  C   UNL A   1      30.274  29.843  22.261  1.00  0.00     0.048 C 
ATOM     14  C   UNL A   1      30.911  29.297  24.657  1.00  0.00     0.133 A 
BRANCH   9  15
ATOM     15  N   UNL A   1      30.916  25.188  23.682  1.00  0.00    -0.323 N 
ATOM     16  C   UNL A   1      31.551  24.472  22.705  1.00  0.00     0.262 C 
ATOM     17  O   UNL A   1      31.284  23.264  22.630  1.00  0.00    -0.271 OA
ATOM     18  H   UNL A   1      30.316  24.644  24.241  1.00  0.00     0.170 HD
BRANCH  16  19
ATOM     19  C   UNL A   1      32.650  25.071  21.805  1.00  0.00     0.329 C 
BRANCH  19  20
ATOM     20  O   UNL A   1      33.996  25.147  22.245  1.00  0.00    -0.484 OA
BRANCH  20  21
ATOM     21  C   UNL A   1      34.332  24.433  23.356  1.00  0.00     0.120 A 
ATOM     22  C   UNL A   1      35.049  22.793  25.509  1.00  0.00    -0.048 A 
ATOM     23  C   UNL A   1      34.995  22.268  24.212  1.00  0.00     0.007 A 
ATOM     24  C   UNL A   1      34.757  24.146  25.710  1.00  0.00     0.007 A 
ATOM     25  C   UNL A   1      34.640  23.088  23.142  1.00  0.00     0.047 A 
ATOM     26  C   UNL A   1      34.412  24.965  24.637  1.00  0.00     0.047 A 
BRANCH  22  27
ATOM     27  C   UNL A   1      35.409  21.929  26.687  1.00  0.00     0.032 C 
ATOM     28  C   UNL A   1      34.200  21.632  27.550  1.00  0.00     0.009 C 
ENDBRANCH  22  27
ENDBRANCH  20  21
ENDBRANCH  19  20
ENDBRANCH  16  19
ENDBRANCH   9  15
BRANCH  14  29
ATOM     29  O   UNL A   1      30.879  30.640  24.923  1.00  0.00    -0.507 OA
ATOM     30  H   UNL A   1      30.098  31.132  24.759  1.00  0.00     0.293 HD
ENDBRANCH  14  29
ENDBRANCH   6   8
ENDBRANCH   5   6
ENDBRANCH   4   5
ENDBRANCH   3   4
ENDBRANCH   2   3
ENDBRANCH   1   2
BRANCH   1  31
ATOM     31  C   UNL A   1      36.211  30.339  29.768  1.00  0.00     0.188 C 
BRANCH  31  32
ATOM     32  O   UNL A   1      36.992  30.799  30.872  1.00  0.00    -0.377 OA
BRANCH  32  33
ATOM     33  C   UNL A   1      36.315  31.350  31.992  1.00  0.00     0.188 C 
BRANCH  33  34
ATOM     34  C   UNL A   1      34.970  32.009  31.620  1.00  0.00     0.188 C 
BRANCH  34  35
ATOM     35  O   UNL A   1      35.049  33.423  31.529  1.00  0.00    -0.376 OA
BRANCH  35  36
ATOM     36  C   UNL A   1      34.750  34.207  32.673  1.00  0.00     0.202 C 
BRANCH  36  37
ATOM     37  C   UNL A   1      35.839  34.577  33.696  1.00  0.00     0.261 C 
BRANCH  37  38
ATOM     38  O   UNL A   1      37.084  35.075  33.183  1.00  0.00    -0.460 OA
BRANCH  38  39
ATOM     39  C   UNL A   1      38.222  34.698  33.791  1.00  0.00     0.338 C 
ATOM     40  O   UNL A   1      38.585  34.957  34.931  1.00  0.00    -0.246 OA
BRANCH  39  41
ATOM     41  C   UNL A   1      38.908  33.768  32.878  1.00  0.00     0.060 A 
ATOM     42  C   UNL A   1      39.593  32.653  33.383  1.00  0.00     0.016 A 
ATOM     43  C   UNL A   1      38.863  34.006  31.507  1.00  0.00     0.016 A 
ATOM     44  C   UNL A   1      40.259  31.784  32.515  1.00  0.00     0.010 A 
ATOM     45  C   UNL A   1      39.554  33.152  30.648  1.00  0.00     0.010 A 
ATOM     46  C   UNL A   1      40.277  32.049  31.142  1.00  0.00    -0.014 A 
BRANCH  46  47
ATOM     47  C   UNL A   1      41.242  31.350  30.254  1.00  0.00     0.031 A 
ATOM     48  C   UNL A   1      42.522  32.075  29.915  1.00  0.00     0.074 A 
ATOM     49  C   UNL A   1      41.024  30.112  29.769  1.00  0.00     0.049 A 
ATOM     50  N   UNL A   1      43.501  31.716  29.126  1.00  0.00    -0.248 NA
ATOM     51  C   UNL A   1      42.706  33.400  30.533  1.00  0.00     0.031 C 
ATOM     52  C   UNL A   1      39.850  29.282  30.033  1.00  0.00     0.029 A 
ATOM     53  N   UNL A   1      41.801  29.334  28.944  1.00  0.00    -0.354 N 
ATOM     54  C   UNL A   1      44.390  32.784  29.130  1.00  0.00     0.074 A 
ATOM     55  C   UNL A   1      43.806  33.827  29.941  1.00  0.00     0.031 C 
ATOM     56  C   UNL A   1      39.990  28.107  29.390  1.00  0.00     0.029 A 
ATOM     57  C   UNL A   1      41.251  28.108  28.654  1.00  0.00     0.049 A 
ATOM     58  H   UNL A   1      42.673  29.629  28.593  1.00  0.00     0.167 HD
ATOM     59  C   UNL A   1      45.603  32.887  28.543  1.00  0.00     0.031 A 
ATOM     60  C   UNL A   1      41.719  27.106  27.882  1.00  0.00     0.031 A 
ATOM     61  C   UNL A   1      46.210  31.843  27.766  1.00  0.00     0.049 A 
ATOM     62  C   UNL A   1      43.059  27.258  27.203  1.00  0.00     0.074 A 
ATOM     63  C   UNL A   1      47.454  31.830  27.164  1.00  0.00     0.029 A 
ATOM     64  N   UNL A   1      45.613  30.624  27.490  1.00  0.00    -0.354 N 
ATOM     65  N   UNL A   1      43.910  28.256  27.255  1.00  0.00    -0.248 NA
ATOM     66  C   UNL A   1      43.512  26.129  26.376  1.00  0.00     0.031 C 
ATOM     67  C   UNL A   1      47.589  30.621  26.475  1.00  0.00     0.029 A 
ATOM     68  C   UNL A   1      46.459  29.855  26.710  1.00  0.00     0.049 A 
ATOM     69  H   UNL A   1      44.722  30.346  27.803  1.00  0.00     0.167 HD
ATOM     70  C   UNL A   1      45.017  27.850  26.515  1.00  0.00     0.074 A 
ATOM     71  C   UNL A   1      44.733  26.514  26.035  1.00  0.00     0.031 C 
ATOM     72  C   UNL A   1      46.169  28.519  26.259  1.00  0.00     0.031 A 
BRANCH  59  73
ATOM     73  C   UNL A   1      46.338  34.188  28.711  1.00  0.00    -0.014 A 
ATOM     74  C   UNL A   1      47.212  34.404  29.789  1.00  0.00     0.009 A 
ATOM     75  C   UNL A   1      46.146  35.216  27.776  1.00  0.00     0.009 A 
ATOM     76  C   UNL A   1      47.839  35.640  29.955  1.00  0.00     0.001 A 
ATOM     77  C   UNL A   1      46.804  36.437  27.923  1.00  0.00     0.001 A 
ATOM     78  C   UNL A   1      47.638  36.653  29.019  1.00  0.00     0.000 A 
ENDBRANCH  59  73
BRANCH  60  79
ATOM     79  C   UNL A   1      40.943  25.845  27.709  1.00  0.00    -0.014 A 
ATOM     80  C   UNL A   1      41.375  24.653  28.315  1.00  0.00     0.009 A 
ATOM     81  C   UNL A   1      39.814  25.804  26.877  1.00  0.00     0.009 A 
ATOM     82  C   UNL A   1      40.726  23.443  28.054  1.00  0.00     0.001 A 
ATOM     83  C   UNL A   1      39.145  24.599  26.644  1.00  0.00     0.001 A 
ATOM     84  C   UNL A   1      39.610  23.418  27.220  1.00  0.00     0.000 A 
ENDBRANCH  60  79
BRANCH  72  85
ATOM     85  C   UNL A   1      47.241  27.790  25.495  1.00  0.00    -0.014 A 
ATOM     86  C   UNL A   1      48.199  26.991  26.138  1.00  0.00     0.009 A 
ATOM     87  C   UNL A   1      47.268  27.885  24.094  1.00  0.00     0.009 A 
ATOM     88  C   UNL A   1      49.194  26.347  25.397  1.00  0.00     0.001 A 
ATOM     89  C   UNL A   1      48.239  27.209  23.353  1.00  0.00     0.001 A 
ATOM     90  C   UNL A   1      49.210  26.453  24.007  1.00  0.00     0.000 A 
ENDBRANCH  72  85
ENDBRANCH  46  47
ENDBRANCH  39  41
ENDBRANCH  38  39
ENDBRANCH  37  38
ENDBRANCH  36  37
ENDBRANCH  35  36
ENDBRANCH  34  35
ENDBRANCH  33  34
ENDBRANCH  32  33
ENDBRANCH  31  32
ENDBRANCH   1  31
TORSDOF 26
ENDMDL
MODEL 2
REMARK VINA RESULT:      -8.5      4.448     10.265
REMARK SMILES CCc1ccc(OCC(=O)Nc2cc(C)c(O)c(C(=O)OCCOCCOCCOCCOC(=O)c3ccc(-c4c5nc(c(-c6ccccc6)c6ccc([nH]6)c(-c6ccccc6)c6nc(c(-c7ccccc7)c7ccc4[nH]7)C=C6)C=C5)cc3)c2)cc1
REMARK SMILES IDX 25 1 24 2 23 3 22 4 21 5 19 6 20 7 18 8 12 9 13 10 84 11
REMARK SMILES IDX 14 12 15 13 16 14 11 15 9 16 10 17 8 19 7 20 6 21 3 22 4 23
REMARK SMILES IDX 86 24 5 25 85 26 2 27 1 28 17 29 26 31 27 32 28 33 29 34
REMARK SMILES IDX 30 35 31 36 32 37 33 38 34 39 35 40 36 41 37 42 83 43 38 44
REMARK SMILES IDX 82 45 39 46 40 47 41 48 76 49 42 50 81 51 75 52 77 53 43 54
REMARK SMILES IDX 80 55 74 56 73 57 44 59 66 60 51 61 65 62 52 63 55 64 64 65
REMARK SMILES IDX 78 66 53 67 54 68 63 70 79 71 56 72 45 73 46 74 50 75 47 76
REMARK SMILES IDX 49 77 48 78 67 79 68 80 72 81 69 82 71 83 70 84 57 85 58 86
REMARK SMILES IDX 62 87 59 88 61 89 60 90
REMARK H PARENT 11 18 17 30 77 58 55 69
REMARK Flexibility Score: inf
ROOT
ATOM      1  C   UNL A   1      39.999  19.658  26.048  1.00  0.00     0.188 C 
ENDROOT
BRANCH   1   2
ATOM      2  O   UNL A   1      39.293  20.887  25.971  1.00  0.00    -0.376 OA
BRANCH   2   3
ATOM      3  C   UNL A   1      38.006  20.953  25.401  1.00  0.00     0.202 C 
BRANCH   3   4
ATOM      4  C   UNL A   1      37.423  22.345  25.150  1.00  0.00     0.261 C 
BRANCH   4   5
ATOM      5  O   UNL A   1      36.390  22.752  26.052  1.00  0.00    -0.460 OA
BRANCH   5   6
ATOM      6  C   UNL A   1      35.217  22.082  26.027  1.00  0.00     0.342 C 
ATOM      7  O   UNL A   1      34.693  21.477  26.947  1.00  0.00    -0.246 OA
BRANCH   6   8
ATOM      8  C   UNL A   1      34.523  22.407  24.757  1.00  0.00     0.104 A 
ATOM      9  C   UNL A   1      33.929  24.084  23.100  1.00  0.00     0.042 A 
ATOM     10  C   UNL A   1      33.033  23.166  22.537  1.00  0.00     0.033 A 
ATOM     11  C   UNL A   1      34.633  23.699  24.230  1.00  0.00     0.045 A 
ATOM     12  C   UNL A   1      32.886  21.866  23.060  1.00  0.00    -0.006 A 
ATOM     13  C   UNL A   1      31.927  20.916  22.398  1.00  0.00     0.048 C 
ATOM     14  C   UNL A   1      33.670  21.481  24.155  1.00  0.00     0.133 A 
BRANCH   9  15
ATOM     15  N   UNL A   1      34.029  25.351  22.506  1.00  0.00    -0.323 N 
ATOM     16  C   UNL A   1      33.104  26.201  21.962  1.00  0.00     0.262 C 
ATOM     17  O   UNL A   1      33.529  27.264  21.488  1.00  0.00    -0.271 OA
ATOM     18  H   UNL A   1      34.949  25.699  22.473  1.00  0.00     0.170 HD
BRANCH  16  19
ATOM     19  C   UNL A   1      31.586  25.947  22.033  1.00  0.00     0.329 C 
BRANCH  19  20
ATOM     20  O   UNL A   1      30.849  26.237  23.210  1.00  0.00    -0.484 OA
BRANCH  20  21
ATOM     21  C   UNL A   1      30.487  27.535  23.415  1.00  0.00     0.120 A 
ATOM     22  C   UNL A   1      29.567  30.162  23.717  1.00  0.00    -0.048 A 
ATOM     23  C   UNL A   1      28.841  29.247  22.945  1.00  0.00     0.007 A 
ATOM     24  C   UNL A   1      30.744  29.743  24.346  1.00  0.00     0.007 A 
ATOM     25  C   UNL A   1      29.301  27.938  22.799  1.00  0.00     0.047 A 
ATOM     26  C   UNL A   1      31.195  28.432  24.206  1.00  0.00     0.047 A 
BRANCH  22  27
ATOM     27  C   UNL A   1      29.108  31.586  23.876  1.00  0.00     0.032 C 
ATOM     28  C   UNL A   1      27.655  31.750  23.485  1.00  0.00     0.009 C 
ENDBRANCH  22  27
ENDBRANCH  20  21
ENDBRANCH  19  20
ENDBRANCH  16  19
ENDBRANCH   9  15
BRANCH  14  29
ATOM     29  O   UNL A   1      33.527  20.208  24.639  1.00  0.00    -0.507 OA
ATOM     30  H   UNL A   1      32.893  19.630  24.261  1.00  0.00     0.293 HD
ENDBRANCH  14  29
ENDBRANCH   6   8
ENDBRANCH   5   6
ENDBRANCH   4   5
ENDBRANCH   3   4
ENDBRANCH   2   3
ENDBRANCH   1   2
BRANCH   1  31
ATOM     31  C   UNL A   1      41.500  19.827  26.395  1.00  0.00     0.188 C 
BRANCH  31  32
ATOM     32  O   UNL A   1      41.960  20.774  27.361  1.00  0.00    -0.377 OA
BRANCH  32  33
ATOM     33  C   UNL A   1      43.042  21.623  27.008  1.00  0.00     0.188 C 
BRANCH  33  34
ATOM     34  C   UNL A   1      43.134  21.885  25.490  1.00  0.00     0.188 C 
BRANCH  34  35
ATOM     35  O   UNL A   1      43.489  23.223  25.176  1.00  0.00    -0.376 OA
BRANCH  35  36
ATOM     36  C   UNL A   1      42.753  24.288  25.757  1.00  0.00     0.202 C 
BRANCH  36  37
ATOM     37  C   UNL A   1      42.530  25.610  25.002  1.00  0.00     0.261 C 
BRANCH  37  38
ATOM     38  O   UNL A   1      41.661  26.579  25.609  1.00  0.00    -0.460 OA
BRANCH  38  39
ATOM     39  C   UNL A   1      42.037  27.869  25.602  1.00  0.00     0.338 C 
ATOM     40  O   UNL A   1      42.272  28.577  24.631  1.00  0.00    -0.246 OA
BRANCH  39  41
ATOM     41  C   UNL A   1      41.966  28.344  26.994  1.00  0.00     0.060 A 
ATOM     42  C   UNL A   1      41.337  27.567  27.979  1.00  0.00     0.016 A 
ATOM     43  C   UNL A   1      42.536  29.570  27.323  1.00  0.00     0.016 A 
ATOM     44  C   UNL A   1      41.255  28.029  29.294  1.00  0.00     0.010 A 
ATOM     45  C   UNL A   1      42.426  30.041  28.631  1.00  0.00     0.010 A 
ATOM     46  C   UNL A   1      41.764  29.289  29.622  1.00  0.00    -0.014 A 
BRANCH  46  47
ATOM     47  C   UNL A   1      41.394  29.939  30.907  1.00  0.00     0.031 A 
ATOM     48  C   UNL A   1      42.368  29.811  32.053  1.00  0.00     0.074 A 
ATOM     49  C   UNL A   1      40.254  30.638  31.071  1.00  0.00     0.049 A 
ATOM     50  N   UNL A   1      42.267  30.233  33.287  1.00  0.00    -0.248 NA
ATOM     51  C   UNL A   1      43.616  29.079  31.771  1.00  0.00     0.031 C 
ATOM     52  C   UNL A   1      39.235  30.869  30.049  1.00  0.00     0.029 A 
ATOM     53  N   UNL A   1      39.766  31.289  32.179  1.00  0.00    -0.354 N 
ATOM     54  C   UNL A   1      43.418  29.787  33.926  1.00  0.00     0.074 A 
ATOM     55  C   UNL A   1      44.167  29.007  32.969  1.00  0.00     0.031 C 
ATOM     56  C   UNL A   1      38.248  31.618  30.575  1.00  0.00     0.029 A 
ATOM     57  C   UNL A   1      38.553  31.904  31.975  1.00  0.00     0.049 A 
ATOM     58  H   UNL A   1      40.242  31.313  33.040  1.00  0.00     0.167 HD
ATOM     59  C   UNL A   1      43.840  30.028  35.187  1.00  0.00     0.031 A 
ATOM     60  C   UNL A   1      37.784  32.614  32.825  1.00  0.00     0.031 A 
ATOM     61  C   UNL A   1      43.122  30.833  36.134  1.00  0.00     0.049 A 
ATOM     62  C   UNL A   1      38.258  32.837  34.241  1.00  0.00     0.074 A 
ATOM     63  C   UNL A   1      43.485  31.174  37.424  1.00  0.00     0.029 A 
ATOM     64  N   UNL A   1      41.895  31.426  35.888  1.00  0.00    -0.354 N 
ATOM     65  N   UNL A   1      39.370  32.448  34.818  1.00  0.00    -0.248 NA
ATOM     66  C   UNL A   1      37.373  33.620  35.117  1.00  0.00     0.031 C 
ATOM     67  C   UNL A   1      42.448  31.931  37.979  1.00  0.00     0.029 A 
ATOM     68  C   UNL A   1      41.477  32.119  37.010  1.00  0.00     0.049 A 
ATOM     69  H   UNL A   1      41.396  31.365  35.042  1.00  0.00     0.167 HD
ATOM     70  C   UNL A   1      39.341  32.986  36.101  1.00  0.00     0.074 A 
ATOM     71  C   UNL A   1      38.107  33.735  36.213  1.00  0.00     0.031 C 
ATOM     72  C   UNL A   1      40.255  32.876  37.097  1.00  0.00     0.031 A 
BRANCH  59  73
ATOM     73  C   UNL A   1      45.135  29.391  35.609  1.00  0.00    -0.014 A 
ATOM     74  C   UNL A   1      45.159  28.234  36.405  1.00  0.00     0.009 A 
ATOM     75  C   UNL A   1      46.351  29.965  35.209  1.00  0.00     0.009 A 
ATOM     76  C   UNL A   1      46.374  27.693  36.831  1.00  0.00     0.001 A 
ATOM     77  C   UNL A   1      47.563  29.400  35.604  1.00  0.00     0.001 A 
ATOM     78  C   UNL A   1      47.574  28.274  36.425  1.00  0.00     0.000 A 
ENDBRANCH  59  73
BRANCH  60  79
ATOM     79  C   UNL A   1      36.487  33.199  32.379  1.00  0.00    -0.014 A 
ATOM     80  C   UNL A   1      36.416  34.539  31.961  1.00  0.00     0.009 A 
ATOM     81  C   UNL A   1      35.302  32.451  32.443  1.00  0.00     0.009 A 
ATOM     82  C   UNL A   1      35.185  35.129  31.663  1.00  0.00     0.001 A 
ATOM     83  C   UNL A   1      34.075  33.034  32.113  1.00  0.00     0.001 A 
ATOM     84  C   UNL A   1      34.015  34.376  31.739  1.00  0.00     0.000 A 
ENDBRANCH  60  79
BRANCH  72  85
ATOM     85  C   UNL A   1      39.998  33.648  38.364  1.00  0.00    -0.014 A 
ATOM     86  C   UNL A   1      40.527  34.931  38.573  1.00  0.00     0.009 A 
ATOM     87  C   UNL A   1      39.181  33.082  39.357  1.00  0.00     0.009 A 
ATOM     88  C   UNL A   1      40.286  35.607  39.772  1.00  0.00     0.001 A 
ATOM     89  C   UNL A   1      38.909  33.776  40.536  1.00  0.00     0.001 A 
ATOM     90  C   UNL A   1      39.475  35.031  40.749  1.00  0.00     0.000 A 
ENDBRANCH  72  85
ENDBRANCH  46  47
ENDBRANCH  39  41
ENDBRANCH  38  39
ENDBRANCH  37  38
ENDBRANCH  36  37
ENDBRANCH  35  36
ENDBRANCH  34  35
ENDBRANCH  33  34
ENDBRANCH  32  33
ENDBRANCH  31  32
ENDBRANCH   1  31
TORSDOF 26
ENDMDL
MODEL 3
REMARK VINA RESULT:      -8.5      3.275      4.321
REMARK SMILES CCc1ccc(OCC(=O)Nc2cc(C)c(O)c(C(=O)OCCOCCOCCOCCOC(=O)c3ccc(-c4c5nc(c(-c6ccccc6)c6ccc([nH]6)c(-c6ccccc6)c6nc(c(-c7ccccc7)c7ccc4[nH]7)C=C6)C=C5)cc3)c2)cc1
REMARK SMILES IDX 25 1 24 2 23 3 22 4 21 5 19 6 20 7 18 8 12 9 13 10 84 11
REMARK SMILES IDX 14 12 15 13 16 14 11 15 9 16 10 17 8 19 7 20 6 21 3 22 4 23
REMARK SMILES IDX 86 24 5 25 85 26 2 27 1 28 17 29 26 31 27 32 28 33 29 34
REMARK SMILES IDX 30 35 31 36 32 37 33 38 34 39 35 40 36 41 37 42 83 43 38 44
REMARK SMILES IDX 82 45 39 46 40 47 41 48 76 49 42 50 81 51 75 52 77 53 43 54
REMARK SMILES IDX 80 55 74 56 73 57 44 59 66 60 51 61 65 62 52 63 55 64 64 65
REMARK SMILES IDX 78 66 53 67 54 68 63 70 79 71 56 72 45 73 46 74 50 75 47 76
REMARK SMILES IDX 49 77 48 78 67 79 68 80 72 81 69 82 71 83 70 84 57 85 58 86
REMARK SMILES IDX 62 87 59 88 61 89 60 90
REMARK H PARENT 11 18 17 30 77 58 55 69
REMARK Flexibility Score: inf
ROOT
ATOM      1  C   UNL A   1      35.085  32.155  27.978  1.00  0.00     0.188 C 
ENDROOT
BRANCH   1   2
ATOM      2  O   UNL A   1      33.959  31.313  27.781  1.00  0.00    -0.376 OA
BRANCH   2   3
ATOM      3  C   UNL A   1      34.028  30.194  26.926  1.00  0.00     0.202 C 
BRANCH   3   4
ATOM      4  C   UNL A   1      33.272  28.937  27.359  1.00  0.00     0.261 C 
BRANCH   4   5
ATOM      5  O   UNL A   1      33.376  27.820  26.471  1.00  0.00    -0.460 OA
BRANCH   5   6
ATOM      6  C   UNL A   1      32.375  26.911  26.466  1.00  0.00     0.342 C 
ATOM      7  O   UNL A   1      31.353  26.936  27.130  1.00  0.00    -0.246 OA
BRANCH   6   8
ATOM      8  C   UNL A   1      32.592  25.988  25.325  1.00  0.00     0.104 A 
ATOM      9  C   UNL A   1      33.172  23.756  24.557  1.00  0.00     0.042 A 
ATOM     10  C   UNL A   1      33.279  24.264  23.257  1.00  0.00     0.033 A 
ATOM     11  C   UNL A   1      32.868  24.640  25.580  1.00  0.00     0.045 A 
ATOM     12  C   UNL A   1      33.028  25.622  22.974  1.00  0.00    -0.006 A 
ATOM     13  C   UNL A   1      33.133  26.105  21.554  1.00  0.00     0.048 C 
ATOM     14  C   UNL A   1      32.644  26.474  24.017  1.00  0.00     0.133 A 
BRANCH   9  15
ATOM     15  N   UNL A   1      33.420  22.388  24.748  1.00  0.00    -0.323 N 
ATOM     16  C   UNL A   1      34.548  21.621  24.643  1.00  0.00     0.262 C 
ATOM     17  O   UNL A   1      34.426  20.407  24.861  1.00  0.00    -0.271 OA
ATOM     18  H   UNL A   1      32.621  21.877  25.011  1.00  0.00     0.170 HD
BRANCH  16  19
ATOM     19  C   UNL A   1      35.948  22.217  24.394  1.00  0.00     0.329 C 
BRANCH  19  20
ATOM     20  O   UNL A   1      37.120  21.523  24.790  1.00  0.00    -0.484 OA
BRANCH  20  21
ATOM     21  C   UNL A   1      38.016  22.202  25.561  1.00  0.00     0.120 A 
ATOM     22  C   UNL A   1      39.714  23.758  27.154  1.00  0.00    -0.048 A 
ATOM     23  C   UNL A   1      38.467  24.257  26.757  1.00  0.00     0.007 A 
ATOM     24  C   UNL A   1      40.090  22.469  26.760  1.00  0.00     0.007 A 
ATOM     25  C   UNL A   1      37.624  23.479  25.966  1.00  0.00     0.047 A 
ATOM     26  C   UNL A   1      39.240  21.690  25.978  1.00  0.00     0.047 A 
BRANCH  22  27
ATOM     27  C   UNL A   1      40.655  24.581  27.990  1.00  0.00     0.032 C 
ATOM     28  C   UNL A   1      41.834  23.761  28.473  1.00  0.00     0.009 C 
ENDBRANCH  22  27
ENDBRANCH  20  21
ENDBRANCH  19  20
ENDBRANCH  16  19
ENDBRANCH   9  15
BRANCH  14  29
ATOM     29  O   UNL A   1      32.387  27.786  23.722  1.00  0.00    -0.507 OA
ATOM     30  H   UNL A   1      33.002  28.283  23.218  1.00  0.00     0.293 HD
ENDBRANCH  14  29
ENDBRANCH   6   8
ENDBRANCH   5   6
ENDBRANCH   4   5
ENDBRANCH   3   4
ENDBRANCH   2   3
ENDBRANCH   1   2
BRANCH   1  31
ATOM     31  C   UNL A   1      35.247  32.638  29.441  1.00  0.00     0.188 C 
BRANCH  31  32
ATOM     32  O   UNL A   1      36.520  32.717  30.084  1.00  0.00    -0.377 OA
BRANCH  32  33
ATOM     33  C   UNL A   1      36.685  33.654  31.139  1.00  0.00     0.188 C 
BRANCH  33  34
ATOM     34  C   UNL A   1      35.367  34.354  31.535  1.00  0.00     0.188 C 
BRANCH  34  35
ATOM     35  O   UNL A   1      35.534  35.309  32.571  1.00  0.00    -0.376 OA
BRANCH  35  36
ATOM     36  C   UNL A   1      34.950  35.061  33.840  1.00  0.00     0.202 C 
BRANCH  36  37
ATOM     37  C   UNL A   1      35.613  34.113  34.855  1.00  0.00     0.261 C 
BRANCH  37  38
ATOM     38  O   UNL A   1      37.017  33.857  34.699  1.00  0.00    -0.460 OA
BRANCH  38  39
ATOM     39  C   UNL A   1      37.553  32.813  35.354  1.00  0.00     0.338 C 
ATOM     40  O   UNL A   1      37.152  32.287  36.384  1.00  0.00    -0.246 OA
BRANCH  39  41
ATOM     41  C   UNL A   1      38.649  32.297  34.515  1.00  0.00     0.060 A 
ATOM     42  C   UNL A   1      38.381  31.404  33.468  1.00  0.00     0.016 A 
ATOM     43  C   UNL A   1      39.952  32.712  34.771  1.00  0.00     0.016 A 
ATOM     44  C   UNL A   1      39.425  30.902  32.686  1.00  0.00     0.010 A 
ATOM     45  C   UNL A   1      40.994  32.186  34.008  1.00  0.00     0.010 A 
ATOM     46  C   UNL A   1      40.745  31.259  32.977  1.00  0.00    -0.014 A 
BRANCH  46  47
ATOM     47  C   UNL A   1      41.877  30.491  32.395  1.00  0.00     0.031 A 
ATOM     48  C   UNL A   1      42.552  31.069  31.176  1.00  0.00     0.074 A 
ATOM     49  C   UNL A   1      42.320  29.332  32.921  1.00  0.00     0.049 A 
ATOM     50  N   UNL A   1      43.522  30.580  30.447  1.00  0.00    -0.248 NA
ATOM     51  C   UNL A   1      42.042  32.368  30.701  1.00  0.00     0.031 C 
ATOM     52  C   UNL A   1      41.786  28.669  34.109  1.00  0.00     0.029 A 
ATOM     53  N   UNL A   1      43.339  28.506  32.511  1.00  0.00    -0.354 N 
ATOM     54  C   UNL A   1      43.706  31.493  29.415  1.00  0.00     0.074 A 
ATOM     55  C   UNL A   1      42.709  32.526  29.571  1.00  0.00     0.031 C 
ATOM     56  C   UNL A   1      42.489  27.544  34.337  1.00  0.00     0.029 A 
ATOM     57  C   UNL A   1      43.509  27.395  33.302  1.00  0.00     0.049 A 
ATOM     58  H   UNL A   1      43.898  28.694  31.722  1.00  0.00     0.167 HD
ATOM     59  C   UNL A   1      44.640  31.500  28.438  1.00  0.00     0.031 A 
ATOM     60  C   UNL A   1      44.388  26.377  33.197  1.00  0.00     0.031 A 
ATOM     61  C   UNL A   1      45.659  30.499  28.296  1.00  0.00     0.049 A 
ATOM     62  C   UNL A   1      45.398  26.386  32.074  1.00  0.00     0.074 A 
ATOM     63  C   UNL A   1      46.680  30.436  27.366  1.00  0.00     0.029 A 
ATOM     64  N   UNL A   1      45.785  29.387  29.112  1.00  0.00    -0.354 N 
ATOM     65  N   UNL A   1      45.590  27.280  31.133  1.00  0.00    -0.248 NA
ATOM     66  C   UNL A   1      46.329  25.249  32.017  1.00  0.00     0.031 C 
ATOM     67  C   UNL A   1      47.394  29.254  27.586  1.00  0.00     0.029 A 
ATOM     68  C   UNL A   1      46.860  28.622  28.697  1.00  0.00     0.049 A 
ATOM     69  H   UNL A   1      45.199  29.175  29.874  1.00  0.00     0.167 HD
ATOM     70  C   UNL A   1      46.695  26.840  30.410  1.00  0.00     0.074 A 
ATOM     71  C   UNL A   1      47.135  25.607  31.028  1.00  0.00     0.031 C 
ATOM     72  C   UNL A   1      47.297  27.408  29.335  1.00  0.00     0.031 A 
BRANCH  59  73
ATOM     73  C   UNL A   1      44.580  32.623  27.440  1.00  0.00    -0.014 A 
ATOM     74  C   UNL A   1      44.007  32.448  26.171  1.00  0.00     0.009 A 
ATOM     75  C   UNL A   1      45.114  33.876  27.777  1.00  0.00     0.009 A 
ATOM     76  C   UNL A   1      44.015  33.490  25.241  1.00  0.00     0.001 A 
ATOM     77  C   UNL A   1      45.086  34.927  26.861  1.00  0.00     0.001 A 
ATOM     78  C   UNL A   1      44.549  34.730  25.589  1.00  0.00     0.000 A 
ENDBRANCH  59  73
BRANCH  60  79
ATOM     79  C   UNL A   1      44.392  25.262  34.185  1.00  0.00    -0.014 A 
ATOM     80  C   UNL A   1      45.169  25.345  35.353  1.00  0.00     0.009 A 
ATOM     81  C   UNL A   1      43.685  24.077  33.933  1.00  0.00     0.009 A 
ATOM     82  C   UNL A   1      45.277  24.254  36.219  1.00  0.00     0.001 A 
ATOM     83  C   UNL A   1      43.767  22.997  34.818  1.00  0.00     0.001 A 
ATOM     84  C   UNL A   1      44.574  23.081  35.951  1.00  0.00     0.000 A 
ENDBRANCH  60  79
BRANCH  72  85
ATOM     85  C   UNL A   1      48.543  26.748  28.809  1.00  0.00    -0.014 A 
ATOM     86  C   UNL A   1      49.824  27.126  29.241  1.00  0.00     0.009 A 
ATOM     87  C   UNL A   1      48.424  25.702  27.879  1.00  0.00     0.009 A 
ATOM     88  C   UNL A   1      50.959  26.507  28.712  1.00  0.00     0.001 A 
ATOM     89  C   UNL A   1      49.558  25.058  27.382  1.00  0.00     0.001 A 
ATOM     90  C   UNL A   1      50.825  25.472  27.788  1.00  0.00     0.000 A 
ENDBRANCH  72  85
ENDBRANCH  46  47
ENDBRANCH  39  41
ENDBRANCH  38  39
ENDBRANCH  37  38
ENDBRANCH  36  37
ENDBRANCH  35  36
ENDBRANCH  34  35
ENDBRANCH  33  34
ENDBRANCH  32  33
ENDBRANCH  31  32
ENDBRANCH   1  31
TORSDOF 26
ENDMDL
