MODEL 1
REMARK VINA RESULT:      -8.4      0.000      0.000
REMARK SMILES CCCC[C@@](CC)(C[C@H]1CCOC1)C(=O)OCCOCCOCCOCCOC(=O)c1ccc(-c2c3nc(c(-c4ccccc4)c4ccc([nH]4)c(-c4ccccc4)c4nc(c(-c5ccccc5)c5ccc2[nH]5)C=C4)C=C3)cc1
REMARK SMILES IDX 21 1 20 2 19 3 18 4 17 5 16 6 14 7 15 8 5 9 4 10 3 11 2 12
REMARK SMILES IDX 1 13 6 14 7 15 8 16 9 17 10 18 13 19 11 20 12 21 22 22 23 23
REMARK SMILES IDX 24 24 25 25 26 26 27 27 28 28 29 29 30 30 31 31 32 32 78 33
REMARK SMILES IDX 33 34 77 35 34 36 35 37 36 38 71 39 37 40 76 41 70 42 72 43
REMARK SMILES IDX 38 44 75 45 69 46 68 47 39 49 61 50 46 51 60 52 47 53 50 54
REMARK SMILES IDX 59 55 73 56 48 57 49 58 58 60 74 61 51 62 40 63 41 64 45 65
REMARK SMILES IDX 42 66 44 67 43 68 62 69 63 70 67 71 64 72 66 73 65 74 52 75
REMARK SMILES IDX 53 76 57 77 54 78 56 79 55 80
REMARK H PARENT 72 48 50 59
REMARK Flexibility Score: inf
ROOT
ATOM      1  C   UNL A   1      39.519  22.587  26.608  1.00  0.00     0.188 C 
ENDROOT
BRANCH   1   2
ATOM      2  C   UNL A   1      38.744  21.787  25.559  1.00  0.00     0.188 C 
BRANCH   2   3
ATOM      3  O   UNL A   1      37.325  21.770  25.571  1.00  0.00    -0.376 OA
BRANCH   3   4
ATOM      4  C   UNL A   1      36.609  22.244  24.440  1.00  0.00     0.202 C 
BRANCH   4   5
ATOM      5  C   UNL A   1      35.145  22.723  24.565  1.00  0.00     0.261 C 
BRANCH   5   6
ATOM      6  O   UNL A   1      34.457  23.046  23.334  1.00  0.00    -0.463 OA
BRANCH   6   7
ATOM      7  C   UNL A   1      33.109  23.112  23.392  1.00  0.00     0.312 C 
ATOM      8  O   UNL A   1      32.396  22.166  23.065  1.00  0.00    -0.252 OA
BRANCH   7   9
ATOM      9  C   UNL A   1      32.501  24.473  23.886  1.00  0.00     0.068 C 
BRANCH   9  10
ATOM     10  C   UNL A   1      31.534  24.180  25.083  1.00  0.00     0.019 C 
BRANCH  10  11
ATOM     11  C   UNL A   1      31.602  22.837  25.843  1.00  0.00     0.001 C 
BRANCH  11  12
ATOM     12  C   UNL A   1      32.268  22.834  27.232  1.00  0.00    -0.003 C 
ATOM     13  C   UNL A   1      33.409  21.841  27.430  1.00  0.00     0.004 C 
ENDBRANCH  11  12
ENDBRANCH  10  11
ENDBRANCH   9  10
BRANCH   9  14
ATOM     14  C   UNL A   1      31.763  24.927  22.578  1.00  0.00     0.015 C 
ATOM     15  C   UNL A   1      32.611  25.370  21.401  1.00  0.00     0.005 C 
ENDBRANCH   9  14
BRANCH   9  16
ATOM     16  C   UNL A   1      33.544  25.636  24.267  1.00  0.00     0.024 C 
BRANCH  16  17
ATOM     17  C   UNL A   1      33.045  27.077  24.606  1.00  0.00     0.018 C 
ATOM     18  C   UNL A   1      33.457  27.564  25.995  1.00  0.00     0.034 C 
ATOM     19  C   UNL A   1      33.599  28.231  23.772  1.00  0.00     0.163 C 
ATOM     20  C   UNL A   1      33.120  29.038  25.908  1.00  0.00     0.160 C 
ATOM     21  O   UNL A   1      33.421  29.427  24.561  1.00  0.00    -0.381 OA
ENDBRANCH  16  17
ENDBRANCH   9  16
ENDBRANCH   7   9
ENDBRANCH   6   7
ENDBRANCH   5   6
ENDBRANCH   4   5
ENDBRANCH   3   4
ENDBRANCH   2   3
ENDBRANCH   1   2
BRANCH   1  22
ATOM     22  O   UNL A   1      40.631  21.929  27.172  1.00  0.00    -0.377 OA
BRANCH  22  23
ATOM     23  C   UNL A   1      40.802  20.570  26.822  1.00  0.00     0.188 C 
BRANCH  23  24
ATOM     24  C   UNL A   1      42.242  20.067  26.626  1.00  0.00     0.188 C 
BRANCH  24  25
ATOM     25  O   UNL A   1      42.782  20.434  25.365  1.00  0.00    -0.376 OA
BRANCH  25  26
ATOM     26  C   UNL A   1      44.130  20.847  25.250  1.00  0.00     0.202 C 
BRANCH  26  27
ATOM     27  C   UNL A   1      44.581  22.248  25.703  1.00  0.00     0.261 C 
BRANCH  27  28
ATOM     28  O   UNL A   1      43.861  23.378  25.201  1.00  0.00    -0.460 OA
BRANCH  28  29
ATOM     29  C   UNL A   1      44.439  24.588  25.324  1.00  0.00     0.338 C 
ATOM     30  O   UNL A   1      45.390  25.013  24.682  1.00  0.00    -0.246 OA
BRANCH  29  31
ATOM     31  C   UNL A   1      43.594  25.413  26.217  1.00  0.00     0.060 A 
ATOM     32  C   UNL A   1      43.853  26.788  26.285  1.00  0.00     0.016 A 
ATOM     33  C   UNL A   1      42.543  24.855  26.954  1.00  0.00     0.016 A 
ATOM     34  C   UNL A   1      43.093  27.603  27.122  1.00  0.00     0.010 A 
ATOM     35  C   UNL A   1      41.802  25.668  27.818  1.00  0.00     0.010 A 
ATOM     36  C   UNL A   1      42.104  27.036  27.936  1.00  0.00    -0.014 A 
BRANCH  36  37
ATOM     37  C   UNL A   1      41.584  27.828  29.075  1.00  0.00     0.031 A 
ATOM     38  C   UNL A   1      42.310  27.723  30.390  1.00  0.00     0.074 A 
ATOM     39  C   UNL A   1      40.544  28.668  28.939  1.00  0.00     0.049 A 
ATOM     40  N   UNL A   1      42.068  28.324  31.525  1.00  0.00    -0.248 NA
ATOM     41  C   UNL A   1      43.471  26.816  30.423  1.00  0.00     0.031 C 
ATOM     42  C   UNL A   1      39.800  28.904  27.703  1.00  0.00     0.029 A 
ATOM     43  N   UNL A   1      39.939  29.486  29.860  1.00  0.00    -0.354 N 
ATOM     44  C   UNL A   1      43.044  27.869  32.404  1.00  0.00     0.074 A 
ATOM     45  C   UNL A   1      43.857  26.916  31.684  1.00  0.00     0.031 C 
ATOM     46  C   UNL A   1      38.831  29.806  27.946  1.00  0.00     0.029 A 
ATOM     47  C   UNL A   1      38.869  30.185  29.358  1.00  0.00     0.049 A 
ATOM     48  H   UNL A   1      40.245  29.565  30.793  1.00  0.00     0.167 HD
ATOM     49  C   UNL A   1      43.250  28.216  33.696  1.00  0.00     0.031 A 
ATOM     50  C   UNL A   1      38.010  31.019  29.976  1.00  0.00     0.031 A 
ATOM     51  C   UNL A   1      42.422  29.142  34.418  1.00  0.00     0.049 A 
ATOM     52  C   UNL A   1      38.199  31.315  31.442  1.00  0.00     0.074 A 
ATOM     53  C   UNL A   1      42.541  29.562  35.731  1.00  0.00     0.029 A 
ATOM     54  N   UNL A   1      41.311  29.783  33.890  1.00  0.00    -0.354 N 
ATOM     55  N   UNL A   1      39.136  30.896  32.258  1.00  0.00    -0.248 NA
ATOM     56  C   UNL A   1      37.213  32.209  32.068  1.00  0.00     0.031 C 
ATOM     57  C   UNL A   1      41.464  30.406  36.016  1.00  0.00     0.029 A 
ATOM     58  C   UNL A   1      40.716  30.570  34.859  1.00  0.00     0.049 A 
ATOM     59  H   UNL A   1      40.994  29.690  32.962  1.00  0.00     0.167 HD
ATOM     60  C   UNL A   1      38.872  31.498  33.484  1.00  0.00     0.074 A 
ATOM     61  C   UNL A   1      37.696  32.322  33.298  1.00  0.00     0.031 C 
ATOM     62  C   UNL A   1      39.543  31.381  34.657  1.00  0.00     0.031 A 
BRANCH  49  63
ATOM     63  C   UNL A   1      44.387  27.547  34.415  1.00  0.00    -0.014 A 
ATOM     64  C   UNL A   1      45.679  28.098  34.420  1.00  0.00     0.009 A 
ATOM     65  C   UNL A   1      44.160  26.348  35.109  1.00  0.00     0.009 A 
ATOM     66  C   UNL A   1      46.726  27.441  35.072  1.00  0.00     0.001 A 
ATOM     67  C   UNL A   1      45.201  25.711  35.786  1.00  0.00     0.001 A 
ATOM     68  C   UNL A   1      46.484  26.252  35.757  1.00  0.00     0.000 A 
ENDBRANCH  49  63
BRANCH  50  69
ATOM     69  C   UNL A   1      36.876  31.616  29.221  1.00  0.00    -0.014 A 
ATOM     70  C   UNL A   1      36.945  32.930  28.734  1.00  0.00     0.009 A 
ATOM     71  C   UNL A   1      35.702  30.876  29.003  1.00  0.00     0.009 A 
ATOM     72  C   UNL A   1      35.855  33.498  28.067  1.00  0.00     0.001 A 
ATOM     73  C   UNL A   1      34.626  31.434  28.309  1.00  0.00     0.001 A 
ATOM     74  C   UNL A   1      34.700  32.748  27.850  1.00  0.00     0.000 A 
ENDBRANCH  50  69
BRANCH  62  75
ATOM     75  C   UNL A   1      39.048  32.195  35.821  1.00  0.00    -0.014 A 
ATOM     76  C   UNL A   1      38.123  31.676  36.740  1.00  0.00     0.009 A 
ATOM     77  C   UNL A   1      39.557  33.488  36.028  1.00  0.00     0.009 A 
ATOM     78  C   UNL A   1      37.692  32.447  37.821  1.00  0.00     0.001 A 
ATOM     79  C   UNL A   1      39.150  34.244  37.127  1.00  0.00     0.001 A 
ATOM     80  C   UNL A   1      38.210  33.728  38.017  1.00  0.00     0.000 A 
ENDBRANCH  62  75
ENDBRANCH  36  37
ENDBRANCH  29  31
ENDBRANCH  28  29
ENDBRANCH  27  28
ENDBRANCH  26  27
ENDBRANCH  25  26
ENDBRANCH  24  25
ENDBRANCH  23  24
ENDBRANCH  22  23
ENDBRANCH   1  22
TORSDOF 26
ENDMDL
MODEL 2
REMARK VINA RESULT:      -7.2      2.069      6.433
REMARK SMILES CCCC[C@@](CC)(C[C@H]1CCOC1)C(=O)OCCOCCOCCOCCOC(=O)c1ccc(-c2c3nc(c(-c4ccccc4)c4ccc([nH]4)c(-c4ccccc4)c4nc(c(-c5ccccc5)c5ccc2[nH]5)C=C4)C=C3)cc1
REMARK SMILES IDX 21 1 20 2 19 3 18 4 17 5 16 6 14 7 15 8 5 9 4 10 3 11 2 12
REMARK SMILES IDX 1 13 6 14 7 15 8 16 9 17 10 18 13 19 11 20 12 21 22 22 23 23
REMARK SMILES IDX 24 24 25 25 26 26 27 27 28 28 29 29 30 30 31 31 32 32 78 33
REMARK SMILES IDX 33 34 77 35 34 36 35 37 36 38 71 39 37 40 76 41 70 42 72 43
REMARK SMILES IDX 38 44 75 45 69 46 68 47 39 49 61 50 46 51 60 52 47 53 50 54
REMARK SMILES IDX 59 55 73 56 48 57 49 58 58 60 74 61 51 62 40 63 41 64 45 65
REMARK SMILES IDX 42 66 44 67 43 68 62 69 63 70 67 71 64 72 66 73 65 74 52 75
REMARK SMILES IDX 53 76 57 77 54 78 56 79 55 80
REMARK H PARENT 72 48 50 59
REMARK Flexibility Score: inf
ROOT
ATOM      1  C   UNL A   1      39.576  24.540  26.446  1.00  0.00     0.188 C 
ENDROOT
BRANCH   1   2
ATOM      2  C   UNL A   1      38.500  23.464  26.289  1.00  0.00     0.188 C 
BRANCH   2   3
ATOM      3  O   UNL A   1      37.145  23.828  26.078  1.00  0.00    -0.376 OA
BRANCH   3   4
ATOM      4  C   UNL A   1      36.544  23.591  24.814  1.00  0.00     0.202 C 
BRANCH   4   5
ATOM      5  C   UNL A   1      35.010  23.470  24.669  1.00  0.00     0.261 C 
BRANCH   5   6
ATOM      6  O   UNL A   1      34.232  24.653  24.965  1.00  0.00    -0.463 OA
BRANCH   6   7
ATOM      7  C   UNL A   1      33.076  24.806  24.283  1.00  0.00     0.312 C 
ATOM      8  O   UNL A   1      32.713  23.997  23.431  1.00  0.00    -0.252 OA
BRANCH   7   9
ATOM      9  C   UNL A   1      32.231  26.083  24.624  1.00  0.00     0.068 C 
BRANCH   9  10
ATOM     10  C   UNL A   1      33.207  27.214  25.095  1.00  0.00     0.019 C 
BRANCH  10  11
ATOM     11  C   UNL A   1      32.798  28.196  26.215  1.00  0.00     0.001 C 
BRANCH  11  12
ATOM     12  C   UNL A   1      33.133  29.687  26.018  1.00  0.00    -0.003 C 
ATOM     13  C   UNL A   1      32.522  30.654  27.027  1.00  0.00     0.004 C 
ENDBRANCH  11  12
ENDBRANCH  10  11
ENDBRANCH   9  10
BRANCH   9  14
ATOM     14  C   UNL A   1      31.331  25.510  25.775  1.00  0.00     0.015 C 
ATOM     15  C   UNL A   1      31.934  24.465  26.693  1.00  0.00     0.005 C 
ENDBRANCH   9  14
BRANCH   9  16
ATOM     16  C   UNL A   1      31.241  26.625  23.478  1.00  0.00     0.024 C 
BRANCH  16  17
ATOM     17  C   UNL A   1      30.313  27.854  23.739  1.00  0.00     0.018 C 
ATOM     18  C   UNL A   1      30.734  29.118  22.990  1.00  0.00     0.034 C 
ATOM     19  C   UNL A   1      28.865  27.760  23.260  1.00  0.00     0.163 C 
ATOM     20  C   UNL A   1      29.518  29.999  23.181  1.00  0.00     0.160 C 
ATOM     21  O   UNL A   1      28.388  29.118  23.137  1.00  0.00    -0.381 OA
ENDBRANCH  16  17
ENDBRANCH   9  16
ENDBRANCH   7   9
ENDBRANCH   6   7
ENDBRANCH   5   6
ENDBRANCH   4   5
ENDBRANCH   3   4
ENDBRANCH   2   3
ENDBRANCH   1   2
BRANCH   1  22
ATOM     22  O   UNL A   1      40.693  24.170  27.224  1.00  0.00    -0.377 OA
BRANCH  22  23
ATOM     23  C   UNL A   1      40.907  22.784  27.400  1.00  0.00     0.188 C 
BRANCH  23  24
ATOM     24  C   UNL A   1      42.262  22.215  26.947  1.00  0.00     0.188 C 
BRANCH  24  25
ATOM     25  O   UNL A   1      42.503  22.416  25.562  1.00  0.00    -0.376 OA
BRANCH  25  26
ATOM     26  C   UNL A   1      43.732  22.954  25.114  1.00  0.00     0.202 C 
BRANCH  26  27
ATOM     27  C   UNL A   1      44.358  24.190  25.787  1.00  0.00     0.261 C 
BRANCH  27  28
ATOM     28  O   UNL A   1      43.536  25.348  25.958  1.00  0.00    -0.460 OA
BRANCH  28  29
ATOM     29  C   UNL A   1      44.149  26.547  25.990  1.00  0.00     0.338 C 
ATOM     30  O   UNL A   1      44.993  26.958  25.205  1.00  0.00    -0.246 OA
BRANCH  29  31
ATOM     31  C   UNL A   1      43.476  27.382  27.010  1.00  0.00     0.060 A 
ATOM     32  C   UNL A   1      43.753  28.755  27.026  1.00  0.00     0.016 A 
ATOM     33  C   UNL A   1      42.563  26.835  27.919  1.00  0.00     0.016 A 
ATOM     34  C   UNL A   1      43.153  29.579  27.977  1.00  0.00     0.010 A 
ATOM     35  C   UNL A   1      41.987  27.657  28.894  1.00  0.00     0.010 A 
ATOM     36  C   UNL A   1      42.315  29.023  28.951  1.00  0.00    -0.014 A 
BRANCH  36  37
ATOM     37  C   UNL A   1      42.003  29.823  30.159  1.00  0.00     0.031 A 
ATOM     38  C   UNL A   1      40.694  30.566  30.188  1.00  0.00     0.074 A 
ATOM     39  C   UNL A   1      42.818  29.840  31.228  1.00  0.00     0.049 A 
ATOM     40  N   UNL A   1      40.183  31.315  31.130  1.00  0.00    -0.248 NA
ATOM     41  C   UNL A   1      39.846  30.440  28.990  1.00  0.00     0.031 C 
ATOM     42  C   UNL A   1      44.081  29.113  31.344  1.00  0.00     0.029 A 
ATOM     43  N   UNL A   1      42.694  30.497  32.426  1.00  0.00    -0.354 N 
ATOM     44  C   UNL A   1      38.958  31.748  30.638  1.00  0.00     0.074 A 
ATOM     45  C   UNL A   1      38.818  31.210  29.303  1.00  0.00     0.031 C 
ATOM     46  C   UNL A   1      44.619  29.370  32.550  1.00  0.00     0.029 A 
ATOM     47  C   UNL A   1      43.755  30.301  33.275  1.00  0.00     0.049 A 
ATOM     48  H   UNL A   1      41.916  31.056  32.656  1.00  0.00     0.167 HD
ATOM     49  C   UNL A   1      38.027  32.522  31.243  1.00  0.00     0.031 A 
ATOM     50  C   UNL A   1      44.005  30.829  34.488  1.00  0.00     0.031 A 
ATOM     51  C   UNL A   1      38.180  33.080  32.558  1.00  0.00     0.049 A 
ATOM     52  C   UNL A   1      42.999  31.769  35.103  1.00  0.00     0.074 A 
ATOM     53  C   UNL A   1      37.299  33.878  33.264  1.00  0.00     0.029 A 
ATOM     54  N   UNL A   1      39.297  32.905  33.361  1.00  0.00    -0.354 N 
ATOM     55  N   UNL A   1      41.835  32.155  34.639  1.00  0.00    -0.248 NA
ATOM     56  C   UNL A   1      43.340  32.337  36.416  1.00  0.00     0.031 C 
ATOM     57  C   UNL A   1      37.911  34.242  34.467  1.00  0.00     0.029 A 
ATOM     58  C   UNL A   1      39.143  33.609  34.542  1.00  0.00     0.049 A 
ATOM     59  H   UNL A   1      40.083  32.362  33.124  1.00  0.00     0.167 HD
ATOM     60  C   UNL A   1      41.292  32.986  35.614  1.00  0.00     0.074 A 
ATOM     61  C   UNL A   1      42.248  33.033  36.700  1.00  0.00     0.031 C 
ATOM     62  C   UNL A   1      40.107  33.647  35.611  1.00  0.00     0.031 A 
BRANCH  49  63
ATOM     63  C   UNL A   1      36.785  32.846  30.459  1.00  0.00    -0.014 A 
ATOM     64  C   UNL A   1      36.736  33.941  29.582  1.00  0.00     0.009 A 
ATOM     65  C   UNL A   1      35.648  32.034  30.593  1.00  0.00     0.009 A 
ATOM     66  C   UNL A   1      35.561  34.239  28.886  1.00  0.00     0.001 A 
ATOM     67  C   UNL A   1      34.486  32.315  29.873  1.00  0.00     0.001 A 
ATOM     68  C   UNL A   1      34.440  33.423  29.030  1.00  0.00     0.000 A 
ENDBRANCH  49  63
BRANCH  50  69
ATOM     69  C   UNL A   1      45.273  30.507  35.197  1.00  0.00    -0.014 A 
ATOM     70  C   UNL A   1      46.405  31.324  35.059  1.00  0.00     0.009 A 
ATOM     71  C   UNL A   1      45.362  29.360  36.002  1.00  0.00     0.009 A 
ATOM     72  C   UNL A   1      47.605  30.986  35.691  1.00  0.00     0.001 A 
ATOM     73  C   UNL A   1      46.553  29.041  36.659  1.00  0.00     0.001 A 
ATOM     74  C   UNL A   1      47.677  29.849  36.495  1.00  0.00     0.000 A 
ENDBRANCH  50  69
BRANCH  62  75
ATOM     75  C   UNL A   1      39.759  34.446  36.838  1.00  0.00    -0.014 A 
ATOM     76  C   UNL A   1      39.063  33.874  37.913  1.00  0.00     0.009 A 
ATOM     77  C   UNL A   1      40.183  35.781  36.936  1.00  0.00     0.009 A 
ATOM     78  C   UNL A   1      38.767  34.634  39.047  1.00  0.00     0.001 A 
ATOM     79  C   UNL A   1      39.915  36.529  38.084  1.00  0.00     0.001 A 
ATOM     80  C   UNL A   1      39.198  35.958  39.134  1.00  0.00     0.000 A 
ENDBRANCH  62  75
ENDBRANCH  36  37
ENDBRANCH  29  31
ENDBRANCH  28  29
ENDBRANCH  27  28
ENDBRANCH  26  27
ENDBRANCH  25  26
ENDBRANCH  24  25
ENDBRANCH  23  24
ENDBRANCH  22  23
ENDBRANCH   1  22
TORSDOF 26
ENDMDL
MODEL 3
REMARK VINA RESULT:      -7.2      1.887      2.808
REMARK SMILES CCCC[C@@](CC)(C[C@H]1CCOC1)C(=O)OCCOCCOCCOCCOC(=O)c1ccc(-c2c3nc(c(-c4ccccc4)c4ccc([nH]4)c(-c4ccccc4)c4nc(c(-c5ccccc5)c5ccc2[nH]5)C=C4)C=C3)cc1
REMARK SMILES IDX 21 1 20 2 19 3 18 4 17 5 16 6 14 7 15 8 5 9 4 10 3 11 2 12
REMARK SMILES IDX 1 13 6 14 7 15 8 16 9 17 10 18 13 19 11 20 12 21 22 22 23 23
REMARK SMILES IDX 24 24 25 25 26 26 27 27 28 28 29 29 30 30 31 31 32 32 78 33
REMARK SMILES IDX 33 34 77 35 34 36 35 37 36 38 71 39 37 40 76 41 70 42 72 43
REMARK SMILES IDX 38 44 75 45 69 46 68 47 39 49 61 50 46 51 60 52 47 53 50 54
REMARK SMILES IDX 59 55 73 56 48 57 49 58 58 60 74 61 51 62 40 63 41 64 45 65
REMARK SMILES IDX 42 66 44 67 43 68 62 69 63 70 67 71 64 72 66 73 65 74 52 75
REMARK SMILES IDX 53 76 57 77 54 78 56 79 55 80
REMARK H PARENT 72 48 50 59
REMARK Flexibility Score: inf
ROOT
ATOM      1  C   UNL A   1      39.250  24.660  26.595  1.00  0.00     0.188 C 
ENDROOT
BRANCH   1   2
ATOM      2  C   UNL A   1      38.377  23.471  26.191  1.00  0.00     0.188 C 
BRANCH   2   3
ATOM      3  O   UNL A   1      37.036  23.672  25.775  1.00  0.00    -0.376 OA
BRANCH   3   4
ATOM      4  C   UNL A   1      36.729  23.699  24.389  1.00  0.00     0.202 C 
BRANCH   4   5
ATOM      5  C   UNL A   1      35.266  23.648  23.894  1.00  0.00     0.261 C 
BRANCH   5   6
ATOM      6  O   UNL A   1      34.383  24.696  24.359  1.00  0.00    -0.463 OA
BRANCH   6   7
ATOM      7  C   UNL A   1      33.657  25.339  23.419  1.00  0.00     0.312 C 
ATOM      8  O   UNL A   1      33.792  25.104  22.220  1.00  0.00    -0.252 OA
BRANCH   7   9
ATOM      9  C   UNL A   1      32.644  26.418  23.941  1.00  0.00     0.068 C 
BRANCH   9  10
ATOM     10  C   UNL A   1      33.457  27.601  24.568  1.00  0.00     0.019 C 
BRANCH  10  11
ATOM     11  C   UNL A   1      33.442  27.849  26.092  1.00  0.00     0.001 C 
BRANCH  11  12
ATOM     12  C   UNL A   1      32.418  28.859  26.644  1.00  0.00    -0.003 C 
ATOM     13  C   UNL A   1      32.987  30.158  27.207  1.00  0.00     0.004 C 
ENDBRANCH  11  12
ENDBRANCH  10  11
ENDBRANCH   9  10
BRANCH   9  14
ATOM     14  C   UNL A   1      31.862  25.562  24.998  1.00  0.00     0.015 C 
ATOM     15  C   UNL A   1      31.074  24.366  24.501  1.00  0.00     0.005 C 
ENDBRANCH   9  14
BRANCH   9  16
ATOM     16  C   UNL A   1      31.562  26.966  22.885  1.00  0.00     0.024 C 
BRANCH  16  17
ATOM     17  C   UNL A   1      30.583  28.122  23.271  1.00  0.00     0.018 C 
ATOM     18  C   UNL A   1      30.683  29.346  22.362  1.00  0.00     0.034 C 
ATOM     19  C   UNL A   1      29.085  27.849  23.146  1.00  0.00     0.163 C 
ATOM     20  C   UNL A   1      29.448  30.123  22.770  1.00  0.00     0.160 C 
ATOM     21  O   UNL A   1      28.443  29.139  23.047  1.00  0.00    -0.381 OA
ENDBRANCH  16  17
ENDBRANCH   9  16
ENDBRANCH   7   9
ENDBRANCH   6   7
ENDBRANCH   5   6
ENDBRANCH   4   5
ENDBRANCH   3   4
ENDBRANCH   2   3
ENDBRANCH   1   2
BRANCH   1  22
ATOM     22  O   UNL A   1      40.361  24.349  27.407  1.00  0.00    -0.377 OA
BRANCH  22  23
ATOM     23  C   UNL A   1      40.620  22.976  27.618  1.00  0.00     0.188 C 
BRANCH  23  24
ATOM     24  C   UNL A   1      41.949  22.418  27.083  1.00  0.00     0.188 C 
BRANCH  24  25
ATOM     25  O   UNL A   1      41.930  22.215  25.677  1.00  0.00    -0.376 OA
BRANCH  25  26
ATOM     26  C   UNL A   1      43.064  22.520  24.888  1.00  0.00     0.202 C 
BRANCH  26  27
ATOM     27  C   UNL A   1      44.055  23.623  25.303  1.00  0.00     0.261 C 
BRANCH  27  28
ATOM     28  O   UNL A   1      43.544  24.743  26.032  1.00  0.00    -0.460 OA
BRANCH  28  29
ATOM     29  C   UNL A   1      44.258  25.885  25.998  1.00  0.00     0.338 C 
ATOM     30  O   UNL A   1      44.866  26.338  25.039  1.00  0.00    -0.246 OA
BRANCH  29  31
ATOM     31  C   UNL A   1      44.008  26.622  27.257  1.00  0.00     0.060 A 
ATOM     32  C   UNL A   1      43.224  26.003  28.240  1.00  0.00     0.016 A 
ATOM     33  C   UNL A   1      44.557  27.889  27.486  1.00  0.00     0.016 A 
ATOM     34  C   UNL A   1      42.950  26.664  29.436  1.00  0.00     0.010 A 
ATOM     35  C   UNL A   1      44.254  28.565  28.673  1.00  0.00     0.010 A 
ATOM     36  C   UNL A   1      43.415  27.971  29.632  1.00  0.00    -0.014 A 
BRANCH  36  37
ATOM     37  C   UNL A   1      42.806  28.786  30.710  1.00  0.00     0.031 A 
ATOM     38  C   UNL A   1      43.507  28.821  32.041  1.00  0.00     0.074 A 
ATOM     39  C   UNL A   1      41.705  29.528  30.501  1.00  0.00     0.049 A 
ATOM     40  N   UNL A   1      43.190  29.468  33.132  1.00  0.00    -0.248 NA
ATOM     41  C   UNL A   1      44.736  28.016  32.153  1.00  0.00     0.031 C 
ATOM     42  C   UNL A   1      40.974  29.626  29.239  1.00  0.00     0.029 A 
ATOM     43  N   UNL A   1      41.015  30.348  31.358  1.00  0.00    -0.354 N 
ATOM     44  C   UNL A   1      44.178  29.149  34.056  1.00  0.00     0.074 A 
ATOM     45  C   UNL A   1      45.083  28.223  33.412  1.00  0.00     0.031 C 
ATOM     46  C   UNL A   1      39.930  30.458  29.407  1.00  0.00     0.029 A 
ATOM     47  C   UNL A   1      39.904  30.925  30.793  1.00  0.00     0.049 A 
ATOM     48  H   UNL A   1      41.291  30.508  32.289  1.00  0.00     0.167 HD
ATOM     49  C   UNL A   1      44.325  29.590  35.327  1.00  0.00     0.031 A 
ATOM     50  C   UNL A   1      38.966  31.722  31.341  1.00  0.00     0.031 A 
ATOM     51  C   UNL A   1      43.408  30.488  35.974  1.00  0.00     0.049 A 
ATOM     52  C   UNL A   1      39.096  32.121  32.789  1.00  0.00     0.074 A 
ATOM     53  C   UNL A   1      43.462  30.996  37.260  1.00  0.00     0.029 A 
ATOM     54  N   UNL A   1      42.262  31.002  35.386  1.00  0.00    -0.354 N 
ATOM     55  N   UNL A   1      40.044  31.831  33.647  1.00  0.00    -0.248 NA
ATOM     56  C   UNL A   1      38.026  32.968  33.339  1.00  0.00     0.031 C 
ATOM     57  C   UNL A   1      42.314  31.764  37.471  1.00  0.00     0.029 A 
ATOM     58  C   UNL A   1      41.582  31.795  36.293  1.00  0.00     0.049 A 
ATOM     59  H   UNL A   1      41.976  30.827  34.460  1.00  0.00     0.167 HD
ATOM     60  C   UNL A   1      39.703  32.483  34.828  1.00  0.00     0.074 A 
ATOM     61  C   UNL A   1      38.469  33.195  34.568  1.00  0.00     0.031 C 
ATOM     62  C   UNL A   1      40.354  32.494  36.018  1.00  0.00     0.031 A 
BRANCH  49  63
ATOM     63  C   UNL A   1      45.495  29.061  36.108  1.00  0.00    -0.014 A 
ATOM     64  C   UNL A   1      45.399  27.885  36.869  1.00  0.00     0.009 A 
ATOM     65  C   UNL A   1      46.719  29.748  36.074  1.00  0.00     0.009 A 
ATOM     66  C   UNL A   1      46.493  27.430  37.610  1.00  0.00     0.001 A 
ATOM     67  C   UNL A   1      47.819  29.274  36.790  1.00  0.00     0.001 A 
ATOM     68  C   UNL A   1      47.702  28.122  37.566  1.00  0.00     0.000 A 
ENDBRANCH  49  63
BRANCH  50  69
ATOM     69  C   UNL A   1      37.805  32.177  30.529  1.00  0.00    -0.014 A 
ATOM     70  C   UNL A   1      37.871  33.358  29.774  1.00  0.00     0.009 A 
ATOM     71  C   UNL A   1      36.611  31.438  30.525  1.00  0.00     0.009 A 
ATOM     72  C   UNL A   1      36.759  33.801  29.052  1.00  0.00     0.001 A 
ATOM     73  C   UNL A   1      35.511  31.866  29.778  1.00  0.00     0.001 A 
ATOM     74  C   UNL A   1      35.583  33.052  29.050  1.00  0.00     0.000 A 
ENDBRANCH  50  69
BRANCH  62  75
ATOM     75  C   UNL A   1      39.767  33.334  37.119  1.00  0.00    -0.014 A 
ATOM     76  C   UNL A   1      38.904  32.786  38.080  1.00  0.00     0.009 A 
ATOM     77  C   UNL A   1      40.127  34.688  37.223  1.00  0.00     0.009 A 
ATOM     78  C   UNL A   1      38.385  33.585  39.102  1.00  0.00     0.001 A 
ATOM     79  C   UNL A   1      39.635  35.476  38.264  1.00  0.00     0.001 A 
ATOM     80  C   UNL A   1      38.756  34.928  39.196  1.00  0.00     0.000 A 
ENDBRANCH  62  75
ENDBRANCH  36  37
ENDBRANCH  29  31
ENDBRANCH  28  29
ENDBRANCH  27  28
ENDBRANCH  26  27
ENDBRANCH  25  26
ENDBRANCH  24  25
ENDBRANCH  23  24
ENDBRANCH  22  23
ENDBRANCH   1  22
TORSDOF 26
ENDMDL
