MODEL 1
REMARK VINA RESULT:      -8.6      0.000      0.000
REMARK SMILES CN(CCO)C(=O)N[C@H]1C=C[C@@H](C(=O)OCCOCCOCCOCCOC(=O)c2ccc(-c3c4nc(c(-c5ccccc5)c5ccc([nH]5)c(-c5ccccc5)c5nc(c(-c6ccccc6)c6ccc3[nH]6)C=C5)C=C4)cc2)C1
REMARK SMILES IDX 19 1 18 2 17 3 16 4 15 5 13 6 14 7 12 8 9 9 10 10 78 11
REMARK SMILES IDX 11 12 8 13 6 14 7 15 2 17 1 18 3 19 4 20 5 21 20 23 21 24
REMARK SMILES IDX 22 25 23 26 24 27 25 28 26 29 27 30 28 31 29 32 30 33 31 34
REMARK SMILES IDX 77 35 32 36 76 37 33 38 34 39 35 40 70 41 36 42 75 43 69 44
REMARK SMILES IDX 71 45 37 46 74 47 68 48 67 49 38 51 60 52 45 53 59 54 46 55
REMARK SMILES IDX 49 56 58 57 72 58 47 59 48 60 57 62 73 63 50 64 39 65 40 66
REMARK SMILES IDX 44 67 41 68 43 69 42 70 61 71 62 72 66 73 63 74 65 75 64 76
REMARK SMILES IDX 51 77 52 78 56 79 53 80 55 81 54 82
REMARK H PARENT 8 16 5 22 71 50 49 61
REMARK Flexibility Score: inf
ROOT
ATOM      1  C   UNL A   1      34.742  31.202  28.158  1.00  0.00     0.188 C 
ENDROOT
BRANCH   1   2
ATOM      2  O   UNL A   1      34.776  30.315  27.048  1.00  0.00    -0.376 OA
BRANCH   2   3
ATOM      3  C   UNL A   1      33.575  29.683  26.615  1.00  0.00     0.202 C 
BRANCH   3   4
ATOM      4  C   UNL A   1      33.528  28.155  26.447  1.00  0.00     0.261 C 
BRANCH   4   5
ATOM      5  O   UNL A   1      32.942  27.701  25.213  1.00  0.00    -0.463 OA
BRANCH   5   6
ATOM      6  C   UNL A   1      33.226  26.431  24.825  1.00  0.00     0.312 C 
ATOM      7  O   UNL A   1      34.317  25.891  24.977  1.00  0.00    -0.252 OA
BRANCH   6   8
ATOM      8  C   UNL A   1      32.046  25.694  24.187  1.00  0.00     0.124 C 
ATOM      9  C   UNL A   1      31.324  23.447  23.420  1.00  0.00     0.107 C 
ATOM     10  C   UNL A   1      30.761  23.817  24.765  1.00  0.00    -0.006 C 
ATOM     11  C   UNL A   1      32.346  24.555  23.220  1.00  0.00     0.048 C 
ATOM     12  C   UNL A   1      31.164  25.022  25.188  1.00  0.00    -0.014 C 
BRANCH   9  13
ATOM     13  N   UNL A   1      31.884  22.109  23.514  1.00  0.00    -0.332 N 
ATOM     14  C   UNL A   1      32.916  21.476  24.087  1.00  0.00     0.317 C 
ATOM     15  O   UNL A   1      32.943  20.257  23.871  1.00  0.00    -0.249 OA
ATOM     16  H   UNL A   1      31.336  21.473  23.000  1.00  0.00     0.165 HD
BRANCH  14  17
ATOM     17  N   UNL A   1      33.885  22.063  24.852  1.00  0.00    -0.326 N 
ATOM     18  C   UNL A   1      35.175  22.233  24.186  1.00  0.00     0.148 C 
BRANCH  17  19
ATOM     19  C   UNL A   1      33.839  22.523  26.241  1.00  0.00     0.149 C 
BRANCH  19  20
ATOM     20  C   UNL A   1      33.770  21.456  27.337  1.00  0.00     0.177 C 
BRANCH  20  21
ATOM     21  O   UNL A   1      33.448  20.161  26.866  1.00  0.00    -0.395 OA
ATOM     22  H   UNL A   1      34.033  19.931  26.128  1.00  0.00     0.210 HD
ENDBRANCH  20  21
ENDBRANCH  19  20
ENDBRANCH  17  19
ENDBRANCH  14  17
ENDBRANCH   9  13
ENDBRANCH   6   8
ENDBRANCH   5   6
ENDBRANCH   4   5
ENDBRANCH   3   4
ENDBRANCH   2   3
ENDBRANCH   1   2
BRANCH   1  23
ATOM     23  C   UNL A   1      34.098  32.587  28.019  1.00  0.00     0.188 C 
BRANCH  23  24
ATOM     24  O   UNL A   1      34.027  33.347  29.208  1.00  0.00    -0.377 OA
BRANCH  24  25
ATOM     25  C   UNL A   1      33.936  34.761  29.058  1.00  0.00     0.188 C 
BRANCH  25  26
ATOM     26  C   UNL A   1      33.129  35.516  30.129  1.00  0.00     0.188 C 
BRANCH  26  27
ATOM     27  O   UNL A   1      33.214  34.884  31.399  1.00  0.00    -0.376 OA
BRANCH  27  28
ATOM     28  C   UNL A   1      33.764  35.580  32.504  1.00  0.00     0.202 C 
BRANCH  28  29
ATOM     29  C   UNL A   1      35.188  35.279  33.009  1.00  0.00     0.261 C 
BRANCH  29  30
ATOM     30  O   UNL A   1      35.930  34.240  32.358  1.00  0.00    -0.460 OA
BRANCH  30  31
ATOM     31  C   UNL A   1      36.127  33.087  33.032  1.00  0.00     0.338 C 
ATOM     32  O   UNL A   1      35.545  32.713  34.027  1.00  0.00    -0.246 OA
BRANCH  31  33
ATOM     33  C   UNL A   1      37.060  32.260  32.228  1.00  0.00     0.060 A 
ATOM     34  C   UNL A   1      38.002  31.466  32.893  1.00  0.00     0.016 A 
ATOM     35  C   UNL A   1      37.017  32.281  30.831  1.00  0.00     0.016 A 
ATOM     36  C   UNL A   1      38.935  30.728  32.163  1.00  0.00     0.010 A 
ATOM     37  C   UNL A   1      37.963  31.555  30.100  1.00  0.00     0.010 A 
ATOM     38  C   UNL A   1      38.951  30.806  30.764  1.00  0.00    -0.014 A 
BRANCH  38  39
ATOM     39  C   UNL A   1      40.111  30.267  30.010  1.00  0.00     0.031 A 
ATOM     40  C   UNL A   1      41.317  31.149  29.816  1.00  0.00     0.074 A 
ATOM     41  C   UNL A   1      40.114  29.011  29.529  1.00  0.00     0.049 A 
ATOM     42  N   UNL A   1      42.424  30.912  29.160  1.00  0.00    -0.248 NA
ATOM     43  C   UNL A   1      41.262  32.479  30.447  1.00  0.00     0.031 C 
ATOM     44  C   UNL A   1      39.035  28.040  29.688  1.00  0.00     0.029 A 
ATOM     45  N   UNL A   1      41.067  28.342  28.800  1.00  0.00    -0.354 N 
ATOM     46  C   UNL A   1      43.194  32.062  29.296  1.00  0.00     0.074 A 
ATOM     47  C   UNL A   1      42.414  33.007  30.065  1.00  0.00     0.031 C 
ATOM     48  C   UNL A   1      39.380  26.900  29.062  1.00  0.00     0.029 A 
ATOM     49  C   UNL A   1      40.686  27.077  28.428  1.00  0.00     0.049 A 
ATOM     50  H   UNL A   1      41.939  28.734  28.564  1.00  0.00     0.167 HD
ATOM     51  C   UNL A   1      44.441  32.308  28.830  1.00  0.00     0.031 A 
ATOM     52  C   UNL A   1      41.307  26.175  27.642  1.00  0.00     0.031 A 
ATOM     53  C   UNL A   1      45.210  31.379  28.047  1.00  0.00     0.049 A 
ATOM     54  C   UNL A   1      42.655  26.508  27.055  1.00  0.00     0.074 A 
ATOM     55  C   UNL A   1      46.485  31.534  27.531  1.00  0.00     0.029 A 
ATOM     56  N   UNL A   1      44.771  30.123  27.658  1.00  0.00    -0.354 N 
ATOM     57  N   UNL A   1      43.383  27.588  27.210  1.00  0.00    -0.248 NA
ATOM     58  C   UNL A   1      43.270  25.490  26.189  1.00  0.00     0.031 C 
ATOM     59  C   UNL A   1      46.792  30.397  26.777  1.00  0.00     0.029 A 
ATOM     60  C   UNL A   1      45.738  29.504  26.884  1.00  0.00     0.049 A 
ATOM     61  H   UNL A   1      43.901  29.728  27.898  1.00  0.00     0.167 HD
ATOM     62  C   UNL A   1      44.551  27.366  26.487  1.00  0.00     0.074 A 
ATOM     63  C   UNL A   1      44.442  26.042  25.911  1.00  0.00     0.031 C 
ATOM     64  C   UNL A   1      45.618  28.185  26.317  1.00  0.00     0.031 A 
BRANCH  51  65
ATOM     65  C   UNL A   1      45.038  33.656  29.128  1.00  0.00    -0.014 A 
ATOM     66  C   UNL A   1      45.772  33.887  30.302  1.00  0.00     0.009 A 
ATOM     67  C   UNL A   1      44.889  34.702  28.204  1.00  0.00     0.009 A 
ATOM     68  C   UNL A   1      46.317  35.147  30.560  1.00  0.00     0.001 A 
ATOM     69  C   UNL A   1      45.462  35.951  28.448  1.00  0.00     0.001 A 
ATOM     70  C   UNL A   1      46.167  36.175  29.631  1.00  0.00     0.000 A 
ENDBRANCH  51  65
BRANCH  52  71
ATOM     71  C   UNL A   1      40.649  24.878  27.329  1.00  0.00    -0.014 A 
ATOM     72  C   UNL A   1      39.523  24.822  26.494  1.00  0.00     0.009 A 
ATOM     73  C   UNL A   1      41.129  23.685  27.896  1.00  0.00     0.009 A 
ATOM     74  C   UNL A   1      38.874  23.608  26.258  1.00  0.00     0.001 A 
ATOM     75  C   UNL A   1      40.498  22.468  27.632  1.00  0.00     0.001 A 
ATOM     76  C   UNL A   1      39.364  22.432  26.823  1.00  0.00     0.000 A 
ENDBRANCH  52  71
BRANCH  64  77
ATOM     77  C   UNL A   1      46.774  27.660  25.509  1.00  0.00    -0.014 A 
ATOM     78  C   UNL A   1      47.766  26.852  26.085  1.00  0.00     0.009 A 
ATOM     79  C   UNL A   1      46.844  27.944  24.135  1.00  0.00     0.009 A 
ATOM     80  C   UNL A   1      48.823  26.369  25.310  1.00  0.00     0.001 A 
ATOM     81  C   UNL A   1      47.883  27.433  23.356  1.00  0.00     0.001 A 
ATOM     82  C   UNL A   1      48.878  26.655  23.945  1.00  0.00     0.000 A 
ENDBRANCH  64  77
ENDBRANCH  38  39
ENDBRANCH  31  33
ENDBRANCH  30  31
ENDBRANCH  29  30
ENDBRANCH  28  29
ENDBRANCH  27  28
ENDBRANCH  26  27
ENDBRANCH  25  26
ENDBRANCH  24  25
ENDBRANCH  23  24
ENDBRANCH   1  23
TORSDOF 25
ENDMDL
MODEL 2
REMARK VINA RESULT:      -8.5      3.811      8.294
REMARK SMILES CN(CCO)C(=O)N[C@H]1C=C[C@@H](C(=O)OCCOCCOCCOCCOC(=O)c2ccc(-c3c4nc(c(-c5ccccc5)c5ccc([nH]5)c(-c5ccccc5)c5nc(c(-c6ccccc6)c6ccc3[nH]6)C=C5)C=C4)cc2)C1
REMARK SMILES IDX 19 1 18 2 17 3 16 4 15 5 13 6 14 7 12 8 9 9 10 10 78 11
REMARK SMILES IDX 11 12 8 13 6 14 7 15 2 17 1 18 3 19 4 20 5 21 20 23 21 24
REMARK SMILES IDX 22 25 23 26 24 27 25 28 26 29 27 30 28 31 29 32 30 33 31 34
REMARK SMILES IDX 77 35 32 36 76 37 33 38 34 39 35 40 70 41 36 42 75 43 69 44
REMARK SMILES IDX 71 45 37 46 74 47 68 48 67 49 38 51 60 52 45 53 59 54 46 55
REMARK SMILES IDX 49 56 58 57 72 58 47 59 48 60 57 62 73 63 50 64 39 65 40 66
REMARK SMILES IDX 44 67 41 68 43 69 42 70 61 71 62 72 66 73 63 74 65 75 64 76
REMARK SMILES IDX 51 77 52 78 56 79 53 80 55 81 54 82
REMARK H PARENT 8 16 5 22 71 50 49 61
REMARK Flexibility Score: inf
ROOT
ATOM      1  C   UNL A   1      32.985  24.599  22.816  1.00  0.00     0.188 C 
ENDROOT
BRANCH   1   2
ATOM      2  O   UNL A   1      32.340  23.493  23.431  1.00  0.00    -0.376 OA
BRANCH   2   3
ATOM      3  C   UNL A   1      32.517  23.260  24.825  1.00  0.00     0.202 C 
BRANCH   3   4
ATOM      4  C   UNL A   1      33.928  23.039  25.396  1.00  0.00     0.261 C 
BRANCH   4   5
ATOM      5  O   UNL A   1      34.793  22.234  24.573  1.00  0.00    -0.463 OA
BRANCH   5   6
ATOM      6  C   UNL A   1      36.066  22.671  24.404  1.00  0.00     0.312 C 
ATOM      7  O   UNL A   1      36.518  23.085  23.340  1.00  0.00    -0.252 OA
BRANCH   6   8
ATOM      8  C   UNL A   1      36.916  22.631  25.676  1.00  0.00     0.124 C 
ATOM      9  C   UNL A   1      39.260  22.417  26.461  1.00  0.00     0.107 C 
ATOM     10  C   UNL A   1      38.766  23.837  26.468  1.00  0.00    -0.006 C 
ATOM     11  C   UNL A   1      38.142  21.726  25.696  1.00  0.00     0.048 C 
ATOM     12  C   UNL A   1      37.507  23.956  26.029  1.00  0.00    -0.014 C 
BRANCH   9  13
ATOM     13  N   UNL A   1      40.556  22.389  25.804  1.00  0.00    -0.332 N 
ATOM     14  C   UNL A   1      41.792  21.913  26.009  1.00  0.00     0.317 C 
ATOM     15  O   UNL A   1      42.583  22.149  25.087  1.00  0.00    -0.249 OA
ATOM     16  H   UNL A   1      40.514  22.866  24.943  1.00  0.00     0.165 HD
BRANCH  14  17
ATOM     17  N   UNL A   1      42.205  21.222  27.114  1.00  0.00    -0.326 N 
ATOM     18  C   UNL A   1      42.951  22.013  28.090  1.00  0.00     0.148 C 
BRANCH  17  19
ATOM     19  C   UNL A   1      42.039  19.809  27.459  1.00  0.00     0.149 C 
BRANCH  19  20
ATOM     20  C   UNL A   1      42.422  18.773  26.397  1.00  0.00     0.177 C 
BRANCH  20  21
ATOM     21  O   UNL A   1      43.575  18.017  26.713  1.00  0.00    -0.395 OA
ATOM     22  H   UNL A   1      43.354  17.359  27.390  1.00  0.00     0.210 HD
ENDBRANCH  20  21
ENDBRANCH  19  20
ENDBRANCH  17  19
ENDBRANCH  14  17
ENDBRANCH   9  13
ENDBRANCH   6   8
ENDBRANCH   5   6
ENDBRANCH   4   5
ENDBRANCH   3   4
ENDBRANCH   2   3
ENDBRANCH   1   2
BRANCH   1  23
ATOM     23  C   UNL A   1      32.633  26.031  23.241  1.00  0.00     0.188 C 
BRANCH  23  24
ATOM     24  O   UNL A   1      31.253  26.332  23.282  1.00  0.00    -0.377 OA
BRANCH  24  25
ATOM     25  C   UNL A   1      30.799  27.364  22.411  1.00  0.00     0.188 C 
BRANCH  25  26
ATOM     26  C   UNL A   1      29.912  28.453  23.039  1.00  0.00     0.188 C 
BRANCH  26  27
ATOM     27  O   UNL A   1      30.683  29.470  23.663  1.00  0.00    -0.376 OA
BRANCH  27  28
ATOM     28  C   UNL A   1      31.268  29.242  24.933  1.00  0.00     0.202 C 
BRANCH  28  29
ATOM     29  C   UNL A   1      31.655  30.411  25.858  1.00  0.00     0.261 C 
BRANCH  29  30
ATOM     30  O   UNL A   1      33.007  30.483  26.326  1.00  0.00    -0.460 OA
BRANCH  30  31
ATOM     31  C   UNL A   1      33.336  31.496  27.156  1.00  0.00     0.338 C 
ATOM     32  O   UNL A   1      32.618  32.399  27.528  1.00  0.00    -0.246 OA
BRANCH  31  33
ATOM     33  C   UNL A   1      34.689  31.208  27.690  1.00  0.00     0.060 A 
ATOM     34  C   UNL A   1      34.985  29.906  28.111  1.00  0.00     0.016 A 
ATOM     35  C   UNL A   1      35.652  32.217  27.791  1.00  0.00     0.016 A 
ATOM     36  C   UNL A   1      36.228  29.620  28.678  1.00  0.00     0.010 A 
ATOM     37  C   UNL A   1      36.891  31.933  28.376  1.00  0.00     0.010 A 
ATOM     38  C   UNL A   1      37.169  30.642  28.858  1.00  0.00    -0.014 A 
BRANCH  38  39
ATOM     39  C   UNL A   1      38.356  30.407  29.718  1.00  0.00     0.031 A 
ATOM     40  C   UNL A   1      39.516  29.634  29.150  1.00  0.00     0.074 A 
ATOM     41  C   UNL A   1      38.422  30.893  30.972  1.00  0.00     0.049 A 
ATOM     42  N   UNL A   1      40.635  29.271  29.723  1.00  0.00    -0.248 NA
ATOM     43  C   UNL A   1      39.394  29.212  27.744  1.00  0.00     0.031 C 
ATOM     44  C   UNL A   1      37.392  31.696  31.625  1.00  0.00     0.029 A 
ATOM     45  N   UNL A   1      39.408  30.769  31.920  1.00  0.00    -0.354 N 
ATOM     46  C   UNL A   1      41.347  28.577  28.751  1.00  0.00     0.074 A 
ATOM     47  C   UNL A   1      40.520  28.539  27.565  1.00  0.00     0.031 C 
ATOM     48  C   UNL A   1      37.794  31.984  32.876  1.00  0.00     0.029 A 
ATOM     49  C   UNL A   1      39.091  31.354  33.121  1.00  0.00     0.049 A 
ATOM     50  H   UNL A   1      40.261  30.305  31.754  1.00  0.00     0.167 HD
ATOM     51  C   UNL A   1      42.582  28.027  28.834  1.00  0.00     0.031 A 
ATOM     52  C   UNL A   1      39.758  31.356  34.292  1.00  0.00     0.031 A 
ATOM     53  C   UNL A   1      43.397  28.045  30.018  1.00  0.00     0.049 A 
ATOM     54  C   UNL A   1      41.089  30.655  34.388  1.00  0.00     0.074 A 
ATOM     55  C   UNL A   1      44.664  27.517  30.200  1.00  0.00     0.029 A 
ATOM     56  N   UNL A   1      43.022  28.612  31.226  1.00  0.00    -0.354 N 
ATOM     57  N   UNL A   1      41.762  30.023  33.457  1.00  0.00    -0.248 NA
ATOM     58  C   UNL A   1      41.756  30.675  35.699  1.00  0.00     0.031 C 
ATOM     59  C   UNL A   1      45.029  27.711  31.537  1.00  0.00     0.029 A 
ATOM     60  C   UNL A   1      44.020  28.423  32.166  1.00  0.00     0.049 A 
ATOM     61  H   UNL A   1      42.172  29.082  31.390  1.00  0.00     0.167 HD
ATOM     62  C   UNL A   1      42.942  29.599  34.061  1.00  0.00     0.074 A 
ATOM     63  C   UNL A   1      42.900  30.062  35.432  1.00  0.00     0.031 C 
ATOM     64  C   UNL A   1      43.967  28.889  33.528  1.00  0.00     0.031 A 
BRANCH  51  65
ATOM     65  C   UNL A   1      43.110  27.325  27.613  1.00  0.00    -0.014 A 
ATOM     66  C   UNL A   1      43.836  28.016  26.630  1.00  0.00     0.009 A 
ATOM     67  C   UNL A   1      42.905  25.946  27.460  1.00  0.00     0.009 A 
ATOM     68  C   UNL A   1      44.318  27.345  25.503  1.00  0.00     0.001 A 
ATOM     69  C   UNL A   1      43.415  25.271  26.349  1.00  0.00     0.001 A 
ATOM     70  C   UNL A   1      44.111  25.974  25.367  1.00  0.00     0.000 A 
ENDBRANCH  51  65
BRANCH  52  71
ATOM     71  C   UNL A   1      39.166  32.014  35.488  1.00  0.00    -0.014 A 
ATOM     72  C   UNL A   1      39.462  33.350  35.798  1.00  0.00     0.009 A 
ATOM     73  C   UNL A   1      38.324  31.291  36.349  1.00  0.00     0.009 A 
ATOM     74  C   UNL A   1      38.952  33.938  36.958  1.00  0.00     0.001 A 
ATOM     75  C   UNL A   1      37.789  31.892  37.490  1.00  0.00     0.001 A 
ATOM     76  C   UNL A   1      38.113  33.211  37.800  1.00  0.00     0.000 A 
ENDBRANCH  52  71
BRANCH  64  77
ATOM     77  C   UNL A   1      45.149  28.606  34.414  1.00  0.00    -0.014 A 
ATOM     78  C   UNL A   1      46.134  29.575  34.659  1.00  0.00     0.009 A 
ATOM     79  C   UNL A   1      45.253  27.359  35.052  1.00  0.00     0.009 A 
ATOM     80  C   UNL A   1      47.216  29.289  35.495  1.00  0.00     0.001 A 
ATOM     81  C   UNL A   1      46.318  27.086  35.912  1.00  0.00     0.001 A 
ATOM     82  C   UNL A   1      47.304  28.048  36.125  1.00  0.00     0.000 A 
ENDBRANCH  64  77
ENDBRANCH  38  39
ENDBRANCH  31  33
ENDBRANCH  30  31
ENDBRANCH  29  30
ENDBRANCH  28  29
ENDBRANCH  27  28
ENDBRANCH  26  27
ENDBRANCH  25  26
ENDBRANCH  24  25
ENDBRANCH  23  24
ENDBRANCH   1  23
TORSDOF 25
ENDMDL
MODEL 3
REMARK VINA RESULT:      -8.1      4.196      9.022
REMARK SMILES CN(CCO)C(=O)N[C@H]1C=C[C@@H](C(=O)OCCOCCOCCOCCOC(=O)c2ccc(-c3c4nc(c(-c5ccccc5)c5ccc([nH]5)c(-c5ccccc5)c5nc(c(-c6ccccc6)c6ccc3[nH]6)C=C5)C=C4)cc2)C1
REMARK SMILES IDX 19 1 18 2 17 3 16 4 15 5 13 6 14 7 12 8 9 9 10 10 78 11
REMARK SMILES IDX 11 12 8 13 6 14 7 15 2 17 1 18 3 19 4 20 5 21 20 23 21 24
REMARK SMILES IDX 22 25 23 26 24 27 25 28 26 29 27 30 28 31 29 32 30 33 31 34
REMARK SMILES IDX 77 35 32 36 76 37 33 38 34 39 35 40 70 41 36 42 75 43 69 44
REMARK SMILES IDX 71 45 37 46 74 47 68 48 67 49 38 51 60 52 45 53 59 54 46 55
REMARK SMILES IDX 49 56 58 57 72 58 47 59 48 60 57 62 73 63 50 64 39 65 40 66
REMARK SMILES IDX 44 67 41 68 43 69 42 70 61 71 62 72 66 73 63 74 65 75 64 76
REMARK SMILES IDX 51 77 52 78 56 79 53 80 55 81 54 82
REMARK H PARENT 8 16 5 22 71 50 49 61
REMARK Flexibility Score: inf
ROOT
ATOM      1  C   UNL A   1      33.101  26.253  22.479  1.00  0.00     0.188 C 
ENDROOT
BRANCH   1   2
ATOM      2  O   UNL A   1      32.675  25.720  23.724  1.00  0.00    -0.376 OA
BRANCH   2   3
ATOM      3  C   UNL A   1      33.562  24.900  24.480  1.00  0.00     0.202 C 
BRANCH   3   4
ATOM      4  C   UNL A   1      34.405  23.825  23.775  1.00  0.00     0.261 C 
BRANCH   4   5
ATOM      5  O   UNL A   1      35.025  22.870  24.655  1.00  0.00    -0.463 OA
BRANCH   5   6
ATOM      6  C   UNL A   1      36.337  22.593  24.441  1.00  0.00     0.312 C 
ATOM      7  O   UNL A   1      36.830  22.400  23.334  1.00  0.00    -0.252 OA
BRANCH   6   8
ATOM      8  C   UNL A   1      37.185  22.563  25.714  1.00  0.00     0.124 C 
ATOM      9  C   UNL A   1      39.539  22.519  26.500  1.00  0.00     0.107 C 
ATOM     10  C   UNL A   1      38.919  23.887  26.579  1.00  0.00    -0.006 C 
ATOM     11  C   UNL A   1      38.488  21.772  25.694  1.00  0.00     0.048 C 
ATOM     12  C   UNL A   1      37.654  23.916  26.140  1.00  0.00    -0.014 C 
BRANCH   9  13
ATOM     13  N   UNL A   1      40.833  22.643  25.850  1.00  0.00    -0.332 N 
ATOM     14  C   UNL A   1      41.973  21.953  25.712  1.00  0.00     0.317 C 
ATOM     15  O   UNL A   1      42.817  22.511  24.998  1.00  0.00    -0.249 OA
ATOM     16  H   UNL A   1      40.889  23.495  25.360  1.00  0.00     0.165 HD
BRANCH  14  17
ATOM     17  N   UNL A   1      42.242  20.739  26.280  1.00  0.00    -0.326 N 
ATOM     18  C   UNL A   1      41.500  20.457  27.507  1.00  0.00     0.148 C 
BRANCH  17  19
ATOM     19  C   UNL A   1      43.176  19.691  25.867  1.00  0.00     0.149 C 
BRANCH  19  20
ATOM     20  C   UNL A   1      42.910  18.269  26.369  1.00  0.00     0.177 C 
BRANCH  20  21
ATOM     21  O   UNL A   1      44.059  17.600  26.852  1.00  0.00    -0.395 OA
ATOM     22  H   UNL A   1      44.327  16.917  26.218  1.00  0.00     0.210 HD
ENDBRANCH  20  21
ENDBRANCH  19  20
ENDBRANCH  17  19
ENDBRANCH  14  17
ENDBRANCH   9  13
ENDBRANCH   6   8
ENDBRANCH   5   6
ENDBRANCH   4   5
ENDBRANCH   3   4
ENDBRANCH   2   3
ENDBRANCH   1   2
BRANCH   1  23
ATOM     23  C   UNL A   1      33.693  27.667  22.407  1.00  0.00     0.188 C 
BRANCH  23  24
ATOM     24  O   UNL A   1      33.020  28.648  23.168  1.00  0.00    -0.377 OA
BRANCH  24  25
ATOM     25  C   UNL A   1      31.682  28.950  22.780  1.00  0.00     0.188 C 
BRANCH  25  26
ATOM     26  C   UNL A   1      30.664  29.144  23.918  1.00  0.00     0.188 C 
BRANCH  26  27
ATOM     27  O   UNL A   1      31.093  30.125  24.851  1.00  0.00    -0.376 OA
BRANCH  27  28
ATOM     28  C   UNL A   1      32.004  29.779  25.880  1.00  0.00     0.202 C 
BRANCH  28  29
ATOM     29  C   UNL A   1      32.180  30.670  27.125  1.00  0.00     0.261 C 
BRANCH  29  30
ATOM     30  O   UNL A   1      33.301  31.562  27.163  1.00  0.00    -0.460 OA
BRANCH  30  31
ATOM     31  C   UNL A   1      33.131  32.767  27.748  1.00  0.00     0.338 C 
ATOM     32  O   UNL A   1      32.224  33.550  27.558  1.00  0.00    -0.246 OA
BRANCH  31  33
ATOM     33  C   UNL A   1      34.154  32.890  28.813  1.00  0.00     0.060 A 
ATOM     34  C   UNL A   1      34.247  34.094  29.523  1.00  0.00     0.016 A 
ATOM     35  C   UNL A   1      35.026  31.835  29.097  1.00  0.00     0.016 A 
ATOM     36  C   UNL A   1      35.244  34.261  30.487  1.00  0.00     0.010 A 
ATOM     37  C   UNL A   1      36.034  32.011  30.051  1.00  0.00     0.010 A 
ATOM     38  C   UNL A   1      36.172  33.239  30.721  1.00  0.00    -0.014 A 
BRANCH  38  39
ATOM     39  C   UNL A   1      37.393  33.522  31.517  1.00  0.00     0.031 A 
ATOM     40  C   UNL A   1      38.636  33.970  30.795  1.00  0.00     0.074 A 
ATOM     41  C   UNL A   1      37.399  33.413  32.858  1.00  0.00     0.049 A 
ATOM     42  N   UNL A   1      39.826  34.233  31.271  1.00  0.00    -0.248 NA
ATOM     43  C   UNL A   1      38.518  34.143  29.337  1.00  0.00     0.031 C 
ATOM     44  C   UNL A   1      36.253  33.036  33.683  1.00  0.00     0.029 A 
ATOM     45  N   UNL A   1      38.416  33.607  33.760  1.00  0.00    -0.354 N 
ATOM     46  C   UNL A   1      40.598  34.597  30.173  1.00  0.00     0.074 A 
ATOM     47  C   UNL A   1      39.752  34.488  29.005  1.00  0.00     0.031 C 
ATOM     48  C   UNL A   1      36.635  33.013  34.972  1.00  0.00     0.029 A 
ATOM     49  C   UNL A   1      38.059  33.337  35.058  1.00  0.00     0.049 A 
ATOM     50  H   UNL A   1      39.317  33.910  33.500  1.00  0.00     0.167 HD
ATOM     51  C   UNL A   1      41.892  34.995  30.139  1.00  0.00     0.031 A 
ATOM     52  C   UNL A   1      38.802  33.325  36.182  1.00  0.00     0.031 A 
ATOM     53  C   UNL A   1      42.740  35.085  31.296  1.00  0.00     0.049 A 
ATOM     54  C   UNL A   1      40.266  33.679  36.106  1.00  0.00     0.074 A 
ATOM     55  C   UNL A   1      44.065  35.480  31.365  1.00  0.00     0.029 A 
ATOM     56  N   UNL A   1      42.351  34.763  32.587  1.00  0.00    -0.354 N 
ATOM     57  N   UNL A   1      40.978  34.045  35.068  1.00  0.00    -0.248 NA
ATOM     58  C   UNL A   1      41.026  33.626  37.364  1.00  0.00     0.031 C 
ATOM     59  C   UNL A   1      44.495  35.338  32.689  1.00  0.00     0.029 A 
ATOM     60  C   UNL A   1      43.418  34.924  33.456  1.00  0.00     0.049 A 
ATOM     61  H   UNL A   1      41.449  34.466  32.848  1.00  0.00     0.167 HD
ATOM     62  C   UNL A   1      42.258  34.294  35.552  1.00  0.00     0.074 A 
ATOM     63  C   UNL A   1      42.219  34.056  36.980  1.00  0.00     0.031 C 
ATOM     64  C   UNL A   1      43.366  34.684  34.875  1.00  0.00     0.031 A 
BRANCH  51  65
ATOM     65  C   UNL A   1      42.478  35.331  28.796  1.00  0.00    -0.014 A 
ATOM     66  C   UNL A   1      42.299  36.598  28.216  1.00  0.00     0.009 A 
ATOM     67  C   UNL A   1      43.247  34.376  28.114  1.00  0.00     0.009 A 
ATOM     68  C   UNL A   1      42.851  36.889  26.966  1.00  0.00     0.001 A 
ATOM     69  C   UNL A   1      43.825  34.680  26.880  1.00  0.00     0.001 A 
ATOM     70  C   UNL A   1      43.618  35.932  26.303  1.00  0.00     0.000 A 
ENDBRANCH  51  65
BRANCH  52  71
ATOM     71  C   UNL A   1      38.190  32.928  37.479  1.00  0.00    -0.014 A 
ATOM     72  C   UNL A   1      37.731  31.619  37.690  1.00  0.00     0.009 A 
ATOM     73  C   UNL A   1      38.029  33.875  38.505  1.00  0.00     0.009 A 
ATOM     74  C   UNL A   1      37.099  31.275  38.888  1.00  0.00     0.001 A 
ATOM     75  C   UNL A   1      37.427  33.518  39.713  1.00  0.00     0.001 A 
ATOM     76  C   UNL A   1      36.952  32.222  39.898  1.00  0.00     0.000 A 
ENDBRANCH  52  71
BRANCH  64  77
ATOM     77  C   UNL A   1      44.619  34.922  35.673  1.00  0.00    -0.014 A 
ATOM     78  C   UNL A   1      44.941  36.192  36.176  1.00  0.00     0.009 A 
ATOM     79  C   UNL A   1      45.468  33.842  35.966  1.00  0.00     0.009 A 
ATOM     80  C   UNL A   1      46.106  36.382  36.923  1.00  0.00     0.001 A 
ATOM     81  C   UNL A   1      46.614  34.028  36.741  1.00  0.00     0.001 A 
ATOM     82  C   UNL A   1      46.938  35.300  37.210  1.00  0.00     0.000 A 
ENDBRANCH  64  77
ENDBRANCH  38  39
ENDBRANCH  31  33
ENDBRANCH  30  31
ENDBRANCH  29  30
ENDBRANCH  28  29
ENDBRANCH  27  28
ENDBRANCH  26  27
ENDBRANCH  25  26
ENDBRANCH  24  25
ENDBRANCH  23  24
ENDBRANCH   1  23
TORSDOF 25
ENDMDL
