MODEL 1
REMARK VINA RESULT:      -8.7      0.000      0.000
REMARK SMILES CCOC(=O)NC(=O)COc1csc(C(=O)OCCOCCOCCOCCOC(=O)c2ccc(-c3c4nc(c(-c5ccccc5)c5ccc([nH]5)c(-c5ccccc5)c5nc(c(-c6ccccc6)c6ccc3[nH]6)C=C5)C=C4)cc2)c1
REMARK SMILES IDX 21 1 20 2 19 3 18 4 17 5 15 6 16 7 14 8 11 9 12 10 80 11
REMARK SMILES IDX 13 12 10 13 9 14 7 15 4 16 5 17 6 18 8 20 3 21 2 22 1 23
REMARK SMILES IDX 22 24 23 25 24 26 25 27 26 28 27 29 28 30 29 31 30 32 31 33
REMARK SMILES IDX 32 34 33 35 79 36 34 37 78 38 35 39 36 40 37 41 72 42 38 43
REMARK SMILES IDX 77 44 71 45 73 46 39 47 76 48 70 49 69 50 40 52 62 53 47 54
REMARK SMILES IDX 61 55 48 56 51 57 60 58 74 59 49 60 50 61 59 63 75 64 52 65
REMARK SMILES IDX 41 66 42 67 46 68 43 69 45 70 44 71 63 72 64 73 68 74 65 75
REMARK SMILES IDX 67 76 66 77 53 78 54 79 58 80 55 81 57 82 56 83
REMARK H PARENT 6 19 73 51 51 62
REMARK Flexibility Score: inf
ROOT
ATOM      1  C   UNL A   1      32.822  28.914  27.486  1.00  0.00     0.188 C 
ENDROOT
BRANCH   1   2
ATOM      2  O   UNL A   1      31.559  29.121  26.858  1.00  0.00    -0.376 OA
BRANCH   2   3
ATOM      3  C   UNL A   1      31.402  28.602  25.547  1.00  0.00     0.202 C 
BRANCH   3   4
ATOM      4  C   UNL A   1      31.456  27.072  25.419  1.00  0.00     0.261 C 
BRANCH   4   5
ATOM      5  O   UNL A   1      30.487  26.492  24.533  1.00  0.00    -0.459 OA
BRANCH   5   6
ATOM      6  C   UNL A   1      30.741  26.539  23.200  1.00  0.00     0.348 C 
ATOM      7  O   UNL A   1      30.470  27.491  22.478  1.00  0.00    -0.245 OA
BRANCH   6   8
ATOM      8  C   UNL A   1      31.505  25.363  22.840  1.00  0.00     0.116 A 
ATOM      9  C   UNL A   1      32.297  23.164  22.722  1.00  0.00     0.131 A 
ATOM     10  C   UNL A   1      33.360  23.866  22.201  1.00  0.00     0.112 A 
ATOM     11  C   UNL A   1      31.234  24.032  23.102  1.00  0.00     0.074 A 
ATOM     12  S   UNL A   1      33.024  25.544  22.073  1.00  0.00    -0.133 S 
BRANCH   9  13
ATOM     13  O   UNL A   1      32.161  21.823  22.836  1.00  0.00    -0.483 OA
BRANCH  13  14
ATOM     14  C   UNL A   1      32.667  21.197  23.994  1.00  0.00     0.329 C 
BRANCH  14  15
ATOM     15  C   UNL A   1      33.795  21.807  24.834  1.00  0.00     0.267 C 
ATOM     16  C   UNL A   1      32.431  22.580  26.833  1.00  0.00     0.413 C 
ATOM     17  O   UNL A   1      32.523  23.059  27.957  1.00  0.00    -0.224 OA
ATOM     18  N   UNL A   1      33.555  22.365  26.067  1.00  0.00    -0.258 N 
ATOM     19  H   UNL A   1      34.377  22.684  26.505  1.00  0.00     0.176 HD
ATOM     20  O   UNL A   1      34.955  21.827  24.405  1.00  0.00    -0.271 OA
BRANCH  16  21
ATOM     21  O   UNL A   1      31.274  22.229  26.234  1.00  0.00    -0.450 OA
BRANCH  21  22
ATOM     22  C   UNL A   1      30.175  23.137  26.389  1.00  0.00     0.231 C 
ATOM     23  C   UNL A   1      29.191  22.639  27.435  1.00  0.00     0.049 C 
ENDBRANCH  21  22
ENDBRANCH  16  21
ENDBRANCH  14  15
ENDBRANCH  13  14
ENDBRANCH   9  13
ENDBRANCH   6   8
ENDBRANCH   5   6
ENDBRANCH   4   5
ENDBRANCH   3   4
ENDBRANCH   2   3
ENDBRANCH   1   2
BRANCH   1  24
ATOM     24  C   UNL A   1      33.920  29.851  26.954  1.00  0.00     0.188 C 
BRANCH  24  25
ATOM     25  O   UNL A   1      33.796  31.206  27.352  1.00  0.00    -0.377 OA
BRANCH  25  26
ATOM     26  C   UNL A   1      34.896  31.835  28.010  1.00  0.00     0.188 C 
BRANCH  26  27
ATOM     27  C   UNL A   1      34.769  33.174  28.776  1.00  0.00     0.188 C 
BRANCH  27  28
ATOM     28  O   UNL A   1      33.931  33.132  29.926  1.00  0.00    -0.376 OA
BRANCH  28  29
ATOM     29  C   UNL A   1      34.056  34.207  30.844  1.00  0.00     0.202 C 
BRANCH  29  30
ATOM     30  C   UNL A   1      34.564  33.776  32.223  1.00  0.00     0.261 C 
BRANCH  30  31
ATOM     31  O   UNL A   1      35.990  33.846  32.385  1.00  0.00    -0.460 OA
BRANCH  31  32
ATOM     32  C   UNL A   1      36.560  32.926  33.194  1.00  0.00     0.338 C 
ATOM     33  O   UNL A   1      36.281  32.681  34.352  1.00  0.00    -0.246 OA
BRANCH  32  34
ATOM     34  C   UNL A   1      37.485  32.123  32.373  1.00  0.00     0.060 A 
ATOM     35  C   UNL A   1      38.443  31.326  33.012  1.00  0.00     0.016 A 
ATOM     36  C   UNL A   1      37.402  32.162  30.980  1.00  0.00     0.016 A 
ATOM     37  C   UNL A   1      39.352  30.591  32.252  1.00  0.00     0.010 A 
ATOM     38  C   UNL A   1      38.321  31.438  30.220  1.00  0.00     0.010 A 
ATOM     39  C   UNL A   1      39.320  30.679  30.853  1.00  0.00    -0.014 A 
BRANCH  39  40
ATOM     40  C   UNL A   1      40.443  30.143  30.053  1.00  0.00     0.031 A 
ATOM     41  C   UNL A   1      41.618  31.040  29.781  1.00  0.00     0.074 A 
ATOM     42  C   UNL A   1      40.423  28.891  29.566  1.00  0.00     0.049 A 
ATOM     43  N   UNL A   1      42.694  30.811  29.073  1.00  0.00    -0.248 NA
ATOM     44  C   UNL A   1      41.566  32.382  30.387  1.00  0.00     0.031 C 
ATOM     45  C   UNL A   1      39.359  27.914  29.783  1.00  0.00     0.029 A 
ATOM     46  N   UNL A   1      41.332  28.235  28.774  1.00  0.00    -0.354 N 
ATOM     47  C   UNL A   1      43.442  31.980  29.142  1.00  0.00     0.074 A 
ATOM     48  C   UNL A   1      42.685  32.925  29.933  1.00  0.00     0.031 C 
ATOM     49  C   UNL A   1      39.671  26.782  29.128  1.00  0.00     0.029 A 
ATOM     50  C   UNL A   1      40.938  26.967  28.424  1.00  0.00     0.049 A 
ATOM     51  H   UNL A   1      42.184  28.635  28.486  1.00  0.00     0.167 HD
ATOM     52  C   UNL A   1      44.652  32.245  28.596  1.00  0.00     0.031 A 
ATOM     53  C   UNL A   1      41.527  26.069  27.610  1.00  0.00     0.031 A 
ATOM     54  C   UNL A   1      45.393  31.316  27.788  1.00  0.00     0.049 A 
ATOM     55  C   UNL A   1      42.839  26.410  26.953  1.00  0.00     0.074 A 
ATOM     56  C   UNL A   1      46.639  31.481  27.208  1.00  0.00     0.029 A 
ATOM     57  N   UNL A   1      44.948  30.053  27.431  1.00  0.00    -0.354 N 
ATOM     58  N   UNL A   1      43.559  27.501  27.058  1.00  0.00    -0.248 NA
ATOM     59  C   UNL A   1      43.423  25.388  26.071  1.00  0.00     0.031 C 
ATOM     60  C   UNL A   1      46.920  30.339  26.450  1.00  0.00     0.029 A 
ATOM     61  C   UNL A   1      45.878  29.438  26.610  1.00  0.00     0.049 A 
ATOM     62  H   UNL A   1      44.096  29.652  27.718  1.00  0.00     0.167 HD
ATOM     63  C   UNL A   1      44.689  27.288  26.277  1.00  0.00     0.074 A 
ATOM     64  C   UNL A   1      44.566  25.959  25.716  1.00  0.00     0.031 C 
ATOM     65  C   UNL A   1      45.738  28.118  26.051  1.00  0.00     0.031 A 
BRANCH  52  66
ATOM     66  C   UNL A   1      45.218  33.617  28.826  1.00  0.00    -0.014 A 
ATOM     67  C   UNL A   1      44.957  34.675  27.940  1.00  0.00     0.009 A 
ATOM     68  C   UNL A   1      46.030  33.854  29.946  1.00  0.00     0.009 A 
ATOM     69  C   UNL A   1      45.533  35.930  28.148  1.00  0.00     0.001 A 
ATOM     70  C   UNL A   1      46.580  35.117  30.168  1.00  0.00     0.001 A 
ATOM     71  C   UNL A   1      46.342  36.150  29.263  1.00  0.00     0.000 A 
ENDBRANCH  52  66
BRANCH  53  72
ATOM     72  C   UNL A   1      40.868  24.761  27.356  1.00  0.00    -0.014 A 
ATOM     73  C   UNL A   1      39.737  24.676  26.532  1.00  0.00     0.009 A 
ATOM     74  C   UNL A   1      41.372  23.589  27.941  1.00  0.00     0.009 A 
ATOM     75  C   UNL A   1      39.114  23.445  26.310  1.00  0.00     0.001 A 
ATOM     76  C   UNL A   1      40.764  22.357  27.697  1.00  0.00     0.001 A 
ATOM     77  C   UNL A   1      39.631  22.286  26.887  1.00  0.00     0.000 A 
ENDBRANCH  53  72
BRANCH  65  78
ATOM     78  C   UNL A   1      46.852  27.603  25.182  1.00  0.00    -0.014 A 
ATOM     79  C   UNL A   1      46.924  27.925  23.818  1.00  0.00     0.009 A 
ATOM     80  C   UNL A   1      47.874  26.828  25.752  1.00  0.00     0.009 A 
ATOM     81  C   UNL A   1      47.981  27.453  23.036  1.00  0.00     0.001 A 
ATOM     82  C   UNL A   1      48.945  26.383  24.975  1.00  0.00     0.001 A 
ATOM     83  C   UNL A   1      48.993  26.689  23.616  1.00  0.00     0.000 A 
ENDBRANCH  65  78
ENDBRANCH  39  40
ENDBRANCH  32  34
ENDBRANCH  31  32
ENDBRANCH  30  31
ENDBRANCH  29  30
ENDBRANCH  28  29
ENDBRANCH  27  28
ENDBRANCH  26  27
ENDBRANCH  25  26
ENDBRANCH  24  25
ENDBRANCH   1  24
TORSDOF 25
ENDMDL
MODEL 2
REMARK VINA RESULT:      -8.4      2.088      6.432
REMARK SMILES CCOC(=O)NC(=O)COc1csc(C(=O)OCCOCCOCCOCCOC(=O)c2ccc(-c3c4nc(c(-c5ccccc5)c5ccc([nH]5)c(-c5ccccc5)c5nc(c(-c6ccccc6)c6ccc3[nH]6)C=C5)C=C4)cc2)c1
REMARK SMILES IDX 21 1 20 2 19 3 18 4 17 5 15 6 16 7 14 8 11 9 12 10 80 11
REMARK SMILES IDX 13 12 10 13 9 14 7 15 4 16 5 17 6 18 8 20 3 21 2 22 1 23
REMARK SMILES IDX 22 24 23 25 24 26 25 27 26 28 27 29 28 30 29 31 30 32 31 33
REMARK SMILES IDX 32 34 33 35 79 36 34 37 78 38 35 39 36 40 37 41 72 42 38 43
REMARK SMILES IDX 77 44 71 45 73 46 39 47 76 48 70 49 69 50 40 52 62 53 47 54
REMARK SMILES IDX 61 55 48 56 51 57 60 58 74 59 49 60 50 61 59 63 75 64 52 65
REMARK SMILES IDX 41 66 42 67 46 68 43 69 45 70 44 71 63 72 64 73 68 74 65 75
REMARK SMILES IDX 67 76 66 77 53 78 54 79 58 80 55 81 57 82 56 83
REMARK H PARENT 6 19 73 51 51 62
REMARK Flexibility Score: inf
ROOT
ATOM      1  C   UNL A   1      31.304  27.247  25.604  1.00  0.00     0.188 C 
ENDROOT
BRANCH   1   2
ATOM      2  O   UNL A   1      30.082  26.616  25.226  1.00  0.00    -0.376 OA
BRANCH   2   3
ATOM      3  C   UNL A   1      29.809  26.527  23.836  1.00  0.00     0.202 C 
BRANCH   3   4
ATOM      4  C   UNL A   1      30.837  27.188  22.906  1.00  0.00     0.261 C 
BRANCH   4   5
ATOM      5  O   UNL A   1      31.543  26.296  22.031  1.00  0.00    -0.459 OA
BRANCH   5   6
ATOM      6  C   UNL A   1      32.866  26.098  22.266  1.00  0.00     0.348 C 
ATOM      7  O   UNL A   1      33.743  26.915  22.012  1.00  0.00    -0.245 OA
BRANCH   6   8
ATOM      8  C   UNL A   1      33.019  24.852  22.988  1.00  0.00     0.116 A 
ATOM      9  C   UNL A   1      32.578  22.946  24.271  1.00  0.00     0.131 A 
ATOM     10  C   UNL A   1      33.947  23.036  24.378  1.00  0.00     0.112 A 
ATOM     11  C   UNL A   1      32.044  24.003  23.480  1.00  0.00     0.074 A 
ATOM     12  S   UNL A   1      34.583  24.322  23.437  1.00  0.00    -0.133 S 
BRANCH   9  13
ATOM     13  O   UNL A   1      31.766  21.980  24.761  1.00  0.00    -0.483 OA
BRANCH  13  14
ATOM     14  C   UNL A   1      32.269  20.665  24.845  1.00  0.00     0.329 C 
BRANCH  14  15
ATOM     15  C   UNL A   1      32.895  20.102  26.127  1.00  0.00     0.267 C 
ATOM     16  C   UNL A   1      32.805  17.627  25.562  1.00  0.00     0.413 C 
ATOM     17  O   UNL A   1      33.156  16.519  25.951  1.00  0.00    -0.224 OA
ATOM     18  N   UNL A   1      33.087  18.753  26.303  1.00  0.00    -0.258 N 
ATOM     19  H   UNL A   1      33.530  18.542  27.157  1.00  0.00     0.176 HD
ATOM     20  O   UNL A   1      33.226  20.860  27.046  1.00  0.00    -0.271 OA
BRANCH  16  21
ATOM     21  O   UNL A   1      32.126  17.868  24.422  1.00  0.00    -0.450 OA
BRANCH  21  22
ATOM     22  C   UNL A   1      32.788  17.514  23.199  1.00  0.00     0.231 C 
ATOM     23  C   UNL A   1      32.217  18.283  22.020  1.00  0.00     0.049 C 
ENDBRANCH  21  22
ENDBRANCH  16  21
ENDBRANCH  14  15
ENDBRANCH  13  14
ENDBRANCH   9  13
ENDBRANCH   6   8
ENDBRANCH   5   6
ENDBRANCH   4   5
ENDBRANCH   3   4
ENDBRANCH   2   3
ENDBRANCH   1   2
BRANCH   1  24
ATOM     24  C   UNL A   1      31.426  27.461  27.122  1.00  0.00     0.188 C 
BRANCH  24  25
ATOM     25  O   UNL A   1      32.251  28.546  27.509  1.00  0.00    -0.377 OA
BRANCH  25  26
ATOM     26  C   UNL A   1      32.130  29.787  26.813  1.00  0.00     0.188 C 
BRANCH  26  27
ATOM     27  C   UNL A   1      33.274  30.827  26.734  1.00  0.00     0.188 C 
BRANCH  27  28
ATOM     28  O   UNL A   1      33.532  31.531  27.943  1.00  0.00    -0.376 OA
BRANCH  28  29
ATOM     29  C   UNL A   1      34.895  31.741  28.279  1.00  0.00     0.202 C 
BRANCH  29  30
ATOM     30  C   UNL A   1      35.114  32.085  29.756  1.00  0.00     0.261 C 
BRANCH  30  31
ATOM     31  O   UNL A   1      36.461  31.905  30.220  1.00  0.00    -0.460 OA
BRANCH  31  32
ATOM     32  C   UNL A   1      36.710  30.801  30.959  1.00  0.00     0.338 C 
ATOM     33  O   UNL A   1      36.009  30.315  31.826  1.00  0.00    -0.246 OA
BRANCH  32  34
ATOM     34  C   UNL A   1      37.922  30.163  30.414  1.00  0.00     0.060 A 
ATOM     35  C   UNL A   1      38.844  29.588  31.297  1.00  0.00     0.016 A 
ATOM     36  C   UNL A   1      38.142  30.136  29.035  1.00  0.00     0.016 A 
ATOM     37  C   UNL A   1      40.014  29.015  30.802  1.00  0.00     0.010 A 
ATOM     38  C   UNL A   1      39.320  29.577  28.541  1.00  0.00     0.010 A 
ATOM     39  C   UNL A   1      40.276  29.047  29.425  1.00  0.00    -0.014 A 
BRANCH  39  40
ATOM     40  C   UNL A   1      41.625  28.709  28.920  1.00  0.00     0.031 A 
ATOM     41  C   UNL A   1      41.883  27.302  28.461  1.00  0.00     0.074 A 
ATOM     42  C   UNL A   1      42.608  29.625  28.878  1.00  0.00     0.049 A 
ATOM     43  N   UNL A   1      42.989  26.759  28.022  1.00  0.00    -0.248 NA
ATOM     44  C   UNL A   1      40.735  26.380  28.510  1.00  0.00     0.031 C 
ATOM     45  C   UNL A   1      42.478  31.027  29.266  1.00  0.00     0.029 A 
ATOM     46  N   UNL A   1      43.919  29.497  28.494  1.00  0.00    -0.354 N 
ATOM     47  C   UNL A   1      42.674  25.434  27.751  1.00  0.00     0.074 A 
ATOM     48  C   UNL A   1      41.283  25.246  28.103  1.00  0.00     0.031 C 
ATOM     49  C   UNL A   1      43.670  31.630  29.111  1.00  0.00     0.029 A 
ATOM     50  C   UNL A   1      44.648  30.650  28.644  1.00  0.00     0.049 A 
ATOM     51  H   UNL A   1      44.300  28.658  28.146  1.00  0.00     0.167 HD
ATOM     52  C   UNL A   1      43.468  24.458  27.252  1.00  0.00     0.031 A 
ATOM     53  C   UNL A   1      45.960  30.880  28.445  1.00  0.00     0.031 A 
ATOM     54  C   UNL A   1      44.857  24.636  26.928  1.00  0.00     0.049 A 
ATOM     55  C   UNL A   1      46.845  29.762  27.959  1.00  0.00     0.074 A 
ATOM     56  C   UNL A   1      45.743  23.716  26.395  1.00  0.00     0.029 A 
ATOM     57  N   UNL A   1      45.567  25.811  27.121  1.00  0.00    -0.354 N 
ATOM     58  N   UNL A   1      46.528  28.524  27.665  1.00  0.00    -0.248 NA
ATOM     59  C   UNL A   1      48.268  30.078  27.770  1.00  0.00     0.031 C 
ATOM     60  C   UNL A   1      47.004  24.318  26.323  1.00  0.00     0.029 A 
ATOM     61  C   UNL A   1      46.888  25.631  26.750  1.00  0.00     0.049 A 
ATOM     62  H   UNL A   1      45.187  26.650  27.470  1.00  0.00     0.167 HD
ATOM     63  C   UNL A   1      47.705  27.921  27.235  1.00  0.00     0.074 A 
ATOM     64  C   UNL A   1      48.739  28.934  27.292  1.00  0.00     0.031 C 
ATOM     65  C   UNL A   1      47.908  26.646  26.822  1.00  0.00     0.031 A 
BRANCH  52  66
ATOM     66  C   UNL A   1      42.853  23.099  27.077  1.00  0.00    -0.014 A 
ATOM     67  C   UNL A   1      42.437  22.641  25.816  1.00  0.00     0.009 A 
ATOM     68  C   UNL A   1      42.683  22.266  28.193  1.00  0.00     0.009 A 
ATOM     69  C   UNL A   1      41.824  21.392  25.686  1.00  0.00     0.001 A 
ATOM     70  C   UNL A   1      42.097  21.007  28.055  1.00  0.00     0.001 A 
ATOM     71  C   UNL A   1      41.658  20.576  26.805  1.00  0.00     0.000 A 
ENDBRANCH  52  66
BRANCH  53  72
ATOM     72  C   UNL A   1      46.524  32.227  28.722  1.00  0.00    -0.014 A 
ATOM     73  C   UNL A   1      46.561  33.208  27.721  1.00  0.00     0.009 A 
ATOM     74  C   UNL A   1      47.029  32.537  29.995  1.00  0.00     0.009 A 
ATOM     75  C   UNL A   1      47.107  34.467  27.984  1.00  0.00     0.001 A 
ATOM     76  C   UNL A   1      47.549  33.804  30.263  1.00  0.00     0.001 A 
ATOM     77  C   UNL A   1      47.594  34.766  29.256  1.00  0.00     0.000 A 
ENDBRANCH  53  72
BRANCH  65  78
ATOM     78  C   UNL A   1      49.296  26.278  26.372  1.00  0.00    -0.014 A 
ATOM     79  C   UNL A   1      49.773  26.637  25.102  1.00  0.00     0.009 A 
ATOM     80  C   UNL A   1      50.156  25.606  27.256  1.00  0.00     0.009 A 
ATOM     81  C   UNL A   1      51.073  26.303  24.716  1.00  0.00     0.001 A 
ATOM     82  C   UNL A   1      51.464  25.300  26.878  1.00  0.00     0.001 A 
ATOM     83  C   UNL A   1      51.918  25.641  25.606  1.00  0.00     0.000 A 
ENDBRANCH  65  78
ENDBRANCH  39  40
ENDBRANCH  32  34
ENDBRANCH  31  32
ENDBRANCH  30  31
ENDBRANCH  29  30
ENDBRANCH  28  29
ENDBRANCH  27  28
ENDBRANCH  26  27
ENDBRANCH  25  26
ENDBRANCH  24  25
ENDBRANCH   1  24
TORSDOF 25
ENDMDL
MODEL 3
REMARK VINA RESULT:      -8.0      4.856      9.436
REMARK SMILES CCOC(=O)NC(=O)COc1csc(C(=O)OCCOCCOCCOCCOC(=O)c2ccc(-c3c4nc(c(-c5ccccc5)c5ccc([nH]5)c(-c5ccccc5)c5nc(c(-c6ccccc6)c6ccc3[nH]6)C=C5)C=C4)cc2)c1
REMARK SMILES IDX 21 1 20 2 19 3 18 4 17 5 15 6 16 7 14 8 11 9 12 10 80 11
REMARK SMILES IDX 13 12 10 13 9 14 7 15 4 16 5 17 6 18 8 20 3 21 2 22 1 23
REMARK SMILES IDX 22 24 23 25 24 26 25 27 26 28 27 29 28 30 29 31 30 32 31 33
REMARK SMILES IDX 32 34 33 35 79 36 34 37 78 38 35 39 36 40 37 41 72 42 38 43
REMARK SMILES IDX 77 44 71 45 73 46 39 47 76 48 70 49 69 50 40 52 62 53 47 54
REMARK SMILES IDX 61 55 48 56 51 57 60 58 74 59 49 60 50 61 59 63 75 64 52 65
REMARK SMILES IDX 41 66 42 67 46 68 43 69 45 70 44 71 63 72 64 73 68 74 65 75
REMARK SMILES IDX 67 76 66 77 53 78 54 79 58 80 55 81 57 82 56 83
REMARK H PARENT 6 19 73 51 51 62
REMARK Flexibility Score: inf
ROOT
ATOM      1  C   UNL A   1      44.199  24.179  27.641  1.00  0.00     0.188 C 
ENDROOT
BRANCH   1   2
ATOM      2  O   UNL A   1      43.933  23.259  26.585  1.00  0.00    -0.376 OA
BRANCH   2   3
ATOM      3  C   UNL A   1      42.575  23.085  26.211  1.00  0.00     0.202 C 
BRANCH   3   4
ATOM      4  C   UNL A   1      42.143  21.643  25.906  1.00  0.00     0.261 C 
BRANCH   4   5
ATOM      5  O   UNL A   1      40.758  21.470  25.571  1.00  0.00    -0.459 OA
BRANCH   5   6
ATOM      6  C   UNL A   1      39.837  21.748  26.531  1.00  0.00     0.348 C 
ATOM      7  O   UNL A   1      40.105  21.944  27.710  1.00  0.00    -0.245 OA
BRANCH   6   8
ATOM      8  C   UNL A   1      38.549  21.916  25.891  1.00  0.00     0.116 A 
ATOM      9  C   UNL A   1      36.439  22.736  25.301  1.00  0.00     0.131 A 
ATOM     10  C   UNL A   1      36.378  21.451  24.813  1.00  0.00     0.112 A 
ATOM     11  C   UNL A   1      37.687  22.996  25.935  1.00  0.00     0.074 A 
ATOM     12  S   UNL A   1      37.860  20.611  25.023  1.00  0.00    -0.133 S 
BRANCH   9  13
ATOM     13  O   UNL A   1      35.512  23.716  25.184  1.00  0.00    -0.483 OA
BRANCH  13  14
ATOM     14  C   UNL A   1      34.594  23.895  26.240  1.00  0.00     0.329 C 
BRANCH  14  15
ATOM     15  C   UNL A   1      33.295  24.693  26.075  1.00  0.00     0.267 C 
ATOM     16  C   UNL A   1      31.655  22.760  25.919  1.00  0.00     0.413 C 
ATOM     17  O   UNL A   1      30.460  22.488  25.874  1.00  0.00    -0.224 OA
ATOM     18  N   UNL A   1      32.075  24.070  25.963  1.00  0.00    -0.258 N 
ATOM     19  H   UNL A   1      31.329  24.709  25.899  1.00  0.00     0.176 HD
ATOM     20  O   UNL A   1      33.322  25.928  26.022  1.00  0.00    -0.271 OA
BRANCH  16  21
ATOM     21  O   UNL A   1      32.655  21.855  25.923  1.00  0.00    -0.450 OA
BRANCH  21  22
ATOM     22  C   UNL A   1      32.441  20.665  25.148  1.00  0.00     0.231 C 
ATOM     23  C   UNL A   1      32.511  20.957  23.659  1.00  0.00     0.049 C 
ENDBRANCH  21  22
ENDBRANCH  16  21
ENDBRANCH  14  15
ENDBRANCH  13  14
ENDBRANCH   9  13
ENDBRANCH   6   8
ENDBRANCH   5   6
ENDBRANCH   4   5
ENDBRANCH   3   4
ENDBRANCH   2   3
ENDBRANCH   1   2
BRANCH   1  24
ATOM     24  C   UNL A   1      45.017  23.560  28.787  1.00  0.00     0.188 C 
BRANCH  24  25
ATOM     25  O   UNL A   1      44.325  23.434  30.017  1.00  0.00    -0.377 OA
BRANCH  25  26
ATOM     26  C   UNL A   1      44.240  24.569  30.880  1.00  0.00     0.188 C 
BRANCH  26  27
ATOM     27  C   UNL A   1      44.903  24.620  32.277  1.00  0.00     0.188 C 
BRANCH  27  28
ATOM     28  O   UNL A   1      44.687  23.471  33.088  1.00  0.00    -0.376 OA
BRANCH  28  29
ATOM     29  C   UNL A   1      44.843  23.641  34.489  1.00  0.00     0.202 C 
BRANCH  29  30
ATOM     30  C   UNL A   1      46.082  24.457  34.870  1.00  0.00     0.261 C 
BRANCH  30  31
ATOM     31  O   UNL A   1      46.074  24.964  36.214  1.00  0.00    -0.460 OA
BRANCH  31  32
ATOM     32  C   UNL A   1      46.508  26.232  36.392  1.00  0.00     0.338 C 
ATOM     33  O   UNL A   1      47.595  26.594  36.798  1.00  0.00    -0.246 OA
BRANCH  32  34
ATOM     34  C   UNL A   1      45.484  27.136  35.836  1.00  0.00     0.060 A 
ATOM     35  C   UNL A   1      44.145  26.954  36.203  1.00  0.00     0.016 A 
ATOM     36  C   UNL A   1      45.852  28.155  34.956  1.00  0.00     0.016 A 
ATOM     37  C   UNL A   1      43.160  27.774  35.656  1.00  0.00     0.010 A 
ATOM     38  C   UNL A   1      44.863  28.965  34.397  1.00  0.00     0.010 A 
ATOM     39  C   UNL A   1      43.511  28.755  34.718  1.00  0.00    -0.014 A 
BRANCH  39  40
ATOM     40  C   UNL A   1      42.461  29.428  33.923  1.00  0.00     0.031 A 
ATOM     41  C   UNL A   1      41.789  30.638  34.508  1.00  0.00     0.074 A 
ATOM     42  C   UNL A   1      42.100  28.974  32.710  1.00  0.00     0.049 A 
ATOM     43  N   UNL A   1      40.817  31.367  34.023  1.00  0.00    -0.248 NA
ATOM     44  C   UNL A   1      42.279  31.082  35.824  1.00  0.00     0.031 C 
ATOM     45  C   UNL A   1      42.693  27.832  32.021  1.00  0.00     0.029 A 
ATOM     46  N   UNL A   1      41.129  29.425  31.851  1.00  0.00    -0.354 N 
ATOM     47  C   UNL A   1      40.573  32.347  34.976  1.00  0.00     0.074 A 
ATOM     48  C   UNL A   1      41.477  32.104  36.079  1.00  0.00     0.031 C 
ATOM     49  C   UNL A   1      42.064  27.662  30.844  1.00  0.00     0.029 A 
ATOM     50  C   UNL A   1      41.008  28.664  30.715  1.00  0.00     0.049 A 
ATOM     51  H   UNL A   1      40.574  30.218  32.032  1.00  0.00     0.167 HD
ATOM     52  C   UNL A   1      39.679  33.362  34.938  1.00  0.00     0.031 A 
ATOM     53  C   UNL A   1      40.129  28.756  29.698  1.00  0.00     0.031 A 
ATOM     54  C   UNL A   1      38.763  33.590  33.854  1.00  0.00     0.049 A 
ATOM     55  C   UNL A   1      39.093  29.849  29.708  1.00  0.00     0.074 A 
ATOM     56  C   UNL A   1      37.833  34.605  33.710  1.00  0.00     0.029 A 
ATOM     57  N   UNL A   1      38.650  32.780  32.735  1.00  0.00    -0.354 N 
ATOM     58  N   UNL A   1      38.898  30.797  30.594  1.00  0.00    -0.248 NA
ATOM     59  C   UNL A   1      38.160  29.888  28.573  1.00  0.00     0.031 C 
ATOM     60  C   UNL A   1      37.116  34.374  32.531  1.00  0.00     0.029 A 
ATOM     61  C   UNL A   1      37.643  33.251  31.910  1.00  0.00     0.049 A 
ATOM     62  H   UNL A   1      39.204  31.987  32.553  1.00  0.00     0.167 HD
ATOM     63  C   UNL A   1      37.839  31.558  30.111  1.00  0.00     0.074 A 
ATOM     64  C   UNL A   1      37.443  30.969  28.848  1.00  0.00     0.031 C 
ATOM     65  C   UNL A   1      37.253  32.649  30.661  1.00  0.00     0.031 A 
BRANCH  52  66
ATOM     66  C   UNL A   1      39.626  34.271  36.133  1.00  0.00    -0.014 A 
ATOM     67  C   UNL A   1      40.356  35.469  36.176  1.00  0.00     0.009 A 
ATOM     68  C   UNL A   1      38.834  33.918  37.237  1.00  0.00     0.009 A 
ATOM     69  C   UNL A   1      40.328  36.274  37.317  1.00  0.00     0.001 A 
ATOM     70  C   UNL A   1      38.784  34.739  38.364  1.00  0.00     0.001 A 
ATOM     71  C   UNL A   1      39.540  35.909  38.408  1.00  0.00     0.000 A 
ENDBRANCH  52  66
BRANCH  53  72
ATOM     72  C   UNL A   1      40.181  27.770  28.587  1.00  0.00    -0.014 A 
ATOM     73  C   UNL A   1      39.573  26.513  28.716  1.00  0.00     0.009 A 
ATOM     74  C   UNL A   1      40.842  28.085  27.390  1.00  0.00     0.009 A 
ATOM     75  C   UNL A   1      39.638  25.586  27.673  1.00  0.00     0.001 A 
ATOM     76  C   UNL A   1      40.883  27.167  26.340  1.00  0.00     0.001 A 
ATOM     77  C   UNL A   1      40.288  25.915  26.484  1.00  0.00     0.000 A 
ENDBRANCH  53  72
BRANCH  65  78
ATOM     78  C   UNL A   1      36.138  33.299  29.889  1.00  0.00    -0.014 A 
ATOM     79  C   UNL A   1      36.247  33.543  28.511  1.00  0.00     0.009 A 
ATOM     80  C   UNL A   1      34.938  33.622  30.542  1.00  0.00     0.009 A 
ATOM     81  C   UNL A   1      35.188  34.126  27.811  1.00  0.00     0.001 A 
ATOM     82  C   UNL A   1      33.871  34.177  29.835  1.00  0.00     0.001 A 
ATOM     83  C   UNL A   1      34.000  34.437  28.472  1.00  0.00     0.000 A 
ENDBRANCH  65  78
ENDBRANCH  39  40
ENDBRANCH  32  34
ENDBRANCH  31  32
ENDBRANCH  30  31
ENDBRANCH  29  30
ENDBRANCH  28  29
ENDBRANCH  27  28
ENDBRANCH  26  27
ENDBRANCH  25  26
ENDBRANCH  24  25
ENDBRANCH   1  24
TORSDOF 25
ENDMDL
