MODEL 1
REMARK VINA RESULT:      -5.8      0.000      0.000
REMARK SMILES O=C(OCCOCCOCCOCCOC(=O)[C@H](c1ccccc1)N1C(=O)/C(=C/c2ccc(-c3nc4ccccc4s3)o2)SC1=S)c1ccc(-c2c3nc(c(-c4ccccc4)c4ccc([nH]4)c(-c4ccccc4)c4nc(c(-c5ccccc5)c5ccc2[nH]5)C=C4)C=C3)cc1
REMARK SMILES IDX 10 1 9 2 8 3 7 4 6 5 5 6 4 7 3 8 2 9 1 10 47 11 48 12 94 13
REMARK SMILES IDX 49 14 93 15 50 16 51 17 52 18 87 19 53 20 92 21 86 22 88 23
REMARK SMILES IDX 54 24 91 25 85 26 84 27 55 29 77 30 62 31 76 32 63 33 66 34
REMARK SMILES IDX 75 35 89 36 64 37 65 38 74 40 90 41 67 42 56 43 57 44 61 45
REMARK SMILES IDX 58 46 60 47 59 48 78 49 79 50 83 51 80 52 82 53 81 54 68 55
REMARK SMILES IDX 69 56 73 57 70 58 72 59 71 60 11 61 12 62 13 63 14 64 15 65
REMARK SMILES IDX 16 66 17 67 18 68 25 69 26 70 45 71 27 72 28 73 44 74 46 75
REMARK SMILES IDX 29 76 30 77 31 78 43 79 32 80 33 81 34 82 35 83 42 84 36 85
REMARK SMILES IDX 41 86 37 87 40 88 38 89 39 90 19 91 20 92 24 93 21 94 23 95
REMARK SMILES IDX 22 96
REMARK H PARENT 88 28 66 39
REMARK Flexibility Score: inf
ROOT
ATOM      1  C   UNL A   1      39.089  33.642  36.004  1.00  0.00     0.188 C 
ENDROOT
BRANCH   1   2
ATOM      2  O   UNL A   1      38.675  32.285  36.025  1.00  0.00    -0.377 OA
BRANCH   2   3
ATOM      3  C   UNL A   1      37.533  31.991  35.240  1.00  0.00     0.188 C 
BRANCH   3   4
ATOM      4  C   UNL A   1      36.938  33.203  34.529  1.00  0.00     0.188 C 
BRANCH   4   5
ATOM      5  O   UNL A   1      35.548  33.368  34.825  1.00  0.00    -0.376 OA
BRANCH   5   6
ATOM      6  C   UNL A   1      34.704  33.798  33.755  1.00  0.00     0.202 C 
BRANCH   6   7
ATOM      7  C   UNL A   1      34.490  32.767  32.652  1.00  0.00     0.261 C 
BRANCH   7   8
ATOM      8  O   UNL A   1      34.325  33.344  31.352  1.00  0.00    -0.460 OA
BRANCH   8   9
ATOM      9  C   UNL A   1      35.256  33.899  30.540  1.00  0.00     0.338 C 
ATOM     10  O   UNL A   1      34.854  34.637  29.640  1.00  0.00    -0.246 OA
BRANCH   9  11
ATOM     11  C   UNL A   1      36.736  33.653  30.616  1.00  0.00     0.060 A 
ATOM     12  C   UNL A   1      37.628  34.223  31.528  1.00  0.00     0.016 A 
ATOM     13  C   UNL A   1      37.254  32.709  29.709  1.00  0.00     0.016 A 
ATOM     14  C   UNL A   1      38.967  33.878  31.564  1.00  0.00     0.010 A 
ATOM     15  C   UNL A   1      38.613  32.389  29.696  1.00  0.00     0.010 A 
ATOM     16  C   UNL A   1      39.470  33.002  30.614  1.00  0.00    -0.014 A 
BRANCH  16  17
ATOM     17  C   UNL A   1      40.923  33.008  30.431  1.00  0.00     0.031 A 
ATOM     18  C   UNL A   1      41.648  31.746  30.783  1.00  0.00     0.074 A 
ATOM     19  C   UNL A   1      41.522  34.031  29.805  1.00  0.00     0.049 A 
ATOM     20  N   UNL A   1      42.925  31.496  30.794  1.00  0.00    -0.248 NA
ATOM     21  C   UNL A   1      40.803  30.595  31.162  1.00  0.00     0.031 C 
ATOM     22  C   UNL A   1      40.838  35.204  29.255  1.00  0.00     0.029 A 
ATOM     23  N   UNL A   1      42.839  34.235  29.504  1.00  0.00    -0.354 N 
ATOM     24  C   UNL A   1      43.039  30.182  31.228  1.00  0.00     0.074 A 
ATOM     25  C   UNL A   1      41.707  29.680  31.460  1.00  0.00     0.031 C 
ATOM     26  C   UNL A   1      41.748  36.013  28.692  1.00  0.00     0.029 A 
ATOM     27  C   UNL A   1      43.075  35.450  28.913  1.00  0.00     0.049 A 
ATOM     28  H   UNL A   1      43.546  33.576  29.691  1.00  0.00     0.167 HD
ATOM     29  C   UNL A   1      44.171  29.474  31.435  1.00  0.00     0.031 A 
ATOM     30  C   UNL A   1      44.248  36.051  28.649  1.00  0.00     0.031 A 
ATOM     31  C   UNL A   1      45.474  30.033  31.211  1.00  0.00     0.049 A 
ATOM     32  C   UNL A   1      45.503  35.303  29.012  1.00  0.00     0.074 A 
ATOM     33  C   UNL A   1      46.713  29.475  31.447  1.00  0.00     0.029 A 
ATOM     34  N   UNL A   1      45.689  31.306  30.694  1.00  0.00    -0.354 N 
ATOM     35  N   UNL A   1      45.625  34.092  29.511  1.00  0.00    -0.248 NA
ATOM     36  C   UNL A   1      46.776  35.997  28.793  1.00  0.00     0.031 C 
ATOM     37  C   UNL A   1      47.678  30.438  31.134  1.00  0.00     0.029 A 
ATOM     38  C   UNL A   1      47.043  31.567  30.631  1.00  0.00     0.049 A 
ATOM     39  H   UNL A   1      44.980  31.929  30.415  1.00  0.00     0.167 HD
ATOM     40  C   UNL A   1      46.987  33.871  29.651  1.00  0.00     0.074 A 
ATOM     41  C   UNL A   1      47.648  35.069  29.165  1.00  0.00     0.031 C 
ATOM     42  C   UNL A   1      47.640  32.785  30.136  1.00  0.00     0.031 A 
BRANCH  29  43
ATOM     43  C   UNL A   1      44.013  28.109  32.045  1.00  0.00    -0.014 A 
ATOM     44  C   UNL A   1      43.622  27.927  33.382  1.00  0.00     0.009 A 
ATOM     45  C   UNL A   1      44.356  26.982  31.282  1.00  0.00     0.009 A 
ATOM     46  C   UNL A   1      43.636  26.652  33.956  1.00  0.00     0.001 A 
ATOM     47  C   UNL A   1      44.337  25.706  31.848  1.00  0.00     0.001 A 
ATOM     48  C   UNL A   1      43.993  25.543  33.188  1.00  0.00     0.000 A 
ENDBRANCH  29  43
BRANCH  30  49
ATOM     49  C   UNL A   1      44.275  37.440  28.117  1.00  0.00    -0.014 A 
ATOM     50  C   UNL A   1      45.121  38.415  28.661  1.00  0.00     0.009 A 
ATOM     51  C   UNL A   1      43.448  37.794  27.036  1.00  0.00     0.009 A 
ATOM     52  C   UNL A   1      45.127  39.716  28.146  1.00  0.00     0.001 A 
ATOM     53  C   UNL A   1      43.478  39.084  26.503  1.00  0.00     0.001 A 
ATOM     54  C   UNL A   1      44.311  40.047  27.064  1.00  0.00     0.000 A 
ENDBRANCH  30  49
BRANCH  42  55
ATOM     55  C   UNL A   1      49.139  32.838  30.122  1.00  0.00    -0.014 A 
ATOM     56  C   UNL A   1      49.863  32.675  28.932  1.00  0.00     0.009 A 
ATOM     57  C   UNL A   1      49.823  33.133  31.310  1.00  0.00     0.009 A 
ATOM     58  C   UNL A   1      51.254  32.782  28.940  1.00  0.00     0.001 A 
ATOM     59  C   UNL A   1      51.210  33.274  31.308  1.00  0.00     0.001 A 
ATOM     60  C   UNL A   1      51.923  33.090  30.125  1.00  0.00     0.000 A 
ENDBRANCH  42  55
ENDBRANCH  16  17
ENDBRANCH   9  11
ENDBRANCH   8   9
ENDBRANCH   7   8
ENDBRANCH   6   7
ENDBRANCH   5   6
ENDBRANCH   4   5
ENDBRANCH   3   4
ENDBRANCH   2   3
ENDBRANCH   1   2
BRANCH   1  61
ATOM     61  C   UNL A   1      39.106  34.442  37.342  1.00  0.00     0.188 C 
BRANCH  61  62
ATOM     62  O   UNL A   1      40.223  35.307  37.498  1.00  0.00    -0.376 OA
BRANCH  62  63
ATOM     63  C   UNL A   1      41.431  34.666  37.906  1.00  0.00     0.202 C 
BRANCH  63  64
ATOM     64  C   UNL A   1      41.257  33.363  38.701  1.00  0.00     0.261 C 
BRANCH  64  65
ATOM     65  O   UNL A   1      41.593  32.203  37.906  1.00  0.00    -0.461 OA
BRANCH  65  66
ATOM     66  C   UNL A   1      42.803  31.638  38.041  1.00  0.00     0.334 C 
ATOM     67  O   UNL A   1      43.327  31.519  39.147  1.00  0.00    -0.249 OA
BRANCH  66  68
ATOM     68  C   UNL A   1      43.524  31.310  36.702  1.00  0.00     0.232 C 
BRANCH  68  69
ATOM     69  N   UNL A   1      43.873  32.595  36.118  1.00  0.00    -0.274 N 
ATOM     70  C   UNL A   1      43.122  32.983  35.031  1.00  0.00     0.267 C 
ATOM     71  C   UNL A   1      44.879  33.450  36.545  1.00  0.00     0.149 C 
ATOM     72  O   UNL A   1      42.215  32.346  34.500  1.00  0.00    -0.268 OA
ATOM     73  C   UNL A   1      43.604  34.271  34.542  1.00  0.00     0.084 C 
ATOM     74  S   UNL A   1      44.843  34.890  35.563  1.00  0.00    -0.054 SA
ATOM     75  S   UNL A   1      46.005  33.312  37.776  1.00  0.00    -0.052 S 
ATOM     76  C   UNL A   1      43.120  34.802  33.417  1.00  0.00     0.068 C 
BRANCH  76  77
ATOM     77  C   UNL A   1      43.687  35.993  32.933  1.00  0.00     0.129 A 
ATOM     78  C   UNL A   1      44.877  36.147  32.237  1.00  0.00     0.051 A 
ATOM     79  O   UNL A   1      43.174  37.227  33.208  1.00  0.00    -0.454 OA
ATOM     80  C   UNL A   1      45.134  37.520  32.165  1.00  0.00     0.054 A 
ATOM     81  C   UNL A   1      44.061  38.158  32.756  1.00  0.00     0.163 A 
BRANCH  81  82
ATOM     82  C   UNL A   1      43.892  39.567  32.871  1.00  0.00     0.160 A 
ATOM     83  N   UNL A   1      43.054  40.042  33.760  1.00  0.00    -0.233 NA
ATOM     84  S   UNL A   1      44.677  40.706  31.872  1.00  0.00    -0.111 S 
ATOM     85  C   UNL A   1      42.998  41.406  33.651  1.00  0.00     0.082 A 
ATOM     86  C   UNL A   1      43.793  41.966  32.649  1.00  0.00     0.055 A 
ATOM     87  C   UNL A   1      42.199  42.236  34.453  1.00  0.00     0.030 A 
ATOM     88  C   UNL A   1      43.791  43.346  32.402  1.00  0.00     0.021 A 
ATOM     89  C   UNL A   1      42.193  43.608  34.221  1.00  0.00     0.002 A 
ATOM     90  C   UNL A   1      42.974  44.153  33.204  1.00  0.00     0.002 A 
ENDBRANCH  81  82
ENDBRANCH  76  77
ENDBRANCH  68  69
BRANCH  68  91
ATOM     91  C   UNL A   1      44.642  30.271  36.394  1.00  0.00    -0.014 A 
ATOM     92  C   UNL A   1      45.581  30.375  35.348  1.00  0.00     0.006 A 
ATOM     93  C   UNL A   1      44.653  29.040  37.096  1.00  0.00     0.006 A 
ATOM     94  C   UNL A   1      46.489  29.345  35.043  1.00  0.00     0.000 A 
ATOM     95  C   UNL A   1      45.574  28.016  36.807  1.00  0.00     0.000 A 
ATOM     96  C   UNL A   1      46.492  28.168  35.775  1.00  0.00     0.000 A 
ENDBRANCH  68  91
ENDBRANCH  66  68
ENDBRANCH  65  66
ENDBRANCH  64  65
ENDBRANCH  63  64
ENDBRANCH  62  63
ENDBRANCH  61  62
ENDBRANCH   1  61
TORSDOF 24
ENDMDL
MODEL 2
REMARK VINA RESULT:      -5.7      4.191     11.051
REMARK SMILES O=C(OCCOCCOCCOCCOC(=O)[C@H](c1ccccc1)N1C(=O)/C(=C/c2ccc(-c3nc4ccccc4s3)o2)SC1=S)c1ccc(-c2c3nc(c(-c4ccccc4)c4ccc([nH]4)c(-c4ccccc4)c4nc(c(-c5ccccc5)c5ccc2[nH]5)C=C4)C=C3)cc1
REMARK SMILES IDX 10 1 9 2 8 3 7 4 6 5 5 6 4 7 3 8 2 9 1 10 47 11 48 12 94 13
REMARK SMILES IDX 49 14 93 15 50 16 51 17 52 18 87 19 53 20 92 21 86 22 88 23
REMARK SMILES IDX 54 24 91 25 85 26 84 27 55 29 77 30 62 31 76 32 63 33 66 34
REMARK SMILES IDX 75 35 89 36 64 37 65 38 74 40 90 41 67 42 56 43 57 44 61 45
REMARK SMILES IDX 58 46 60 47 59 48 78 49 79 50 83 51 80 52 82 53 81 54 68 55
REMARK SMILES IDX 69 56 73 57 70 58 72 59 71 60 11 61 12 62 13 63 14 64 15 65
REMARK SMILES IDX 16 66 17 67 18 68 25 69 26 70 45 71 27 72 28 73 44 74 46 75
REMARK SMILES IDX 29 76 30 77 31 78 43 79 32 80 33 81 34 82 35 83 42 84 36 85
REMARK SMILES IDX 41 86 37 87 40 88 38 89 39 90 19 91 20 92 24 93 21 94 23 95
REMARK SMILES IDX 22 96
REMARK H PARENT 88 28 66 39
REMARK Flexibility Score: inf
ROOT
ATOM      1  C   UNL A   1      44.831  38.569  26.506  1.00  0.00     0.188 C 
ENDROOT
BRANCH   1   2
ATOM      2  O   UNL A   1      44.844  39.921  26.074  1.00  0.00    -0.377 OA
BRANCH   2   3
ATOM      3  C   UNL A   1      43.970  40.786  26.776  1.00  0.00     0.188 C 
BRANCH   3   4
ATOM      4  C   UNL A   1      42.530  40.286  26.856  1.00  0.00     0.188 C 
BRANCH   4   5
ATOM      5  O   UNL A   1      41.883  40.709  28.060  1.00  0.00    -0.376 OA
BRANCH   5   6
ATOM      6  C   UNL A   1      42.055  39.882  29.213  1.00  0.00     0.202 C 
BRANCH   6   7
ATOM      7  C   UNL A   1      43.281  40.209  30.060  1.00  0.00     0.261 C 
BRANCH   7   8
ATOM      8  O   UNL A   1      42.962  40.642  31.387  1.00  0.00    -0.460 OA
BRANCH   8   9
ATOM      9  C   UNL A   1      43.389  40.148  32.573  1.00  0.00     0.338 C 
ATOM     10  O   UNL A   1      43.773  40.957  33.419  1.00  0.00    -0.246 OA
BRANCH   9  11
ATOM     11  C   UNL A   1      43.478  38.691  32.928  1.00  0.00     0.060 A 
ATOM     12  C   UNL A   1      44.069  37.683  32.163  1.00  0.00     0.016 A 
ATOM     13  C   UNL A   1      42.960  38.328  34.187  1.00  0.00     0.016 A 
ATOM     14  C   UNL A   1      44.164  36.377  32.610  1.00  0.00     0.010 A 
ATOM     15  C   UNL A   1      43.000  37.005  34.630  1.00  0.00     0.010 A 
ATOM     16  C   UNL A   1      43.582  36.028  33.819  1.00  0.00    -0.014 A 
BRANCH  16  17
ATOM     17  C   UNL A   1      43.339  34.599  34.032  1.00  0.00     0.031 A 
ATOM     18  C   UNL A   1      44.192  33.920  35.058  1.00  0.00     0.074 A 
ATOM     19  C   UNL A   1      42.280  34.001  33.466  1.00  0.00     0.049 A 
ATOM     20  N   UNL A   1      44.247  32.663  35.395  1.00  0.00    -0.248 NA
ATOM     21  C   UNL A   1      45.102  34.792  35.827  1.00  0.00     0.031 C 
ATOM     22  C   UNL A   1      41.290  34.663  32.613  1.00  0.00     0.029 A 
ATOM     23  N   UNL A   1      41.849  32.707  33.545  1.00  0.00    -0.354 N 
ATOM     24  C   UNL A   1      45.230  32.588  36.372  1.00  0.00     0.074 A 
ATOM     25  C   UNL A   1      45.739  33.919  36.588  1.00  0.00     0.031 C 
ATOM     26  C   UNL A   1      40.370  33.762  32.237  1.00  0.00     0.029 A 
ATOM     27  C   UNL A   1      40.753  32.455  32.759  1.00  0.00     0.049 A 
ATOM     28  H   UNL A   1      42.280  32.026  34.110  1.00  0.00     0.167 HD
ATOM     29  C   UNL A   1      45.678  31.484  37.011  1.00  0.00     0.031 A 
ATOM     30  C   UNL A   1      40.180  31.278  32.456  1.00  0.00     0.031 A 
ATOM     31  C   UNL A   1      45.152  30.177  36.739  1.00  0.00     0.049 A 
ATOM     32  C   UNL A   1      40.777  30.041  33.071  1.00  0.00     0.074 A 
ATOM     33  C   UNL A   1      45.551  28.956  37.243  1.00  0.00     0.029 A 
ATOM     34  N   UNL A   1      44.096  29.935  35.866  1.00  0.00    -0.354 N 
ATOM     35  N   UNL A   1      41.770  29.944  33.929  1.00  0.00    -0.248 NA
ATOM     36  C   UNL A   1      40.195  28.755  32.675  1.00  0.00     0.031 C 
ATOM     37  C   UNL A   1      44.777  27.969  36.621  1.00  0.00     0.029 A 
ATOM     38  C   UNL A   1      43.847  28.580  35.790  1.00  0.00     0.049 A 
ATOM     39  H   UNL A   1      43.600  30.630  35.375  1.00  0.00     0.167 HD
ATOM     40  C   UNL A   1      41.922  28.591  34.189  1.00  0.00     0.074 A 
ATOM     41  C   UNL A   1      40.904  27.908  33.409  1.00  0.00     0.031 C 
ATOM     42  C   UNL A   1      42.815  27.961  34.992  1.00  0.00     0.031 A 
BRANCH  29  43
ATOM     43  C   UNL A   1      46.854  31.665  37.929  1.00  0.00    -0.014 A 
ATOM     44  C   UNL A   1      48.179  31.509  37.488  1.00  0.00     0.009 A 
ATOM     45  C   UNL A   1      46.621  31.907  39.291  1.00  0.00     0.009 A 
ATOM     46  C   UNL A   1      49.238  31.534  38.402  1.00  0.00     0.001 A 
ATOM     47  C   UNL A   1      47.682  31.964  40.197  1.00  0.00     0.001 A 
ATOM     48  C   UNL A   1      48.987  31.761  39.755  1.00  0.00     0.000 A 
ENDBRANCH  29  43
BRANCH  30  49
ATOM     49  C   UNL A   1      39.068  31.219  31.469  1.00  0.00    -0.014 A 
ATOM     50  C   UNL A   1      37.749  31.519  31.835  1.00  0.00     0.009 A 
ATOM     51  C   UNL A   1      39.333  30.871  30.132  1.00  0.00     0.009 A 
ATOM     52  C   UNL A   1      36.720  31.454  30.890  1.00  0.00     0.001 A 
ATOM     53  C   UNL A   1      38.309  30.838  29.183  1.00  0.00     0.001 A 
ATOM     54  C   UNL A   1      37.001  31.121  29.565  1.00  0.00     0.000 A 
ENDBRANCH  30  49
BRANCH  42  55
ATOM     55  C   UNL A   1      42.698  26.469  35.091  1.00  0.00    -0.014 A 
ATOM     56  C   UNL A   1      41.719  25.867  35.895  1.00  0.00     0.009 A 
ATOM     57  C   UNL A   1      43.534  25.663  34.304  1.00  0.00     0.009 A 
ATOM     58  C   UNL A   1      41.599  24.478  35.927  1.00  0.00     0.001 A 
ATOM     59  C   UNL A   1      43.388  24.278  34.311  1.00  0.00     0.001 A 
ATOM     60  C   UNL A   1      42.426  23.687  35.129  1.00  0.00     0.000 A 
ENDBRANCH  42  55
ENDBRANCH  16  17
ENDBRANCH   9  11
ENDBRANCH   8   9
ENDBRANCH   7   8
ENDBRANCH   6   7
ENDBRANCH   5   6
ENDBRANCH   4   5
ENDBRANCH   3   4
ENDBRANCH   2   3
ENDBRANCH   1   2
BRANCH   1  61
ATOM     61  C   UNL A   1      46.183  37.800  26.607  1.00  0.00     0.188 C 
BRANCH  61  62
ATOM     62  O   UNL A   1      46.679  37.650  27.930  1.00  0.00    -0.376 OA
BRANCH  62  63
ATOM     63  C   UNL A   1      45.789  37.003  28.840  1.00  0.00     0.202 C 
BRANCH  63  64
ATOM     64  C   UNL A   1      45.359  35.580  28.451  1.00  0.00     0.261 C 
BRANCH  64  65
ATOM     65  O   UNL A   1      45.064  34.774  29.615  1.00  0.00    -0.461 OA
BRANCH  65  66
ATOM     66  C   UNL A   1      44.272  33.699  29.491  1.00  0.00     0.334 C 
ATOM     67  O   UNL A   1      43.078  33.819  29.221  1.00  0.00    -0.249 OA
BRANCH  66  68
ATOM     68  C   UNL A   1      44.942  32.346  29.867  1.00  0.00     0.232 C 
BRANCH  68  69
ATOM     69  N   UNL A   1      44.325  31.349  29.006  1.00  0.00    -0.274 N 
ATOM     70  C   UNL A   1      43.378  30.548  29.602  1.00  0.00     0.267 C 
ATOM     71  C   UNL A   1      44.603  31.132  27.664  1.00  0.00     0.149 C 
ATOM     72  O   UNL A   1      43.026  30.577  30.780  1.00  0.00    -0.268 OA
ATOM     73  C   UNL A   1      42.872  29.586  28.628  1.00  0.00     0.084 C 
ATOM     74  S   UNL A   1      43.546  29.878  27.072  1.00  0.00    -0.054 SA
ATOM     75  S   UNL A   1      45.695  31.857  26.625  1.00  0.00    -0.052 S 
ATOM     76  C   UNL A   1      42.033  28.615  28.995  1.00  0.00     0.068 C 
BRANCH  76  77
ATOM     77  C   UNL A   1      41.655  27.653  28.042  1.00  0.00     0.129 A 
ATOM     78  C   UNL A   1      40.577  27.698  27.170  1.00  0.00     0.051 A 
ATOM     79  O   UNL A   1      42.259  26.435  27.935  1.00  0.00    -0.454 OA
ATOM     80  C   UNL A   1      40.477  26.434  26.579  1.00  0.00     0.054 A 
ATOM     81  C   UNL A   1      41.535  25.685  27.057  1.00  0.00     0.163 A 
BRANCH  81  82
ATOM     82  C   UNL A   1      41.838  24.344  26.688  1.00  0.00     0.160 A 
ATOM     83  N   UNL A   1      41.053  23.375  27.093  1.00  0.00    -0.233 NA
ATOM     84  S   UNL A   1      43.212  23.891  25.784  1.00  0.00    -0.111 S 
ATOM     85  C   UNL A   1      41.565  22.173  26.684  1.00  0.00     0.082 A 
ATOM     86  C   UNL A   1      42.768  22.236  25.976  1.00  0.00     0.055 A 
ATOM     87  C   UNL A   1      40.975  20.926  26.946  1.00  0.00     0.030 A 
ATOM     88  C   UNL A   1      43.421  21.074  25.543  1.00  0.00     0.021 A 
ATOM     89  C   UNL A   1      41.612  19.766  26.515  1.00  0.00     0.002 A 
ATOM     90  C   UNL A   1      42.822  19.840  25.829  1.00  0.00     0.002 A 
ENDBRANCH  81  82
ENDBRANCH  76  77
ENDBRANCH  68  69
BRANCH  68  91
ATOM     91  C   UNL A   1      46.444  31.999  30.082  1.00  0.00    -0.014 A 
ATOM     92  C   UNL A   1      47.528  32.832  29.740  1.00  0.00     0.006 A 
ATOM     93  C   UNL A   1      46.797  30.693  30.506  1.00  0.00     0.006 A 
ATOM     94  C   UNL A   1      48.866  32.413  29.844  1.00  0.00     0.000 A 
ATOM     95  C   UNL A   1      48.135  30.278  30.633  1.00  0.00     0.000 A 
ATOM     96  C   UNL A   1      49.173  31.138  30.297  1.00  0.00     0.000 A 
ENDBRANCH  68  91
ENDBRANCH  66  68
ENDBRANCH  65  66
ENDBRANCH  64  65
ENDBRANCH  63  64
ENDBRANCH  62  63
ENDBRANCH  61  62
ENDBRANCH   1  61
TORSDOF 24
ENDMDL
MODEL 3
REMARK VINA RESULT:      -5.7      4.777     10.953
REMARK SMILES O=C(OCCOCCOCCOCCOC(=O)[C@H](c1ccccc1)N1C(=O)/C(=C/c2ccc(-c3nc4ccccc4s3)o2)SC1=S)c1ccc(-c2c3nc(c(-c4ccccc4)c4ccc([nH]4)c(-c4ccccc4)c4nc(c(-c5ccccc5)c5ccc2[nH]5)C=C4)C=C3)cc1
REMARK SMILES IDX 10 1 9 2 8 3 7 4 6 5 5 6 4 7 3 8 2 9 1 10 47 11 48 12 94 13
REMARK SMILES IDX 49 14 93 15 50 16 51 17 52 18 87 19 53 20 92 21 86 22 88 23
REMARK SMILES IDX 54 24 91 25 85 26 84 27 55 29 77 30 62 31 76 32 63 33 66 34
REMARK SMILES IDX 75 35 89 36 64 37 65 38 74 40 90 41 67 42 56 43 57 44 61 45
REMARK SMILES IDX 58 46 60 47 59 48 78 49 79 50 83 51 80 52 82 53 81 54 68 55
REMARK SMILES IDX 69 56 73 57 70 58 72 59 71 60 11 61 12 62 13 63 14 64 15 65
REMARK SMILES IDX 16 66 17 67 18 68 25 69 26 70 45 71 27 72 28 73 44 74 46 75
REMARK SMILES IDX 29 76 30 77 31 78 43 79 32 80 33 81 34 82 35 83 42 84 36 85
REMARK SMILES IDX 41 86 37 87 40 88 38 89 39 90 19 91 20 92 24 93 21 94 23 95
REMARK SMILES IDX 22 96
REMARK H PARENT 88 28 66 39
REMARK Flexibility Score: inf
ROOT
ATOM      1  C   UNL A   1      51.568  24.050  35.771  1.00  0.00     0.188 C 
ENDROOT
BRANCH   1   2
ATOM      2  O   UNL A   1      50.987  23.218  36.763  1.00  0.00    -0.377 OA
BRANCH   2   3
ATOM      3  C   UNL A   1      51.014  23.741  38.079  1.00  0.00     0.188 C 
BRANCH   3   4
ATOM      4  C   UNL A   1      49.637  23.885  38.720  1.00  0.00     0.188 C 
BRANCH   4   5
ATOM      5  O   UNL A   1      49.600  24.950  39.674  1.00  0.00    -0.376 OA
BRANCH   5   6
ATOM      6  C   UNL A   1      48.368  25.665  39.799  1.00  0.00     0.202 C 
BRANCH   6   7
ATOM      7  C   UNL A   1      47.992  26.513  38.589  1.00  0.00     0.261 C 
BRANCH   7   8
ATOM      8  O   UNL A   1      46.582  26.571  38.344  1.00  0.00    -0.460 OA
BRANCH   8   9
ATOM      9  C   UNL A   1      45.840  25.862  37.461  1.00  0.00     0.338 C 
ATOM     10  O   UNL A   1      45.853  24.635  37.567  1.00  0.00    -0.246 OA
BRANCH   9  11
ATOM     11  C   UNL A   1      45.036  26.445  36.334  1.00  0.00     0.060 A 
ATOM     12  C   UNL A   1      45.350  27.585  35.590  1.00  0.00     0.016 A 
ATOM     13  C   UNL A   1      43.881  25.729  35.962  1.00  0.00     0.016 A 
ATOM     14  C   UNL A   1      44.580  28.003  34.519  1.00  0.00     0.010 A 
ATOM     15  C   UNL A   1      43.063  26.167  34.920  1.00  0.00     0.010 A 
ATOM     16  C   UNL A   1      43.408  27.325  34.218  1.00  0.00    -0.014 A 
BRANCH  16  17
ATOM     17  C   UNL A   1      42.441  28.043  33.385  1.00  0.00     0.031 A 
ATOM     18  C   UNL A   1      41.636  29.110  34.061  1.00  0.00     0.074 A 
ATOM     19  C   UNL A   1      42.431  27.867  32.056  1.00  0.00     0.049 A 
ATOM     20  N   UNL A   1      40.667  29.842  33.593  1.00  0.00    -0.248 NA
ATOM     21  C   UNL A   1      41.991  29.402  35.464  1.00  0.00     0.031 C 
ATOM     22  C   UNL A   1      43.334  26.985  31.312  1.00  0.00     0.029 A 
ATOM     23  N   UNL A   1      41.648  28.440  31.094  1.00  0.00    -0.354 N 
ATOM     24  C   UNL A   1      40.265  30.641  34.655  1.00  0.00     0.074 A 
ATOM     25  C   UNL A   1      41.096  30.317  35.787  1.00  0.00     0.031 C 
ATOM     26  C   UNL A   1      43.043  27.070  30.004  1.00  0.00     0.029 A 
ATOM     27  C   UNL A   1      41.891  27.947  29.837  1.00  0.00     0.049 A 
ATOM     28  H   UNL A   1      40.980  29.138  31.283  1.00  0.00     0.167 HD
ATOM     29  C   UNL A   1      39.263  31.548  34.675  1.00  0.00     0.031 A 
ATOM     30  C   UNL A   1      41.200  28.145  28.700  1.00  0.00     0.031 A 
ATOM     31  C   UNL A   1      38.449  31.813  33.523  1.00  0.00     0.049 A 
ATOM     32  C   UNL A   1      40.004  29.055  28.770  1.00  0.00     0.074 A 
ATOM     33  C   UNL A   1      37.351  32.641  33.404  1.00  0.00     0.029 A 
ATOM     34  N   UNL A   1      38.659  31.230  32.278  1.00  0.00    -0.354 N 
ATOM     35  N   UNL A   1      39.554  29.748  29.794  1.00  0.00    -0.248 NA
ATOM     36  C   UNL A   1      39.211  29.205  27.546  1.00  0.00     0.031 C 
ATOM     37  C   UNL A   1      36.858  32.506  32.102  1.00  0.00     0.029 A 
ATOM     38  C   UNL A   1      37.693  31.655  31.388  1.00  0.00     0.049 A 
ATOM     39  H   UNL A   1      39.389  30.605  32.064  1.00  0.00     0.167 HD
ATOM     40  C   UNL A   1      38.436  30.429  29.335  1.00  0.00     0.074 A 
ATOM     41  C   UNL A   1      38.290  30.077  27.934  1.00  0.00     0.031 C 
ATOM     42  C   UNL A   1      37.602  31.266  30.001  1.00  0.00     0.031 A 
BRANCH  29  43
ATOM     43  C   UNL A   1      38.946  32.177  36.003  1.00  0.00    -0.014 A 
ATOM     44  C   UNL A   1      38.032  31.605  36.903  1.00  0.00     0.009 A 
ATOM     45  C   UNL A   1      39.512  33.422  36.316  1.00  0.00     0.009 A 
ATOM     46  C   UNL A   1      37.648  32.295  38.057  1.00  0.00     0.001 A 
ATOM     47  C   UNL A   1      39.152  34.095  37.485  1.00  0.00     0.001 A 
ATOM     48  C   UNL A   1      38.209  33.539  38.346  1.00  0.00     0.000 A 
ENDBRANCH  29  43
BRANCH  30  49
ATOM     49  C   UNL A   1      41.564  27.402  27.464  1.00  0.00    -0.014 A 
ATOM     50  C   UNL A   1      41.044  26.129  27.197  1.00  0.00     0.009 A 
ATOM     51  C   UNL A   1      42.438  27.982  26.527  1.00  0.00     0.009 A 
ATOM     52  C   UNL A   1      41.403  25.448  26.029  1.00  0.00     0.001 A 
ATOM     53  C   UNL A   1      42.770  27.314  25.347  1.00  0.00     0.001 A 
ATOM     54  C   UNL A   1      42.259  26.043  25.103  1.00  0.00     0.000 A 
ENDBRANCH  30  49
BRANCH  42  55
ATOM     55  C   UNL A   1      36.489  31.882  29.205  1.00  0.00    -0.014 A 
ATOM     56  C   UNL A   1      35.281  31.202  28.994  1.00  0.00     0.009 A 
ATOM     57  C   UNL A   1      36.634  33.194  28.730  1.00  0.00     0.009 A 
ATOM     58  C   UNL A   1      34.244  31.820  28.295  1.00  0.00     0.001 A 
ATOM     59  C   UNL A   1      35.584  33.821  28.063  1.00  0.00     0.001 A 
ATOM     60  C   UNL A   1      34.394  33.131  27.840  1.00  0.00     0.000 A 
ENDBRANCH  42  55
ENDBRANCH  16  17
ENDBRANCH   9  11
ENDBRANCH   8   9
ENDBRANCH   7   8
ENDBRANCH   6   7
ENDBRANCH   5   6
ENDBRANCH   4   5
ENDBRANCH   3   4
ENDBRANCH   2   3
ENDBRANCH   1   2
BRANCH   1  61
ATOM     61  C   UNL A   1      50.900  25.422  35.457  1.00  0.00     0.188 C 
BRANCH  61  62
ATOM     62  O   UNL A   1      51.663  26.271  34.610  1.00  0.00    -0.376 OA
BRANCH  62  63
ATOM     63  C   UNL A   1      50.907  27.242  33.888  1.00  0.00     0.202 C 
BRANCH  63  64
ATOM     64  C   UNL A   1      50.397  26.797  32.509  1.00  0.00     0.261 C 
BRANCH  64  65
ATOM     65  O   UNL A   1      50.185  27.924  31.628  1.00  0.00    -0.461 OA
BRANCH  65  66
ATOM     66  C   UNL A   1      50.914  28.033  30.507  1.00  0.00     0.334 C 
ATOM     67  O   UNL A   1      51.989  28.631  30.505  1.00  0.00    -0.249 OA
BRANCH  66  68
ATOM     68  C   UNL A   1      50.222  27.493  29.223  1.00  0.00     0.232 C 
BRANCH  68  69
ATOM     69  N   UNL A   1      49.285  28.529  28.816  1.00  0.00    -0.274 N 
ATOM     70  C   UNL A   1      47.971  28.320  29.168  1.00  0.00     0.267 C 
ATOM     71  C   UNL A   1      49.589  29.687  28.113  1.00  0.00     0.149 C 
ATOM     72  O   UNL A   1      47.516  27.345  29.763  1.00  0.00    -0.268 OA
ATOM     73  C   UNL A   1      47.154  29.423  28.672  1.00  0.00     0.084 C 
ATOM     74  S   UNL A   1      48.135  30.632  27.940  1.00  0.00    -0.054 SA
ATOM     75  S   UNL A   1      51.032  30.258  27.487  1.00  0.00    -0.052 S 
ATOM     76  C   UNL A   1      45.824  29.392  28.776  1.00  0.00     0.068 C 
BRANCH  76  77
ATOM     77  C   UNL A   1      45.075  30.428  28.193  1.00  0.00     0.129 A 
ATOM     78  C   UNL A   1      44.529  30.469  26.918  1.00  0.00     0.051 A 
ATOM     79  O   UNL A   1      44.886  31.639  28.794  1.00  0.00    -0.454 OA
ATOM     80  C   UNL A   1      44.072  31.776  26.712  1.00  0.00     0.054 A 
ATOM     81  C   UNL A   1      44.290  32.465  27.889  1.00  0.00     0.163 A 
BRANCH  81  82
ATOM     82  C   UNL A   1      43.941  33.824  28.133  1.00  0.00     0.160 A 
ATOM     83  N   UNL A   1      43.500  34.560  27.143  1.00  0.00    -0.233 NA
ATOM     84  S   UNL A   1      44.114  34.595  29.645  1.00  0.00    -0.111 S 
ATOM     85  C   UNL A   1      43.292  35.840  27.583  1.00  0.00     0.082 A 
ATOM     86  C   UNL A   1      43.600  36.076  28.925  1.00  0.00     0.055 A 
ATOM     87  C   UNL A   1      42.818  36.890  26.782  1.00  0.00     0.030 A 
ATOM     88  C   UNL A   1      43.476  37.354  29.488  1.00  0.00     0.021 A 
ATOM     89  C   UNL A   1      42.686  38.162  27.332  1.00  0.00     0.002 A 
ATOM     90  C   UNL A   1      43.018  38.390  28.665  1.00  0.00     0.002 A 
ENDBRANCH  81  82
ENDBRANCH  76  77
ENDBRANCH  68  69
BRANCH  68  91
ATOM     91  C   UNL A   1      50.835  26.815  27.963  1.00  0.00    -0.014 A 
ATOM     92  C   UNL A   1      50.122  26.467  26.799  1.00  0.00     0.006 A 
ATOM     93  C   UNL A   1      52.175  26.354  28.010  1.00  0.00     0.006 A 
ATOM     94  C   UNL A   1      50.704  25.744  25.742  1.00  0.00     0.000 A 
ATOM     95  C   UNL A   1      52.768  25.650  26.945  1.00  0.00     0.000 A 
ATOM     96  C   UNL A   1      52.029  25.341  25.810  1.00  0.00     0.000 A 
ENDBRANCH  68  91
ENDBRANCH  66  68
ENDBRANCH  65  66
ENDBRANCH  64  65
ENDBRANCH  63  64
ENDBRANCH  62  63
ENDBRANCH  61  62
ENDBRANCH   1  61
TORSDOF 24
ENDMDL
