MODEL 1
REMARK VINA RESULT:     -10.0      0.000      0.000
REMARK SMILES C[N@@H+]1C[C@@H](Oc2cccc3cccnc23)C[C@H]1C(=O)OCCOCCOCCOCCOC(=O)c1ccc(-c2c3nc(c(-c4ccccc4)c4ccc([nH]4)c(-c4ccccc4)c4nc(c(-c5ccccc5)c5ccc2[nH]5)C=C4)C=C3)cc1
REMARK SMILES IDX 26 1 25 2 24 3 23 4 22 5 21 6 20 7 18 8 19 9 17 10 1 11 2 12
REMARK SMILES IDX 3 13 4 15 16 16 5 17 6 18 7 19 15 20 8 21 10 22 14 23 9 24
REMARK SMILES IDX 11 25 13 26 12 27 27 28 28 29 29 30 30 31 31 32 32 33 33 34
REMARK SMILES IDX 34 35 35 36 36 37 82 38 37 39 81 40 38 41 39 42 40 43 75 44
REMARK SMILES IDX 41 45 80 46 74 47 76 48 42 49 79 50 73 51 72 52 43 54 65 55
REMARK SMILES IDX 50 56 64 57 51 58 54 59 63 60 77 61 52 62 53 63 62 65 78 66
REMARK SMILES IDX 55 67 44 68 45 69 49 70 46 71 48 72 47 73 66 74 67 75 71 76
REMARK SMILES IDX 68 77 70 78 69 79 56 80 57 81 61 82 58 83 60 84 59 85
REMARK H PARENT 2 14 76 53 54 64
REMARK Flexibility Score: inf
ROOT
ATOM      1  O   UNL A   1      41.338  20.155  27.178  1.00  0.00    -0.377 OA
ENDROOT
BRANCH   1   2
ATOM      2  C   UNL A   1      40.310  20.441  26.247  1.00  0.00     0.188 C 
BRANCH   2   3
ATOM      3  C   UNL A   1      39.685  21.833  26.370  1.00  0.00     0.188 C 
BRANCH   3   4
ATOM      4  O   UNL A   1      38.438  22.045  25.723  1.00  0.00    -0.376 OA
BRANCH   4   5
ATOM      5  C   UNL A   1      37.863  20.958  25.010  1.00  0.00     0.202 C 
BRANCH   5   6
ATOM      6  C   UNL A   1      36.341  20.778  25.022  1.00  0.00     0.261 C 
BRANCH   6   7
ATOM      7  O   UNL A   1      35.687  21.311  26.183  1.00  0.00    -0.459 OA
BRANCH   7   8
ATOM      8  C   UNL A   1      34.849  22.372  26.019  1.00  0.00     0.365 C 
ATOM      9  O   UNL A   1      34.717  23.278  26.839  1.00  0.00    -0.245 OA
BRANCH   8  10
ATOM     10  C   UNL A   1      34.076  22.359  24.685  1.00  0.00     0.298 C 
ATOM     11  C   UNL A   1      32.560  20.572  23.846  1.00  0.00     0.333 C 
ATOM     12  N   UNL A   1      32.804  21.642  24.791  1.00  0.00    -0.322 N 
ATOM     13  C   UNL A   1      31.710  22.588  24.984  1.00  0.00     0.308 C 
ATOM     14  H   UNL A   1      32.874  21.071  25.634  1.00  0.00     0.348 HD
ATOM     15  C   UNL A   1      32.280  23.989  24.721  1.00  0.00     0.234 C 
ATOM     16  C   UNL A   1      33.727  23.785  24.277  1.00  0.00     0.128 C 
BRANCH  15  17
ATOM     17  O   UNL A   1      32.122  25.019  25.707  1.00  0.00    -0.482 OA
BRANCH  17  18
ATOM     18  C   UNL A   1      32.251  26.327  25.311  1.00  0.00     0.146 A 
ATOM     19  C   UNL A   1      33.501  26.932  25.482  1.00  0.00     0.049 A 
ATOM     20  C   UNL A   1      31.224  26.957  24.590  1.00  0.00     0.112 A 
ATOM     21  C   UNL A   1      33.725  28.221  25.009  1.00  0.00     0.005 A 
ATOM     22  C   UNL A   1      31.465  28.273  24.131  1.00  0.00     0.004 A 
ATOM     23  N   UNL A   1      30.048  26.333  24.338  1.00  0.00    -0.252 NA
ATOM     24  C   UNL A   1      32.706  28.895  24.346  1.00  0.00     0.010 A 
ATOM     25  C   UNL A   1      30.447  28.935  23.434  1.00  0.00     0.012 A 
ATOM     26  C   UNL A   1      29.099  26.995  23.644  1.00  0.00     0.112 A 
ATOM     27  C   UNL A   1      29.248  28.284  23.179  1.00  0.00     0.021 A 
ENDBRANCH  17  18
ENDBRANCH  15  17
ENDBRANCH   8  10
ENDBRANCH   7   8
ENDBRANCH   6   7
ENDBRANCH   5   6
ENDBRANCH   4   5
ENDBRANCH   3   4
ENDBRANCH   2   3
ENDBRANCH   1   2
BRANCH   1  28
ATOM     28  C   UNL A   1      42.423  19.296  26.842  1.00  0.00     0.188 C 
BRANCH  28  29
ATOM     29  C   UNL A   1      43.163  19.574  25.535  1.00  0.00     0.188 C 
BRANCH  29  30
ATOM     30  O   UNL A   1      43.196  20.932  25.081  1.00  0.00    -0.376 OA
BRANCH  30  31
ATOM     31  C   UNL A   1      44.446  21.618  25.066  1.00  0.00     0.202 C 
BRANCH  31  32
ATOM     32  C   UNL A   1      44.454  22.898  24.236  1.00  0.00     0.261 C 
BRANCH  32  33
ATOM     33  O   UNL A   1      45.265  23.920  24.837  1.00  0.00    -0.460 OA
BRANCH  33  34
ATOM     34  C   UNL A   1      45.341  23.858  26.181  1.00  0.00     0.338 C 
ATOM     35  O   UNL A   1      46.194  23.281  26.855  1.00  0.00    -0.246 OA
BRANCH  34  36
ATOM     36  C   UNL A   1      44.293  24.686  26.792  1.00  0.00     0.060 A 
ATOM     37  C   UNL A   1      44.422  26.078  26.702  1.00  0.00     0.016 A 
ATOM     38  C   UNL A   1      43.276  24.109  27.558  1.00  0.00     0.016 A 
ATOM     39  C   UNL A   1      43.593  26.899  27.455  1.00  0.00     0.010 A 
ATOM     40  C   UNL A   1      42.447  24.935  28.319  1.00  0.00     0.010 A 
ATOM     41  C   UNL A   1      42.650  26.326  28.316  1.00  0.00    -0.014 A 
BRANCH  41  42
ATOM     42  C   UNL A   1      42.059  27.168  29.379  1.00  0.00     0.031 A 
ATOM     43  C   UNL A   1      42.773  27.257  30.700  1.00  0.00     0.074 A 
ATOM     44  C   UNL A   1      40.954  27.895  29.148  1.00  0.00     0.049 A 
ATOM     45  N   UNL A   1      42.459  27.942  31.769  1.00  0.00    -0.248 NA
ATOM     46  C   UNL A   1      44.013  26.470  30.832  1.00  0.00     0.031 C 
ATOM     47  C   UNL A   1      40.221  27.943  27.884  1.00  0.00     0.029 A 
ATOM     48  N   UNL A   1      40.265  28.743  29.975  1.00  0.00    -0.354 N 
ATOM     49  C   UNL A   1      43.457  27.667  32.696  1.00  0.00     0.074 A 
ATOM     50  C   UNL A   1      44.364  26.726  32.082  1.00  0.00     0.031 C 
ATOM     51  C   UNL A   1      39.180  28.783  28.022  1.00  0.00     0.029 A 
ATOM     52  C   UNL A   1      39.155  29.294  29.389  1.00  0.00     0.049 A 
ATOM     53  H   UNL A   1      40.541  28.938  30.899  1.00  0.00     0.167 HD
ATOM     54  C   UNL A   1      43.610  28.165  33.946  1.00  0.00     0.031 A 
ATOM     55  C   UNL A   1      38.213  30.106  29.904  1.00  0.00     0.031 A 
ATOM     56  C   UNL A   1      42.696  29.092  34.557  1.00  0.00     0.049 A 
ATOM     57  C   UNL A   1      38.354  30.572  31.327  1.00  0.00     0.074 A 
ATOM     58  C   UNL A   1      42.759  29.666  35.814  1.00  0.00     0.029 A 
ATOM     59  N   UNL A   1      41.546  29.576  33.952  1.00  0.00    -0.354 N 
ATOM     60  N   UNL A   1      39.310  30.321  32.189  1.00  0.00    -0.248 NA
ATOM     61  C   UNL A   1      37.293  31.449  31.839  1.00  0.00     0.031 C 
ATOM     62  C   UNL A   1      41.614  30.449  35.992  1.00  0.00     0.029 A 
ATOM     63  C   UNL A   1      40.873  30.416  34.821  1.00  0.00     0.049 A 
ATOM     64  H   UNL A   1      41.251  29.354  33.039  1.00  0.00     0.167 HD
ATOM     65  C   UNL A   1      38.982  31.032  33.336  1.00  0.00     0.074 A 
ATOM     66  C   UNL A   1      37.749  31.739  33.050  1.00  0.00     0.031 C 
ATOM     67  C   UNL A   1      39.640  31.098  34.520  1.00  0.00     0.031 A 
BRANCH  54  68
ATOM     68  C   UNL A   1      44.788  27.678  34.744  1.00  0.00    -0.014 A 
ATOM     69  C   UNL A   1      46.039  28.311  34.666  1.00  0.00     0.009 A 
ATOM     70  C   UNL A   1      44.639  26.575  35.599  1.00  0.00     0.009 A 
ATOM     71  C   UNL A   1      47.124  27.826  35.401  1.00  0.00     0.001 A 
ATOM     72  C   UNL A   1      45.718  26.111  36.354  1.00  0.00     0.001 A 
ATOM     73  C   UNL A   1      46.962  26.731  36.247  1.00  0.00     0.000 A 
ENDBRANCH  54  68
BRANCH  55  74
ATOM     74  C   UNL A   1      37.048  30.513  29.078  1.00  0.00    -0.014 A 
ATOM     75  C   UNL A   1      36.930  31.823  28.594  1.00  0.00     0.009 A 
ATOM     76  C   UNL A   1      36.035  29.586  28.778  1.00  0.00     0.009 A 
ATOM     77  C   UNL A   1      35.810  32.205  27.851  1.00  0.00     0.001 A 
ATOM     78  C   UNL A   1      34.932  29.962  28.010  1.00  0.00     0.001 A 
ATOM     79  C   UNL A   1      34.816  31.274  27.556  1.00  0.00     0.000 A 
ENDBRANCH  55  74
BRANCH  67  80
ATOM     80  C   UNL A   1      39.050  31.989  35.578  1.00  0.00    -0.014 A 
ATOM     81  C   UNL A   1      38.302  31.461  36.642  1.00  0.00     0.009 A 
ATOM     82  C   UNL A   1      39.263  33.375  35.516  1.00  0.00     0.009 A 
ATOM     83  C   UNL A   1      37.740  32.310  37.598  1.00  0.00     0.001 A 
ATOM     84  C   UNL A   1      38.730  34.218  36.492  1.00  0.00     0.001 A 
ATOM     85  C   UNL A   1      37.958  33.687  37.524  1.00  0.00     0.000 A 
ENDBRANCH  67  80
ENDBRANCH  41  42
ENDBRANCH  34  36
ENDBRANCH  33  34
ENDBRANCH  32  33
ENDBRANCH  31  32
ENDBRANCH  30  31
ENDBRANCH  29  30
ENDBRANCH  28  29
ENDBRANCH   1  28
TORSDOF 22
ENDMDL
MODEL 2
REMARK VINA RESULT:      -9.8      3.569      5.272
REMARK SMILES C[N@@H+]1C[C@@H](Oc2cccc3cccnc23)C[C@H]1C(=O)OCCOCCOCCOCCOC(=O)c1ccc(-c2c3nc(c(-c4ccccc4)c4ccc([nH]4)c(-c4ccccc4)c4nc(c(-c5ccccc5)c5ccc2[nH]5)C=C4)C=C3)cc1
REMARK SMILES IDX 26 1 25 2 24 3 23 4 22 5 21 6 20 7 18 8 19 9 17 10 1 11 2 12
REMARK SMILES IDX 3 13 4 15 16 16 5 17 6 18 7 19 15 20 8 21 10 22 14 23 9 24
REMARK SMILES IDX 11 25 13 26 12 27 27 28 28 29 29 30 30 31 31 32 32 33 33 34
REMARK SMILES IDX 34 35 35 36 36 37 82 38 37 39 81 40 38 41 39 42 40 43 75 44
REMARK SMILES IDX 41 45 80 46 74 47 76 48 42 49 79 50 73 51 72 52 43 54 65 55
REMARK SMILES IDX 50 56 64 57 51 58 54 59 63 60 77 61 52 62 53 63 62 65 78 66
REMARK SMILES IDX 55 67 44 68 45 69 49 70 46 71 48 72 47 73 66 74 67 75 71 76
REMARK SMILES IDX 68 77 70 78 69 79 56 80 57 81 61 82 58 83 60 84 59 85
REMARK H PARENT 2 14 76 53 54 64
REMARK Flexibility Score: inf
ROOT
ATOM      1  O   UNL A   1      32.880  20.653  26.385  1.00  0.00    -0.377 OA
ENDROOT
BRANCH   1   2
ATOM      2  C   UNL A   1      33.166  22.037  26.482  1.00  0.00     0.188 C 
BRANCH   2   3
ATOM      3  C   UNL A   1      34.310  22.403  27.430  1.00  0.00     0.188 C 
BRANCH   3   4
ATOM      4  O   UNL A   1      35.499  22.917  26.846  1.00  0.00    -0.376 OA
BRANCH   4   5
ATOM      5  C   UNL A   1      35.406  24.118  26.091  1.00  0.00     0.202 C 
BRANCH   5   6
ATOM      6  C   UNL A   1      35.642  24.069  24.577  1.00  0.00     0.261 C 
BRANCH   6   7
ATOM      7  O   UNL A   1      34.525  23.587  23.816  1.00  0.00    -0.459 OA
BRANCH   7   8
ATOM      8  C   UNL A   1      33.865  24.468  23.014  1.00  0.00     0.365 C 
ATOM      9  O   UNL A   1      34.218  25.630  22.831  1.00  0.00    -0.245 OA
BRANCH   8  10
ATOM     10  C   UNL A   1      32.620  23.874  22.323  1.00  0.00     0.298 C 
ATOM     11  C   UNL A   1      31.991  21.471  22.169  1.00  0.00     0.333 C 
ATOM     12  N   UNL A   1      32.148  22.656  22.985  1.00  0.00    -0.322 N 
ATOM     13  C   UNL A   1      31.039  22.971  23.880  1.00  0.00     0.308 C 
ATOM     14  H   UNL A   1      32.927  22.330  23.558  1.00  0.00     0.348 HD
ATOM     15  C   UNL A   1      30.610  24.412  23.570  1.00  0.00     0.234 C 
ATOM     16  C   UNL A   1      31.468  24.869  22.392  1.00  0.00     0.128 C 
BRANCH  15  17
ATOM     17  O   UNL A   1      30.532  25.375  24.631  1.00  0.00    -0.482 OA
BRANCH  17  18
ATOM     18  C   UNL A   1      30.693  26.703  24.320  1.00  0.00     0.146 A 
ATOM     19  C   UNL A   1      29.652  27.335  23.633  1.00  0.00     0.049 A 
ATOM     20  C   UNL A   1      31.773  27.430  24.844  1.00  0.00     0.112 A 
ATOM     21  C   UNL A   1      29.709  28.701  23.377  1.00  0.00     0.005 A 
ATOM     22  C   UNL A   1      31.823  28.815  24.562  1.00  0.00     0.004 A 
ATOM     23  N   UNL A   1      32.732  26.835  25.595  1.00  0.00    -0.252 NA
ATOM     24  C   UNL A   1      30.798  29.438  23.829  1.00  0.00     0.010 A 
ATOM     25  C   UNL A   1      32.905  29.559  25.047  1.00  0.00     0.012 A 
ATOM     26  C   UNL A   1      33.747  27.590  26.066  1.00  0.00     0.112 A 
ATOM     27  C   UNL A   1      33.878  28.939  25.819  1.00  0.00     0.021 A 
ENDBRANCH  17  18
ENDBRANCH  15  17
ENDBRANCH   8  10
ENDBRANCH   7   8
ENDBRANCH   6   7
ENDBRANCH   5   6
ENDBRANCH   4   5
ENDBRANCH   3   4
ENDBRANCH   2   3
ENDBRANCH   1   2
BRANCH   1  28
ATOM     28  C   UNL A   1      33.473  19.843  25.375  1.00  0.00     0.188 C 
BRANCH  28  29
ATOM     29  C   UNL A   1      34.684  20.412  24.638  1.00  0.00     0.188 C 
BRANCH  29  30
ATOM     30  O   UNL A   1      35.958  19.822  24.924  1.00  0.00    -0.376 OA
BRANCH  30  31
ATOM     31  C   UNL A   1      37.125  20.635  24.827  1.00  0.00     0.202 C 
BRANCH  31  32
ATOM     32  C   UNL A   1      38.438  19.880  25.020  1.00  0.00     0.261 C 
BRANCH  32  33
ATOM     33  O   UNL A   1      39.192  20.393  26.129  1.00  0.00    -0.460 OA
BRANCH  33  34
ATOM     34  C   UNL A   1      40.490  20.031  26.141  1.00  0.00     0.338 C 
ATOM     35  O   UNL A   1      40.976  18.981  25.723  1.00  0.00    -0.246 OA
BRANCH  34  36
ATOM     36  C   UNL A   1      41.324  21.131  26.644  1.00  0.00     0.060 A 
ATOM     37  C   UNL A   1      41.323  21.375  28.023  1.00  0.00     0.016 A 
ATOM     38  C   UNL A   1      41.986  21.992  25.764  1.00  0.00     0.016 A 
ATOM     39  C   UNL A   1      41.905  22.535  28.520  1.00  0.00     0.010 A 
ATOM     40  C   UNL A   1      42.565  23.159  26.263  1.00  0.00     0.010 A 
ATOM     41  C   UNL A   1      42.466  23.461  27.633  1.00  0.00    -0.014 A 
BRANCH  41  42
ATOM     42  C   UNL A   1      42.720  24.836  28.114  1.00  0.00     0.031 A 
ATOM     43  C   UNL A   1      44.141  25.243  28.395  1.00  0.00     0.074 A 
ATOM     44  C   UNL A   1      41.719  25.724  28.226  1.00  0.00     0.049 A 
ATOM     45  N   UNL A   1      44.609  26.394  28.804  1.00  0.00    -0.248 NA
ATOM     46  C   UNL A   1      45.175  24.215  28.180  1.00  0.00     0.031 C 
ATOM     47  C   UNL A   1      40.316  25.462  27.912  1.00  0.00     0.029 A 
ATOM     48  N   UNL A   1      41.740  27.034  28.627  1.00  0.00    -0.354 N 
ATOM     49  C   UNL A   1      45.986  26.226  28.898  1.00  0.00     0.074 A 
ATOM     50  C   UNL A   1      46.275  24.856  28.542  1.00  0.00     0.031 C 
ATOM     51  C   UNL A   1      39.608  26.584  28.132  1.00  0.00     0.029 A 
ATOM     52  C   UNL A   1      40.501  27.621  28.640  1.00  0.00     0.049 A 
ATOM     53  H   UNL A   1      42.564  27.507  28.881  1.00  0.00     0.167 HD
ATOM     54  C   UNL A   1      46.927  27.137  29.240  1.00  0.00     0.031 A 
ATOM     55  C   UNL A   1      40.127  28.852  29.033  1.00  0.00     0.031 A 
ATOM     56  C   UNL A   1      46.632  28.496  29.606  1.00  0.00     0.049 A 
ATOM     57  C   UNL A   1      41.181  29.819  29.498  1.00  0.00     0.074 A 
ATOM     58  C   UNL A   1      47.509  29.504  29.962  1.00  0.00     0.029 A 
ATOM     59  N   UNL A   1      45.355  29.034  29.669  1.00  0.00    -0.354 N 
ATOM     60  N   UNL A   1      42.481  29.656  29.566  1.00  0.00    -0.248 NA
ATOM     61  C   UNL A   1      40.715  31.145  29.924  1.00  0.00     0.031 C 
ATOM     62  C   UNL A   1      46.758  30.635  30.300  1.00  0.00     0.029 A 
ATOM     63  C   UNL A   1      45.417  30.350  30.089  1.00  0.00     0.049 A 
ATOM     64  H   UNL A   1      44.527  28.549  29.448  1.00  0.00     0.167 HD
ATOM     65  C   UNL A   1      42.991  30.867  30.013  1.00  0.00     0.074 A 
ATOM     66  C   UNL A   1      41.860  31.760  30.181  1.00  0.00     0.031 C 
ATOM     67  C   UNL A   1      44.278  31.215  30.262  1.00  0.00     0.031 A 
BRANCH  54  68
ATOM     68  C   UNL A   1      48.357  26.673  29.273  1.00  0.00    -0.014 A 
ATOM     69  C   UNL A   1      49.236  26.927  28.206  1.00  0.00     0.009 A 
ATOM     70  C   UNL A   1      48.838  25.982  30.396  1.00  0.00     0.009 A 
ATOM     71  C   UNL A   1      50.554  26.466  28.251  1.00  0.00     0.001 A 
ATOM     72  C   UNL A   1      50.164  25.549  30.450  1.00  0.00     0.001 A 
ATOM     73  C   UNL A   1      51.018  25.782  29.373  1.00  0.00     0.000 A 
ENDBRANCH  54  68
BRANCH  55  74
ATOM     74  C   UNL A   1      38.691  29.233  29.022  1.00  0.00    -0.014 A 
ATOM     75  C   UNL A   1      37.892  29.061  30.160  1.00  0.00     0.009 A 
ATOM     76  C   UNL A   1      38.109  29.764  27.858  1.00  0.00     0.009 A 
ATOM     77  C   UNL A   1      36.533  29.386  30.126  1.00  0.00     0.001 A 
ATOM     78  C   UNL A   1      36.758  30.116  27.836  1.00  0.00     0.001 A 
ATOM     79  C   UNL A   1      35.969  29.917  28.967  1.00  0.00     0.000 A 
ENDBRANCH  55  74
BRANCH  67  80
ATOM     80  C   UNL A   1      44.527  32.628  30.712  1.00  0.00    -0.014 A 
ATOM     81  C   UNL A   1      44.660  32.947  32.073  1.00  0.00     0.009 A 
ATOM     82  C   UNL A   1      44.649  33.649  29.758  1.00  0.00     0.009 A 
ATOM     83  C   UNL A   1      44.863  34.271  32.469  1.00  0.00     0.001 A 
ATOM     84  C   UNL A   1      44.887  34.966  30.155  1.00  0.00     0.001 A 
ATOM     85  C   UNL A   1      44.980  35.277  31.510  1.00  0.00     0.000 A 
ENDBRANCH  67  80
ENDBRANCH  41  42
ENDBRANCH  34  36
ENDBRANCH  33  34
ENDBRANCH  32  33
ENDBRANCH  31  32
ENDBRANCH  30  31
ENDBRANCH  29  30
ENDBRANCH  28  29
ENDBRANCH   1  28
TORSDOF 22
ENDMDL
MODEL 3
REMARK VINA RESULT:      -9.8      1.646      6.055
REMARK SMILES C[N@@H+]1C[C@@H](Oc2cccc3cccnc23)C[C@H]1C(=O)OCCOCCOCCOCCOC(=O)c1ccc(-c2c3nc(c(-c4ccccc4)c4ccc([nH]4)c(-c4ccccc4)c4nc(c(-c5ccccc5)c5ccc2[nH]5)C=C4)C=C3)cc1
REMARK SMILES IDX 26 1 25 2 24 3 23 4 22 5 21 6 20 7 18 8 19 9 17 10 1 11 2 12
REMARK SMILES IDX 3 13 4 15 16 16 5 17 6 18 7 19 15 20 8 21 10 22 14 23 9 24
REMARK SMILES IDX 11 25 13 26 12 27 27 28 28 29 29 30 30 31 31 32 32 33 33 34
REMARK SMILES IDX 34 35 35 36 36 37 82 38 37 39 81 40 38 41 39 42 40 43 75 44
REMARK SMILES IDX 41 45 80 46 74 47 76 48 42 49 79 50 73 51 72 52 43 54 65 55
REMARK SMILES IDX 50 56 64 57 51 58 54 59 63 60 77 61 52 62 53 63 62 65 78 66
REMARK SMILES IDX 55 67 44 68 45 69 49 70 46 71 48 72 47 73 66 74 67 75 71 76
REMARK SMILES IDX 68 77 70 78 69 79 56 80 57 81 61 82 58 83 60 84 59 85
REMARK H PARENT 2 14 76 53 54 64
REMARK Flexibility Score: inf
ROOT
ATOM      1  O   UNL A   1      39.341  19.358  25.307  1.00  0.00    -0.377 OA
ENDROOT
BRANCH   1   2
ATOM      2  C   UNL A   1      38.173  20.094  24.989  1.00  0.00     0.188 C 
BRANCH   2   3
ATOM      3  C   UNL A   1      38.125  21.518  25.547  1.00  0.00     0.188 C 
BRANCH   3   4
ATOM      4  O   UNL A   1      36.867  22.177  25.539  1.00  0.00    -0.376 OA
BRANCH   4   5
ATOM      5  C   UNL A   1      35.844  21.654  24.702  1.00  0.00     0.202 C 
BRANCH   5   6
ATOM      6  C   UNL A   1      34.458  21.383  25.296  1.00  0.00     0.261 C 
BRANCH   6   7
ATOM      7  O   UNL A   1      33.705  22.563  25.615  1.00  0.00    -0.459 OA
BRANCH   7   8
ATOM      8  C   UNL A   1      32.747  22.474  26.579  1.00  0.00     0.365 C 
ATOM      9  O   UNL A   1      32.985  22.387  27.781  1.00  0.00    -0.245 OA
BRANCH   8  10
ATOM     10  C   UNL A   1      31.305  22.512  26.034  1.00  0.00     0.298 C 
ATOM     11  C   UNL A   1      29.203  22.657  27.358  1.00  0.00     0.333 C 
ATOM     12  N   UNL A   1      30.412  23.298  26.887  1.00  0.00    -0.322 N 
ATOM     13  C   UNL A   1      30.254  24.642  26.341  1.00  0.00     0.308 C 
ATOM     14  H   UNL A   1      30.886  23.381  27.787  1.00  0.00     0.348 HD
ATOM     15  C   UNL A   1      30.861  24.626  24.932  1.00  0.00     0.234 C 
ATOM     16  C   UNL A   1      31.287  23.184  24.667  1.00  0.00     0.128 C 
BRANCH  15  17
ATOM     17  O   UNL A   1      31.858  25.594  24.575  1.00  0.00    -0.482 OA
BRANCH  17  18
ATOM     18  C   UNL A   1      31.444  26.844  24.185  1.00  0.00     0.146 A 
ATOM     19  C   UNL A   1      30.661  26.933  23.029  1.00  0.00     0.049 A 
ATOM     20  C   UNL A   1      31.641  27.953  25.023  1.00  0.00     0.112 A 
ATOM     21  C   UNL A   1      30.126  28.155  22.638  1.00  0.00     0.005 A 
ATOM     22  C   UNL A   1      31.103  29.191  24.601  1.00  0.00     0.004 A 
ATOM     23  N   UNL A   1      32.316  27.846  26.194  1.00  0.00    -0.252 NA
ATOM     24  C   UNL A   1      30.357  29.285  23.415  1.00  0.00     0.010 A 
ATOM     25  C   UNL A   1      31.311  30.319  25.404  1.00  0.00     0.012 A 
ATOM     26  C   UNL A   1      32.475  28.951  26.952  1.00  0.00     0.112 A 
ATOM     27  C   UNL A   1      31.999  30.196  26.603  1.00  0.00     0.021 A 
ENDBRANCH  17  18
ENDBRANCH  15  17
ENDBRANCH   8  10
ENDBRANCH   7   8
ENDBRANCH   6   7
ENDBRANCH   5   6
ENDBRANCH   4   5
ENDBRANCH   3   4
ENDBRANCH   2   3
ENDBRANCH   1   2
BRANCH   1  28
ATOM     28  C   UNL A   1      40.399  19.938  26.064  1.00  0.00     0.188 C 
BRANCH  28  29
ATOM     29  C   UNL A   1      41.599  19.051  26.390  1.00  0.00     0.188 C 
BRANCH  29  30
ATOM     30  O   UNL A   1      42.886  19.679  26.411  1.00  0.00    -0.376 OA
BRANCH  30  31
ATOM     31  C   UNL A   1      43.791  19.419  25.341  1.00  0.00     0.202 C 
BRANCH  31  32
ATOM     32  C   UNL A   1      44.741  20.571  25.023  1.00  0.00     0.261 C 
BRANCH  32  33
ATOM     33  O   UNL A   1      44.373  21.774  25.716  1.00  0.00    -0.460 OA
BRANCH  33  34
ATOM     34  C   UNL A   1      43.730  22.684  24.959  1.00  0.00     0.338 C 
ATOM     35  O   UNL A   1      43.589  22.674  23.736  1.00  0.00    -0.246 OA
BRANCH  34  36
ATOM     36  C   UNL A   1      43.089  23.697  25.808  1.00  0.00     0.060 A 
ATOM     37  C   UNL A   1      43.399  25.042  25.570  1.00  0.00     0.016 A 
ATOM     38  C   UNL A   1      42.307  23.326  26.905  1.00  0.00     0.016 A 
ATOM     39  C   UNL A   1      43.007  26.013  26.482  1.00  0.00     0.010 A 
ATOM     40  C   UNL A   1      41.919  24.301  27.824  1.00  0.00     0.010 A 
ATOM     41  C   UNL A   1      42.326  25.635  27.645  1.00  0.00    -0.014 A 
BRANCH  41  42
ATOM     42  C   UNL A   1      42.262  26.592  28.771  1.00  0.00     0.031 A 
ATOM     43  C   UNL A   1      41.096  27.541  28.836  1.00  0.00     0.074 A 
ATOM     44  C   UNL A   1      43.180  26.566  29.750  1.00  0.00     0.049 A 
ATOM     45  N   UNL A   1      40.817  28.451  29.733  1.00  0.00    -0.248 NA
ATOM     46  C   UNL A   1      40.109  27.447  27.746  1.00  0.00     0.031 C 
ATOM     47  C   UNL A   1      44.310  25.642  29.828  1.00  0.00     0.029 A 
ATOM     48  N   UNL A   1      43.293  27.338  30.877  1.00  0.00    -0.354 N 
ATOM     49  C   UNL A   1      39.628  29.037  29.314  1.00  0.00     0.074 A 
ATOM     50  C   UNL A   1      39.259  28.410  28.066  1.00  0.00     0.031 C 
ATOM     51  C   UNL A   1      45.003  25.904  30.950  1.00  0.00     0.029 A 
ATOM     52  C   UNL A   1      44.390  27.034  31.640  1.00  0.00     0.049 A 
ATOM     53  H   UNL A   1      42.648  28.043  31.114  1.00  0.00     0.167 HD
ATOM     54  C   UNL A   1      38.903  30.006  29.922  1.00  0.00     0.031 A 
ATOM     55  C   UNL A   1      44.856  27.613  32.761  1.00  0.00     0.031 A 
ATOM     56  C   UNL A   1      39.282  30.635  31.158  1.00  0.00     0.049 A 
ATOM     57  C   UNL A   1      44.082  28.751  33.368  1.00  0.00     0.074 A 
ATOM     58  C   UNL A   1      38.617  31.620  31.865  1.00  0.00     0.029 A 
ATOM     59  N   UNL A   1      40.438  30.342  31.867  1.00  0.00    -0.354 N 
ATOM     60  N   UNL A   1      42.951  29.285  32.974  1.00  0.00    -0.248 NA
ATOM     61  C   UNL A   1      44.643  29.352  34.586  1.00  0.00     0.031 C 
ATOM     62  C   UNL A   1      39.402  31.967  32.970  1.00  0.00     0.029 A 
ATOM     63  C   UNL A   1      40.522  31.150  32.987  1.00  0.00     0.049 A 
ATOM     64  H   UNL A   1      41.100  29.661  31.610  1.00  0.00     0.167 HD
ATOM     65  C   UNL A   1      42.648  30.265  33.910  1.00  0.00     0.074 A 
ATOM     66  C   UNL A   1      43.707  30.235  34.902  1.00  0.00     0.031 C 
ATOM     67  C   UNL A   1      41.591  31.112  33.952  1.00  0.00     0.031 A 
BRANCH  54  68
ATOM     68  C   UNL A   1      37.650  30.466  29.230  1.00  0.00    -0.014 A 
ATOM     69  C   UNL A   1      36.542  29.616  29.075  1.00  0.00     0.009 A 
ATOM     70  C   UNL A   1      37.570  31.777  28.737  1.00  0.00     0.009 A 
ATOM     71  C   UNL A   1      35.397  30.060  28.409  1.00  0.00     0.001 A 
ATOM     72  C   UNL A   1      36.414  32.228  28.098  1.00  0.00     0.001 A 
ATOM     73  C   UNL A   1      35.332  31.366  27.926  1.00  0.00     0.000 A 
ENDBRANCH  54  68
BRANCH  55  74
ATOM     74  C   UNL A   1      46.127  27.142  33.369  1.00  0.00    -0.014 A 
ATOM     75  C   UNL A   1      47.357  27.697  32.988  1.00  0.00     0.009 A 
ATOM     76  C   UNL A   1      46.114  26.120  34.332  1.00  0.00     0.009 A 
ATOM     77  C   UNL A   1      48.550  27.219  33.538  1.00  0.00     0.001 A 
ATOM     78  C   UNL A   1      47.304  25.665  34.903  1.00  0.00     0.001 A 
ATOM     79  C   UNL A   1      48.522  26.208  34.497  1.00  0.00     0.000 A 
ENDBRANCH  55  74
BRANCH  67  80
ATOM     80  C   UNL A   1      41.517  32.053  35.123  1.00  0.00    -0.014 A 
ATOM     81  C   UNL A   1      40.841  31.700  36.301  1.00  0.00     0.009 A 
ATOM     82  C   UNL A   1      42.151  33.303  35.050  1.00  0.00     0.009 A 
ATOM     83  C   UNL A   1      40.763  32.600  37.366  1.00  0.00     0.001 A 
ATOM     84  C   UNL A   1      42.101  34.187  36.128  1.00  0.00     0.001 A 
ATOM     85  C   UNL A   1      41.396  33.841  37.279  1.00  0.00     0.000 A 
ENDBRANCH  67  80
ENDBRANCH  41  42
ENDBRANCH  34  36
ENDBRANCH  33  34
ENDBRANCH  32  33
ENDBRANCH  31  32
ENDBRANCH  30  31
ENDBRANCH  29  30
ENDBRANCH  28  29
ENDBRANCH   1  28
TORSDOF 22
ENDMDL
