MODEL 1
REMARK VINA RESULT:      -8.9      0.000      0.000
REMARK SMILES CC[C@H]1CCCC[C@@H]1Sc1csc(C(=O)OCCOCCOCCOCCOC(=O)c2ccc(-c3c4nc(c(-c5ccccc5)c5ccc([nH]5)c(-c5ccccc5)c5nc(c(-c6ccccc6)c6ccc3[nH]6)C=C5)C=C4)cc2)c1
REMARK SMILES IDX 21 1 20 2 19 3 18 4 17 5 16 6 14 7 15 8 13 9 10 10 11 11
REMARK SMILES IDX 79 12 12 13 9 14 8 15 3 16 4 17 5 18 7 19 6 20 2 21 1 22
REMARK SMILES IDX 22 23 23 24 24 25 25 26 26 27 27 28 28 29 29 30 30 31 31 32
REMARK SMILES IDX 32 33 78 34 33 35 77 36 34 37 35 38 36 39 71 40 37 41 76 42
REMARK SMILES IDX 70 43 72 44 38 45 75 46 69 47 68 48 39 50 61 51 46 52 60 53
REMARK SMILES IDX 47 54 50 55 59 56 73 57 48 58 49 59 58 61 74 62 51 63 40 64
REMARK SMILES IDX 41 65 45 66 42 67 44 68 43 69 62 70 63 71 67 72 64 73 66 74
REMARK SMILES IDX 65 75 52 76 53 77 57 78 54 79 56 80 55 81
REMARK H PARENT 72 49 50 60
REMARK Flexibility Score: inf
ROOT
ATOM      1  C   UNL A   1      45.878  19.041  24.982  1.00  0.00     0.188 C 
ENDROOT
BRANCH   1   2
ATOM      2  C   UNL A   1      44.349  18.883  24.955  1.00  0.00     0.188 C 
BRANCH   2   3
ATOM      3  O   UNL A   1      43.842  18.098  26.034  1.00  0.00    -0.376 OA
BRANCH   3   4
ATOM      4  C   UNL A   1      42.484  18.321  26.390  1.00  0.00     0.202 C 
BRANCH   4   5
ATOM      5  C   UNL A   1      42.244  19.548  27.278  1.00  0.00     0.261 C 
BRANCH   5   6
ATOM      6  O   UNL A   1      40.998  20.227  27.051  1.00  0.00    -0.459 OA
BRANCH   6   7
ATOM      7  C   UNL A   1      41.006  21.280  26.186  1.00  0.00     0.348 C 
ATOM      8  O   UNL A   1      41.971  21.625  25.529  1.00  0.00    -0.245 OA
BRANCH   7   9
ATOM      9  C   UNL A   1      39.665  21.827  26.117  1.00  0.00     0.113 A 
ATOM     10  C   UNL A   1      37.378  22.107  25.710  1.00  0.00     0.019 A 
ATOM     11  C   UNL A   1      37.733  23.361  26.147  1.00  0.00     0.080 A 
ATOM     12  C   UNL A   1      38.502  21.231  25.667  1.00  0.00     0.042 A 
ATOM     13  S   UNL A   1      39.390  23.452  26.574  1.00  0.00    -0.136 S 
BRANCH  10  14
ATOM     14  S   UNL A   1      35.792  21.519  25.240  1.00  0.00    -0.122 SA
BRANCH  14  15
ATOM     15  C   UNL A   1      34.840  23.012  24.736  1.00  0.00     0.055 C 
ATOM     16  C   UNL A   1      33.930  23.434  25.922  1.00  0.00     0.002 C 
ATOM     17  C   UNL A   1      32.695  22.525  26.075  1.00  0.00     0.005 C 
ATOM     18  C   UNL A   1      31.932  22.290  24.780  1.00  0.00     0.000 C 
ATOM     19  C   UNL A   1      34.051  22.702  23.450  1.00  0.00     0.015 C 
ATOM     20  C   UNL A   1      32.840  21.794  23.663  1.00  0.00     0.001 C 
BRANCH  16  21
ATOM     21  C   UNL A   1      33.564  24.942  25.960  1.00  0.00     0.001 C 
ATOM     22  C   UNL A   1      33.162  25.628  24.666  1.00  0.00     0.004 C 
ENDBRANCH  16  21
ENDBRANCH  14  15
ENDBRANCH  10  14
ENDBRANCH   7   9
ENDBRANCH   6   7
ENDBRANCH   5   6
ENDBRANCH   4   5
ENDBRANCH   3   4
ENDBRANCH   2   3
ENDBRANCH   1   2
BRANCH   1  23
ATOM     23  O   UNL A   1      46.331  20.318  25.399  1.00  0.00    -0.377 OA
BRANCH  23  24
ATOM     24  C   UNL A   1      45.471  21.443  25.234  1.00  0.00     0.188 C 
BRANCH  24  25
ATOM     25  C   UNL A   1      45.280  22.160  23.878  1.00  0.00     0.188 C 
BRANCH  25  26
ATOM     26  O   UNL A   1      44.963  23.544  23.982  1.00  0.00    -0.376 OA
BRANCH  26  27
ATOM     27  C   UNL A   1      45.790  24.316  24.843  1.00  0.00     0.202 C 
BRANCH  27  28
ATOM     28  C   UNL A   1      45.092  25.579  25.355  1.00  0.00     0.261 C 
BRANCH  28  29
ATOM     29  O   UNL A   1      43.683  25.421  25.587  1.00  0.00    -0.460 OA
BRANCH  29  30
ATOM     30  C   UNL A   1      43.320  24.847  26.753  1.00  0.00     0.338 C 
ATOM     31  O   UNL A   1      43.533  23.705  27.118  1.00  0.00    -0.246 OA
BRANCH  30  32
ATOM     32  C   UNL A   1      42.749  25.897  27.615  1.00  0.00     0.060 A 
ATOM     33  C   UNL A   1      43.363  27.156  27.642  1.00  0.00     0.016 A 
ATOM     34  C   UNL A   1      41.623  25.634  28.399  1.00  0.00     0.016 A 
ATOM     35  C   UNL A   1      42.873  28.146  28.492  1.00  0.00     0.010 A 
ATOM     36  C   UNL A   1      41.143  26.621  29.260  1.00  0.00     0.010 A 
ATOM     37  C   UNL A   1      41.788  27.868  29.335  1.00  0.00    -0.014 A 
BRANCH  37  38
ATOM     38  C   UNL A   1      41.447  28.799  30.433  1.00  0.00     0.031 A 
ATOM     39  C   UNL A   1      42.289  28.770  31.678  1.00  0.00     0.074 A 
ATOM     40  C   UNL A   1      40.412  29.650  30.333  1.00  0.00     0.049 A 
ATOM     41  N   UNL A   1      42.166  29.466  32.779  1.00  0.00    -0.248 NA
ATOM     42  C   UNL A   1      43.420  27.826  31.682  1.00  0.00     0.031 C 
ATOM     43  C   UNL A   1      39.540  29.795  29.169  1.00  0.00     0.029 A 
ATOM     44  N   UNL A   1      39.919  30.552  31.243  1.00  0.00    -0.354 N 
ATOM     45  C   UNL A   1      43.202  29.045  33.604  1.00  0.00     0.074 A 
ATOM     46  C   UNL A   1      43.923  28.014  32.891  1.00  0.00     0.031 C 
ATOM     47  C   UNL A   1      38.611  30.730  29.439  1.00  0.00     0.029 A 
ATOM     48  C   UNL A   1      38.807  31.224  30.800  1.00  0.00     0.049 A 
ATOM     49  H   UNL A   1      40.325  30.702  32.127  1.00  0.00     0.167 HD
ATOM     50  C   UNL A   1      43.528  29.481  34.843  1.00  0.00     0.031 A 
ATOM     51  C   UNL A   1      38.030  32.125  31.433  1.00  0.00     0.031 A 
ATOM     52  C   UNL A   1      42.798  30.485  35.566  1.00  0.00     0.049 A 
ATOM     53  C   UNL A   1      38.366  32.536  32.843  1.00  0.00     0.074 A 
ATOM     54  C   UNL A   1      43.056  31.002  36.824  1.00  0.00     0.029 A 
ATOM     55  N   UNL A   1      41.658  31.118  35.097  1.00  0.00    -0.354 N 
ATOM     56  N   UNL A   1      39.370  32.158  33.598  1.00  0.00    -0.248 NA
ATOM     57  C   UNL A   1      37.462  33.503  33.482  1.00  0.00     0.031 C 
ATOM     58  C   UNL A   1      42.040  31.911  37.137  1.00  0.00     0.029 A 
ATOM     59  C   UNL A   1      41.184  32.001  36.051  1.00  0.00     0.049 A 
ATOM     60  H   UNL A   1      41.246  30.963  34.216  1.00  0.00     0.167 HD
ATOM     61  C   UNL A   1      39.233  32.862  34.789  1.00  0.00     0.074 A 
ATOM     62  C   UNL A   1      38.058  33.697  34.652  1.00  0.00     0.031 C 
ATOM     63  C   UNL A   1      40.014  32.825  35.897  1.00  0.00     0.031 A 
BRANCH  50  64
ATOM     64  C   UNL A   1      44.714  28.840  35.503  1.00  0.00    -0.014 A 
ATOM     65  C   UNL A   1      46.012  29.335  35.303  1.00  0.00     0.009 A 
ATOM     66  C   UNL A   1      44.528  27.735  36.348  1.00  0.00     0.009 A 
ATOM     67  C   UNL A   1      47.104  28.715  35.912  1.00  0.00     0.001 A 
ATOM     68  C   UNL A   1      45.620  27.132  36.973  1.00  0.00     0.001 A 
ATOM     69  C   UNL A   1      46.907  27.616  36.748  1.00  0.00     0.000 A 
ENDBRANCH  50  64
BRANCH  51  70
ATOM     70  C   UNL A   1      36.841  32.696  30.748  1.00  0.00    -0.014 A 
ATOM     71  C   UNL A   1      36.993  33.654  29.734  1.00  0.00     0.009 A 
ATOM     72  C   UNL A   1      35.548  32.308  31.128  1.00  0.00     0.009 A 
ATOM     73  C   UNL A   1      35.871  34.230  29.132  1.00  0.00     0.001 A 
ATOM     74  C   UNL A   1      34.428  32.866  30.506  1.00  0.00     0.001 A 
ATOM     75  C   UNL A   1      34.591  33.833  29.516  1.00  0.00     0.000 A 
ENDBRANCH  51  70
BRANCH  63  76
ATOM     76  C   UNL A   1      39.645  33.737  37.033  1.00  0.00    -0.014 A 
ATOM     77  C   UNL A   1      40.027  35.087  37.038  1.00  0.00     0.009 A 
ATOM     78  C   UNL A   1      38.861  33.246  38.089  1.00  0.00     0.009 A 
ATOM     79  C   UNL A   1      39.657  35.920  38.097  1.00  0.00     0.001 A 
ATOM     80  C   UNL A   1      38.470  34.088  39.131  1.00  0.00     0.001 A 
ATOM     81  C   UNL A   1      38.876  35.422  39.138  1.00  0.00     0.000 A 
ENDBRANCH  63  76
ENDBRANCH  37  38
ENDBRANCH  30  32
ENDBRANCH  29  30
ENDBRANCH  28  29
ENDBRANCH  27  28
ENDBRANCH  26  27
ENDBRANCH  25  26
ENDBRANCH  24  25
ENDBRANCH  23  24
ENDBRANCH   1  23
TORSDOF 23
ENDMDL
MODEL 2
REMARK VINA RESULT:      -8.7      0.698      5.769
REMARK SMILES CC[C@H]1CCCC[C@@H]1Sc1csc(C(=O)OCCOCCOCCOCCOC(=O)c2ccc(-c3c4nc(c(-c5ccccc5)c5ccc([nH]5)c(-c5ccccc5)c5nc(c(-c6ccccc6)c6ccc3[nH]6)C=C5)C=C4)cc2)c1
REMARK SMILES IDX 21 1 20 2 19 3 18 4 17 5 16 6 14 7 15 8 13 9 10 10 11 11
REMARK SMILES IDX 79 12 12 13 9 14 8 15 3 16 4 17 5 18 7 19 6 20 2 21 1 22
REMARK SMILES IDX 22 23 23 24 24 25 25 26 26 27 27 28 28 29 29 30 30 31 31 32
REMARK SMILES IDX 32 33 78 34 33 35 77 36 34 37 35 38 36 39 71 40 37 41 76 42
REMARK SMILES IDX 70 43 72 44 38 45 75 46 69 47 68 48 39 50 61 51 46 52 60 53
REMARK SMILES IDX 47 54 50 55 59 56 73 57 48 58 49 59 58 61 74 62 51 63 40 64
REMARK SMILES IDX 41 65 45 66 42 67 44 68 43 69 62 70 63 71 67 72 64 73 66 74
REMARK SMILES IDX 65 75 52 76 53 77 57 78 54 79 56 80 55 81
REMARK H PARENT 72 49 50 60
REMARK Flexibility Score: inf
ROOT
ATOM      1  C   UNL A   1      44.617  18.830  24.720  1.00  0.00     0.188 C 
ENDROOT
BRANCH   1   2
ATOM      2  C   UNL A   1      43.322  19.402  25.320  1.00  0.00     0.188 C 
BRANCH   2   3
ATOM      3  O   UNL A   1      42.404  18.398  25.748  1.00  0.00    -0.376 OA
BRANCH   3   4
ATOM      4  C   UNL A   1      41.237  18.857  26.418  1.00  0.00     0.202 C 
BRANCH   4   5
ATOM      5  C   UNL A   1      41.483  19.955  27.460  1.00  0.00     0.261 C 
BRANCH   5   6
ATOM      6  O   UNL A   1      40.483  20.986  27.502  1.00  0.00    -0.459 OA
BRANCH   6   7
ATOM      7  C   UNL A   1      40.547  21.961  26.553  1.00  0.00     0.348 C 
ATOM      8  O   UNL A   1      41.563  22.284  25.964  1.00  0.00    -0.245 OA
BRANCH   7   9
ATOM      9  C   UNL A   1      39.205  22.451  26.306  1.00  0.00     0.113 A 
ATOM     10  C   UNL A   1      36.987  22.641  25.588  1.00  0.00     0.019 A 
ATOM     11  C   UNL A   1      37.218  23.898  26.092  1.00  0.00     0.080 A 
ATOM     12  C   UNL A   1      38.145  21.815  25.686  1.00  0.00     0.042 A 
ATOM     13  S   UNL A   1      38.794  24.050  26.749  1.00  0.00    -0.136 S 
BRANCH  10  14
ATOM     14  S   UNL A   1      35.510  21.995  24.889  1.00  0.00    -0.122 SA
BRANCH  14  15
ATOM     15  C   UNL A   1      34.535  23.462  24.353  1.00  0.00     0.055 C 
ATOM     16  C   UNL A   1      33.468  23.763  25.440  1.00  0.00     0.002 C 
ATOM     17  C   UNL A   1      32.281  22.780  25.395  1.00  0.00     0.005 C 
ATOM     18  C   UNL A   1      31.691  22.581  24.006  1.00  0.00     0.000 C 
ATOM     19  C   UNL A   1      33.923  23.186  22.966  1.00  0.00     0.015 C 
ATOM     20  C   UNL A   1      32.754  22.203  22.983  1.00  0.00     0.001 C 
BRANCH  16  21
ATOM     21  C   UNL A   1      33.008  25.243  25.513  1.00  0.00     0.001 C 
ATOM     22  C   UNL A   1      34.052  26.321  25.747  1.00  0.00     0.004 C 
ENDBRANCH  16  21
ENDBRANCH  14  15
ENDBRANCH  10  14
ENDBRANCH   7   9
ENDBRANCH   6   7
ENDBRANCH   5   6
ENDBRANCH   4   5
ENDBRANCH   3   4
ENDBRANCH   2   3
ENDBRANCH   1   2
BRANCH   1  23
ATOM     23  O   UNL A   1      45.547  19.807  24.285  1.00  0.00    -0.377 OA
BRANCH  23  24
ATOM     24  C   UNL A   1      45.345  21.168  24.660  1.00  0.00     0.188 C 
BRANCH  24  25
ATOM     25  C   UNL A   1      44.966  22.269  23.644  1.00  0.00     0.188 C 
BRANCH  25  26
ATOM     26  O   UNL A   1      44.544  23.495  24.233  1.00  0.00    -0.376 OA
BRANCH  26  27
ATOM     27  C   UNL A   1      45.574  24.337  24.735  1.00  0.00     0.202 C 
BRANCH  27  28
ATOM     28  C   UNL A   1      45.027  25.605  25.399  1.00  0.00     0.261 C 
BRANCH  28  29
ATOM     29  O   UNL A   1      43.664  25.498  25.841  1.00  0.00    -0.460 OA
BRANCH  29  30
ATOM     30  C   UNL A   1      43.459  24.911  27.040  1.00  0.00     0.338 C 
ATOM     31  O   UNL A   1      43.787  23.790  27.384  1.00  0.00    -0.246 OA
BRANCH  30  32
ATOM     32  C   UNL A   1      42.904  25.927  27.950  1.00  0.00     0.060 A 
ATOM     33  C   UNL A   1      43.604  27.127  28.130  1.00  0.00     0.016 A 
ATOM     34  C   UNL A   1      41.707  25.689  28.630  1.00  0.00     0.016 A 
ATOM     35  C   UNL A   1      43.125  28.079  29.030  1.00  0.00     0.010 A 
ATOM     36  C   UNL A   1      41.237  26.635  29.541  1.00  0.00     0.010 A 
ATOM     37  C   UNL A   1      41.963  27.817  29.770  1.00  0.00    -0.014 A 
BRANCH  37  38
ATOM     38  C   UNL A   1      41.609  28.677  30.920  1.00  0.00     0.031 A 
ATOM     39  C   UNL A   1      40.454  29.628  30.770  1.00  0.00     0.074 A 
ATOM     40  C   UNL A   1      42.297  28.622  32.073  1.00  0.00     0.049 A 
ATOM     41  N   UNL A   1      39.978  30.497  31.625  1.00  0.00    -0.248 NA
ATOM     42  C   UNL A   1      39.741  29.593  29.482  1.00  0.00     0.031 C 
ATOM     43  C   UNL A   1      43.416  27.724  32.354  1.00  0.00     0.029 A 
ATOM     44  N   UNL A   1      42.150  29.353  33.226  1.00  0.00    -0.354 N 
ATOM     45  C   UNL A   1      38.913  31.111  30.978  1.00  0.00     0.074 A 
ATOM     46  C   UNL A   1      38.831  30.539  29.652  1.00  0.00     0.031 C 
ATOM     47  C   UNL A   1      43.861  27.963  33.600  1.00  0.00     0.029 A 
ATOM     48  C   UNL A   1      43.077  29.047  34.191  1.00  0.00     0.049 A 
ATOM     49  H   UNL A   1      41.448  30.032  33.347  1.00  0.00     0.167 HD
ATOM     50  C   UNL A   1      38.074  32.064  31.446  1.00  0.00     0.031 A 
ATOM     51  C   UNL A   1      43.276  29.594  35.406  1.00  0.00     0.031 A 
ATOM     52  C   UNL A   1      38.168  32.655  32.752  1.00  0.00     0.049 A 
ATOM     53  C   UNL A   1      42.378  30.709  35.874  1.00  0.00     0.074 A 
ATOM     54  C   UNL A   1      37.358  33.621  33.323  1.00  0.00     0.029 A 
ATOM     55  N   UNL A   1      39.141  32.342  33.688  1.00  0.00    -0.354 N 
ATOM     56  N   UNL A   1      41.352  31.256  35.269  1.00  0.00    -0.248 NA
ATOM     57  C   UNL A   1      42.667  31.277  37.200  1.00  0.00     0.031 C 
ATOM     58  C   UNL A   1      37.873  33.929  34.587  1.00  0.00     0.029 A 
ATOM     59  C   UNL A   1      38.969  33.115  34.822  1.00  0.00     0.049 A 
ATOM     60  H   UNL A   1      39.849  31.670  33.564  1.00  0.00     0.167 HD
ATOM     61  C   UNL A   1      40.856  32.211  36.149  1.00  0.00     0.074 A 
ATOM     62  C   UNL A   1      41.686  32.161  37.335  1.00  0.00     0.031 C 
ATOM     63  C   UNL A   1      39.804  33.051  35.993  1.00  0.00     0.031 A 
BRANCH  50  64
ATOM     64  C   UNL A   1      36.999  32.546  30.515  1.00  0.00    -0.014 A 
ATOM     65  C   UNL A   1      37.245  33.571  29.588  1.00  0.00     0.009 A 
ATOM     66  C   UNL A   1      35.727  31.954  30.556  1.00  0.00     0.009 A 
ATOM     67  C   UNL A   1      36.228  34.016  28.743  1.00  0.00     0.001 A 
ATOM     68  C   UNL A   1      34.719  32.386  29.692  1.00  0.00     0.001 A 
ATOM     69  C   UNL A   1      34.968  33.422  28.793  1.00  0.00     0.000 A 
ENDBRANCH  50  64
BRANCH  51  70
ATOM     70  C   UNL A   1      44.384  29.109  36.270  1.00  0.00    -0.014 A 
ATOM     71  C   UNL A   1      45.650  29.711  36.213  1.00  0.00     0.009 A 
ATOM     72  C   UNL A   1      44.187  28.021  37.133  1.00  0.00     0.009 A 
ATOM     73  C   UNL A   1      46.703  29.215  36.986  1.00  0.00     0.001 A 
ATOM     74  C   UNL A   1      45.235  27.544  37.924  1.00  0.00     0.001 A 
ATOM     75  C   UNL A   1      46.494  28.135  37.842  1.00  0.00     0.000 A 
ENDBRANCH  51  70
BRANCH  63  76
ATOM     76  C   UNL A   1      39.468  33.959  37.143  1.00  0.00    -0.014 A 
ATOM     77  C   UNL A   1      38.755  33.491  38.257  1.00  0.00     0.009 A 
ATOM     78  C   UNL A   1      39.917  35.289  37.129  1.00  0.00     0.009 A 
ATOM     79  C   UNL A   1      38.471  34.349  39.323  1.00  0.00     0.001 A 
ATOM     80  C   UNL A   1      39.654  36.135  38.207  1.00  0.00     0.001 A 
ATOM     81  C   UNL A   1      38.924  35.667  39.299  1.00  0.00     0.000 A 
ENDBRANCH  63  76
ENDBRANCH  37  38
ENDBRANCH  30  32
ENDBRANCH  29  30
ENDBRANCH  28  29
ENDBRANCH  27  28
ENDBRANCH  26  27
ENDBRANCH  25  26
ENDBRANCH  24  25
ENDBRANCH  23  24
ENDBRANCH   1  23
TORSDOF 23
ENDMDL
MODEL 3
REMARK VINA RESULT:      -8.6      3.174      6.511
REMARK SMILES CC[C@H]1CCCC[C@@H]1Sc1csc(C(=O)OCCOCCOCCOCCOC(=O)c2ccc(-c3c4nc(c(-c5ccccc5)c5ccc([nH]5)c(-c5ccccc5)c5nc(c(-c6ccccc6)c6ccc3[nH]6)C=C5)C=C4)cc2)c1
REMARK SMILES IDX 21 1 20 2 19 3 18 4 17 5 16 6 14 7 15 8 13 9 10 10 11 11
REMARK SMILES IDX 79 12 12 13 9 14 8 15 3 16 4 17 5 18 7 19 6 20 2 21 1 22
REMARK SMILES IDX 22 23 23 24 24 25 25 26 26 27 27 28 28 29 29 30 30 31 31 32
REMARK SMILES IDX 32 33 78 34 33 35 77 36 34 37 35 38 36 39 71 40 37 41 76 42
REMARK SMILES IDX 70 43 72 44 38 45 75 46 69 47 68 48 39 50 61 51 46 52 60 53
REMARK SMILES IDX 47 54 50 55 59 56 73 57 48 58 49 59 58 61 74 62 51 63 40 64
REMARK SMILES IDX 41 65 45 66 42 67 44 68 43 69 62 70 63 71 67 72 64 73 66 74
REMARK SMILES IDX 65 75 52 76 53 77 57 78 54 79 56 80 55 81
REMARK H PARENT 72 49 50 60
REMARK Flexibility Score: inf
ROOT
ATOM      1  C   UNL A   1      40.502  21.203  26.996  1.00  0.00     0.188 C 
ENDROOT
BRANCH   1   2
ATOM      2  C   UNL A   1      39.336  20.983  26.019  1.00  0.00     0.188 C 
BRANCH   2   3
ATOM      3  O   UNL A   1      38.851  22.192  25.436  1.00  0.00    -0.376 OA
BRANCH   3   4
ATOM      4  C   UNL A   1      37.848  22.884  26.168  1.00  0.00     0.202 C 
BRANCH   4   5
ATOM      5  C   UNL A   1      38.172  24.351  26.478  1.00  0.00     0.261 C 
BRANCH   5   6
ATOM      6  O   UNL A   1      39.273  24.552  27.378  1.00  0.00    -0.459 OA
BRANCH   6   7
ATOM      7  C   UNL A   1      40.405  25.115  26.869  1.00  0.00     0.348 C 
ATOM      8  O   UNL A   1      41.028  24.674  25.921  1.00  0.00    -0.245 OA
BRANCH   7   9
ATOM      9  C   UNL A   1      40.657  26.356  27.575  1.00  0.00     0.113 A 
ATOM     10  C   UNL A   1      40.719  28.034  29.204  1.00  0.00     0.019 A 
ATOM     11  C   UNL A   1      41.247  28.690  28.116  1.00  0.00     0.080 A 
ATOM     12  C   UNL A   1      40.353  26.695  28.880  1.00  0.00     0.042 A 
ATOM     13  S   UNL A   1      41.370  27.670  26.744  1.00  0.00    -0.136 S 
BRANCH  10  14
ATOM     14  S   UNL A   1      40.475  28.638  30.835  1.00  0.00    -0.122 SA
BRANCH  14  15
ATOM     15  C   UNL A   1      38.913  29.611  30.772  1.00  0.00     0.055 C 
ATOM     16  C   UNL A   1      39.069  30.715  29.691  1.00  0.00     0.002 C 
ATOM     17  C   UNL A   1      39.948  31.889  30.164  1.00  0.00     0.005 C 
ATOM     18  C   UNL A   1      39.574  32.433  31.535  1.00  0.00     0.000 C 
ATOM     19  C   UNL A   1      38.610  30.176  32.173  1.00  0.00     0.015 C 
ATOM     20  C   UNL A   1      39.515  31.335  32.589  1.00  0.00     0.001 C 
BRANCH  16  21
ATOM     21  C   UNL A   1      37.739  31.192  29.048  1.00  0.00     0.001 C 
ATOM     22  C   UNL A   1      36.633  30.178  28.821  1.00  0.00     0.004 C 
ENDBRANCH  16  21
ENDBRANCH  14  15
ENDBRANCH  10  14
ENDBRANCH   7   9
ENDBRANCH   6   7
ENDBRANCH   5   6
ENDBRANCH   4   5
ENDBRANCH   3   4
ENDBRANCH   2   3
ENDBRANCH   1   2
BRANCH   1  23
ATOM     23  O   UNL A   1      40.890  20.047  27.719  1.00  0.00    -0.377 OA
BRANCH  23  24
ATOM     24  C   UNL A   1      42.138  19.428  27.415  1.00  0.00     0.188 C 
BRANCH  24  25
ATOM     25  C   UNL A   1      42.362  18.572  26.148  1.00  0.00     0.188 C 
BRANCH  25  26
ATOM     26  O   UNL A   1      42.956  19.273  25.060  1.00  0.00    -0.376 OA
BRANCH  26  27
ATOM     27  C   UNL A   1      44.323  19.632  25.216  1.00  0.00     0.202 C 
BRANCH  27  28
ATOM     28  C   UNL A   1      44.577  21.118  24.944  1.00  0.00     0.261 C 
BRANCH  28  29
ATOM     29  O   UNL A   1      45.623  21.694  25.742  1.00  0.00    -0.460 OA
BRANCH  29  30
ATOM     30  C   UNL A   1      46.111  22.885  25.335  1.00  0.00     0.338 C 
ATOM     31  O   UNL A   1      46.617  23.153  24.260  1.00  0.00    -0.246 OA
BRANCH  30  32
ATOM     32  C   UNL A   1      45.778  23.885  26.365  1.00  0.00     0.060 A 
ATOM     33  C   UNL A   1      44.442  24.280  26.514  1.00  0.00     0.016 A 
ATOM     34  C   UNL A   1      46.780  24.435  27.167  1.00  0.00     0.016 A 
ATOM     35  C   UNL A   1      44.113  25.266  27.444  1.00  0.00     0.010 A 
ATOM     36  C   UNL A   1      46.452  25.431  28.086  1.00  0.00     0.010 A 
ATOM     37  C   UNL A   1      45.123  25.874  28.203  1.00  0.00    -0.014 A 
BRANCH  37  38
ATOM     38  C   UNL A   1      44.831  27.104  28.972  1.00  0.00     0.031 A 
ATOM     39  C   UNL A   1      44.414  26.962  30.410  1.00  0.00     0.074 A 
ATOM     40  C   UNL A   1      44.928  28.321  28.411  1.00  0.00     0.049 A 
ATOM     41  N   UNL A   1      44.080  27.888  31.272  1.00  0.00    -0.248 NA
ATOM     42  C   UNL A   1      44.367  25.591  30.945  1.00  0.00     0.031 C 
ATOM     43  C   UNL A   1      45.350  28.592  27.038  1.00  0.00     0.029 A 
ATOM     44  N   UNL A   1      44.668  29.561  28.939  1.00  0.00    -0.354 N 
ATOM     45  C   UNL A   1      43.783  27.212  32.448  1.00  0.00     0.074 A 
ATOM     46  C   UNL A   1      43.947  25.800  32.183  1.00  0.00     0.031 C 
ATOM     47  C   UNL A   1      45.312  29.920  26.828  1.00  0.00     0.029 A 
ATOM     48  C   UNL A   1      44.838  30.585  28.041  1.00  0.00     0.049 A 
ATOM     49  H   UNL A   1      44.385  29.701  29.871  1.00  0.00     0.167 HD
ATOM     50  C   UNL A   1      43.411  27.721  33.647  1.00  0.00     0.031 A 
ATOM     51  C   UNL A   1      44.619  31.907  28.182  1.00  0.00     0.031 A 
ATOM     52  C   UNL A   1      43.221  29.120  33.908  1.00  0.00     0.049 A 
ATOM     53  C   UNL A   1      44.129  32.441  29.503  1.00  0.00     0.074 A 
ATOM     54  C   UNL A   1      42.855  29.735  35.092  1.00  0.00     0.029 A 
ATOM     55  N   UNL A   1      43.371  30.123  32.964  1.00  0.00    -0.354 N 
ATOM     56  N   UNL A   1      43.887  31.797  30.619  1.00  0.00    -0.248 NA
ATOM     57  C   UNL A   1      43.887  33.890  29.580  1.00  0.00     0.031 C 
ATOM     58  C   UNL A   1      42.733  31.108  34.851  1.00  0.00     0.029 A 
ATOM     59  C   UNL A   1      43.078  31.351  33.530  1.00  0.00     0.049 A 
ATOM     60  H   UNL A   1      43.644  29.983  32.028  1.00  0.00     0.167 HD
ATOM     61  C   UNL A   1      43.493  32.763  31.537  1.00  0.00     0.074 A 
ATOM     62  C   UNL A   1      43.539  34.038  30.852  1.00  0.00     0.031 C 
ATOM     63  C   UNL A   1      43.130  32.609  32.834  1.00  0.00     0.031 A 
BRANCH  50  64
ATOM     64  C   UNL A   1      43.155  26.741  34.755  1.00  0.00    -0.014 A 
ATOM     65  C   UNL A   1      44.159  26.412  35.680  1.00  0.00     0.009 A 
ATOM     66  C   UNL A   1      41.889  26.151  34.885  1.00  0.00     0.009 A 
ATOM     67  C   UNL A   1      43.908  25.487  36.694  1.00  0.00     0.001 A 
ATOM     68  C   UNL A   1      41.634  25.244  35.914  1.00  0.00     0.001 A 
ATOM     69  C   UNL A   1      42.646  24.906  36.812  1.00  0.00     0.000 A 
ENDBRANCH  50  64
BRANCH  51  70
ATOM     70  C   UNL A   1      44.847  32.827  27.038  1.00  0.00    -0.014 A 
ATOM     71  C   UNL A   1      46.117  33.376  26.804  1.00  0.00     0.009 A 
ATOM     72  C   UNL A   1      43.786  33.185  26.192  1.00  0.00     0.009 A 
ATOM     73  C   UNL A   1      46.313  34.286  25.762  1.00  0.00     0.001 A 
ATOM     74  C   UNL A   1      43.991  34.074  25.134  1.00  0.00     0.001 A 
ATOM     75  C   UNL A   1      45.252  34.630  24.926  1.00  0.00     0.000 A 
ENDBRANCH  51  70
BRANCH  63  76
ATOM     76  C   UNL A   1      42.789  33.852  33.608  1.00  0.00    -0.014 A 
ATOM     77  C   UNL A   1      41.460  34.271  33.766  1.00  0.00     0.009 A 
ATOM     78  C   UNL A   1      43.814  34.586  34.227  1.00  0.00     0.009 A 
ATOM     79  C   UNL A   1      41.166  35.419  34.505  1.00  0.00     0.001 A 
ATOM     80  C   UNL A   1      43.514  35.717  34.987  1.00  0.00     0.001 A 
ATOM     81  C   UNL A   1      42.191  36.137  35.118  1.00  0.00     0.000 A 
ENDBRANCH  63  76
ENDBRANCH  37  38
ENDBRANCH  30  32
ENDBRANCH  29  30
ENDBRANCH  28  29
ENDBRANCH  27  28
ENDBRANCH  26  27
ENDBRANCH  25  26
ENDBRANCH  24  25
ENDBRANCH  23  24
ENDBRANCH   1  23
TORSDOF 23
ENDMDL
