MODEL 1
REMARK VINA RESULT:      -8.4      0.000      0.000
REMARK SMILES O=C(/C=C\C(F)(C(F)(F)F)C(F)(F)F)OCCOCCOCCOCCOC(=O)c1ccc(-c2c3nc(c(-c4ccccc4)c4ccc([nH]4)c(-c4ccccc4)c4nc(c(-c5ccccc5)c5ccc2[nH]5)C=C4)C=C3)cc1
REMARK SMILES IDX 21 1 20 2 19 3 18 4 17 5 16 6 15 7 2 8 1 9 3 10 4 11 5 12
REMARK SMILES IDX 6 13 7 14 8 15 9 16 10 17 11 18 12 19 13 20 14 21 22 22
REMARK SMILES IDX 23 23 24 24 25 25 26 26 27 27 28 28 29 29 30 30 31 31 77 32
REMARK SMILES IDX 32 33 76 34 33 35 34 36 35 37 70 38 36 39 75 40 69 41 71 42
REMARK SMILES IDX 37 43 74 44 68 45 67 46 38 48 60 49 45 50 59 51 46 52 49 53
REMARK SMILES IDX 58 54 72 55 47 56 48 57 57 59 73 60 50 61 39 62 40 63 44 64
REMARK SMILES IDX 41 65 43 66 42 67 61 68 62 69 66 70 63 71 65 72 64 73 51 74
REMARK SMILES IDX 52 75 56 76 53 77 55 78 54 79
REMARK H PARENT 71 47 49 58
REMARK Flexibility Score: inf
ROOT
ATOM      1  O   UNL A   1      38.620  22.774  25.838  1.00  0.00    -0.377 OA
ENDROOT
BRANCH   1   2
ATOM      2  C   UNL A   1      38.090  21.544  25.373  1.00  0.00     0.188 C 
BRANCH   2   3
ATOM      3  C   UNL A   1      36.742  21.685  24.671  1.00  0.00     0.188 C 
BRANCH   3   4
ATOM      4  O   UNL A   1      35.990  22.869  24.888  1.00  0.00    -0.376 OA
BRANCH   4   5
ATOM      5  C   UNL A   1      35.466  23.603  23.799  1.00  0.00     0.202 C 
BRANCH   5   6
ATOM      6  C   UNL A   1      34.250  22.977  23.121  1.00  0.00     0.261 C 
BRANCH   6   7
ATOM      7  O   UNL A   1      33.667  23.560  21.927  1.00  0.00    -0.460 OA
BRANCH   7   8
ATOM      8  C   UNL A   1      33.013  24.713  21.754  1.00  0.00     0.330 C 
ATOM      9  O   UNL A   1      33.250  25.439  20.792  1.00  0.00    -0.247 OA
BRANCH   8  10
ATOM     10  C   UNL A   1      31.911  25.107  22.651  1.00  0.00     0.093 C 
ATOM     11  C   UNL A   1      31.554  26.163  23.400  1.00  0.00     0.040 C 
BRANCH  11  12
ATOM     12  C   UNL A   1      32.163  27.523  23.747  1.00  0.00     0.317 C 
ATOM     13  F   UNL A   1      32.285  28.241  22.583  1.00  0.00    -0.219 F 
BRANCH  12  14
ATOM     14  C   UNL A   1      31.215  28.318  24.640  1.00  0.00     0.435 C 
ATOM     15  F   UNL A   1      30.041  28.596  24.032  1.00  0.00    -0.167 F 
ATOM     16  F   UNL A   1      30.938  27.689  25.802  1.00  0.00    -0.167 F 
ATOM     17  F   UNL A   1      31.764  29.517  24.978  1.00  0.00    -0.167 F 
ENDBRANCH  12  14
BRANCH  12  18
ATOM     18  C   UNL A   1      33.489  27.555  24.483  1.00  0.00     0.435 C 
ATOM     19  F   UNL A   1      33.336  27.478  25.822  1.00  0.00    -0.167 F 
ATOM     20  F   UNL A   1      34.302  26.541  24.127  1.00  0.00    -0.167 F 
ATOM     21  F   UNL A   1      34.185  28.686  24.219  1.00  0.00    -0.167 F 
ENDBRANCH  12  18
ENDBRANCH  11  12
ENDBRANCH   8  10
ENDBRANCH   7   8
ENDBRANCH   6   7
ENDBRANCH   5   6
ENDBRANCH   4   5
ENDBRANCH   3   4
ENDBRANCH   2   3
ENDBRANCH   1   2
BRANCH   1  22
ATOM     22  C   UNL A   1      39.618  22.748  26.849  1.00  0.00     0.188 C 
BRANCH  22  23
ATOM     23  C   UNL A   1      41.068  22.418  26.436  1.00  0.00     0.188 C 
BRANCH  23  24
ATOM     24  O   UNL A   1      41.299  21.188  25.749  1.00  0.00    -0.376 OA
BRANCH  24  25
ATOM     25  C   UNL A   1      41.950  20.125  26.436  1.00  0.00     0.202 C 
BRANCH  25  26
ATOM     26  C   UNL A   1      42.701  19.095  25.583  1.00  0.00     0.261 C 
BRANCH  26  27
ATOM     27  O   UNL A   1      44.110  19.382  25.509  1.00  0.00    -0.460 OA
BRANCH  27  28
ATOM     28  C   UNL A   1      44.532  19.981  24.372  1.00  0.00     0.338 C 
ATOM     29  O   UNL A   1      44.357  19.581  23.227  1.00  0.00    -0.246 OA
BRANCH  28  30
ATOM     30  C   UNL A   1      45.060  21.334  24.672  1.00  0.00     0.060 A 
ATOM     31  C   UNL A   1      45.631  21.541  25.937  1.00  0.00     0.016 A 
ATOM     32  C   UNL A   1      45.005  22.387  23.751  1.00  0.00     0.016 A 
ATOM     33  C   UNL A   1      46.053  22.813  26.322  1.00  0.00     0.010 A 
ATOM     34  C   UNL A   1      45.416  23.667  24.141  1.00  0.00     0.010 A 
ATOM     35  C   UNL A   1      45.875  23.895  25.451  1.00  0.00    -0.014 A 
BRANCH  35  36
ATOM     36  C   UNL A   1      45.822  25.262  26.028  1.00  0.00     0.031 A 
ATOM     37  C   UNL A   1      47.114  26.039  26.064  1.00  0.00     0.074 A 
ATOM     38  C   UNL A   1      44.683  25.832  26.456  1.00  0.00     0.049 A 
ATOM     39  N   UNL A   1      47.344  27.258  26.480  1.00  0.00    -0.248 NA
ATOM     40  C   UNL A   1      48.308  25.341  25.558  1.00  0.00     0.031 C 
ATOM     41  C   UNL A   1      43.357  25.221  26.431  1.00  0.00     0.029 A 
ATOM     42  N   UNL A   1      44.474  27.078  26.995  1.00  0.00    -0.354 N 
ATOM     43  C   UNL A   1      48.704  27.468  26.285  1.00  0.00     0.074 A 
ATOM     44  C   UNL A   1      49.254  26.244  25.748  1.00  0.00     0.031 C 
ATOM     45  C   UNL A   1      42.467  26.098  26.933  1.00  0.00     0.029 A 
ATOM     46  C   UNL A   1      43.165  27.320  27.332  1.00  0.00     0.049 A 
ATOM     47  H   UNL A   1      45.194  27.736  27.128  1.00  0.00     0.167 HD
ATOM     48  C   UNL A   1      49.440  28.578  26.521  1.00  0.00     0.031 A 
ATOM     49  C   UNL A   1      42.601  28.404  27.901  1.00  0.00     0.031 A 
ATOM     50  C   UNL A   1      48.915  29.791  27.078  1.00  0.00     0.049 A 
ATOM     51  C   UNL A   1      43.454  29.601  28.240  1.00  0.00     0.074 A 
ATOM     52  C   UNL A   1      49.580  30.970  27.359  1.00  0.00     0.029 A 
ATOM     53  N   UNL A   1      47.594  29.972  27.454  1.00  0.00    -0.354 N 
ATOM     54  N   UNL A   1      44.733  29.797  28.024  1.00  0.00    -0.248 NA
ATOM     55  C   UNL A   1      42.778  30.732  28.895  1.00  0.00     0.031 C 
ATOM     56  C   UNL A   1      48.668  31.851  27.952  1.00  0.00     0.029 A 
ATOM     57  C   UNL A   1      47.427  31.237  27.988  1.00  0.00     0.049 A 
ATOM     58  H   UNL A   1      46.880  29.301  27.356  1.00  0.00     0.167 HD
ATOM     59  C   UNL A   1      45.004  31.082  28.480  1.00  0.00     0.074 A 
ATOM     60  C   UNL A   1      43.757  31.621  28.982  1.00  0.00     0.031 C 
ATOM     61  C   UNL A   1      46.178  31.761  28.477  1.00  0.00     0.031 A 
BRANCH  48  62
ATOM     62  C   UNL A   1      50.907  28.493  26.214  1.00  0.00    -0.014 A 
ATOM     63  C   UNL A   1      51.834  28.093  27.191  1.00  0.00     0.009 A 
ATOM     64  C   UNL A   1      51.370  28.851  24.939  1.00  0.00     0.009 A 
ATOM     65  C   UNL A   1      53.201  28.098  26.908  1.00  0.00     0.001 A 
ATOM     66  C   UNL A   1      52.735  28.827  24.652  1.00  0.00     0.001 A 
ATOM     67  C   UNL A   1      53.650  28.464  25.639  1.00  0.00     0.000 A 
ENDBRANCH  48  62
BRANCH  49  68
ATOM     68  C   UNL A   1      41.143  28.424  28.191  1.00  0.00    -0.014 A 
ATOM     69  C   UNL A   1      40.242  28.995  27.279  1.00  0.00     0.009 A 
ATOM     70  C   UNL A   1      40.651  27.904  29.398  1.00  0.00     0.009 A 
ATOM     71  C   UNL A   1      38.880  29.064  27.580  1.00  0.00     0.001 A 
ATOM     72  C   UNL A   1      39.284  27.955  29.686  1.00  0.00     0.001 A 
ATOM     73  C   UNL A   1      38.401  28.542  28.781  1.00  0.00     0.000 A 
ENDBRANCH  49  68
BRANCH  61  74
ATOM     74  C   UNL A   1      46.167  33.176  28.983  1.00  0.00    -0.014 A 
ATOM     75  C   UNL A   1      45.916  34.259  28.129  1.00  0.00     0.009 A 
ATOM     76  C   UNL A   1      46.358  33.419  30.354  1.00  0.00     0.009 A 
ATOM     77  C   UNL A   1      45.884  35.561  28.631  1.00  0.00     0.001 A 
ATOM     78  C   UNL A   1      46.299  34.720  30.857  1.00  0.00     0.001 A 
ATOM     79  C   UNL A   1      46.071  35.790  29.994  1.00  0.00     0.000 A 
ENDBRANCH  61  74
ENDBRANCH  35  36
ENDBRANCH  28  30
ENDBRANCH  27  28
ENDBRANCH  26  27
ENDBRANCH  25  26
ENDBRANCH  24  25
ENDBRANCH  23  24
ENDBRANCH  22  23
ENDBRANCH   1  22
TORSDOF 23
ENDMDL
MODEL 2
REMARK VINA RESULT:      -8.2      1.294      6.069
REMARK SMILES O=C(/C=C\C(F)(C(F)(F)F)C(F)(F)F)OCCOCCOCCOCCOC(=O)c1ccc(-c2c3nc(c(-c4ccccc4)c4ccc([nH]4)c(-c4ccccc4)c4nc(c(-c5ccccc5)c5ccc2[nH]5)C=C4)C=C3)cc1
REMARK SMILES IDX 21 1 20 2 19 3 18 4 17 5 16 6 15 7 2 8 1 9 3 10 4 11 5 12
REMARK SMILES IDX 6 13 7 14 8 15 9 16 10 17 11 18 12 19 13 20 14 21 22 22
REMARK SMILES IDX 23 23 24 24 25 25 26 26 27 27 28 28 29 29 30 30 31 31 77 32
REMARK SMILES IDX 32 33 76 34 33 35 34 36 35 37 70 38 36 39 75 40 69 41 71 42
REMARK SMILES IDX 37 43 74 44 68 45 67 46 38 48 60 49 45 50 59 51 46 52 49 53
REMARK SMILES IDX 58 54 72 55 47 56 48 57 57 59 73 60 50 61 39 62 40 63 44 64
REMARK SMILES IDX 41 65 43 66 42 67 61 68 62 69 66 70 63 71 65 72 64 73 51 74
REMARK SMILES IDX 52 75 56 76 53 77 55 78 54 79
REMARK H PARENT 71 47 49 58
REMARK Flexibility Score: inf
ROOT
ATOM      1  O   UNL A   1      39.376  22.103  26.672  1.00  0.00    -0.377 OA
ENDROOT
BRANCH   1   2
ATOM      2  C   UNL A   1      38.138  22.379  26.038  1.00  0.00     0.188 C 
BRANCH   2   3
ATOM      3  C   UNL A   1      37.600  21.214  25.211  1.00  0.00     0.188 C 
BRANCH   3   4
ATOM      4  O   UNL A   1      37.126  21.482  23.900  1.00  0.00    -0.376 OA
BRANCH   4   5
ATOM      5  C   UNL A   1      36.812  22.801  23.500  1.00  0.00     0.202 C 
BRANCH   5   6
ATOM      6  C   UNL A   1      35.327  23.151  23.529  1.00  0.00     0.261 C 
BRANCH   6   7
ATOM      7  O   UNL A   1      34.753  24.088  22.582  1.00  0.00    -0.460 OA
BRANCH   7   8
ATOM      8  C   UNL A   1      34.176  25.278  22.778  1.00  0.00     0.330 C 
ATOM      9  O   UNL A   1      33.829  25.978  21.829  1.00  0.00    -0.247 OA
BRANCH   8  10
ATOM     10  C   UNL A   1      33.840  25.749  24.133  1.00  0.00     0.093 C 
ATOM     11  C   UNL A   1      32.780  25.760  24.958  1.00  0.00     0.040 C 
BRANCH  11  12
ATOM     12  C   UNL A   1      31.320  25.310  24.882  1.00  0.00     0.317 C 
ATOM     13  F   UNL A   1      31.227  24.072  25.468  1.00  0.00    -0.219 F 
BRANCH  12  14
ATOM     14  C   UNL A   1      30.433  26.238  25.706  1.00  0.00     0.435 C 
ATOM     15  F   UNL A   1      29.373  25.597  26.247  1.00  0.00    -0.167 F 
ATOM     16  F   UNL A   1      31.101  26.849  26.708  1.00  0.00    -0.167 F 
ATOM     17  F   UNL A   1      29.923  27.232  24.929  1.00  0.00    -0.167 F 
ENDBRANCH  12  14
BRANCH  12  18
ATOM     18  C   UNL A   1      30.649  25.259  23.522  1.00  0.00     0.435 C 
ATOM     19  F   UNL A   1      31.059  24.205  22.784  1.00  0.00    -0.167 F 
ATOM     20  F   UNL A   1      29.307  25.172  23.610  1.00  0.00    -0.167 F 
ATOM     21  F   UNL A   1      30.891  26.378  22.798  1.00  0.00    -0.167 F 
ENDBRANCH  12  18
ENDBRANCH  11  12
ENDBRANCH   8  10
ENDBRANCH   7   8
ENDBRANCH   6   7
ENDBRANCH   5   6
ENDBRANCH   4   5
ENDBRANCH   3   4
ENDBRANCH   2   3
ENDBRANCH   1   2
BRANCH   1  22
ATOM     22  C   UNL A   1      40.532  21.931  25.864  1.00  0.00     0.188 C 
BRANCH  22  23
ATOM     23  C   UNL A   1      41.614  20.939  26.338  1.00  0.00     0.188 C 
BRANCH  23  24
ATOM     24  O   UNL A   1      41.853  19.784  25.535  1.00  0.00    -0.376 OA
BRANCH  24  25
ATOM     25  C   UNL A   1      42.680  18.745  26.047  1.00  0.00     0.202 C 
BRANCH  25  26
ATOM     26  C   UNL A   1      43.946  18.401  25.253  1.00  0.00     0.261 C 
BRANCH  26  27
ATOM     27  O   UNL A   1      44.228  19.381  24.237  1.00  0.00    -0.460 OA
BRANCH  27  28
ATOM     28  C   UNL A   1      45.389  20.061  24.378  1.00  0.00     0.338 C 
ATOM     29  O   UNL A   1      46.481  19.744  23.922  1.00  0.00    -0.246 OA
BRANCH  28  30
ATOM     30  C   UNL A   1      45.134  21.390  24.984  1.00  0.00     0.060 A 
ATOM     31  C   UNL A   1      44.802  22.444  24.118  1.00  0.00     0.016 A 
ATOM     32  C   UNL A   1      45.212  21.619  26.362  1.00  0.00     0.016 A 
ATOM     33  C   UNL A   1      44.649  23.740  24.608  1.00  0.00     0.010 A 
ATOM     34  C   UNL A   1      45.072  22.922  26.855  1.00  0.00     0.010 A 
ATOM     35  C   UNL A   1      44.860  23.994  25.969  1.00  0.00    -0.014 A 
BRANCH  35  36
ATOM     36  C   UNL A   1      45.215  25.376  26.381  1.00  0.00     0.031 A 
ATOM     37  C   UNL A   1      44.103  26.231  26.938  1.00  0.00     0.074 A 
ATOM     38  C   UNL A   1      46.468  25.858  26.325  1.00  0.00     0.049 A 
ATOM     39  N   UNL A   1      44.142  27.453  27.401  1.00  0.00    -0.248 NA
ATOM     40  C   UNL A   1      42.766  25.615  26.977  1.00  0.00     0.031 C 
ATOM     41  C   UNL A   1      47.646  25.128  25.863  1.00  0.00     0.029 A 
ATOM     42  N   UNL A   1      46.951  27.094  26.678  1.00  0.00    -0.354 N 
ATOM     43  C   UNL A   1      42.839  27.748  27.784  1.00  0.00     0.074 A 
ATOM     44  C   UNL A   1      42.028  26.595  27.468  1.00  0.00     0.031 C 
ATOM     45  C   UNL A   1      48.720  25.934  25.962  1.00  0.00     0.029 A 
ATOM     46  C   UNL A   1      48.300  27.239  26.475  1.00  0.00     0.049 A 
ATOM     47  H   UNL A   1      46.382  27.810  27.043  1.00  0.00     0.167 HD
ATOM     48  C   UNL A   1      42.350  28.872  28.355  1.00  0.00     0.031 A 
ATOM     49  C   UNL A   1      49.100  28.305  26.676  1.00  0.00     0.031 A 
ATOM     50  C   UNL A   1      43.136  30.035  28.650  1.00  0.00     0.049 A 
ATOM     51  C   UNL A   1      48.519  29.582  27.230  1.00  0.00     0.074 A 
ATOM     52  C   UNL A   1      42.732  31.227  29.224  1.00  0.00     0.029 A 
ATOM     53  N   UNL A   1      44.488  30.157  28.376  1.00  0.00    -0.354 N 
ATOM     54  N   UNL A   1      47.291  29.837  27.615  1.00  0.00    -0.248 NA
ATOM     55  C   UNL A   1      49.444  30.715  27.387  1.00  0.00     0.031 C 
ATOM     56  C   UNL A   1      43.834  32.089  29.254  1.00  0.00     0.029 A 
ATOM     57  C   UNL A   1      44.932  31.412  28.747  1.00  0.00     0.049 A 
ATOM     58  H   UNL A   1      45.050  29.453  27.976  1.00  0.00     0.167 HD
ATOM     59  C   UNL A   1      47.306  31.144  28.092  1.00  0.00     0.074 A 
ATOM     60  C   UNL A   1      48.664  31.627  27.952  1.00  0.00     0.031 C 
ATOM     61  C   UNL A   1      46.288  31.876  28.608  1.00  0.00     0.031 A 
BRANCH  48  62
ATOM     62  C   UNL A   1      40.878  28.895  28.646  1.00  0.00    -0.014 A 
ATOM     63  C   UNL A   1      40.377  28.503  29.899  1.00  0.00     0.009 A 
ATOM     64  C   UNL A   1      39.979  29.283  27.642  1.00  0.00     0.009 A 
ATOM     65  C   UNL A   1      38.999  28.456  30.123  1.00  0.00     0.001 A 
ATOM     66  C   UNL A   1      38.603  29.262  27.880  1.00  0.00     0.001 A 
ATOM     67  C   UNL A   1      38.115  28.837  29.114  1.00  0.00     0.000 A 
ENDBRANCH  48  62
BRANCH  49  68
ATOM     68  C   UNL A   1      50.550  28.223  26.357  1.00  0.00    -0.014 A 
ATOM     69  C   UNL A   1      51.029  28.635  25.104  1.00  0.00     0.009 A 
ATOM     70  C   UNL A   1      51.456  27.698  27.292  1.00  0.00     0.009 A 
ATOM     71  C   UNL A   1      52.382  28.502  24.786  1.00  0.00     0.001 A 
ATOM     72  C   UNL A   1      52.813  27.589  26.978  1.00  0.00     0.001 A 
ATOM     73  C   UNL A   1      53.274  27.983  25.724  1.00  0.00     0.000 A 
ENDBRANCH  49  68
BRANCH  61  74
ATOM     74  C   UNL A   1      46.606  33.257  29.107  1.00  0.00    -0.014 A 
ATOM     75  C   UNL A   1      46.759  33.526  30.475  1.00  0.00     0.009 A 
ATOM     76  C   UNL A   1      46.811  34.295  28.182  1.00  0.00     0.009 A 
ATOM     77  C   UNL A   1      47.083  34.813  30.910  1.00  0.00     0.001 A 
ATOM     78  C   UNL A   1      47.161  35.574  28.618  1.00  0.00     0.001 A 
ATOM     79  C   UNL A   1      47.288  35.834  29.982  1.00  0.00     0.000 A 
ENDBRANCH  61  74
ENDBRANCH  35  36
ENDBRANCH  28  30
ENDBRANCH  27  28
ENDBRANCH  26  27
ENDBRANCH  25  26
ENDBRANCH  24  25
ENDBRANCH  23  24
ENDBRANCH  22  23
ENDBRANCH   1  22
TORSDOF 23
ENDMDL
MODEL 3
REMARK VINA RESULT:      -8.2      4.538      6.680
REMARK SMILES O=C(/C=C\C(F)(C(F)(F)F)C(F)(F)F)OCCOCCOCCOCCOC(=O)c1ccc(-c2c3nc(c(-c4ccccc4)c4ccc([nH]4)c(-c4ccccc4)c4nc(c(-c5ccccc5)c5ccc2[nH]5)C=C4)C=C3)cc1
REMARK SMILES IDX 21 1 20 2 19 3 18 4 17 5 16 6 15 7 2 8 1 9 3 10 4 11 5 12
REMARK SMILES IDX 6 13 7 14 8 15 9 16 10 17 11 18 12 19 13 20 14 21 22 22
REMARK SMILES IDX 23 23 24 24 25 25 26 26 27 27 28 28 29 29 30 30 31 31 77 32
REMARK SMILES IDX 32 33 76 34 33 35 34 36 35 37 70 38 36 39 75 40 69 41 71 42
REMARK SMILES IDX 37 43 74 44 68 45 67 46 38 48 60 49 45 50 59 51 46 52 49 53
REMARK SMILES IDX 58 54 72 55 47 56 48 57 57 59 73 60 50 61 39 62 40 63 44 64
REMARK SMILES IDX 41 65 43 66 42 67 61 68 62 69 66 70 63 71 65 72 64 73 51 74
REMARK SMILES IDX 52 75 56 76 53 77 55 78 54 79
REMARK H PARENT 71 47 49 58
REMARK Flexibility Score: inf
ROOT
ATOM      1  O   UNL A   1      39.952  22.038  26.232  1.00  0.00    -0.377 OA
ENDROOT
BRANCH   1   2
ATOM      2  C   UNL A   1      38.927  21.351  25.533  1.00  0.00     0.188 C 
BRANCH   2   3
ATOM      3  C   UNL A   1      37.605  22.113  25.477  1.00  0.00     0.188 C 
BRANCH   3   4
ATOM      4  O   UNL A   1      36.404  21.395  25.710  1.00  0.00    -0.376 OA
BRANCH   4   5
ATOM      5  C   UNL A   1      35.247  22.054  26.185  1.00  0.00     0.202 C 
BRANCH   5   6
ATOM      6  C   UNL A   1      33.932  21.324  25.923  1.00  0.00     0.261 C 
BRANCH   6   7
ATOM      7  O   UNL A   1      33.195  21.514  24.688  1.00  0.00    -0.460 OA
BRANCH   7   8
ATOM      8  C   UNL A   1      32.263  22.416  24.363  1.00  0.00     0.330 C 
ATOM      9  O   UNL A   1      31.786  22.455  23.231  1.00  0.00    -0.247 OA
BRANCH   8  10
ATOM     10  C   UNL A   1      31.696  23.326  25.374  1.00  0.00     0.093 C 
ATOM     11  C   UNL A   1      31.630  24.647  25.612  1.00  0.00     0.040 C 
BRANCH  11  12
ATOM     12  C   UNL A   1      32.174  25.914  24.949  1.00  0.00     0.317 C 
ATOM     13  F   UNL A   1      32.539  25.596  23.664  1.00  0.00    -0.219 F 
BRANCH  12  14
ATOM     14  C   UNL A   1      31.075  26.966  24.832  1.00  0.00     0.435 C 
ATOM     15  F   UNL A   1      30.656  27.138  23.559  1.00  0.00    -0.167 F 
ATOM     16  F   UNL A   1      29.993  26.681  25.587  1.00  0.00    -0.167 F 
ATOM     17  F   UNL A   1      31.524  28.180  25.255  1.00  0.00    -0.167 F 
ENDBRANCH  12  14
BRANCH  12  18
ATOM     18  C   UNL A   1      33.324  26.643  25.618  1.00  0.00     0.435 C 
ATOM     19  F   UNL A   1      33.004  27.086  26.853  1.00  0.00    -0.167 F 
ATOM     20  F   UNL A   1      34.418  25.868  25.755  1.00  0.00    -0.167 F 
ATOM     21  F   UNL A   1      33.729  27.715  24.897  1.00  0.00    -0.167 F 
ENDBRANCH  12  18
ENDBRANCH  11  12
ENDBRANCH   8  10
ENDBRANCH   7   8
ENDBRANCH   6   7
ENDBRANCH   5   6
ENDBRANCH   4   5
ENDBRANCH   3   4
ENDBRANCH   2   3
ENDBRANCH   1   2
BRANCH   1  22
ATOM     22  C   UNL A   1      40.919  21.280  26.944  1.00  0.00     0.188 C 
BRANCH  22  23
ATOM     23  C   UNL A   1      42.064  20.622  26.146  1.00  0.00     0.188 C 
BRANCH  23  24
ATOM     24  O   UNL A   1      43.364  21.201  26.254  1.00  0.00    -0.376 OA
BRANCH  24  25
ATOM     25  C   UNL A   1      44.043  21.599  25.068  1.00  0.00     0.202 C 
BRANCH  25  26
ATOM     26  C   UNL A   1      43.820  23.037  24.582  1.00  0.00     0.261 C 
BRANCH  26  27
ATOM     27  O   UNL A   1      44.954  23.881  24.859  1.00  0.00    -0.460 OA
BRANCH  27  28
ATOM     28  C   UNL A   1      45.237  24.080  26.167  1.00  0.00     0.338 C 
ATOM     29  O   UNL A   1      46.276  23.784  26.743  1.00  0.00    -0.246 OA
BRANCH  28  30
ATOM     30  C   UNL A   1      44.190  24.923  26.793  1.00  0.00     0.060 A 
ATOM     31  C   UNL A   1      44.348  26.316  26.718  1.00  0.00     0.016 A 
ATOM     32  C   UNL A   1      43.074  24.383  27.442  1.00  0.00     0.016 A 
ATOM     33  C   UNL A   1      43.457  27.165  27.372  1.00  0.00     0.010 A 
ATOM     34  C   UNL A   1      42.185  25.234  28.112  1.00  0.00     0.010 A 
ATOM     35  C   UNL A   1      42.416  26.621  28.135  1.00  0.00    -0.014 A 
BRANCH  35  36
ATOM     36  C   UNL A   1      41.826  27.452  29.214  1.00  0.00     0.031 A 
ATOM     37  C   UNL A   1      42.528  27.440  30.549  1.00  0.00     0.074 A 
ATOM     38  C   UNL A   1      40.749  28.235  29.030  1.00  0.00     0.049 A 
ATOM     39  N   UNL A   1      42.248  28.095  31.646  1.00  0.00    -0.248 NA
ATOM     40  C   UNL A   1      43.709  26.567  30.655  1.00  0.00     0.031 C 
ATOM     41  C   UNL A   1      40.005  28.387  27.782  1.00  0.00     0.029 A 
ATOM     42  N   UNL A   1      40.101  29.061  29.915  1.00  0.00    -0.354 N 
ATOM     43  C   UNL A   1      43.217  27.713  32.567  1.00  0.00     0.074 A 
ATOM     44  C   UNL A   1      44.069  26.745  31.914  1.00  0.00     0.031 C 
ATOM     45  C   UNL A   1      38.999  29.259  27.982  1.00  0.00     0.029 A 
ATOM     46  C   UNL A   1      39.018  29.708  29.375  1.00  0.00     0.049 A 
ATOM     47  H   UNL A   1      40.386  29.179  30.850  1.00  0.00     0.167 HD
ATOM     48  C   UNL A   1      43.396  28.128  33.841  1.00  0.00     0.031 A 
ATOM     49  C   UNL A   1      38.142  30.560  29.944  1.00  0.00     0.031 A 
ATOM     50  C   UNL A   1      42.543  29.066  34.511  1.00  0.00     0.049 A 
ATOM     51  C   UNL A   1      38.305  30.942  31.394  1.00  0.00     0.074 A 
ATOM     52  C   UNL A   1      42.638  29.548  35.804  1.00  0.00     0.029 A 
ATOM     53  N   UNL A   1      41.426  29.655  33.942  1.00  0.00    -0.354 N 
ATOM     54  N   UNL A   1      39.242  30.596  32.244  1.00  0.00    -0.248 NA
ATOM     55  C   UNL A   1      37.290  31.846  31.958  1.00  0.00     0.031 C 
ATOM     56  C   UNL A   1      41.547  30.394  36.033  1.00  0.00     0.029 A 
ATOM     57  C   UNL A   1      40.807  30.478  34.864  1.00  0.00     0.049 A 
ATOM     58  H   UNL A   1      41.118  29.508  33.018  1.00  0.00     0.167 HD
ATOM     59  C   UNL A   1      38.950  31.266  33.427  1.00  0.00     0.074 A 
ATOM     60  C   UNL A   1      37.751  32.042  33.185  1.00  0.00     0.031 C 
ATOM     61  C   UNL A   1      39.618  31.248  34.607  1.00  0.00     0.031 A 
BRANCH  48  62
ATOM     62  C   UNL A   1      44.541  27.516  34.595  1.00  0.00    -0.014 A 
ATOM     63  C   UNL A   1      44.478  26.195  35.069  1.00  0.00     0.009 A 
ATOM     64  C   UNL A   1      45.682  28.285  34.864  1.00  0.00     0.009 A 
ATOM     65  C   UNL A   1      45.521  25.672  35.837  1.00  0.00     0.001 A 
ATOM     66  C   UNL A   1      46.735  27.749  35.608  1.00  0.00     0.001 A 
ATOM     67  C   UNL A   1      46.648  26.449  36.104  1.00  0.00     0.000 A 
ENDBRANCH  48  62
BRANCH  49  68
ATOM     68  C   UNL A   1      37.021  31.124  29.147  1.00  0.00    -0.014 A 
ATOM     69  C   UNL A   1      37.044  32.464  28.732  1.00  0.00     0.009 A 
ATOM     70  C   UNL A   1      35.905  30.334  28.830  1.00  0.00     0.009 A 
ATOM     71  C   UNL A   1      35.964  33.008  28.033  1.00  0.00     0.001 A 
ATOM     72  C   UNL A   1      34.836  30.875  28.111  1.00  0.00     0.001 A 
ATOM     73  C   UNL A   1      34.862  32.212  27.720  1.00  0.00     0.000 A 
ENDBRANCH  49  68
BRANCH  61  74
ATOM     74  C   UNL A   1      39.105  32.128  35.712  1.00  0.00    -0.014 A 
ATOM     75  C   UNL A   1      39.502  33.468  35.828  1.00  0.00     0.009 A 
ATOM     76  C   UNL A   1      38.163  31.616  36.620  1.00  0.00     0.009 A 
ATOM     77  C   UNL A   1      38.988  34.270  36.849  1.00  0.00     0.001 A 
ATOM     78  C   UNL A   1      37.630  32.428  37.622  1.00  0.00     0.001 A 
ATOM     79  C   UNL A   1      38.050  33.752  37.741  1.00  0.00     0.000 A 
ENDBRANCH  61  74
ENDBRANCH  35  36
ENDBRANCH  28  30
ENDBRANCH  27  28
ENDBRANCH  26  27
ENDBRANCH  25  26
ENDBRANCH  24  25
ENDBRANCH  23  24
ENDBRANCH  22  23
ENDBRANCH   1  22
TORSDOF 23
ENDMDL
