MODEL 1
REMARK VINA RESULT:      -7.6      0.000      0.000
REMARK SMILES CC(C)CN(C)c1cc2c(cc1Cl)C=C(C(=O)OCCOCCOCCOCCOC(=O)c1ccc(-c3c4nc(c(-c5ccccc5)c5ccc([nH]5)c(-c5ccccc5)c5nc(c(-c6ccccc6)c6ccc3[nH]6)C=C5)C=C4)cc1)[C@@H](C(F)(F)F)O2
REMARK SMILES IDX 23 1 22 2 21 3 20 4 19 5 18 6 16 7 17 8 15 9 7 10 8 11 12 12
REMARK SMILES IDX 9 13 11 14 13 15 10 16 86 17 14 18 81 19 5 20 6 21 4 22 2 23
REMARK SMILES IDX 1 24 3 25 82 26 83 27 84 28 85 29 24 30 25 31 26 32 27 33
REMARK SMILES IDX 28 34 29 35 30 36 31 37 32 38 33 39 34 40 80 41 35 42 79 43
REMARK SMILES IDX 36 44 37 45 38 46 73 47 39 48 78 49 72 50 74 51 40 52 77 53
REMARK SMILES IDX 71 54 70 55 41 57 63 58 48 59 62 60 49 61 52 62 61 63 75 64
REMARK SMILES IDX 50 65 51 66 60 68 76 69 53 70 42 71 43 72 47 73 44 74 46 75
REMARK SMILES IDX 45 76 64 77 65 78 69 79 66 80 68 81 67 82 54 83 55 84 59 85
REMARK SMILES IDX 56 86 58 87 57 88
REMARK H PARENT 74 56 52 67
REMARK Flexibility Score: inf
ROOT
ATOM      1  C   UNL A   1      41.695  28.664  29.330  1.00  0.00     0.188 C 
ENDROOT
BRANCH   1   2
ATOM      2  C   UNL A   1      42.592  27.565  29.926  1.00  0.00     0.188 C 
BRANCH   2   3
ATOM      3  O   UNL A   1      43.768  27.319  29.158  1.00  0.00    -0.376 OA
BRANCH   3   4
ATOM      4  C   UNL A   1      44.758  26.479  29.738  1.00  0.00     0.202 C 
BRANCH   4   5
ATOM      5  C   UNL A   1      44.850  25.045  29.188  1.00  0.00     0.261 C 
BRANCH   5   6
ATOM      6  O   UNL A   1      43.585  24.416  28.928  1.00  0.00    -0.460 OA
BRANCH   6   7
ATOM      7  C   UNL A   1      43.351  24.067  27.650  1.00  0.00     0.338 C 
ATOM      8  O   UNL A   1      44.174  23.653  26.853  1.00  0.00    -0.246 OA
BRANCH   7   9
ATOM      9  C   UNL A   1      41.897  24.103  27.398  1.00  0.00     0.087 C 
ATOM     10  C   UNL A   1      37.302  22.910  25.746  1.00  0.00     0.059 A 
ATOM     11  C   UNL A   1      37.864  24.072  26.326  1.00  0.00     0.074 A 
ATOM     12  C   UNL A   1      38.119  21.757  25.709  1.00  0.00     0.065 A 
ATOM     13  C   UNL A   1      39.183  24.086  26.802  1.00  0.00     0.130 A 
ATOM     14  C   UNL A   1      39.383  21.740  26.299  1.00  0.00     0.034 A 
ATOM     15  Cl  UNL A   1      37.718  20.338  24.801  1.00  0.00    -0.082 Cl
ATOM     16  C   UNL A   1      39.928  22.911  26.810  1.00  0.00     0.019 A 
ATOM     17  O   UNL A   1      39.695  25.282  27.232  1.00  0.00    -0.475 OA
ATOM     18  C   UNL A   1      41.311  22.912  27.236  1.00  0.00     0.027 C 
ATOM     19  C   UNL A   1      41.153  25.410  27.310  1.00  0.00     0.316 C 
BRANCH  10  20
ATOM     20  N   UNL A   1      36.028  22.940  25.164  1.00  0.00    -0.373 N 
ATOM     21  C   UNL A   1      35.973  23.423  23.786  1.00  0.00     0.143 C 
BRANCH  20  22
ATOM     22  C   UNL A   1      34.844  23.212  26.009  1.00  0.00     0.119 C 
BRANCH  22  23
ATOM     23  C   UNL A   1      34.398  21.991  26.842  1.00  0.00     0.002 C 
ATOM     24  C   UNL A   1      33.246  22.346  27.786  1.00  0.00     0.009 C 
ATOM     25  C   UNL A   1      33.979  20.808  25.964  1.00  0.00     0.009 C 
ENDBRANCH  22  23
ENDBRANCH  20  22
ENDBRANCH  10  20
BRANCH  19  26
ATOM     26  C   UNL A   1      41.671  26.266  26.146  1.00  0.00     0.430 C 
ATOM     27  F   UNL A   1      41.873  25.523  25.032  1.00  0.00    -0.167 F 
ATOM     28  F   UNL A   1      40.787  27.237  25.812  1.00  0.00    -0.167 F 
ATOM     29  F   UNL A   1      42.842  26.874  26.445  1.00  0.00    -0.167 F 
ENDBRANCH  19  26
ENDBRANCH   7   9
ENDBRANCH   6   7
ENDBRANCH   5   6
ENDBRANCH   4   5
ENDBRANCH   3   4
ENDBRANCH   2   3
ENDBRANCH   1   2
BRANCH   1  30
ATOM     30  O   UNL A   1      41.517  29.782  30.184  1.00  0.00    -0.377 OA
BRANCH  30  31
ATOM     31  C   UNL A   1      40.437  30.677  29.909  1.00  0.00     0.188 C 
BRANCH  31  32
ATOM     32  C   UNL A   1      38.960  30.216  29.863  1.00  0.00     0.188 C 
BRANCH  32  33
ATOM     33  O   UNL A   1      38.286  30.526  28.649  1.00  0.00    -0.376 OA
BRANCH  33  34
ATOM     34  C   UNL A   1      36.989  31.094  28.764  1.00  0.00     0.202 C 
BRANCH  34  35
ATOM     35  C   UNL A   1      36.853  32.092  29.921  1.00  0.00     0.261 C 
BRANCH  35  36
ATOM     36  O   UNL A   1      35.856  31.756  30.900  1.00  0.00    -0.460 OA
BRANCH  36  37
ATOM     37  C   UNL A   1      36.159  30.802  31.808  1.00  0.00     0.338 C 
ATOM     38  O   UNL A   1      36.110  29.594  31.659  1.00  0.00    -0.246 OA
BRANCH  37  39
ATOM     39  C   UNL A   1      36.764  31.485  32.972  1.00  0.00     0.060 A 
ATOM     40  C   UNL A   1      37.846  30.908  33.641  1.00  0.00     0.016 A 
ATOM     41  C   UNL A   1      36.210  32.690  33.423  1.00  0.00     0.016 A 
ATOM     42  C   UNL A   1      38.395  31.555  34.747  1.00  0.00     0.010 A 
ATOM     43  C   UNL A   1      36.757  33.333  34.538  1.00  0.00     0.010 A 
ATOM     44  C   UNL A   1      37.868  32.781  35.191  1.00  0.00    -0.014 A 
BRANCH  44  45
ATOM     45  C   UNL A   1      38.614  33.567  36.203  1.00  0.00     0.031 A 
ATOM     46  C   UNL A   1      38.310  33.482  37.668  1.00  0.00     0.074 A 
ATOM     47  C   UNL A   1      39.609  34.359  35.762  1.00  0.00     0.049 A 
ATOM     48  N   UNL A   1      38.959  34.028  38.665  1.00  0.00    -0.248 NA
ATOM     49  C   UNL A   1      37.142  32.686  38.070  1.00  0.00     0.031 C 
ATOM     50  C   UNL A   1      39.990  34.517  34.356  1.00  0.00     0.029 A 
ATOM     51  N   UNL A   1      40.495  35.157  36.439  1.00  0.00    -0.354 N 
ATOM     52  C   UNL A   1      38.297  33.625  39.817  1.00  0.00     0.074 A 
ATOM     53  C   UNL A   1      37.169  32.823  39.393  1.00  0.00     0.031 C 
ATOM     54  C   UNL A   1      41.058  35.325  34.280  1.00  0.00     0.029 A 
ATOM     55  C   UNL A   1      41.416  35.767  35.623  1.00  0.00     0.049 A 
ATOM     56  H   UNL A   1      40.473  35.280  37.417  1.00  0.00     0.167 HD
ATOM     57  C   UNL A   1      38.619  33.892  41.106  1.00  0.00     0.031 A 
ATOM     58  C   UNL A   1      42.446  36.583  35.919  1.00  0.00     0.031 A 
ATOM     59  C   UNL A   1      39.734  34.710  41.516  1.00  0.00     0.049 A 
ATOM     60  C   UNL A   1      42.731  36.915  37.356  1.00  0.00     0.074 A 
ATOM     61  C   UNL A   1      40.148  35.005  42.804  1.00  0.00     0.029 A 
ATOM     62  N   UNL A   1      40.600  35.368  40.658  1.00  0.00    -0.354 N 
ATOM     63  N   UNL A   1      42.138  36.468  38.436  1.00  0.00    -0.248 NA
ATOM     64  C   UNL A   1      43.834  37.851  37.616  1.00  0.00     0.031 C 
ATOM     65  C   UNL A   1      41.221  35.895  42.727  1.00  0.00     0.029 A 
ATOM     66  C   UNL A   1      41.525  36.095  41.391  1.00  0.00     0.049 A 
ATOM     67  H   UNL A   1      40.564  35.325  39.676  1.00  0.00     0.167 HD
ATOM     68  C   UNL A   1      42.815  37.042  39.503  1.00  0.00     0.074 A 
ATOM     69  C   UNL A   1      43.872  37.858  38.942  1.00  0.00     0.031 C 
ATOM     70  C   UNL A   1      42.579  36.901  40.829  1.00  0.00     0.031 A 
BRANCH  57  71
ATOM     71  C   UNL A   1      37.782  33.286  42.198  1.00  0.00    -0.014 A 
ATOM     72  C   UNL A   1      36.761  34.039  42.800  1.00  0.00     0.009 A 
ATOM     73  C   UNL A   1      38.117  32.038  42.746  1.00  0.00     0.009 A 
ATOM     74  C   UNL A   1      36.115  33.570  43.946  1.00  0.00     0.001 A 
ATOM     75  C   UNL A   1      37.453  31.560  43.877  1.00  0.00     0.001 A 
ATOM     76  C   UNL A   1      36.462  32.332  44.485  1.00  0.00     0.000 A 
ENDBRANCH  57  71
BRANCH  58  77
ATOM     77  C   UNL A   1      43.314  37.098  34.828  1.00  0.00    -0.014 A 
ATOM     78  C   UNL A   1      43.014  38.307  34.181  1.00  0.00     0.009 A 
ATOM     79  C   UNL A   1      44.435  36.366  34.409  1.00  0.00     0.009 A 
ATOM     80  C   UNL A   1      43.806  38.763  33.126  1.00  0.00     0.001 A 
ATOM     81  C   UNL A   1      45.244  36.841  33.375  1.00  0.00     0.001 A 
ATOM     82  C   UNL A   1      44.926  38.035  32.730  1.00  0.00     0.000 A 
ENDBRANCH  58  77
BRANCH  70  83
ATOM     83  C   UNL A   1      43.486  37.621  41.789  1.00  0.00    -0.014 A 
ATOM     84  C   UNL A   1      43.192  38.941  42.168  1.00  0.00     0.009 A 
ATOM     85  C   UNL A   1      44.681  37.036  42.236  1.00  0.00     0.009 A 
ATOM     86  C   UNL A   1      44.084  39.667  42.959  1.00  0.00     0.001 A 
ATOM     87  C   UNL A   1      45.557  37.756  43.052  1.00  0.00     0.001 A 
ATOM     88  C   UNL A   1      45.263  39.073  43.404  1.00  0.00     0.000 A 
ENDBRANCH  70  83
ENDBRANCH  44  45
ENDBRANCH  37  39
ENDBRANCH  36  37
ENDBRANCH  35  36
ENDBRANCH  34  35
ENDBRANCH  33  34
ENDBRANCH  32  33
ENDBRANCH  31  32
ENDBRANCH  30  31
ENDBRANCH   1  30
TORSDOF 24
ENDMDL
MODEL 2
REMARK VINA RESULT:      -7.5      7.524     14.007
REMARK SMILES CC(C)CN(C)c1cc2c(cc1Cl)C=C(C(=O)OCCOCCOCCOCCOC(=O)c1ccc(-c3c4nc(c(-c5ccccc5)c5ccc([nH]5)c(-c5ccccc5)c5nc(c(-c6ccccc6)c6ccc3[nH]6)C=C5)C=C4)cc1)[C@@H](C(F)(F)F)O2
REMARK SMILES IDX 23 1 22 2 21 3 20 4 19 5 18 6 16 7 17 8 15 9 7 10 8 11 12 12
REMARK SMILES IDX 9 13 11 14 13 15 10 16 86 17 14 18 81 19 5 20 6 21 4 22 2 23
REMARK SMILES IDX 1 24 3 25 82 26 83 27 84 28 85 29 24 30 25 31 26 32 27 33
REMARK SMILES IDX 28 34 29 35 30 36 31 37 32 38 33 39 34 40 80 41 35 42 79 43
REMARK SMILES IDX 36 44 37 45 38 46 73 47 39 48 78 49 72 50 74 51 40 52 77 53
REMARK SMILES IDX 71 54 70 55 41 57 63 58 48 59 62 60 49 61 52 62 61 63 75 64
REMARK SMILES IDX 50 65 51 66 60 68 76 69 53 70 42 71 43 72 47 73 44 74 46 75
REMARK SMILES IDX 45 76 64 77 65 78 69 79 66 80 68 81 67 82 54 83 55 84 59 85
REMARK SMILES IDX 56 86 58 87 57 88
REMARK H PARENT 74 56 52 67
REMARK Flexibility Score: inf
ROOT
ATOM      1  C   UNL A   1      42.041  28.429  35.654  1.00  0.00     0.188 C 
ENDROOT
BRANCH   1   2
ATOM      2  C   UNL A   1      41.704  27.961  34.227  1.00  0.00     0.188 C 
BRANCH   2   3
ATOM      3  O   UNL A   1      40.320  28.087  33.905  1.00  0.00    -0.376 OA
BRANCH   3   4
ATOM      4  C   UNL A   1      39.992  28.362  32.548  1.00  0.00     0.202 C 
BRANCH   4   5
ATOM      5  C   UNL A   1      40.581  29.650  31.948  1.00  0.00     0.261 C 
BRANCH   5   6
ATOM      6  O   UNL A   1      41.302  29.470  30.719  1.00  0.00    -0.460 OA
BRANCH   6   7
ATOM      7  C   UNL A   1      40.555  29.379  29.604  1.00  0.00     0.338 C 
ATOM      8  O   UNL A   1      39.593  30.072  29.322  1.00  0.00    -0.246 OA
BRANCH   7   9
ATOM      9  C   UNL A   1      41.180  28.412  28.680  1.00  0.00     0.087 C 
ATOM     10  C   UNL A   1      43.352  24.263  26.853  1.00  0.00     0.059 A 
ATOM     11  C   UNL A   1      43.182  25.578  26.360  1.00  0.00     0.074 A 
ATOM     12  C   UNL A   1      42.684  23.942  28.058  1.00  0.00     0.065 A 
ATOM     13  C   UNL A   1      42.419  26.527  27.058  1.00  0.00     0.130 A 
ATOM     14  C   UNL A   1      41.825  24.849  28.679  1.00  0.00     0.034 A 
ATOM     15  Cl  UNL A   1      42.989  22.493  28.956  1.00  0.00    -0.082 Cl
ATOM     16  C   UNL A   1      41.722  26.149  28.201  1.00  0.00     0.019 A 
ATOM     17  O   UNL A   1      42.406  27.812  26.582  1.00  0.00    -0.475 OA
ATOM     18  C   UNL A   1      40.982  27.123  28.975  1.00  0.00     0.027 C 
ATOM     19  C   UNL A   1      42.000  28.876  27.505  1.00  0.00     0.316 C 
BRANCH  10  20
ATOM     20  N   UNL A   1      44.212  23.360  26.215  1.00  0.00    -0.373 N 
ATOM     21  C   UNL A   1      43.566  22.208  25.589  1.00  0.00     0.143 C 
BRANCH  20  22
ATOM     22  C   UNL A   1      45.575  23.147  26.749  1.00  0.00     0.119 C 
BRANCH  22  23
ATOM     23  C   UNL A   1      46.678  23.759  25.860  1.00  0.00     0.002 C 
ATOM     24  C   UNL A   1      46.353  23.602  24.372  1.00  0.00     0.009 C 
ATOM     25  C   UNL A   1      46.919  25.240  26.165  1.00  0.00     0.009 C 
ENDBRANCH  22  23
ENDBRANCH  20  22
ENDBRANCH  10  20
BRANCH  19  26
ATOM     26  C   UNL A   1      43.229  29.673  27.966  1.00  0.00     0.430 C 
ATOM     27  F   UNL A   1      44.195  29.691  27.018  1.00  0.00    -0.167 F 
ATOM     28  F   UNL A   1      42.913  30.965  28.226  1.00  0.00    -0.167 F 
ATOM     29  F   UNL A   1      43.774  29.158  29.092  1.00  0.00    -0.167 F 
ENDBRANCH  19  26
ENDBRANCH   7   9
ENDBRANCH   6   7
ENDBRANCH   5   6
ENDBRANCH   4   5
ENDBRANCH   3   4
ENDBRANCH   2   3
ENDBRANCH   1   2
BRANCH   1  30
ATOM     30  O   UNL A   1      41.232  27.837  36.656  1.00  0.00    -0.377 OA
BRANCH  30  31
ATOM     31  C   UNL A   1      41.277  26.417  36.810  1.00  0.00     0.188 C 
BRANCH  31  32
ATOM     32  C   UNL A   1      42.578  25.655  37.160  1.00  0.00     0.188 C 
BRANCH  32  33
ATOM     33  O   UNL A   1      43.187  24.995  36.057  1.00  0.00    -0.376 OA
BRANCH  33  34
ATOM     34  C   UNL A   1      44.531  25.348  35.762  1.00  0.00     0.202 C 
BRANCH  34  35
ATOM     35  C   UNL A   1      45.030  24.808  34.418  1.00  0.00     0.261 C 
BRANCH  35  36
ATOM     36  O   UNL A   1      44.409  25.388  33.260  1.00  0.00    -0.460 OA
BRANCH  36  37
ATOM     37  C   UNL A   1      44.658  24.821  32.058  1.00  0.00     0.338 C 
ATOM     38  O   UNL A   1      44.168  23.803  31.603  1.00  0.00    -0.246 OA
BRANCH  37  39
ATOM     39  C   UNL A   1      45.492  25.772  31.292  1.00  0.00     0.060 A 
ATOM     40  C   UNL A   1      46.496  26.501  31.934  1.00  0.00     0.016 A 
ATOM     41  C   UNL A   1      45.231  25.969  29.930  1.00  0.00     0.016 A 
ATOM     42  C   UNL A   1      47.263  27.407  31.202  1.00  0.00     0.010 A 
ATOM     43  C   UNL A   1      45.995  26.884  29.200  1.00  0.00     0.010 A 
ATOM     44  C   UNL A   1      47.032  27.590  29.827  1.00  0.00    -0.014 A 
BRANCH  44  45
ATOM     45  C   UNL A   1      48.009  28.364  29.025  1.00  0.00     0.031 A 
ATOM     46  C   UNL A   1      49.245  27.745  28.449  1.00  0.00     0.074 A 
ATOM     47  C   UNL A   1      47.735  29.664  28.802  1.00  0.00     0.049 A 
ATOM     48  N   UNL A   1      50.121  28.282  27.637  1.00  0.00    -0.248 NA
ATOM     49  C   UNL A   1      49.541  26.354  28.822  1.00  0.00     0.031 C 
ATOM     50  C   UNL A   1      46.558  30.369  29.316  1.00  0.00     0.029 A 
ATOM     51  N   UNL A   1      48.403  30.615  28.075  1.00  0.00    -0.354 N 
ATOM     52  C   UNL A   1      51.059  27.292  27.378  1.00  0.00     0.074 A 
ATOM     53  C   UNL A   1      50.670  26.133  28.154  1.00  0.00     0.031 C 
ATOM     54  C   UNL A   1      46.564  31.627  28.852  1.00  0.00     0.029 A 
ATOM     55  C   UNL A   1      47.758  31.828  28.038  1.00  0.00     0.049 A 
ATOM     56  H   UNL A   1      49.261  30.445  27.622  1.00  0.00     0.167 HD
ATOM     57  C   UNL A   1      52.132  27.348  26.554  1.00  0.00     0.031 A 
ATOM     58  C   UNL A   1      48.081  32.974  27.409  1.00  0.00     0.031 A 
ATOM     59  C   UNL A   1      52.523  28.515  25.801  1.00  0.00     0.049 A 
ATOM     60  C   UNL A   1      49.319  33.022  26.560  1.00  0.00     0.074 A 
ATOM     61  C   UNL A   1      53.581  28.648  24.918  1.00  0.00     0.029 A 
ATOM     62  N   UNL A   1      51.886  29.745  25.846  1.00  0.00    -0.354 N 
ATOM     63  N   UNL A   1      50.155  32.056  26.270  1.00  0.00    -0.248 NA
ATOM     64  C   UNL A   1      49.650  34.313  25.940  1.00  0.00     0.031 C 
ATOM     65  C   UNL A   1      53.626  29.973  24.481  1.00  0.00     0.029 A 
ATOM     66  C   UNL A   1      52.550  30.648  25.033  1.00  0.00     0.049 A 
ATOM     67  H   UNL A   1      51.081  29.946  26.376  1.00  0.00     0.167 HD
ATOM     68  C   UNL A   1      51.092  32.613  25.410  1.00  0.00     0.074 A 
ATOM     69  C   UNL A   1      50.714  33.996  25.213  1.00  0.00     0.031 C 
ATOM     70  C   UNL A   1      52.168  32.023  24.835  1.00  0.00     0.031 A 
BRANCH  57  71
ATOM     71  C   UNL A   1      52.976  26.115  26.382  1.00  0.00    -0.014 A 
ATOM     72  C   UNL A   1      54.188  25.991  27.080  1.00  0.00     0.009 A 
ATOM     73  C   UNL A   1      52.656  25.162  25.404  1.00  0.00     0.009 A 
ATOM     74  C   UNL A   1      55.077  24.957  26.780  1.00  0.00     0.001 A 
ATOM     75  C   UNL A   1      53.535  24.114  25.123  1.00  0.00     0.001 A 
ATOM     76  C   UNL A   1      54.751  24.020  25.801  1.00  0.00     0.000 A 
ENDBRANCH  57  71
BRANCH  58  77
ATOM     77  C   UNL A   1      47.184  34.153  27.522  1.00  0.00    -0.014 A 
ATOM     78  C   UNL A   1      46.156  34.366  26.589  1.00  0.00     0.009 A 
ATOM     79  C   UNL A   1      47.369  35.088  28.551  1.00  0.00     0.009 A 
ATOM     80  C   UNL A   1      45.346  35.500  26.674  1.00  0.00     0.001 A 
ATOM     81  C   UNL A   1      46.535  36.204  28.652  1.00  0.00     0.001 A 
ATOM     82  C   UNL A   1      45.530  36.413  27.710  1.00  0.00     0.000 A 
ENDBRANCH  58  77
BRANCH  70  83
ATOM     83  C   UNL A   1      53.019  32.853  23.913  1.00  0.00    -0.014 A 
ATOM     84  C   UNL A   1      52.763  32.843  22.532  1.00  0.00     0.009 A 
ATOM     85  C   UNL A   1      54.132  33.560  24.392  1.00  0.00     0.009 A 
ATOM     86  C   UNL A   1      53.614  33.507  21.648  1.00  0.00     0.001 A 
ATOM     87  C   UNL A   1      54.965  34.249  23.507  1.00  0.00     0.001 A 
ATOM     88  C   UNL A   1      54.712  34.213  22.136  1.00  0.00     0.000 A 
ENDBRANCH  70  83
ENDBRANCH  44  45
ENDBRANCH  37  39
ENDBRANCH  36  37
ENDBRANCH  35  36
ENDBRANCH  34  35
ENDBRANCH  33  34
ENDBRANCH  32  33
ENDBRANCH  31  32
ENDBRANCH  30  31
ENDBRANCH   1  30
TORSDOF 24
ENDMDL
MODEL 3
REMARK VINA RESULT:      -7.3      4.592      9.337
REMARK SMILES CC(C)CN(C)c1cc2c(cc1Cl)C=C(C(=O)OCCOCCOCCOCCOC(=O)c1ccc(-c3c4nc(c(-c5ccccc5)c5ccc([nH]5)c(-c5ccccc5)c5nc(c(-c6ccccc6)c6ccc3[nH]6)C=C5)C=C4)cc1)[C@@H](C(F)(F)F)O2
REMARK SMILES IDX 23 1 22 2 21 3 20 4 19 5 18 6 16 7 17 8 15 9 7 10 8 11 12 12
REMARK SMILES IDX 9 13 11 14 13 15 10 16 86 17 14 18 81 19 5 20 6 21 4 22 2 23
REMARK SMILES IDX 1 24 3 25 82 26 83 27 84 28 85 29 24 30 25 31 26 32 27 33
REMARK SMILES IDX 28 34 29 35 30 36 31 37 32 38 33 39 34 40 80 41 35 42 79 43
REMARK SMILES IDX 36 44 37 45 38 46 73 47 39 48 78 49 72 50 74 51 40 52 77 53
REMARK SMILES IDX 71 54 70 55 41 57 63 58 48 59 62 60 49 61 52 62 61 63 75 64
REMARK SMILES IDX 50 65 51 66 60 68 76 69 53 70 42 71 43 72 47 73 44 74 46 75
REMARK SMILES IDX 45 76 64 77 65 78 69 79 66 80 68 81 67 82 54 83 55 84 59 85
REMARK SMILES IDX 56 86 58 87 57 88
REMARK H PARENT 74 56 52 67
REMARK Flexibility Score: inf
ROOT
ATOM      1  C   UNL A   1      45.320  23.059  27.160  1.00  0.00     0.188 C 
ENDROOT
BRANCH   1   2
ATOM      2  C   UNL A   1      43.863  23.238  26.697  1.00  0.00     0.188 C 
BRANCH   2   3
ATOM      3  O   UNL A   1      43.383  24.571  26.852  1.00  0.00    -0.376 OA
BRANCH   3   4
ATOM      4  C   UNL A   1      42.429  25.032  25.902  1.00  0.00     0.202 C 
BRANCH   4   5
ATOM      5  C   UNL A   1      41.006  25.288  26.427  1.00  0.00     0.261 C 
BRANCH   5   6
ATOM      6  O   UNL A   1      40.916  26.259  27.481  1.00  0.00    -0.460 OA
BRANCH   6   7
ATOM      7  C   UNL A   1      40.878  27.547  27.095  1.00  0.00     0.338 C 
ATOM      8  O   UNL A   1      41.247  27.990  26.021  1.00  0.00    -0.246 OA
BRANCH   7   9
ATOM      9  C   UNL A   1      40.158  28.337  28.113  1.00  0.00     0.087 C 
ATOM     10  C   UNL A   1      37.395  31.909  30.319  1.00  0.00     0.059 A 
ATOM     11  C   UNL A   1      38.244  30.888  30.805  1.00  0.00     0.074 A 
ATOM     12  C   UNL A   1      37.120  31.904  28.932  1.00  0.00     0.065 A 
ATOM     13  C   UNL A   1      38.816  29.941  29.942  1.00  0.00     0.130 A 
ATOM     14  C   UNL A   1      37.588  30.886  28.100  1.00  0.00     0.034 A 
ATOM     15  Cl  UNL A   1      36.341  33.216  28.113  1.00  0.00    -0.082 Cl
ATOM     16  C   UNL A   1      38.463  29.929  28.597  1.00  0.00     0.019 A 
ATOM     17  O   UNL A   1      39.726  29.063  30.470  1.00  0.00    -0.475 OA
ATOM     18  C   UNL A   1      39.087  29.006  27.674  1.00  0.00     0.027 C 
ATOM     19  C   UNL A   1      40.636  28.386  29.541  1.00  0.00     0.316 C 
BRANCH  10  20
ATOM     20  N   UNL A   1      36.926  32.921  31.167  1.00  0.00    -0.373 N 
ATOM     21  C   UNL A   1      37.774  34.107  31.266  1.00  0.00     0.143 C 
BRANCH  20  22
ATOM     22  C   UNL A   1      36.147  32.561  32.373  1.00  0.00     0.119 C 
BRANCH  22  23
ATOM     23  C   UNL A   1      36.900  32.842  33.690  1.00  0.00     0.002 C 
ATOM     24  C   UNL A   1      36.015  33.582  34.697  1.00  0.00     0.009 C 
ATOM     25  C   UNL A   1      37.436  31.563  34.340  1.00  0.00     0.009 C 
ENDBRANCH  22  23
ENDBRANCH  20  22
ENDBRANCH  10  20
BRANCH  19  26
ATOM     26  C   UNL A   1      42.040  28.999  29.636  1.00  0.00     0.430 C 
ATOM     27  F   UNL A   1      42.332  29.382  30.901  1.00  0.00    -0.167 F 
ATOM     28  F   UNL A   1      42.995  28.111  29.267  1.00  0.00    -0.167 F 
ATOM     29  F   UNL A   1      42.174  30.086  28.841  1.00  0.00    -0.167 F 
ENDBRANCH  19  26
ENDBRANCH   7   9
ENDBRANCH   6   7
ENDBRANCH   5   6
ENDBRANCH   4   5
ENDBRANCH   3   4
ENDBRANCH   2   3
ENDBRANCH   1   2
BRANCH   1  30
ATOM     30  O   UNL A   1      46.246  22.923  26.094  1.00  0.00    -0.377 OA
BRANCH  30  31
ATOM     31  C   UNL A   1      46.019  23.679  24.903  1.00  0.00     0.188 C 
BRANCH  31  32
ATOM     32  C   UNL A   1      46.629  25.083  24.674  1.00  0.00     0.188 C 
BRANCH  32  33
ATOM     33  O   UNL A   1      47.789  25.093  23.850  1.00  0.00    -0.376 OA
BRANCH  33  34
ATOM     34  C   UNL A   1      48.185  26.349  23.317  1.00  0.00     0.202 C 
BRANCH  34  35
ATOM     35  C   UNL A   1      49.152  27.124  24.218  1.00  0.00     0.261 C 
BRANCH  35  36
ATOM     36  O   UNL A   1      48.538  27.816  25.317  1.00  0.00    -0.460 OA
BRANCH  36  37
ATOM     37  C   UNL A   1      49.315  28.136  26.376  1.00  0.00     0.338 C 
ATOM     38  O   UNL A   1      50.528  28.252  26.397  1.00  0.00    -0.246 OA
BRANCH  37  39
ATOM     39  C   UNL A   1      48.411  28.525  27.479  1.00  0.00     0.060 A 
ATOM     40  C   UNL A   1      48.914  29.194  28.598  1.00  0.00     0.016 A 
ATOM     41  C   UNL A   1      47.057  28.173  27.411  1.00  0.00     0.016 A 
ATOM     42  C   UNL A   1      48.053  29.539  29.638  1.00  0.00     0.010 A 
ATOM     43  C   UNL A   1      46.197  28.512  28.460  1.00  0.00     0.010 A 
ATOM     44  C   UNL A   1      46.685  29.219  29.568  1.00  0.00    -0.014 A 
BRANCH  44  45
ATOM     45  C   UNL A   1      45.751  29.807  30.558  1.00  0.00     0.031 A 
ATOM     46  C   UNL A   1      45.522  29.195  31.906  1.00  0.00     0.074 A 
ATOM     47  C   UNL A   1      45.118  30.945  30.213  1.00  0.00     0.049 A 
ATOM     48  N   UNL A   1      44.819  29.668  32.904  1.00  0.00    -0.248 NA
ATOM     49  C   UNL A   1      46.156  27.896  32.175  1.00  0.00     0.031 C 
ATOM     50  C   UNL A   1      45.269  31.627  28.925  1.00  0.00     0.029 A 
ATOM     51  N   UNL A   1      44.248  31.740  30.912  1.00  0.00    -0.354 N 
ATOM     52  C   UNL A   1      44.945  28.743  33.932  1.00  0.00     0.074 A 
ATOM     53  C   UNL A   1      45.756  27.657  33.421  1.00  0.00     0.031 C 
ATOM     54  C   UNL A   1      44.552  32.759  28.943  1.00  0.00     0.029 A 
ATOM     55  C   UNL A   1      43.866  32.867  30.226  1.00  0.00     0.049 A 
ATOM     56  H   UNL A   1      43.928  31.525  31.819  1.00  0.00     0.167 HD
ATOM     57  C   UNL A   1      44.440  28.810  35.187  1.00  0.00     0.031 A 
ATOM     58  C   UNL A   1      43.063  33.885  30.590  1.00  0.00     0.031 A 
ATOM     59  C   UNL A   1      43.617  29.887  35.679  1.00  0.00     0.049 A 
ATOM     60  C   UNL A   1      42.463  33.891  31.967  1.00  0.00     0.074 A 
ATOM     61  C   UNL A   1      43.088  30.047  36.949  1.00  0.00     0.029 A 
ATOM     62  N   UNL A   1      43.193  30.974  34.932  1.00  0.00    -0.354 N 
ATOM     63  N   UNL A   1      42.649  33.045  32.949  1.00  0.00    -0.248 NA
ATOM     64  C   UNL A   1      41.553  35.000  32.290  1.00  0.00     0.031 C 
ATOM     65  C   UNL A   1      42.291  31.193  36.952  1.00  0.00     0.029 A 
ATOM     66  C   UNL A   1      42.383  31.789  35.705  1.00  0.00     0.049 A 
ATOM     67  H   UNL A   1      43.432  31.142  33.992  1.00  0.00     0.167 HD
ATOM     68  C   UNL A   1      41.907  33.534  34.015  1.00  0.00     0.074 A 
ATOM     69  C   UNL A   1      41.279  34.758  33.566  1.00  0.00     0.031 C 
ATOM     70  C   UNL A   1      41.764  33.010  35.257  1.00  0.00     0.031 A 
BRANCH  57  71
ATOM     71  C   UNL A   1      44.767  27.707  36.156  1.00  0.00    -0.014 A 
ATOM     72  C   UNL A   1      43.872  26.640  36.333  1.00  0.00     0.009 A 
ATOM     73  C   UNL A   1      45.873  27.814  37.013  1.00  0.00     0.009 A 
ATOM     74  C   UNL A   1      44.058  25.722  37.368  1.00  0.00     0.001 A 
ATOM     75  C   UNL A   1      46.071  26.880  38.032  1.00  0.00     0.001 A 
ATOM     76  C   UNL A   1      45.156  25.843  38.218  1.00  0.00     0.000 A 
ENDBRANCH  57  71
BRANCH  58  77
ATOM     77  C   UNL A   1      42.827  35.009  29.647  1.00  0.00    -0.014 A 
ATOM     78  C   UNL A   1      43.697  36.110  29.608  1.00  0.00     0.009 A 
ATOM     79  C   UNL A   1      41.711  34.998  28.797  1.00  0.00     0.009 A 
ATOM     80  C   UNL A   1      43.445  37.184  28.752  1.00  0.00     0.001 A 
ATOM     81  C   UNL A   1      41.480  36.058  27.918  1.00  0.00     0.001 A 
ATOM     82  C   UNL A   1      42.342  37.153  27.902  1.00  0.00     0.000 A 
ENDBRANCH  58  77
BRANCH  70  83
ATOM     83  C   UNL A   1      40.913  33.760  36.245  1.00  0.00    -0.014 A 
ATOM     84  C   UNL A   1      39.546  33.459  36.357  1.00  0.00     0.009 A 
ATOM     85  C   UNL A   1      41.436  34.829  36.988  1.00  0.00     0.009 A 
ATOM     86  C   UNL A   1      38.716  34.224  37.178  1.00  0.00     0.001 A 
ATOM     87  C   UNL A   1      40.609  35.574  37.832  1.00  0.00     0.001 A 
ATOM     88  C   UNL A   1      39.249  35.278  37.918  1.00  0.00     0.000 A 
ENDBRANCH  70  83
ENDBRANCH  44  45
ENDBRANCH  37  39
ENDBRANCH  36  37
ENDBRANCH  35  36
ENDBRANCH  34  35
ENDBRANCH  33  34
ENDBRANCH  32  33
ENDBRANCH  31  32
ENDBRANCH  30  31
ENDBRANCH   1  30
TORSDOF 24
ENDMDL
