MODEL 1
REMARK VINA RESULT:      -6.9      0.000      0.000
REMARK SMILES C[C@H]1[C@H](C(=O)OCCOCCOCCOCCOC(=O)c2ccc(-c3c4nc(c(-c5ccccc5)c5ccc([nH]5)c(-c5ccccc5)c5nc(c(-c6ccccc6)c6ccc3[nH]6)C=C5)C=C4)cc2)CCN1C(=O)CC[NH2+]C1CC1
REMARK SMILES IDX 10 1 9 2 8 3 7 4 6 5 4 6 5 7 3 8 1 9 2 10 71 11 69 12 70 13
REMARK SMILES IDX 72 14 73 15 74 16 75 17 76 18 77 21 78 22 79 23 11 24 12 25
REMARK SMILES IDX 13 26 14 27 15 28 16 29 17 30 18 31 19 32 20 33 21 34 22 35
REMARK SMILES IDX 68 36 23 37 67 38 24 39 25 40 26 41 61 42 27 43 66 44 60 45
REMARK SMILES IDX 62 46 28 47 65 48 59 49 58 50 29 52 51 53 36 54 50 55 37 56
REMARK SMILES IDX 40 57 49 58 63 59 38 60 39 61 48 63 64 64 41 65 30 66 31 67
REMARK SMILES IDX 35 68 32 69 34 70 33 71 52 72 53 73 57 74 54 75 56 76 55 77
REMARK SMILES IDX 42 78 43 79 47 80 44 81 46 82 45 83
REMARK H PARENT 76 19 76 20 62 51 40 62
REMARK Flexibility Score: inf
ROOT
ATOM      1  C   UNL A   1      34.628  34.987  28.347  1.00  0.00     0.188 C 
ENDROOT
BRANCH   1   2
ATOM      2  O   UNL A   1      35.538  33.908  28.391  1.00  0.00    -0.376 OA
BRANCH   2   3
ATOM      3  C   UNL A   1      35.709  33.042  29.492  1.00  0.00     0.202 C 
BRANCH   3   4
ATOM      4  C   UNL A   1      35.241  31.575  29.572  1.00  0.00     0.261 C 
BRANCH   4   5
ATOM      5  O   UNL A   1      36.180  30.530  29.275  1.00  0.00    -0.463 OA
BRANCH   5   6
ATOM      6  C   UNL A   1      36.821  29.980  30.332  1.00  0.00     0.311 C 
ATOM      7  O   UNL A   1      36.308  29.833  31.435  1.00  0.00    -0.252 OA
BRANCH   6   8
ATOM      8  C   UNL A   1      38.268  29.596  30.061  1.00  0.00     0.123 C 
ATOM      9  C   UNL A   1      39.454  27.757  31.267  1.00  0.00     0.032 C 
ATOM     10  C   UNL A   1      38.666  28.105  30.003  1.00  0.00     0.096 C 
ATOM     11  N   UNL A   1      39.514  27.949  28.827  1.00  0.00    -0.339 N 
ATOM     12  C   UNL A   1      38.783  30.173  28.746  1.00  0.00     0.039 C 
ATOM     13  C   UNL A   1      39.928  29.250  28.348  1.00  0.00     0.121 C 
BRANCH  11  14
ATOM     14  C   UNL A   1      39.953  26.783  28.218  1.00  0.00     0.228 C 
ATOM     15  O   UNL A   1      39.353  25.718  28.384  1.00  0.00    -0.275 OA
BRANCH  14  16
ATOM     16  C   UNL A   1      41.227  26.797  27.370  1.00  0.00     0.161 C 
BRANCH  16  17
ATOM     17  C   UNL A   1      42.526  26.832  28.187  1.00  0.00     0.270 C 
BRANCH  17  18
ATOM     18  N   UNL A   1      42.537  25.800  29.233  1.00  0.00    -0.343 N 
ATOM     19  H   UNL A   1      41.675  25.884  29.769  1.00  0.00     0.346 HD
ATOM     20  H   UNL A   1      43.379  25.966  29.785  1.00  0.00     0.346 HD
BRANCH  18  21
ATOM     21  C   UNL A   1      42.637  24.421  28.746  1.00  0.00     0.182 C 
ATOM     22  C   UNL A   1      43.856  23.893  28.040  1.00  0.00     0.071 C 
ATOM     23  C   UNL A   1      43.586  23.483  29.455  1.00  0.00     0.071 C 
ENDBRANCH  18  21
ENDBRANCH  17  18
ENDBRANCH  16  17
ENDBRANCH  14  16
ENDBRANCH  11  14
ENDBRANCH   6   8
ENDBRANCH   5   6
ENDBRANCH   4   5
ENDBRANCH   3   4
ENDBRANCH   2   3
ENDBRANCH   1   2
BRANCH   1  24
ATOM     24  C   UNL A   1      33.140  34.776  28.652  1.00  0.00     0.188 C 
BRANCH  24  25
ATOM     25  O   UNL A   1      32.598  34.925  29.939  1.00  0.00    -0.377 OA
BRANCH  25  26
ATOM     26  C   UNL A   1      32.628  36.244  30.441  1.00  0.00     0.188 C 
BRANCH  26  27
ATOM     27  C   UNL A   1      33.416  36.284  31.747  1.00  0.00     0.188 C 
BRANCH  27  28
ATOM     28  O   UNL A   1      34.337  35.212  31.848  1.00  0.00    -0.376 OA
BRANCH  28  29
ATOM     29  C   UNL A   1      34.334  34.374  33.001  1.00  0.00     0.202 C 
BRANCH  29  30
ATOM     30  C   UNL A   1      34.940  34.720  34.386  1.00  0.00     0.261 C 
BRANCH  30  31
ATOM     31  O   UNL A   1      36.362  34.834  34.531  1.00  0.00    -0.460 OA
BRANCH  31  32
ATOM     32  C   UNL A   1      37.019  33.881  35.211  1.00  0.00     0.338 C 
ATOM     33  O   UNL A   1      36.663  33.325  36.236  1.00  0.00    -0.246 OA
BRANCH  32  34
ATOM     34  C   UNL A   1      38.169  33.464  34.376  1.00  0.00     0.060 A 
ATOM     35  C   UNL A   1      37.925  32.607  33.295  1.00  0.00     0.016 A 
ATOM     36  C   UNL A   1      39.465  33.928  34.630  1.00  0.00     0.016 A 
ATOM     37  C   UNL A   1      38.982  32.163  32.503  1.00  0.00     0.010 A 
ATOM     38  C   UNL A   1      40.530  33.458  33.852  1.00  0.00     0.010 A 
ATOM     39  C   UNL A   1      40.295  32.534  32.819  1.00  0.00    -0.014 A 
BRANCH  39  40
ATOM     40  C   UNL A   1      41.403  31.732  32.245  1.00  0.00     0.031 A 
ATOM     41  C   UNL A   1      41.748  30.431  32.920  1.00  0.00     0.074 A 
ATOM     42  C   UNL A   1      42.019  32.088  31.105  1.00  0.00     0.049 A 
ATOM     43  N   UNL A   1      42.616  29.516  32.569  1.00  0.00    -0.248 NA
ATOM     44  C   UNL A   1      41.007  30.116  34.154  1.00  0.00     0.031 C 
ATOM     45  C   UNL A   1      41.737  33.293  30.327  1.00  0.00     0.029 A 
ATOM     46  N   UNL A   1      43.005  31.450  30.395  1.00  0.00    -0.354 N 
ATOM     47  C   UNL A   1      42.523  28.523  33.538  1.00  0.00     0.074 A 
ATOM     48  C   UNL A   1      41.548  28.962  34.510  1.00  0.00     0.031 C 
ATOM     49  C   UNL A   1      42.532  33.305  29.242  1.00  0.00     0.029 A 
ATOM     50  C   UNL A   1      43.392  32.123  29.263  1.00  0.00     0.049 A 
ATOM     51  H   UNL A   1      43.398  30.591  30.672  1.00  0.00     0.167 HD
ATOM     52  C   UNL A   1      43.181  27.342  33.609  1.00  0.00     0.031 A 
ATOM     53  C   UNL A   1      44.340  31.819  28.354  1.00  0.00     0.031 A 
ATOM     54  C   UNL A   1      44.167  26.911  32.657  1.00  0.00     0.049 A 
ATOM     55  C   UNL A   1      45.121  30.538  28.501  1.00  0.00     0.074 A 
ATOM     56  C   UNL A   1      44.890  25.733  32.638  1.00  0.00     0.029 A 
ATOM     57  N   UNL A   1      44.575  27.651  31.558  1.00  0.00    -0.354 N 
ATOM     58  N   UNL A   1      45.005  29.595  29.405  1.00  0.00    -0.248 NA
ATOM     59  C   UNL A   1      46.155  30.275  27.490  1.00  0.00     0.031 C 
ATOM     60  C   UNL A   1      45.783  25.788  31.563  1.00  0.00     0.029 A 
ATOM     61  C   UNL A   1      45.562  26.967  30.869  1.00  0.00     0.049 A 
ATOM     62  H   UNL A   1      44.217  28.533  31.305  1.00  0.00     0.167 HD
ATOM     63  C   UNL A   1      45.923  28.612  29.050  1.00  0.00     0.074 A 
ATOM     64  C   UNL A   1      46.574  29.068  27.840  1.00  0.00     0.031 C 
ATOM     65  C   UNL A   1      46.203  27.437  29.668  1.00  0.00     0.031 A 
BRANCH  52  66
ATOM     66  C   UNL A   1      42.880  26.457  34.788  1.00  0.00    -0.014 A 
ATOM     67  C   UNL A   1      41.845  25.508  34.748  1.00  0.00     0.009 A 
ATOM     68  C   UNL A   1      43.656  26.567  35.952  1.00  0.00     0.009 A 
ATOM     69  C   UNL A   1      41.570  24.715  35.864  1.00  0.00     0.001 A 
ATOM     70  C   UNL A   1      43.400  25.749  37.054  1.00  0.00     0.001 A 
ATOM     71  C   UNL A   1      42.351  24.831  37.013  1.00  0.00     0.000 A 
ENDBRANCH  52  66
BRANCH  53  72
ATOM     72  C   UNL A   1      44.619  32.745  27.223  1.00  0.00    -0.014 A 
ATOM     73  C   UNL A   1      45.594  33.749  27.335  1.00  0.00     0.009 A 
ATOM     74  C   UNL A   1      43.879  32.652  26.034  1.00  0.00     0.009 A 
ATOM     75  C   UNL A   1      45.799  34.657  26.292  1.00  0.00     0.001 A 
ATOM     76  C   UNL A   1      44.109  33.541  24.981  1.00  0.00     0.001 A 
ATOM     77  C   UNL A   1      45.060  34.550  25.116  1.00  0.00     0.000 A 
ENDBRANCH  53  72
BRANCH  65  78
ATOM     78  C   UNL A   1      47.222  26.540  29.016  1.00  0.00    -0.014 A 
ATOM     79  C   UNL A   1      46.874  25.659  27.981  1.00  0.00     0.009 A 
ATOM     80  C   UNL A   1      48.562  26.600  29.435  1.00  0.00     0.009 A 
ATOM     81  C   UNL A   1      47.838  24.822  27.413  1.00  0.00     0.001 A 
ATOM     82  C   UNL A   1      49.529  25.789  28.840  1.00  0.00     0.001 A 
ATOM     83  C   UNL A   1      49.164  24.890  27.840  1.00  0.00     0.000 A 
ENDBRANCH  65  78
ENDBRANCH  39  40
ENDBRANCH  32  34
ENDBRANCH  31  32
ENDBRANCH  30  31
ENDBRANCH  29  30
ENDBRANCH  28  29
ENDBRANCH  27  28
ENDBRANCH  26  27
ENDBRANCH  25  26
ENDBRANCH  24  25
ENDBRANCH   1  24
TORSDOF 25
ENDMDL
MODEL 2
REMARK VINA RESULT:      -6.3      1.176      5.839
REMARK SMILES C[C@H]1[C@H](C(=O)OCCOCCOCCOCCOC(=O)c2ccc(-c3c4nc(c(-c5ccccc5)c5ccc([nH]5)c(-c5ccccc5)c5nc(c(-c6ccccc6)c6ccc3[nH]6)C=C5)C=C4)cc2)CCN1C(=O)CC[NH2+]C1CC1
REMARK SMILES IDX 10 1 9 2 8 3 7 4 6 5 4 6 5 7 3 8 1 9 2 10 71 11 69 12 70 13
REMARK SMILES IDX 72 14 73 15 74 16 75 17 76 18 77 21 78 22 79 23 11 24 12 25
REMARK SMILES IDX 13 26 14 27 15 28 16 29 17 30 18 31 19 32 20 33 21 34 22 35
REMARK SMILES IDX 68 36 23 37 67 38 24 39 25 40 26 41 61 42 27 43 66 44 60 45
REMARK SMILES IDX 62 46 28 47 65 48 59 49 58 50 29 52 51 53 36 54 50 55 37 56
REMARK SMILES IDX 40 57 49 58 63 59 38 60 39 61 48 63 64 64 41 65 30 66 31 67
REMARK SMILES IDX 35 68 32 69 34 70 33 71 52 72 53 73 57 74 54 75 56 76 55 77
REMARK SMILES IDX 42 78 43 79 47 80 44 81 46 82 45 83
REMARK H PARENT 76 19 76 20 62 51 40 62
REMARK Flexibility Score: inf
ROOT
ATOM      1  C   UNL A   1      34.408  35.243  28.729  1.00  0.00     0.188 C 
ENDROOT
BRANCH   1   2
ATOM      2  O   UNL A   1      35.179  34.103  28.414  1.00  0.00    -0.376 OA
BRANCH   2   3
ATOM      3  C   UNL A   1      35.748  33.228  29.364  1.00  0.00     0.202 C 
BRANCH   3   4
ATOM      4  C   UNL A   1      35.256  31.804  29.692  1.00  0.00     0.261 C 
BRANCH   4   5
ATOM      5  O   UNL A   1      35.991  30.680  29.183  1.00  0.00    -0.463 OA
BRANCH   5   6
ATOM      6  C   UNL A   1      36.623  29.911  30.099  1.00  0.00     0.311 C 
ATOM      7  O   UNL A   1      36.114  29.558  31.155  1.00  0.00    -0.252 OA
BRANCH   6   8
ATOM      8  C   UNL A   1      38.057  29.550  29.736  1.00  0.00     0.123 C 
ATOM      9  C   UNL A   1      39.446  27.943  31.051  1.00  0.00     0.032 C 
ATOM     10  C   UNL A   1      38.525  28.083  29.838  1.00  0.00     0.096 C 
ATOM     11  N   UNL A   1      39.265  27.799  28.613  1.00  0.00    -0.339 N 
ATOM     12  C   UNL A   1      38.413  29.961  28.311  1.00  0.00     0.039 C 
ATOM     13  C   UNL A   1      39.563  29.037  27.926  1.00  0.00     0.121 C 
BRANCH  11  14
ATOM     14  C   UNL A   1      39.705  26.579  28.124  1.00  0.00     0.228 C 
ATOM     15  O   UNL A   1      39.121  25.532  28.417  1.00  0.00    -0.275 OA
BRANCH  14  16
ATOM     16  C   UNL A   1      40.961  26.514  27.251  1.00  0.00     0.161 C 
BRANCH  16  17
ATOM     17  C   UNL A   1      40.822  25.615  26.015  1.00  0.00     0.270 C 
BRANCH  17  18
ATOM     18  N   UNL A   1      41.202  24.226  26.308  1.00  0.00    -0.343 N 
ATOM     19  H   UNL A   1      41.602  23.823  25.462  1.00  0.00     0.346 HD
ATOM     20  H   UNL A   1      40.350  23.760  26.618  1.00  0.00     0.346 HD
BRANCH  18  21
ATOM     21  C   UNL A   1      42.174  24.062  27.393  1.00  0.00     0.182 C 
ATOM     22  C   UNL A   1      42.570  22.716  27.934  1.00  0.00     0.071 C 
ATOM     23  C   UNL A   1      43.523  23.469  27.057  1.00  0.00     0.071 C 
ENDBRANCH  18  21
ENDBRANCH  17  18
ENDBRANCH  16  17
ENDBRANCH  14  16
ENDBRANCH  11  14
ENDBRANCH   6   8
ENDBRANCH   5   6
ENDBRANCH   4   5
ENDBRANCH   3   4
ENDBRANCH   2   3
ENDBRANCH   1   2
BRANCH   1  24
ATOM     24  C   UNL A   1      33.012  35.103  29.350  1.00  0.00     0.188 C 
BRANCH  24  25
ATOM     25  O   UNL A   1      32.805  34.968  30.732  1.00  0.00    -0.377 OA
BRANCH  25  26
ATOM     26  C   UNL A   1      32.935  36.167  31.467  1.00  0.00     0.188 C 
BRANCH  26  27
ATOM     27  C   UNL A   1      33.985  35.994  32.560  1.00  0.00     0.188 C 
BRANCH  27  28
ATOM     28  O   UNL A   1      34.808  34.862  32.336  1.00  0.00    -0.376 OA
BRANCH  28  29
ATOM     29  C   UNL A   1      34.921  33.853  33.336  1.00  0.00     0.202 C 
BRANCH  29  30
ATOM     30  C   UNL A   1      35.669  33.984  34.689  1.00  0.00     0.261 C 
BRANCH  30  31
ATOM     31  O   UNL A   1      37.100  33.903  34.721  1.00  0.00    -0.460 OA
BRANCH  31  32
ATOM     32  C   UNL A   1      37.672  32.847  35.321  1.00  0.00     0.338 C 
ATOM     33  O   UNL A   1      37.248  32.221  36.277  1.00  0.00    -0.246 OA
BRANCH  32  34
ATOM     34  C   UNL A   1      38.819  32.434  34.478  1.00  0.00     0.060 A 
ATOM     35  C   UNL A   1      38.564  31.613  33.373  1.00  0.00     0.016 A 
ATOM     36  C   UNL A   1      40.120  32.869  34.750  1.00  0.00     0.016 A 
ATOM     37  C   UNL A   1      39.617  31.173  32.572  1.00  0.00     0.010 A 
ATOM     38  C   UNL A   1      41.181  32.403  33.963  1.00  0.00     0.010 A 
ATOM     39  C   UNL A   1      40.934  31.513  32.903  1.00  0.00    -0.014 A 
BRANCH  39  40
ATOM     40  C   UNL A   1      42.031  30.709  32.311  1.00  0.00     0.031 A 
ATOM     41  C   UNL A   1      42.699  31.244  31.071  1.00  0.00     0.074 A 
ATOM     42  C   UNL A   1      42.495  29.596  32.903  1.00  0.00     0.049 A 
ATOM     43  N   UNL A   1      43.728  30.775  30.412  1.00  0.00    -0.248 NA
ATOM     44  C   UNL A   1      42.134  32.481  30.504  1.00  0.00     0.031 C 
ATOM     45  C   UNL A   1      41.972  29.008  34.135  1.00  0.00     0.029 A 
ATOM     46  N   UNL A   1      43.530  28.769  32.546  1.00  0.00    -0.354 N 
ATOM     47  C   UNL A   1      43.929  31.658  29.357  1.00  0.00     0.074 A 
ATOM     48  C   UNL A   1      42.896  32.665  29.439  1.00  0.00     0.031 C 
ATOM     49  C   UNL A   1      42.694  27.913  34.434  1.00  0.00     0.029 A 
ATOM     50  C   UNL A   1      43.713  27.713  33.404  1.00  0.00     0.049 A 
ATOM     51  H   UNL A   1      44.089  28.919  31.749  1.00  0.00     0.167 HD
ATOM     52  C   UNL A   1      44.895  31.642  28.409  1.00  0.00     0.031 A 
ATOM     53  C   UNL A   1      44.597  26.697  33.355  1.00  0.00     0.031 A 
ATOM     54  C   UNL A   1      45.910  30.630  28.311  1.00  0.00     0.049 A 
ATOM     55  C   UNL A   1      45.610  26.653  32.239  1.00  0.00     0.074 A 
ATOM     56  C   UNL A   1      46.935  30.523  27.389  1.00  0.00     0.029 A 
ATOM     57  N   UNL A   1      46.022  29.543  29.164  1.00  0.00    -0.354 N 
ATOM     58  N   UNL A   1      45.808  27.508  31.264  1.00  0.00    -0.248 NA
ATOM     59  C   UNL A   1      46.533  25.509  32.230  1.00  0.00     0.031 C 
ATOM     60  C   UNL A   1      47.628  29.335  27.644  1.00  0.00     0.029 A 
ATOM     61  C   UNL A   1      47.081  28.743  28.772  1.00  0.00     0.049 A 
ATOM     62  H   UNL A   1      45.434  29.365  29.934  1.00  0.00     0.167 HD
ATOM     63  C   UNL A   1      46.899  27.025  30.548  1.00  0.00     0.074 A 
ATOM     64  C   UNL A   1      47.328  25.812  31.214  1.00  0.00     0.031 C 
ATOM     65  C   UNL A   1      47.494  27.537  29.442  1.00  0.00     0.031 A 
BRANCH  52  66
ATOM     66  C   UNL A   1      44.862  32.735  27.376  1.00  0.00    -0.014 A 
ATOM     67  C   UNL A   1      44.204  32.563  26.147  1.00  0.00     0.009 A 
ATOM     68  C   UNL A   1      45.489  33.961  27.644  1.00  0.00     0.009 A 
ATOM     69  C   UNL A   1      44.209  33.584  25.193  1.00  0.00     0.001 A 
ATOM     70  C   UNL A   1      45.462  34.992  26.703  1.00  0.00     0.001 A 
ATOM     71  C   UNL A   1      44.832  34.799  25.475  1.00  0.00     0.000 A 
ENDBRANCH  52  66
BRANCH  53  72
ATOM     72  C   UNL A   1      44.566  25.625  34.386  1.00  0.00    -0.014 A 
ATOM     73  C   UNL A   1      45.620  25.472  35.302  1.00  0.00     0.009 A 
ATOM     74  C   UNL A   1      43.494  24.720  34.434  1.00  0.00     0.009 A 
ATOM     75  C   UNL A   1      45.613  24.419  36.221  1.00  0.00     0.001 A 
ATOM     76  C   UNL A   1      43.475  23.688  35.374  1.00  0.00     0.001 A 
ATOM     77  C   UNL A   1      44.539  23.531  36.259  1.00  0.00     0.000 A 
ENDBRANCH  53  72
BRANCH  65  78
ATOM     78  C   UNL A   1      48.703  26.814  28.912  1.00  0.00    -0.014 A 
ATOM     79  C   UNL A   1      48.584  25.700  28.066  1.00  0.00     0.009 A 
ATOM     80  C   UNL A   1      49.987  27.275  29.248  1.00  0.00     0.009 A 
ATOM     81  C   UNL A   1      49.725  25.035  27.610  1.00  0.00     0.001 A 
ATOM     82  C   UNL A   1      51.124  26.631  28.760  1.00  0.00     0.001 A 
ATOM     83  C   UNL A   1      50.993  25.502  27.954  1.00  0.00     0.000 A 
ENDBRANCH  65  78
ENDBRANCH  39  40
ENDBRANCH  32  34
ENDBRANCH  31  32
ENDBRANCH  30  31
ENDBRANCH  29  30
ENDBRANCH  28  29
ENDBRANCH  27  28
ENDBRANCH  26  27
ENDBRANCH  25  26
ENDBRANCH  24  25
ENDBRANCH   1  24
TORSDOF 25
ENDMDL
MODEL 3
REMARK VINA RESULT:      -5.7      3.802      4.478
REMARK SMILES C[C@H]1[C@H](C(=O)OCCOCCOCCOCCOC(=O)c2ccc(-c3c4nc(c(-c5ccccc5)c5ccc([nH]5)c(-c5ccccc5)c5nc(c(-c6ccccc6)c6ccc3[nH]6)C=C5)C=C4)cc2)CCN1C(=O)CC[NH2+]C1CC1
REMARK SMILES IDX 10 1 9 2 8 3 7 4 6 5 4 6 5 7 3 8 1 9 2 10 71 11 69 12 70 13
REMARK SMILES IDX 72 14 73 15 74 16 75 17 76 18 77 21 78 22 79 23 11 24 12 25
REMARK SMILES IDX 13 26 14 27 15 28 16 29 17 30 18 31 19 32 20 33 21 34 22 35
REMARK SMILES IDX 68 36 23 37 67 38 24 39 25 40 26 41 61 42 27 43 66 44 60 45
REMARK SMILES IDX 62 46 28 47 65 48 59 49 58 50 29 52 51 53 36 54 50 55 37 56
REMARK SMILES IDX 40 57 49 58 63 59 38 60 39 61 48 63 64 64 41 65 30 66 31 67
REMARK SMILES IDX 35 68 32 69 34 70 33 71 52 72 53 73 57 74 54 75 56 76 55 77
REMARK SMILES IDX 42 78 43 79 47 80 44 81 46 82 45 83
REMARK H PARENT 76 19 76 20 62 51 40 62
REMARK Flexibility Score: inf
ROOT
ATOM      1  C   UNL A   1      34.489  35.149  28.284  1.00  0.00     0.188 C 
ENDROOT
BRANCH   1   2
ATOM      2  O   UNL A   1      34.793  33.951  27.601  1.00  0.00    -0.376 OA
BRANCH   2   3
ATOM      3  C   UNL A   1      34.602  32.655  28.124  1.00  0.00     0.202 C 
BRANCH   3   4
ATOM      4  C   UNL A   1      33.451  31.694  27.763  1.00  0.00     0.261 C 
BRANCH   4   5
ATOM      5  O   UNL A   1      33.741  30.524  26.983  1.00  0.00    -0.463 OA
BRANCH   5   6
ATOM      6  C   UNL A   1      32.726  30.034  26.234  1.00  0.00     0.311 C 
ATOM      7  O   UNL A   1      31.813  30.723  25.795  1.00  0.00    -0.252 OA
BRANCH   6   8
ATOM      8  C   UNL A   1      32.776  28.529  26.014  1.00  0.00     0.123 C 
ATOM      9  C   UNL A   1      30.900  26.988  26.603  1.00  0.00     0.032 C 
ATOM     10  C   UNL A   1      31.533  27.795  25.468  1.00  0.00     0.096 C 
ATOM     11  N   UNL A   1      32.009  26.896  24.422  1.00  0.00    -0.339 N 
ATOM     12  C   UNL A   1      33.900  28.121  25.066  1.00  0.00     0.039 C 
ATOM     13  C   UNL A   1      33.450  26.780  24.498  1.00  0.00     0.121 C 
BRANCH  11  14
ATOM     14  C   UNL A   1      31.276  26.180  23.488  1.00  0.00     0.228 C 
ATOM     15  O   UNL A   1      30.979  26.678  22.400  1.00  0.00    -0.275 OA
BRANCH  14  16
ATOM     16  C   UNL A   1      30.780  24.771  23.825  1.00  0.00     0.161 C 
BRANCH  16  17
ATOM     17  C   UNL A   1      31.515  24.109  25.000  1.00  0.00     0.270 C 
BRANCH  17  18
ATOM     18  N   UNL A   1      32.519  23.142  24.537  1.00  0.00    -0.343 N 
ATOM     19  H   UNL A   1      33.384  23.316  25.046  1.00  0.00     0.346 HD
ATOM     20  H   UNL A   1      32.603  23.282  23.530  1.00  0.00     0.346 HD
BRANCH  18  21
ATOM     21  C   UNL A   1      32.158  21.733  24.722  1.00  0.00     0.182 C 
ATOM     22  C   UNL A   1      32.795  20.619  23.938  1.00  0.00     0.071 C 
ATOM     23  C   UNL A   1      33.169  20.819  25.375  1.00  0.00     0.071 C 
ENDBRANCH  18  21
ENDBRANCH  17  18
ENDBRANCH  16  17
ENDBRANCH  14  16
ENDBRANCH  11  14
ENDBRANCH   6   8
ENDBRANCH   5   6
ENDBRANCH   4   5
ENDBRANCH   3   4
ENDBRANCH   2   3
ENDBRANCH   1   2
BRANCH   1  24
ATOM     24  C   UNL A   1      33.062  35.443  28.763  1.00  0.00     0.188 C 
BRANCH  24  25
ATOM     25  O   UNL A   1      32.613  35.129  30.057  1.00  0.00    -0.377 OA
BRANCH  25  26
ATOM     26  C   UNL A   1      32.745  36.176  30.995  1.00  0.00     0.188 C 
BRANCH  26  27
ATOM     27  C   UNL A   1      33.611  35.719  32.164  1.00  0.00     0.188 C 
BRANCH  27  28
ATOM     28  O   UNL A   1      33.929  34.340  32.087  1.00  0.00    -0.376 OA
BRANCH  28  29
ATOM     29  C   UNL A   1      34.034  33.563  33.277  1.00  0.00     0.202 C 
BRANCH  29  30
ATOM     30  C   UNL A   1      35.062  33.773  34.420  1.00  0.00     0.261 C 
BRANCH  30  31
ATOM     31  O   UNL A   1      36.464  33.778  34.122  1.00  0.00    -0.460 OA
BRANCH  31  32
ATOM     32  C   UNL A   1      37.299  33.121  34.944  1.00  0.00     0.338 C 
ATOM     33  O   UNL A   1      37.049  32.675  36.050  1.00  0.00    -0.246 OA
BRANCH  32  34
ATOM     34  C   UNL A   1      38.536  32.842  34.177  1.00  0.00     0.060 A 
ATOM     35  C   UNL A   1      38.415  32.186  32.945  1.00  0.00     0.016 A 
ATOM     36  C   UNL A   1      39.792  33.242  34.643  1.00  0.00     0.016 A 
ATOM     37  C   UNL A   1      39.554  31.873  32.206  1.00  0.00     0.010 A 
ATOM     38  C   UNL A   1      40.939  32.901  33.915  1.00  0.00     0.010 A 
ATOM     39  C   UNL A   1      40.823  32.170  32.719  1.00  0.00    -0.014 A 
BRANCH  39  40
ATOM     40  C   UNL A   1      41.993  31.468  32.138  1.00  0.00     0.031 A 
ATOM     41  C   UNL A   1      42.452  30.200  32.808  1.00  0.00     0.074 A 
ATOM     42  C   UNL A   1      42.569  31.877  30.995  1.00  0.00     0.049 A 
ATOM     43  N   UNL A   1      43.393  29.363  32.451  1.00  0.00    -0.248 NA
ATOM     44  C   UNL A   1      41.748  29.821  34.045  1.00  0.00     0.031 C 
ATOM     45  C   UNL A   1      42.180  33.054  30.221  1.00  0.00     0.029 A 
ATOM     46  N   UNL A   1      43.603  31.327  30.279  1.00  0.00    -0.354 N 
ATOM     47  C   UNL A   1      43.391  28.365  33.418  1.00  0.00     0.074 A 
ATOM     48  C   UNL A   1      42.387  28.717  34.396  1.00  0.00     0.031 C 
ATOM     49  C   UNL A   1      42.966  33.136  29.131  1.00  0.00     0.029 A 
ATOM     50  C   UNL A   1      43.924  32.032  29.145  1.00  0.00     0.049 A 
ATOM     51  H   UNL A   1      44.070  30.504  30.552  1.00  0.00     0.167 HD
ATOM     52  C   UNL A   1      44.148  27.245  33.484  1.00  0.00     0.031 A 
ATOM     53  C   UNL A   1      44.889  31.813  28.231  1.00  0.00     0.031 A 
ATOM     54  C   UNL A   1      45.162  26.902  32.525  1.00  0.00     0.049 A 
ATOM     55  C   UNL A   1      45.779  30.603  28.371  1.00  0.00     0.074 A 
ATOM     56  C   UNL A   1      45.984  25.790  32.500  1.00  0.00     0.029 A 
ATOM     57  N   UNL A   1      45.499  27.675  31.425  1.00  0.00    -0.354 N 
ATOM     58  N   UNL A   1      45.749  29.652  29.274  1.00  0.00    -0.248 NA
ATOM     59  C   UNL A   1      46.825  30.432  27.354  1.00  0.00     0.031 C 
ATOM     60  C   UNL A   1      46.863  25.923  31.420  1.00  0.00     0.029 A 
ATOM     61  C   UNL A   1      46.537  27.080  30.730  1.00  0.00     0.049 A 
ATOM     62  H   UNL A   1      45.065  28.524  31.176  1.00  0.00     0.167 HD
ATOM     63  C   UNL A   1      46.746  28.752  28.912  1.00  0.00     0.074 A 
ATOM     64  C   UNL A   1      47.348  29.265  27.699  1.00  0.00     0.031 C 
ATOM     65  C   UNL A   1      47.129  27.604  29.526  1.00  0.00     0.031 A 
BRANCH  52  66
ATOM     66  C   UNL A   1      43.931  26.336  34.662  1.00  0.00    -0.014 A 
ATOM     67  C   UNL A   1      43.144  25.177  34.560  1.00  0.00     0.009 A 
ATOM     68  C   UNL A   1      44.537  26.638  35.891  1.00  0.00     0.009 A 
ATOM     69  C   UNL A   1      42.938  24.362  35.675  1.00  0.00     0.001 A 
ATOM     70  C   UNL A   1      44.357  25.803  36.995  1.00  0.00     0.001 A 
ATOM     71  C   UNL A   1      43.549  24.671  36.889  1.00  0.00     0.000 A 
ENDBRANCH  52  66
BRANCH  53  72
ATOM     72  C   UNL A   1      45.081  32.761  27.100  1.00  0.00    -0.014 A 
ATOM     73  C   UNL A   1      46.089  33.737  27.139  1.00  0.00     0.009 A 
ATOM     74  C   UNL A   1      44.227  32.717  25.988  1.00  0.00     0.009 A 
ATOM     75  C   UNL A   1      46.216  34.667  26.103  1.00  0.00     0.001 A 
ATOM     76  C   UNL A   1      44.377  33.627  24.939  1.00  0.00     0.001 A 
ATOM     77  C   UNL A   1      45.363  34.609  25.003  1.00  0.00     0.000 A 
ENDBRANCH  53  72
BRANCH  65  78
ATOM     78  C   UNL A   1      48.218  26.800  28.867  1.00  0.00    -0.014 A 
ATOM     79  C   UNL A   1      49.568  26.967  29.211  1.00  0.00     0.009 A 
ATOM     80  C   UNL A   1      47.878  25.839  27.901  1.00  0.00     0.009 A 
ATOM     81  C   UNL A   1      50.558  26.223  28.565  1.00  0.00     0.001 A 
ATOM     82  C   UNL A   1      48.867  25.071  27.284  1.00  0.00     0.001 A 
ATOM     83  C   UNL A   1      50.207  25.274  27.605  1.00  0.00     0.000 A 
ENDBRANCH  65  78
ENDBRANCH  39  40
ENDBRANCH  32  34
ENDBRANCH  31  32
ENDBRANCH  30  31
ENDBRANCH  29  30
ENDBRANCH  28  29
ENDBRANCH  27  28
ENDBRANCH  26  27
ENDBRANCH  25  26
ENDBRANCH  24  25
ENDBRANCH   1  24
TORSDOF 25
ENDMDL
