MODEL 1
REMARK VINA RESULT:     -10.6      0.000      0.000
REMARK SMILES O=C(OCCOCCOCCOCCOC(=O)c1ccccc1/N=C/c1coc2ccccc2c1=O)c1ccc(-c2c3nc(c(-c4ccccc4)c4ccc([nH]4)c(-c4ccccc4)c4nc(c(-c5ccccc5)c5ccc2[nH]5)C=C4)C=C3)cc1
REMARK SMILES IDX 9 1 8 2 7 3 6 4 5 5 4 6 3 7 2 8 1 9 37 10 38 11 84 12 39 13
REMARK SMILES IDX 83 14 40 15 41 16 42 17 77 18 43 19 82 20 76 21 78 22 44 23
REMARK SMILES IDX 81 24 75 25 74 26 45 28 67 29 52 30 66 31 53 32 56 33 65 34
REMARK SMILES IDX 79 35 54 36 55 37 64 39 80 40 57 41 46 42 47 43 51 44 48 45
REMARK SMILES IDX 50 46 49 47 68 48 69 49 73 50 70 51 72 52 71 53 58 54 59 55
REMARK SMILES IDX 63 56 60 57 62 58 61 59 10 60 11 61 12 62 13 63 14 64 15 65
REMARK SMILES IDX 16 66 17 67 18 68 19 69 23 70 20 71 22 72 21 73 24 74 25 75
REMARK SMILES IDX 26 76 27 77 35 78 28 79 34 80 36 81 29 82 33 83 30 84 32 85
REMARK SMILES IDX 31 86
REMARK H PARENT 78 27 56 38
REMARK Flexibility Score: inf
ROOT
ATOM      1  O   UNL A   1      41.401  20.757  25.580  1.00  0.00    -0.377 OA
ENDROOT
BRANCH   1   2
ATOM      2  C   UNL A   1      41.994  19.582  26.134  1.00  0.00     0.188 C 
BRANCH   2   3
ATOM      3  C   UNL A   1      43.358  19.233  25.539  1.00  0.00     0.188 C 
BRANCH   3   4
ATOM      4  O   UNL A   1      43.729  20.227  24.579  1.00  0.00    -0.376 OA
BRANCH   4   5
ATOM      5  C   UNL A   1      44.842  21.034  24.947  1.00  0.00     0.202 C 
BRANCH   5   6
ATOM      6  C   UNL A   1      44.887  22.353  24.177  1.00  0.00     0.261 C 
BRANCH   6   7
ATOM      7  O   UNL A   1      44.065  23.347  24.808  1.00  0.00    -0.460 OA
BRANCH   7   8
ATOM      8  C   UNL A   1      44.392  24.620  25.145  1.00  0.00     0.338 C 
ATOM      9  O   UNL A   1      45.416  25.101  24.661  1.00  0.00    -0.246 OA
BRANCH   8  10
ATOM     10  C   UNL A   1      43.534  25.520  25.984  1.00  0.00     0.060 A 
ATOM     11  C   UNL A   1      43.574  26.916  26.007  1.00  0.00     0.016 A 
ATOM     12  C   UNL A   1      42.588  24.880  26.808  1.00  0.00     0.016 A 
ATOM     13  C   UNL A   1      42.817  27.647  26.922  1.00  0.00     0.010 A 
ATOM     14  C   UNL A   1      41.794  25.606  27.701  1.00  0.00     0.010 A 
ATOM     15  C   UNL A   1      41.962  26.991  27.807  1.00  0.00    -0.014 A 
BRANCH  15  16
ATOM     16  C   UNL A   1      41.447  27.732  28.977  1.00  0.00     0.031 A 
ATOM     17  C   UNL A   1      42.242  27.664  30.251  1.00  0.00     0.074 A 
ATOM     18  C   UNL A   1      40.376  28.536  28.871  1.00  0.00     0.049 A 
ATOM     19  N   UNL A   1      42.019  28.238  31.404  1.00  0.00    -0.248 NA
ATOM     20  C   UNL A   1      43.469  26.847  30.213  1.00  0.00     0.031 C 
ATOM     21  C   UNL A   1      39.600  28.758  27.653  1.00  0.00     0.029 A 
ATOM     22  N   UNL A   1      39.779  29.343  29.806  1.00  0.00    -0.354 N 
ATOM     23  C   UNL A   1      43.062  27.834  32.229  1.00  0.00     0.074 A 
ATOM     24  C   UNL A   1      43.913  26.962  31.453  1.00  0.00     0.031 C 
ATOM     25  C   UNL A   1      38.645  29.671  27.906  1.00  0.00     0.029 A 
ATOM     26  C   UNL A   1      38.717  30.059  29.312  1.00  0.00     0.049 A 
ATOM     27  H   UNL A   1      40.084  29.404  30.740  1.00  0.00     0.167 HD
ATOM     28  C   UNL A   1      43.289  28.156  33.523  1.00  0.00     0.031 A 
ATOM     29  C   UNL A   1      37.896  30.924  29.938  1.00  0.00     0.031 A 
ATOM     30  C   UNL A   1      42.430  29.008  34.293  1.00  0.00     0.049 A 
ATOM     31  C   UNL A   1      38.120  31.203  31.400  1.00  0.00     0.074 A 
ATOM     32  C   UNL A   1      42.515  29.349  35.630  1.00  0.00     0.029 A 
ATOM     33  N   UNL A   1      41.316  29.657  33.778  1.00  0.00    -0.354 N 
ATOM     34  N   UNL A   1      39.078  30.773  32.187  1.00  0.00    -0.248 NA
ATOM     35  C   UNL A   1      37.145  32.082  32.061  1.00  0.00     0.031 C 
ATOM     36  C   UNL A   1      41.429  30.180  35.932  1.00  0.00     0.029 A 
ATOM     37  C   UNL A   1      40.698  30.390  34.773  1.00  0.00     0.049 A 
ATOM     38  H   UNL A   1      41.013  29.603  32.843  1.00  0.00     0.167 HD
ATOM     39  C   UNL A   1      38.832  31.342  33.430  1.00  0.00     0.074 A 
ATOM     40  C   UNL A   1      37.644  32.160  33.287  1.00  0.00     0.031 C 
ATOM     41  C   UNL A   1      39.521  31.199  34.589  1.00  0.00     0.031 A 
BRANCH  28  42
ATOM     42  C   UNL A   1      44.474  27.508  34.177  1.00  0.00    -0.014 A 
ATOM     43  C   UNL A   1      44.378  26.243  34.780  1.00  0.00     0.009 A 
ATOM     44  C   UNL A   1      45.690  28.205  34.247  1.00  0.00     0.009 A 
ATOM     45  C   UNL A   1      45.464  25.712  35.480  1.00  0.00     0.001 A 
ATOM     46  C   UNL A   1      46.779  27.661  34.930  1.00  0.00     0.001 A 
ATOM     47  C   UNL A   1      46.662  26.421  35.555  1.00  0.00     0.000 A 
ENDBRANCH  28  42
BRANCH  29  48
ATOM     48  C   UNL A   1      36.784  31.574  29.196  1.00  0.00    -0.014 A 
ATOM     49  C   UNL A   1      36.916  32.883  28.706  1.00  0.00     0.009 A 
ATOM     50  C   UNL A   1      35.574  30.892  28.982  1.00  0.00     0.009 A 
ATOM     51  C   UNL A   1      35.856  33.501  28.036  1.00  0.00     0.001 A 
ATOM     52  C   UNL A   1      34.526  31.502  28.288  1.00  0.00     0.001 A 
ATOM     53  C   UNL A   1      34.665  32.808  27.823  1.00  0.00     0.000 A 
ENDBRANCH  29  48
BRANCH  41  54
ATOM     54  C   UNL A   1      39.025  31.973  35.774  1.00  0.00    -0.014 A 
ATOM     55  C   UNL A   1      38.138  31.395  36.695  1.00  0.00     0.009 A 
ATOM     56  C   UNL A   1      39.493  33.276  35.996  1.00  0.00     0.009 A 
ATOM     57  C   UNL A   1      37.706  32.124  37.804  1.00  0.00     0.001 A 
ATOM     58  C   UNL A   1      39.078  33.993  37.117  1.00  0.00     0.001 A 
ATOM     59  C   UNL A   1      38.180  33.420  38.016  1.00  0.00     0.000 A 
ENDBRANCH  41  54
ENDBRANCH  15  16
ENDBRANCH   8  10
ENDBRANCH   7   8
ENDBRANCH   6   7
ENDBRANCH   5   6
ENDBRANCH   4   5
ENDBRANCH   3   4
ENDBRANCH   2   3
ENDBRANCH   1   2
BRANCH   1  60
ATOM     60  C   UNL A   1      40.808  21.681  26.487  1.00  0.00     0.188 C 
BRANCH  60  61
ATOM     61  C   UNL A   1      39.343  22.116  26.253  1.00  0.00     0.188 C 
BRANCH  61  62
ATOM     62  O   UNL A   1      38.484  21.123  25.705  1.00  0.00    -0.376 OA
BRANCH  62  63
ATOM     63  C   UNL A   1      37.474  21.602  24.821  1.00  0.00     0.202 C 
BRANCH  63  64
ATOM     64  C   UNL A   1      37.186  23.093  24.972  1.00  0.00     0.261 C 
BRANCH  64  65
ATOM     65  O   UNL A   1      35.941  23.485  24.375  1.00  0.00    -0.460 OA
BRANCH  65  66
ATOM     66  C   UNL A   1      34.796  23.232  25.041  1.00  0.00     0.340 C 
ATOM     67  O   UNL A   1      34.457  23.681  26.123  1.00  0.00    -0.246 OA
BRANCH  66  68
ATOM     68  C   UNL A   1      33.946  22.396  24.176  1.00  0.00     0.085 A 
ATOM     69  C   UNL A   1      33.673  21.094  24.633  1.00  0.00     0.018 A 
ATOM     70  C   UNL A   1      33.313  22.901  23.030  1.00  0.00     0.077 A 
ATOM     71  C   UNL A   1      32.739  20.297  23.970  1.00  0.00     0.001 A 
ATOM     72  C   UNL A   1      32.415  22.057  22.356  1.00  0.00     0.029 A 
ATOM     73  C   UNL A   1      32.117  20.775  22.822  1.00  0.00     0.002 A 
BRANCH  70  74
ATOM     74  N   UNL A   1      33.235  24.239  22.645  1.00  0.00    -0.255 NA
ATOM     75  C   UNL A   1      32.448  25.144  23.118  1.00  0.00     0.127 C 
BRANCH  75  76
ATOM     76  C   UNL A   1      32.179  26.388  22.309  1.00  0.00     0.076 A 
ATOM     77  C   UNL A   1      30.963  26.919  22.553  1.00  0.00     0.209 A 
ATOM     78  C   UNL A   1      33.188  27.474  22.588  1.00  0.00     0.201 A 
ATOM     79  O   UNL A   1      30.674  27.635  23.734  1.00  0.00    -0.463 OA
ATOM     80  C   UNL A   1      33.053  28.048  23.946  1.00  0.00     0.065 A 
ATOM     81  O   UNL A   1      34.046  27.803  21.783  1.00  0.00    -0.288 OA
ATOM     82  C   UNL A   1      31.760  28.035  24.488  1.00  0.00     0.137 A 
ATOM     83  C   UNL A   1      34.163  28.338  24.736  1.00  0.00     0.016 A 
ATOM     84  C   UNL A   1      31.562  28.339  25.829  1.00  0.00     0.048 A 
ATOM     85  C   UNL A   1      33.964  28.604  26.094  1.00  0.00     0.001 A 
ATOM     86  C   UNL A   1      32.671  28.607  26.636  1.00  0.00     0.004 A 
ENDBRANCH  75  76
ENDBRANCH  70  74
ENDBRANCH  66  68
ENDBRANCH  65  66
ENDBRANCH  64  65
ENDBRANCH  63  64
ENDBRANCH  62  63
ENDBRANCH  61  62
ENDBRANCH  60  61
ENDBRANCH   1  60
TORSDOF 22
ENDMDL
MODEL 2
REMARK VINA RESULT:      -9.5      4.405     10.069
REMARK SMILES O=C(OCCOCCOCCOCCOC(=O)c1ccccc1/N=C/c1coc2ccccc2c1=O)c1ccc(-c2c3nc(c(-c4ccccc4)c4ccc([nH]4)c(-c4ccccc4)c4nc(c(-c5ccccc5)c5ccc2[nH]5)C=C4)C=C3)cc1
REMARK SMILES IDX 9 1 8 2 7 3 6 4 5 5 4 6 3 7 2 8 1 9 37 10 38 11 84 12 39 13
REMARK SMILES IDX 83 14 40 15 41 16 42 17 77 18 43 19 82 20 76 21 78 22 44 23
REMARK SMILES IDX 81 24 75 25 74 26 45 28 67 29 52 30 66 31 53 32 56 33 65 34
REMARK SMILES IDX 79 35 54 36 55 37 64 39 80 40 57 41 46 42 47 43 51 44 48 45
REMARK SMILES IDX 50 46 49 47 68 48 69 49 73 50 70 51 72 52 71 53 58 54 59 55
REMARK SMILES IDX 63 56 60 57 62 58 61 59 10 60 11 61 12 62 13 63 14 64 15 65
REMARK SMILES IDX 16 66 17 67 18 68 19 69 23 70 20 71 22 72 21 73 24 74 25 75
REMARK SMILES IDX 26 76 27 77 35 78 28 79 34 80 36 81 29 82 33 83 30 84 32 85
REMARK SMILES IDX 31 86
REMARK H PARENT 78 27 56 38
REMARK Flexibility Score: inf
ROOT
ATOM      1  O   UNL A   1      32.126  33.515  27.254  1.00  0.00    -0.377 OA
ENDROOT
BRANCH   1   2
ATOM      2  C   UNL A   1      33.179  33.205  28.167  1.00  0.00     0.188 C 
BRANCH   2   3
ATOM      3  C   UNL A   1      34.446  34.034  27.961  1.00  0.00     0.188 C 
BRANCH   3   4
ATOM      4  O   UNL A   1      35.078  34.262  29.225  1.00  0.00    -0.376 OA
BRANCH   4   5
ATOM      5  C   UNL A   1      34.352  33.790  30.354  1.00  0.00     0.202 C 
BRANCH   5   6
ATOM      6  C   UNL A   1      35.129  32.746  31.154  1.00  0.00     0.261 C 
BRANCH   6   7
ATOM      7  O   UNL A   1      36.240  32.240  30.399  1.00  0.00    -0.460 OA
BRANCH   7   8
ATOM      8  C   UNL A   1      36.322  31.085  29.692  1.00  0.00     0.338 C 
ATOM      9  O   UNL A   1      35.330  30.722  29.061  1.00  0.00    -0.246 OA
BRANCH   8  10
ATOM     10  C   UNL A   1      37.574  30.273  29.541  1.00  0.00     0.060 A 
ATOM     11  C   UNL A   1      38.455  29.912  30.563  1.00  0.00     0.016 A 
ATOM     12  C   UNL A   1      37.865  29.821  28.239  1.00  0.00     0.016 A 
ATOM     13  C   UNL A   1      39.658  29.263  30.287  1.00  0.00     0.010 A 
ATOM     14  C   UNL A   1      39.049  29.134  27.957  1.00  0.00     0.010 A 
ATOM     15  C   UNL A   1      39.982  28.917  28.975  1.00  0.00    -0.014 A 
BRANCH  15  16
ATOM     16  C   UNL A   1      41.380  28.557  28.662  1.00  0.00     0.031 A 
ATOM     17  C   UNL A   1      41.663  27.134  28.267  1.00  0.00     0.074 A 
ATOM     18  C   UNL A   1      42.343  29.493  28.613  1.00  0.00     0.049 A 
ATOM     19  N   UNL A   1      42.793  26.573  27.924  1.00  0.00    -0.248 NA
ATOM     20  C   UNL A   1      40.505  26.221  28.238  1.00  0.00     0.031 C 
ATOM     21  C   UNL A   1      42.152  30.919  28.871  1.00  0.00     0.029 A 
ATOM     22  N   UNL A   1      43.671  29.381  28.292  1.00  0.00    -0.354 N 
ATOM     23  C   UNL A   1      42.484  25.243  27.663  1.00  0.00     0.074 A 
ATOM     24  C   UNL A   1      41.067  25.076  27.892  1.00  0.00     0.031 C 
ATOM     25  C   UNL A   1      43.318  31.558  28.667  1.00  0.00     0.029 A 
ATOM     26  C   UNL A   1      44.341  30.579  28.309  1.00  0.00     0.049 A 
ATOM     27  H   UNL A   1      44.103  28.524  28.070  1.00  0.00     0.167 HD
ATOM     28  C   UNL A   1      43.308  24.245  27.271  1.00  0.00     0.031 A 
ATOM     29  C   UNL A   1      45.640  30.844  28.068  1.00  0.00     0.031 A 
ATOM     30  C   UNL A   1      44.717  24.414  27.063  1.00  0.00     0.049 A 
ATOM     31  C   UNL A   1      46.555  29.702  27.713  1.00  0.00     0.074 A 
ATOM     32  C   UNL A   1      45.667  23.465  26.737  1.00  0.00     0.029 A 
ATOM     33  N   UNL A   1      45.377  25.631  27.164  1.00  0.00    -0.354 N 
ATOM     34  N   UNL A   1      46.265  28.437  27.522  1.00  0.00    -0.248 NA
ATOM     35  C   UNL A   1      47.979  30.025  27.549  1.00  0.00     0.031 C 
ATOM     36  C   UNL A   1      46.912  24.105  26.674  1.00  0.00     0.029 A 
ATOM     37  C   UNL A   1      46.725  25.457  26.917  1.00  0.00     0.049 A 
ATOM     38  H   UNL A   1      44.947  26.490  27.380  1.00  0.00     0.167 HD
ATOM     39  C   UNL A   1      47.463  27.816  27.197  1.00  0.00     0.074 A 
ATOM     40  C   UNL A   1      48.482  28.848  27.202  1.00  0.00     0.031 C 
ATOM     41  C   UNL A   1      47.707  26.511  26.923  1.00  0.00     0.031 A 
BRANCH  28  42
ATOM     42  C   UNL A   1      42.693  22.884  27.128  1.00  0.00    -0.014 A 
ATOM     43  C   UNL A   1      42.523  22.286  25.868  1.00  0.00     0.009 A 
ATOM     44  C   UNL A   1      42.216  22.219  28.268  1.00  0.00     0.009 A 
ATOM     45  C   UNL A   1      41.846  21.069  25.752  1.00  0.00     0.001 A 
ATOM     46  C   UNL A   1      41.559  20.994  28.149  1.00  0.00     0.001 A 
ATOM     47  C   UNL A   1      41.364  20.425  26.891  1.00  0.00     0.000 A 
ENDBRANCH  28  42
BRANCH  29  48
ATOM     48  C   UNL A   1      46.154  32.235  28.167  1.00  0.00    -0.014 A 
ATOM     49  C   UNL A   1      46.236  33.053  27.029  1.00  0.00     0.009 A 
ATOM     50  C   UNL A   1      46.578  32.752  29.402  1.00  0.00     0.009 A 
ATOM     51  C   UNL A   1      46.748  34.350  27.123  1.00  0.00     0.001 A 
ATOM     52  C   UNL A   1      47.065  34.058  29.498  1.00  0.00     0.001 A 
ATOM     53  C   UNL A   1      47.157  34.852  28.357  1.00  0.00     0.000 A 
ENDBRANCH  29  48
BRANCH  41  54
ATOM     54  C   UNL A   1      49.117  26.141  26.573  1.00  0.00    -0.014 A 
ATOM     55  C   UNL A   1      49.597  26.279  25.262  1.00  0.00     0.009 A 
ATOM     56  C   UNL A   1      49.987  25.698  27.580  1.00  0.00     0.009 A 
ATOM     57  C   UNL A   1      50.921  25.952  24.962  1.00  0.00     0.001 A 
ATOM     58  C   UNL A   1      51.314  25.394  27.282  1.00  0.00     0.001 A 
ATOM     59  C   UNL A   1      51.778  25.514  25.973  1.00  0.00     0.000 A 
ENDBRANCH  41  54
ENDBRANCH  15  16
ENDBRANCH   8  10
ENDBRANCH   7   8
ENDBRANCH   6   7
ENDBRANCH   5   6
ENDBRANCH   4   5
ENDBRANCH   3   4
ENDBRANCH   2   3
ENDBRANCH   1   2
BRANCH   1  60
ATOM     60  C   UNL A   1      31.412  32.423  26.683  1.00  0.00     0.188 C 
BRANCH  60  61
ATOM     61  C   UNL A   1      31.940  30.988  26.911  1.00  0.00     0.188 C 
BRANCH  61  62
ATOM     62  O   UNL A   1      32.672  30.420  25.831  1.00  0.00    -0.376 OA
BRANCH  62  63
ATOM     63  C   UNL A   1      33.731  29.540  26.199  1.00  0.00     0.202 C 
BRANCH  63  64
ATOM     64  C   UNL A   1      33.830  28.300  25.315  1.00  0.00     0.261 C 
BRANCH  64  65
ATOM     65  O   UNL A   1      33.578  28.581  23.930  1.00  0.00    -0.460 OA
BRANCH  65  66
ATOM     66  C   UNL A   1      32.986  27.633  23.175  1.00  0.00     0.340 C 
ATOM     67  O   UNL A   1      33.528  26.713  22.587  1.00  0.00    -0.246 OA
BRANCH  66  68
ATOM     68  C   UNL A   1      31.529  27.822  23.275  1.00  0.00     0.085 A 
ATOM     69  C   UNL A   1      30.973  28.846  22.487  1.00  0.00     0.018 A 
ATOM     70  C   UNL A   1      30.703  26.945  23.995  1.00  0.00     0.077 A 
ATOM     71  C   UNL A   1      29.588  28.981  22.383  1.00  0.00     0.001 A 
ATOM     72  C   UNL A   1      29.315  27.137  23.910  1.00  0.00     0.029 A 
ATOM     73  C   UNL A   1      28.757  28.132  23.106  1.00  0.00     0.002 A 
BRANCH  70  74
ATOM     74  N   UNL A   1      31.076  25.720  24.547  1.00  0.00    -0.255 NA
ATOM     75  C   UNL A   1      31.023  24.560  23.987  1.00  0.00     0.127 C 
BRANCH  75  76
ATOM     76  C   UNL A   1      31.033  23.320  24.845  1.00  0.00     0.076 A 
ATOM     77  C   UNL A   1      31.350  22.207  24.152  1.00  0.00     0.209 A 
ATOM     78  C   UNL A   1      32.025  23.422  25.976  1.00  0.00     0.201 A 
ATOM     79  O   UNL A   1      32.669  21.922  23.741  1.00  0.00    -0.463 OA
ATOM     80  C   UNL A   1      33.430  23.393  25.511  1.00  0.00     0.065 A 
ATOM     81  O   UNL A   1      31.687  23.557  27.143  1.00  0.00    -0.288 OA
ATOM     82  C   UNL A   1      33.669  22.667  24.336  1.00  0.00     0.137 A 
ATOM     83  C   UNL A   1      34.401  24.236  26.048  1.00  0.00     0.016 A 
ATOM     84  C   UNL A   1      34.899  22.760  23.696  1.00  0.00     0.048 A 
ATOM     85  C   UNL A   1      35.622  24.358  25.378  1.00  0.00     0.001 A 
ATOM     86  C   UNL A   1      35.870  23.623  24.211  1.00  0.00     0.004 A 
ENDBRANCH  75  76
ENDBRANCH  70  74
ENDBRANCH  66  68
ENDBRANCH  65  66
ENDBRANCH  64  65
ENDBRANCH  63  64
ENDBRANCH  62  63
ENDBRANCH  61  62
ENDBRANCH  60  61
ENDBRANCH   1  60
TORSDOF 22
ENDMDL
MODEL 3
REMARK VINA RESULT:      -9.4      4.100      9.959
REMARK SMILES O=C(OCCOCCOCCOCCOC(=O)c1ccccc1/N=C/c1coc2ccccc2c1=O)c1ccc(-c2c3nc(c(-c4ccccc4)c4ccc([nH]4)c(-c4ccccc4)c4nc(c(-c5ccccc5)c5ccc2[nH]5)C=C4)C=C3)cc1
REMARK SMILES IDX 9 1 8 2 7 3 6 4 5 5 4 6 3 7 2 8 1 9 37 10 38 11 84 12 39 13
REMARK SMILES IDX 83 14 40 15 41 16 42 17 77 18 43 19 82 20 76 21 78 22 44 23
REMARK SMILES IDX 81 24 75 25 74 26 45 28 67 29 52 30 66 31 53 32 56 33 65 34
REMARK SMILES IDX 79 35 54 36 55 37 64 39 80 40 57 41 46 42 47 43 51 44 48 45
REMARK SMILES IDX 50 46 49 47 68 48 69 49 73 50 70 51 72 52 71 53 58 54 59 55
REMARK SMILES IDX 63 56 60 57 62 58 61 59 10 60 11 61 12 62 13 63 14 64 15 65
REMARK SMILES IDX 16 66 17 67 18 68 19 69 23 70 20 71 22 72 21 73 24 74 25 75
REMARK SMILES IDX 26 76 27 77 35 78 28 79 34 80 36 81 29 82 33 83 30 84 32 85
REMARK SMILES IDX 31 86
REMARK H PARENT 78 27 56 38
REMARK Flexibility Score: inf
ROOT
ATOM      1  O   UNL A   1      32.292  33.479  26.895  1.00  0.00    -0.377 OA
ENDROOT
BRANCH   1   2
ATOM      2  C   UNL A   1      32.882  34.037  28.070  1.00  0.00     0.188 C 
BRANCH   2   3
ATOM      3  C   UNL A   1      34.409  34.075  28.043  1.00  0.00     0.188 C 
BRANCH   3   4
ATOM      4  O   UNL A   1      34.888  34.821  29.166  1.00  0.00    -0.376 OA
BRANCH   4   5
ATOM      5  C   UNL A   1      34.010  34.854  30.285  1.00  0.00     0.202 C 
BRANCH   5   6
ATOM      6  C   UNL A   1      34.244  33.689  31.246  1.00  0.00     0.261 C 
BRANCH   6   7
ATOM      7  O   UNL A   1      35.608  33.657  31.694  1.00  0.00    -0.460 OA
BRANCH   7   8
ATOM      8  C   UNL A   1      36.252  32.666  32.359  1.00  0.00     0.338 C 
ATOM      9  O   UNL A   1      35.958  32.474  33.538  1.00  0.00    -0.246 OA
BRANCH   8  10
ATOM     10  C   UNL A   1      37.225  31.716  31.726  1.00  0.00     0.060 A 
ATOM     11  C   UNL A   1      38.107  30.865  32.396  1.00  0.00     0.016 A 
ATOM     12  C   UNL A   1      37.223  31.676  30.318  1.00  0.00     0.016 A 
ATOM     13  C   UNL A   1      39.059  30.117  31.704  1.00  0.00     0.010 A 
ATOM     14  C   UNL A   1      38.146  30.898  29.613  1.00  0.00     0.010 A 
ATOM     15  C   UNL A   1      39.114  30.170  30.312  1.00  0.00    -0.014 A 
BRANCH  15  16
ATOM     16  C   UNL A   1      40.322  29.661  29.630  1.00  0.00     0.031 A 
ATOM     17  C   UNL A   1      41.519  30.569  29.560  1.00  0.00     0.074 A 
ATOM     18  C   UNL A   1      40.392  28.391  29.199  1.00  0.00     0.049 A 
ATOM     19  N   UNL A   1      42.699  30.354  29.041  1.00  0.00    -0.248 NA
ATOM     20  C   UNL A   1      41.366  31.900  30.177  1.00  0.00     0.031 C 
ATOM     21  C   UNL A   1      39.327  27.396  29.318  1.00  0.00     0.029 A 
ATOM     22  N   UNL A   1      41.424  27.713  28.601  1.00  0.00    -0.354 N 
ATOM     23  C   UNL A   1      43.416  31.526  29.249  1.00  0.00     0.074 A 
ATOM     24  C   UNL A   1      42.542  32.451  29.932  1.00  0.00     0.031 C 
ATOM     25  C   UNL A   1      39.773  26.222  28.837  1.00  0.00     0.029 A 
ATOM     26  C   UNL A   1      41.135  26.397  28.337  1.00  0.00     0.049 A 
ATOM     27  H   UNL A   1      42.289  28.130  28.384  1.00  0.00     0.167 HD
ATOM     28  C   UNL A   1      44.690  31.811  28.897  1.00  0.00     0.031 A 
ATOM     29  C   UNL A   1      41.891  25.450  27.750  1.00  0.00     0.031 A 
ATOM     30  C   UNL A   1      45.547  30.893  28.202  1.00  0.00     0.049 A 
ATOM     31  C   UNL A   1      43.278  25.815  27.293  1.00  0.00     0.074 A 
ATOM     32  C   UNL A   1      46.830  31.092  27.728  1.00  0.00     0.029 A 
ATOM     33  N   UNL A   1      45.192  29.590  27.882  1.00  0.00    -0.354 N 
ATOM     34  N   UNL A   1      43.930  26.944  27.445  1.00  0.00    -0.248 NA
ATOM     35  C   UNL A   1      44.031  24.776  26.577  1.00  0.00     0.031 C 
ATOM     36  C   UNL A   1      47.240  29.914  27.090  1.00  0.00     0.029 A 
ATOM     37  C   UNL A   1      46.228  28.973  27.208  1.00  0.00     0.049 A 
ATOM     38  H   UNL A   1      44.331  29.169  28.104  1.00  0.00     0.167 HD
ATOM     39  C   UNL A   1      45.174  26.747  26.861  1.00  0.00     0.074 A 
ATOM     40  C   UNL A   1      45.190  25.384  26.366  1.00  0.00     0.031 C 
ATOM     41  C   UNL A   1      46.210  27.612  26.738  1.00  0.00     0.031 A 
BRANCH  28  42
ATOM     42  C   UNL A   1      45.176  33.197  29.201  1.00  0.00    -0.014 A 
ATOM     43  C   UNL A   1      45.010  34.249  28.284  1.00  0.00     0.009 A 
ATOM     44  C   UNL A   1      45.871  33.439  30.395  1.00  0.00     0.009 A 
ATOM     45  C   UNL A   1      45.570  35.503  28.541  1.00  0.00     0.001 A 
ATOM     46  C   UNL A   1      46.411  34.698  30.658  1.00  0.00     0.001 A 
ATOM     47  C   UNL A   1      46.271  35.726  29.726  1.00  0.00     0.000 A 
ENDBRANCH  28  42
BRANCH  29  48
ATOM     48  C   UNL A   1      41.354  24.079  27.547  1.00  0.00    -0.014 A 
ATOM     49  C   UNL A   1      40.367  23.831  26.581  1.00  0.00     0.009 A 
ATOM     50  C   UNL A   1      41.817  23.008  28.329  1.00  0.00     0.009 A 
ATOM     51  C   UNL A   1      39.844  22.545  26.415  1.00  0.00     0.001 A 
ATOM     52  C   UNL A   1      41.312  21.720  28.144  1.00  0.00     0.001 A 
ATOM     53  C   UNL A   1      40.320  21.491  27.193  1.00  0.00     0.000 A 
ENDBRANCH  29  48
BRANCH  41  54
ATOM     54  C   UNL A   1      47.452  27.095  26.076  1.00  0.00    -0.014 A 
ATOM     55  C   UNL A   1      47.753  27.422  24.745  1.00  0.00     0.009 A 
ATOM     56  C   UNL A   1      48.356  26.315  26.813  1.00  0.00     0.009 A 
ATOM     57  C   UNL A   1      48.926  26.950  24.155  1.00  0.00     0.001 A 
ATOM     58  C   UNL A   1      49.538  25.864  26.227  1.00  0.00     0.001 A 
ATOM     59  C   UNL A   1      49.819  26.175  24.898  1.00  0.00     0.000 A 
ENDBRANCH  41  54
ENDBRANCH  15  16
ENDBRANCH   8  10
ENDBRANCH   7   8
ENDBRANCH   6   7
ENDBRANCH   5   6
ENDBRANCH   4   5
ENDBRANCH   3   4
ENDBRANCH   2   3
ENDBRANCH   1   2
BRANCH   1  60
ATOM     60  C   UNL A   1      32.001  32.084  26.908  1.00  0.00     0.188 C 
BRANCH  60  61
ATOM     61  C   UNL A   1      33.007  31.121  27.579  1.00  0.00     0.188 C 
BRANCH  61  62
ATOM     62  O   UNL A   1      34.110  30.722  26.774  1.00  0.00    -0.376 OA
BRANCH  62  63
ATOM     63  C   UNL A   1      34.783  29.538  27.196  1.00  0.00     0.202 C 
BRANCH  63  64
ATOM     64  C   UNL A   1      33.855  28.340  27.379  1.00  0.00     0.261 C 
BRANCH  64  65
ATOM     65  O   UNL A   1      33.055  28.072  26.217  1.00  0.00    -0.460 OA
BRANCH  65  66
ATOM     66  C   UNL A   1      31.767  27.710  26.389  1.00  0.00     0.340 C 
ATOM     67  O   UNL A   1      31.218  27.414  27.437  1.00  0.00    -0.246 OA
BRANCH  66  68
ATOM     68  C   UNL A   1      31.083  27.847  25.093  1.00  0.00     0.085 A 
ATOM     69  C   UNL A   1      31.029  29.141  24.545  1.00  0.00     0.018 A 
ATOM     70  C   UNL A   1      30.634  26.738  24.358  1.00  0.00     0.077 A 
ATOM     71  C   UNL A   1      30.560  29.336  23.245  1.00  0.00     0.001 A 
ATOM     72  C   UNL A   1      30.121  26.973  23.071  1.00  0.00     0.029 A 
ATOM     73  C   UNL A   1      30.093  28.251  22.511  1.00  0.00     0.002 A 
BRANCH  70  74
ATOM     74  N   UNL A   1      30.909  25.398  24.625  1.00  0.00    -0.255 NA
ATOM     75  C   UNL A   1      31.911  24.705  24.204  1.00  0.00     0.127 C 
BRANCH  75  76
ATOM     76  C   UNL A   1      31.828  23.200  24.210  1.00  0.00     0.076 A 
ATOM     77  C   UNL A   1      32.259  22.647  23.057  1.00  0.00     0.209 A 
ATOM     78  C   UNL A   1      32.652  22.590  25.315  1.00  0.00     0.201 A 
ATOM     79  O   UNL A   1      33.627  22.560  22.725  1.00  0.00    -0.463 OA
ATOM     80  C   UNL A   1      34.108  22.740  25.094  1.00  0.00     0.065 A 
ATOM     81  O   UNL A   1      32.154  22.071  26.303  1.00  0.00    -0.288 OA
ATOM     82  C   UNL A   1      34.520  22.783  23.755  1.00  0.00     0.137 A 
ATOM     83  C   UNL A   1      34.979  23.078  26.128  1.00  0.00     0.016 A 
ATOM     84  C   UNL A   1      35.825  23.142  23.437  1.00  0.00     0.048 A 
ATOM     85  C   UNL A   1      36.278  23.478  25.802  1.00  0.00     0.001 A 
ATOM     86  C   UNL A   1      36.698  23.508  24.465  1.00  0.00     0.004 A 
ENDBRANCH  75  76
ENDBRANCH  70  74
ENDBRANCH  66  68
ENDBRANCH  65  66
ENDBRANCH  64  65
ENDBRANCH  63  64
ENDBRANCH  62  63
ENDBRANCH  61  62
ENDBRANCH  60  61
ENDBRANCH   1  60
TORSDOF 22
ENDMDL
