MODEL 1
REMARK VINA RESULT:      -9.2      0.000      0.000
REMARK SMILES O=C(OCCOCCOCCOCCOC(=O)c1[nH]ncc1C[NH+]1CCC([N@H+]2CCC[C@@H](C(=O)N3CCCC3)C2)CC1)c1ccc(-c2c3nc(c(-c4ccccc4)c4ccc([nH]4)c(-c4ccccc4)c4nc(c(-c5ccccc5)c5ccc2[nH]5)C=C4)C=C3)cc1
REMARK SMILES IDX 10 1 9 2 8 3 7 4 6 5 5 6 4 7 3 8 2 9 1 10 43 11 44 12 90 13
REMARK SMILES IDX 45 14 89 15 46 16 47 17 48 18 83 19 49 20 88 21 82 22 84 23
REMARK SMILES IDX 50 24 87 25 81 26 80 27 51 29 73 30 58 31 72 32 59 33 62 34
REMARK SMILES IDX 71 35 85 36 60 37 61 38 70 40 86 41 63 42 52 43 53 44 57 45
REMARK SMILES IDX 54 46 56 47 55 48 74 49 75 50 79 51 76 52 78 53 77 54 64 55
REMARK SMILES IDX 65 56 69 57 66 58 68 59 67 60 11 61 12 62 13 63 14 64 15 65
REMARK SMILES IDX 16 66 17 67 18 68 19 69 22 70 20 71 21 73 23 74 24 75 25 76
REMARK SMILES IDX 42 77 26 79 41 80 27 81 28 82 29 83 40 84 30 86 32 87 31 88
REMARK SMILES IDX 33 89 34 90 35 91 36 92 39 93 37 94 38 95
REMARK H PARENT 84 28 62 39 19 72 24 78 28 85
REMARK Flexibility Score: inf
ROOT
ATOM      1  C   UNL A   1      39.074  21.594  26.172  1.00  0.00     0.188 C 
ENDROOT
BRANCH   1   2
ATOM      2  O   UNL A   1      39.823  20.480  26.649  1.00  0.00    -0.377 OA
BRANCH   2   3
ATOM      3  C   UNL A   1      41.235  20.669  26.739  1.00  0.00     0.188 C 
BRANCH   3   4
ATOM      4  C   UNL A   1      42.060  19.400  26.514  1.00  0.00     0.188 C 
BRANCH   4   5
ATOM      5  O   UNL A   1      42.544  19.360  25.167  1.00  0.00    -0.376 OA
BRANCH   5   6
ATOM      6  C   UNL A   1      43.930  19.048  25.026  1.00  0.00     0.202 C 
BRANCH   6   7
ATOM      7  C   UNL A   1      44.758  20.209  24.476  1.00  0.00     0.261 C 
BRANCH   7   8
ATOM      8  O   UNL A   1      44.075  21.463  24.606  1.00  0.00    -0.460 OA
BRANCH   8   9
ATOM      9  C   UNL A   1      44.615  22.707  24.559  1.00  0.00     0.338 C 
ATOM     10  O   UNL A   1      45.211  23.046  23.537  1.00  0.00    -0.246 OA
BRANCH   9  11
ATOM     11  C   UNL A   1      44.488  23.722  25.653  1.00  0.00     0.060 A 
ATOM     12  C   UNL A   1      43.290  24.168  26.215  1.00  0.00     0.016 A 
ATOM     13  C   UNL A   1      45.686  24.220  26.195  1.00  0.00     0.016 A 
ATOM     14  C   UNL A   1      43.266  25.129  27.214  1.00  0.00     0.010 A 
ATOM     15  C   UNL A   1      45.676  25.167  27.225  1.00  0.00     0.010 A 
ATOM     16  C   UNL A   1      44.456  25.645  27.712  1.00  0.00    -0.014 A 
BRANCH  16  17
ATOM     17  C   UNL A   1      44.360  26.807  28.612  1.00  0.00     0.031 A 
ATOM     18  C   UNL A   1      44.343  26.545  30.088  1.00  0.00     0.074 A 
ATOM     19  C   UNL A   1      44.485  28.050  28.115  1.00  0.00     0.049 A 
ATOM     20  N   UNL A   1      44.273  27.392  31.079  1.00  0.00    -0.248 NA
ATOM     21  C   UNL A   1      44.445  25.134  30.507  1.00  0.00     0.031 C 
ATOM     22  C   UNL A   1      44.669  28.380  26.699  1.00  0.00     0.029 A 
ATOM     23  N   UNL A   1      44.527  29.263  28.749  1.00  0.00    -0.354 N 
ATOM     24  C   UNL A   1      44.298  26.618  32.231  1.00  0.00     0.074 A 
ATOM     25  C   UNL A   1      44.387  25.236  31.825  1.00  0.00     0.031 C 
ATOM     26  C   UNL A   1      44.834  29.708  26.577  1.00  0.00     0.029 A 
ATOM     27  C   UNL A   1      44.696  30.323  27.893  1.00  0.00     0.049 A 
ATOM     28  H   UNL A   1      44.443  29.365  29.724  1.00  0.00     0.167 HD
ATOM     29  C   UNL A   1      44.245  27.034  33.517  1.00  0.00     0.031 A 
ATOM     30  C   UNL A   1      44.701  31.643  28.152  1.00  0.00     0.031 A 
ATOM     31  C   UNL A   1      44.141  28.415  33.890  1.00  0.00     0.049 A 
ATOM     32  C   UNL A   1      44.508  32.076  29.580  1.00  0.00     0.074 A 
ATOM     33  C   UNL A   1      43.975  28.966  35.146  1.00  0.00     0.029 A 
ATOM     34  N   UNL A   1      44.202  29.469  32.987  1.00  0.00    -0.354 N 
ATOM     35  N   UNL A   1      44.433  31.338  30.663  1.00  0.00    -0.248 NA
ATOM     36  C   UNL A   1      44.385  33.518  29.822  1.00  0.00     0.031 C 
ATOM     37  C   UNL A   1      43.891  30.356  34.997  1.00  0.00     0.029 A 
ATOM     38  C   UNL A   1      44.060  30.669  33.655  1.00  0.00     0.049 A 
ATOM     39  H   UNL A   1      44.327  29.374  32.016  1.00  0.00     0.167 HD
ATOM     40  C   UNL A   1      44.259  32.225  31.716  1.00  0.00     0.074 A 
ATOM     41  C   UNL A   1      44.277  33.557  31.142  1.00  0.00     0.031 C 
ATOM     42  C   UNL A   1      44.085  31.970  33.037  1.00  0.00     0.031 A 
BRANCH  29  43
ATOM     43  C   UNL A   1      44.211  25.970  34.574  1.00  0.00    -0.014 A 
ATOM     44  C   UNL A   1      43.001  25.410  35.016  1.00  0.00     0.009 A 
ATOM     45  C   UNL A   1      45.411  25.549  35.168  1.00  0.00     0.009 A 
ATOM     46  C   UNL A   1      42.993  24.475  36.055  1.00  0.00     0.001 A 
ATOM     47  C   UNL A   1      45.401  24.598  36.190  1.00  0.00     0.001 A 
ATOM     48  C   UNL A   1      44.192  24.070  36.639  1.00  0.00     0.000 A 
ENDBRANCH  29  43
BRANCH  30  49
ATOM     49  C   UNL A   1      44.800  32.639  27.049  1.00  0.00    -0.014 A 
ATOM     50  C   UNL A   1      43.704  32.922  26.221  1.00  0.00     0.009 A 
ATOM     51  C   UNL A   1      46.021  33.287  26.790  1.00  0.00     0.009 A 
ATOM     52  C   UNL A   1      43.837  33.804  25.142  1.00  0.00     0.001 A 
ATOM     53  C   UNL A   1      46.143  34.193  25.735  1.00  0.00     0.001 A 
ATOM     54  C   UNL A   1      45.054  34.440  24.902  1.00  0.00     0.000 A 
ENDBRANCH  30  49
BRANCH  42  55
ATOM     55  C   UNL A   1      43.932  33.162  33.934  1.00  0.00    -0.014 A 
ATOM     56  C   UNL A   1      45.049  33.779  34.514  1.00  0.00     0.009 A 
ATOM     57  C   UNL A   1      42.654  33.692  34.168  1.00  0.00     0.009 A 
ATOM     58  C   UNL A   1      44.885  34.887  35.346  1.00  0.00     0.001 A 
ATOM     59  C   UNL A   1      42.496  34.818  34.975  1.00  0.00     0.001 A 
ATOM     60  C   UNL A   1      43.609  35.408  35.571  1.00  0.00     0.000 A 
ENDBRANCH  42  55
ENDBRANCH  16  17
ENDBRANCH   9  11
ENDBRANCH   8   9
ENDBRANCH   7   8
ENDBRANCH   6   7
ENDBRANCH   5   6
ENDBRANCH   4   5
ENDBRANCH   3   4
ENDBRANCH   2   3
ENDBRANCH   1   2
BRANCH   1  61
ATOM     61  C   UNL A   1      37.858  21.315  25.264  1.00  0.00     0.188 C 
BRANCH  61  62
ATOM     62  O   UNL A   1      36.898  22.361  25.249  1.00  0.00    -0.376 OA
BRANCH  62  63
ATOM     63  C   UNL A   1      35.910  22.302  24.228  1.00  0.00     0.202 C 
BRANCH  63  64
ATOM     64  C   UNL A   1      34.511  21.813  24.638  1.00  0.00     0.261 C 
BRANCH  64  65
ATOM     65  O   UNL A   1      33.563  22.831  24.994  1.00  0.00    -0.459 OA
BRANCH  65  66
ATOM     66  C   UNL A   1      33.325  23.086  26.302  1.00  0.00     0.356 C 
ATOM     67  O   UNL A   1      34.180  23.314  27.147  1.00  0.00    -0.244 OA
BRANCH  66  68
ATOM     68  C   UNL A   1      31.909  23.279  26.477  1.00  0.00     0.152 A 
ATOM     69  N   UNL A   1      31.110  22.374  27.119  1.00  0.00    -0.271 N 
ATOM     70  C   UNL A   1      31.066  24.339  26.150  1.00  0.00     0.059 A 
ATOM     71  N   UNL A   1      29.894  22.855  27.433  1.00  0.00    -0.183 NA
ATOM     72  H   UNL A   1      31.397  21.457  27.332  1.00  0.00     0.190 HD
ATOM     73  C   UNL A   1      29.859  24.041  26.824  1.00  0.00     0.145 A 
BRANCH  70  74
ATOM     74  C   UNL A   1      31.346  25.513  25.268  1.00  0.00     0.303 C 
BRANCH  74  75
ATOM     75  N   UNL A   1      32.348  26.405  25.887  1.00  0.00    -0.331 N 
ATOM     76  C   UNL A   1      33.347  26.863  24.915  1.00  0.00     0.268 C 
ATOM     77  C   UNL A   1      31.728  27.520  26.617  1.00  0.00     0.268 C 
ATOM     78  H   UNL A   1      32.848  25.850  26.582  1.00  0.00     0.348 HD
ATOM     79  C   UNL A   1      34.424  27.724  25.543  1.00  0.00     0.126 C 
ATOM     80  C   UNL A   1      32.770  28.413  27.293  1.00  0.00     0.126 C 
ATOM     81  C   UNL A   1      33.782  28.924  26.257  1.00  0.00     0.195 C 
BRANCH  81  82
ATOM     82  N   UNL A   1      34.745  29.891  26.826  1.00  0.00    -0.331 N 
ATOM     83  C   UNL A   1      34.115  31.097  27.379  1.00  0.00     0.262 C 
ATOM     84  C   UNL A   1      35.582  29.219  27.838  1.00  0.00     0.275 C 
ATOM     85  H   UNL A   1      35.329  30.219  26.056  1.00  0.00     0.348 HD
ATOM     86  C   UNL A   1      35.154  32.064  27.949  1.00  0.00     0.062 C 
ATOM     87  C   UNL A   1      36.669  30.139  28.399  1.00  0.00     0.134 C 
ATOM     88  C   UNL A   1      36.030  31.387  29.002  1.00  0.00     0.025 C 
BRANCH  87  89
ATOM     89  C   UNL A   1      37.497  29.332  29.391  1.00  0.00     0.231 C 
ATOM     90  O   UNL A   1      37.085  29.077  30.524  1.00  0.00    -0.274 OA
ATOM     91  N   UNL A   1      38.679  28.803  28.934  1.00  0.00    -0.342 N 
ATOM     92  C   UNL A   1      39.468  29.205  27.785  1.00  0.00     0.119 C 
ATOM     93  C   UNL A   1      39.240  27.628  29.574  1.00  0.00     0.119 C 
ATOM     94  C   UNL A   1      40.148  27.918  27.361  1.00  0.00     0.023 C 
ATOM     95  C   UNL A   1      40.400  27.200  28.684  1.00  0.00     0.023 C 
ENDBRANCH  87  89
ENDBRANCH  81  82
ENDBRANCH  74  75
ENDBRANCH  70  74
ENDBRANCH  66  68
ENDBRANCH  65  66
ENDBRANCH  64  65
ENDBRANCH  63  64
ENDBRANCH  62  63
ENDBRANCH  61  62
ENDBRANCH   1  61
TORSDOF 24
ENDMDL
MODEL 2
REMARK VINA RESULT:      -9.1      4.131      9.467
REMARK SMILES O=C(OCCOCCOCCOCCOC(=O)c1[nH]ncc1C[NH+]1CCC([N@H+]2CCC[C@@H](C(=O)N3CCCC3)C2)CC1)c1ccc(-c2c3nc(c(-c4ccccc4)c4ccc([nH]4)c(-c4ccccc4)c4nc(c(-c5ccccc5)c5ccc2[nH]5)C=C4)C=C3)cc1
REMARK SMILES IDX 10 1 9 2 8 3 7 4 6 5 5 6 4 7 3 8 2 9 1 10 43 11 44 12 90 13
REMARK SMILES IDX 45 14 89 15 46 16 47 17 48 18 83 19 49 20 88 21 82 22 84 23
REMARK SMILES IDX 50 24 87 25 81 26 80 27 51 29 73 30 58 31 72 32 59 33 62 34
REMARK SMILES IDX 71 35 85 36 60 37 61 38 70 40 86 41 63 42 52 43 53 44 57 45
REMARK SMILES IDX 54 46 56 47 55 48 74 49 75 50 79 51 76 52 78 53 77 54 64 55
REMARK SMILES IDX 65 56 69 57 66 58 68 59 67 60 11 61 12 62 13 63 14 64 15 65
REMARK SMILES IDX 16 66 17 67 18 68 19 69 22 70 20 71 21 73 23 74 24 75 25 76
REMARK SMILES IDX 42 77 26 79 41 80 27 81 28 82 29 83 40 84 30 86 32 87 31 88
REMARK SMILES IDX 33 89 34 90 35 91 36 92 39 93 37 94 38 95
REMARK H PARENT 84 28 62 39 19 72 24 78 28 85
REMARK Flexibility Score: inf
ROOT
ATOM      1  C   UNL A   1      33.581  31.133  27.786  1.00  0.00     0.188 C 
ENDROOT
BRANCH   1   2
ATOM      2  O   UNL A   1      34.849  31.749  27.584  1.00  0.00    -0.377 OA
BRANCH   2   3
ATOM      3  C   UNL A   1      35.002  33.057  28.137  1.00  0.00     0.188 C 
BRANCH   3   4
ATOM      4  C   UNL A   1      33.724  33.643  28.741  1.00  0.00     0.188 C 
BRANCH   4   5
ATOM      5  O   UNL A   1      33.914  33.905  30.136  1.00  0.00    -0.376 OA
BRANCH   5   6
ATOM      6  C   UNL A   1      34.644  32.907  30.850  1.00  0.00     0.202 C 
BRANCH   6   7
ATOM      7  C   UNL A   1      35.531  33.481  31.954  1.00  0.00     0.261 C 
BRANCH   7   8
ATOM      8  O   UNL A   1      36.645  34.211  31.422  1.00  0.00    -0.460 OA
BRANCH   8   9
ATOM      9  C   UNL A   1      37.790  34.556  32.063  1.00  0.00     0.338 C 
ATOM     10  O   UNL A   1      37.726  34.839  33.259  1.00  0.00    -0.246 OA
BRANCH   9  11
ATOM     11  C   UNL A   1      39.144  34.565  31.422  1.00  0.00     0.060 A 
ATOM     12  C   UNL A   1      40.364  34.486  32.097  1.00  0.00     0.016 A 
ATOM     13  C   UNL A   1      39.179  34.596  30.017  1.00  0.00     0.016 A 
ATOM     14  C   UNL A   1      41.574  34.523  31.423  1.00  0.00     0.010 A 
ATOM     15  C   UNL A   1      40.394  34.601  29.323  1.00  0.00     0.010 A 
ATOM     16  C   UNL A   1      41.596  34.597  30.036  1.00  0.00    -0.014 A 
BRANCH  16  17
ATOM     17  C   UNL A   1      42.899  34.846  29.397  1.00  0.00     0.031 A 
ATOM     18  C   UNL A   1      43.762  33.659  29.087  1.00  0.00     0.074 A 
ATOM     19  C   UNL A   1      43.196  36.075  28.938  1.00  0.00     0.049 A 
ATOM     20  N   UNL A   1      44.938  33.615  28.524  1.00  0.00    -0.248 NA
ATOM     21  C   UNL A   1      43.210  32.336  29.437  1.00  0.00     0.031 C 
ATOM     22  C   UNL A   1      42.332  37.253  29.059  1.00  0.00     0.029 A 
ATOM     23  N   UNL A   1      44.281  36.526  28.237  1.00  0.00    -0.354 N 
ATOM     24  C   UNL A   1      45.276  32.269  28.474  1.00  0.00     0.074 A 
ATOM     25  C   UNL A   1      44.187  31.526  29.064  1.00  0.00     0.031 C 
ATOM     26  C   UNL A   1      42.911  38.286  28.423  1.00  0.00     0.029 A 
ATOM     27  C   UNL A   1      44.211  37.860  27.917  1.00  0.00     0.049 A 
ATOM     28  H   UNL A   1      45.039  35.950  27.986  1.00  0.00     0.167 HD
ATOM     29  C   UNL A   1      46.404  31.709  27.982  1.00  0.00     0.031 A 
ATOM     30  C   UNL A   1      45.119  38.647  27.313  1.00  0.00     0.031 A 
ATOM     31  C   UNL A   1      47.476  32.474  27.416  1.00  0.00     0.049 A 
ATOM     32  C   UNL A   1      46.421  38.018  26.894  1.00  0.00     0.074 A 
ATOM     33  C   UNL A   1      48.714  32.046  26.977  1.00  0.00     0.029 A 
ATOM     34  N   UNL A   1      47.423  33.846  27.207  1.00  0.00    -0.354 N 
ATOM     35  N   UNL A   1      46.779  36.755  26.939  1.00  0.00    -0.248 NA
ATOM     36  C   UNL A   1      47.448  38.919  26.359  1.00  0.00     0.031 C 
ATOM     37  C   UNL A   1      49.428  33.169  26.542  1.00  0.00     0.029 A 
ATOM     38  C   UNL A   1      48.612  34.286  26.660  1.00  0.00     0.049 A 
ATOM     39  H   UNL A   1      46.652  34.420  27.418  1.00  0.00     0.167 HD
ATOM     40  C   UNL A   1      48.070  36.709  26.432  1.00  0.00     0.074 A 
ATOM     41  C   UNL A   1      48.415  38.066  26.054  1.00  0.00     0.031 C 
ATOM     42  C   UNL A   1      48.907  35.650  26.300  1.00  0.00     0.031 A 
BRANCH  29  43
ATOM     43  C   UNL A   1      46.543  30.221  28.127  1.00  0.00    -0.014 A 
ATOM     44  C   UNL A   1      47.123  29.645  29.270  1.00  0.00     0.009 A 
ATOM     45  C   UNL A   1      46.124  29.384  27.082  1.00  0.00     0.009 A 
ATOM     46  C   UNL A   1      47.309  28.261  29.346  1.00  0.00     0.001 A 
ATOM     47  C   UNL A   1      46.290  28.001  27.171  1.00  0.00     0.001 A 
ATOM     48  C   UNL A   1      46.891  27.442  28.297  1.00  0.00     0.000 A 
ENDBRANCH  29  43
BRANCH  30  49
ATOM     49  C   UNL A   1      44.880  40.108  27.152  1.00  0.00    -0.014 A 
ATOM     50  C   UNL A   1      44.359  40.635  25.960  1.00  0.00     0.009 A 
ATOM     51  C   UNL A   1      45.216  40.997  28.187  1.00  0.00     0.009 A 
ATOM     52  C   UNL A   1      44.212  42.016  25.798  1.00  0.00     0.001 A 
ATOM     53  C   UNL A   1      45.037  42.374  28.037  1.00  0.00     0.001 A 
ATOM     54  C   UNL A   1      44.548  42.884  26.836  1.00  0.00     0.000 A 
ENDBRANCH  30  49
BRANCH  42  55
ATOM     55  C   UNL A   1      50.252  35.929  25.701  1.00  0.00    -0.014 A 
ATOM     56  C   UNL A   1      50.441  35.917  24.311  1.00  0.00     0.009 A 
ATOM     57  C   UNL A   1      51.332  36.243  26.539  1.00  0.00     0.009 A 
ATOM     58  C   UNL A   1      51.701  36.180  23.773  1.00  0.00     0.001 A 
ATOM     59  C   UNL A   1      52.582  36.535  25.997  1.00  0.00     0.001 A 
ATOM     60  C   UNL A   1      52.768  36.493  24.616  1.00  0.00     0.000 A 
ENDBRANCH  42  55
ENDBRANCH  16  17
ENDBRANCH   9  11
ENDBRANCH   8   9
ENDBRANCH   7   8
ENDBRANCH   6   7
ENDBRANCH   5   6
ENDBRANCH   4   5
ENDBRANCH   3   4
ENDBRANCH   2   3
ENDBRANCH   1   2
BRANCH   1  61
ATOM     61  C   UNL A   1      33.161  30.006  26.819  1.00  0.00     0.188 C 
BRANCH  61  62
ATOM     62  O   UNL A   1      31.916  30.233  26.176  1.00  0.00    -0.376 OA
BRANCH  62  63
ATOM     63  C   UNL A   1      31.670  29.493  24.986  1.00  0.00     0.202 C 
BRANCH  63  64
ATOM     64  C   UNL A   1      32.856  28.717  24.390  1.00  0.00     0.261 C 
BRANCH  64  65
ATOM     65  O   UNL A   1      32.548  27.816  23.315  1.00  0.00    -0.459 OA
BRANCH  65  66
ATOM     66  C   UNL A   1      32.303  26.513  23.592  1.00  0.00     0.356 C 
ATOM     67  O   UNL A   1      31.807  26.090  24.628  1.00  0.00    -0.244 OA
BRANCH  66  68
ATOM     68  C   UNL A   1      32.497  25.749  22.388  1.00  0.00     0.152 A 
ATOM     69  N   UNL A   1      32.271  26.259  21.139  1.00  0.00    -0.271 N 
ATOM     70  C   UNL A   1      32.981  24.461  22.171  1.00  0.00     0.059 A 
ATOM     71  N   UNL A   1      32.777  25.504  20.148  1.00  0.00    -0.183 NA
ATOM     72  H   UNL A   1      31.783  27.099  20.981  1.00  0.00     0.190 HD
ATOM     73  C   UNL A   1      33.189  24.400  20.774  1.00  0.00     0.145 A 
BRANCH  70  74
ATOM     74  C   UNL A   1      33.206  23.371  23.169  1.00  0.00     0.303 C 
BRANCH  74  75
ATOM     75  N   UNL A   1      34.476  23.579  23.895  1.00  0.00    -0.331 N 
ATOM     76  C   UNL A   1      34.305  23.449  25.346  1.00  0.00     0.268 C 
ATOM     77  C   UNL A   1      35.559  22.727  23.381  1.00  0.00     0.268 C 
ATOM     78  H   UNL A   1      34.762  24.543  23.717  1.00  0.00     0.348 HD
ATOM     79  C   UNL A   1      35.581  23.726  26.113  1.00  0.00     0.126 C 
ATOM     80  C   UNL A   1      36.881  22.982  24.106  1.00  0.00     0.126 C 
ATOM     81  C   UNL A   1      36.700  22.796  25.619  1.00  0.00     0.195 C 
BRANCH  81  82
ATOM     82  N   UNL A   1      37.971  22.909  26.367  1.00  0.00    -0.331 N 
ATOM     83  C   UNL A   1      38.905  21.804  26.114  1.00  0.00     0.262 C 
ATOM     84  C   UNL A   1      38.601  24.212  26.078  1.00  0.00     0.275 C 
ATOM     85  H   UNL A   1      37.741  22.848  27.359  1.00  0.00     0.348 HD
ATOM     86  C   UNL A   1      40.199  21.966  26.914  1.00  0.00     0.062 C 
ATOM     87  C   UNL A   1      39.875  24.436  26.897  1.00  0.00     0.134 C 
ATOM     88  C   UNL A   1      40.868  23.310  26.627  1.00  0.00     0.025 C 
BRANCH  87  89
ATOM     89  C   UNL A   1      40.409  25.822  26.557  1.00  0.00     0.231 C 
ATOM     90  O   UNL A   1      40.979  26.054  25.489  1.00  0.00    -0.274 OA
ATOM     91  N   UNL A   1      40.131  26.833  27.443  1.00  0.00    -0.342 N 
ATOM     92  C   UNL A   1      39.754  26.737  28.840  1.00  0.00     0.119 C 
ATOM     93  C   UNL A   1      40.103  28.209  26.984  1.00  0.00     0.119 C 
ATOM     94  C   UNL A   1      38.902  27.971  29.059  1.00  0.00     0.023 C 
ATOM     95  C   UNL A   1      39.553  29.014  28.155  1.00  0.00     0.023 C 
ENDBRANCH  87  89
ENDBRANCH  81  82
ENDBRANCH  74  75
ENDBRANCH  70  74
ENDBRANCH  66  68
ENDBRANCH  65  66
ENDBRANCH  64  65
ENDBRANCH  63  64
ENDBRANCH  62  63
ENDBRANCH  61  62
ENDBRANCH   1  61
TORSDOF 24
ENDMDL
MODEL 3
REMARK VINA RESULT:      -9.1      3.565      9.442
REMARK SMILES O=C(OCCOCCOCCOCCOC(=O)c1[nH]ncc1C[NH+]1CCC([N@H+]2CCC[C@@H](C(=O)N3CCCC3)C2)CC1)c1ccc(-c2c3nc(c(-c4ccccc4)c4ccc([nH]4)c(-c4ccccc4)c4nc(c(-c5ccccc5)c5ccc2[nH]5)C=C4)C=C3)cc1
REMARK SMILES IDX 10 1 9 2 8 3 7 4 6 5 5 6 4 7 3 8 2 9 1 10 43 11 44 12 90 13
REMARK SMILES IDX 45 14 89 15 46 16 47 17 48 18 83 19 49 20 88 21 82 22 84 23
REMARK SMILES IDX 50 24 87 25 81 26 80 27 51 29 73 30 58 31 72 32 59 33 62 34
REMARK SMILES IDX 71 35 85 36 60 37 61 38 70 40 86 41 63 42 52 43 53 44 57 45
REMARK SMILES IDX 54 46 56 47 55 48 74 49 75 50 79 51 76 52 78 53 77 54 64 55
REMARK SMILES IDX 65 56 69 57 66 58 68 59 67 60 11 61 12 62 13 63 14 64 15 65
REMARK SMILES IDX 16 66 17 67 18 68 19 69 22 70 20 71 21 73 23 74 24 75 25 76
REMARK SMILES IDX 42 77 26 79 41 80 27 81 28 82 29 83 40 84 30 86 32 87 31 88
REMARK SMILES IDX 33 89 34 90 35 91 36 92 39 93 37 94 38 95
REMARK H PARENT 84 28 62 39 19 72 24 78 28 85
REMARK Flexibility Score: inf
ROOT
ATOM      1  C   UNL A   1      33.269  31.160  27.288  1.00  0.00     0.188 C 
ENDROOT
BRANCH   1   2
ATOM      2  O   UNL A   1      34.684  31.321  27.308  1.00  0.00    -0.377 OA
BRANCH   2   3
ATOM      3  C   UNL A   1      35.175  32.430  28.062  1.00  0.00     0.188 C 
BRANCH   3   4
ATOM      4  C   UNL A   1      34.085  33.329  28.650  1.00  0.00     0.188 C 
BRANCH   4   5
ATOM      5  O   UNL A   1      34.126  33.280  30.081  1.00  0.00    -0.376 OA
BRANCH   5   6
ATOM      6  C   UNL A   1      34.871  32.195  30.633  1.00  0.00     0.202 C 
BRANCH   6   7
ATOM      7  C   UNL A   1      35.338  32.449  32.065  1.00  0.00     0.261 C 
BRANCH   7   8
ATOM      8  O   UNL A   1      35.823  31.253  32.691  1.00  0.00    -0.460 OA
BRANCH   8   9
ATOM      9  C   UNL A   1      36.878  30.490  32.309  1.00  0.00     0.338 C 
ATOM     10  O   UNL A   1      36.797  29.270  32.451  1.00  0.00    -0.246 OA
BRANCH   9  11
ATOM     11  C   UNL A   1      38.122  31.029  31.674  1.00  0.00     0.060 A 
ATOM     12  C   UNL A   1      38.410  31.015  30.307  1.00  0.00     0.016 A 
ATOM     13  C   UNL A   1      39.047  31.656  32.527  1.00  0.00     0.016 A 
ATOM     14  C   UNL A   1      39.600  31.520  29.807  1.00  0.00     0.010 A 
ATOM     15  C   UNL A   1      40.238  32.198  32.031  1.00  0.00     0.010 A 
ATOM     16  C   UNL A   1      40.527  32.098  30.666  1.00  0.00    -0.014 A 
BRANCH  16  17
ATOM     17  C   UNL A   1      41.851  32.420  30.109  1.00  0.00     0.031 A 
ATOM     18  C   UNL A   1      42.072  33.811  29.593  1.00  0.00     0.074 A 
ATOM     19  C   UNL A   1      42.866  31.548  30.249  1.00  0.00     0.049 A 
ATOM     20  N   UNL A   1      43.142  34.338  29.067  1.00  0.00    -0.248 NA
ATOM     21  C   UNL A   1      40.935  34.744  29.713  1.00  0.00     0.031 C 
ATOM     22  C   UNL A   1      42.768  30.233  30.889  1.00  0.00     0.029 A 
ATOM     23  N   UNL A   1      44.187  31.656  29.908  1.00  0.00    -0.354 N 
ATOM     24  C   UNL A   1      42.802  35.652  28.771  1.00  0.00     0.074 A 
ATOM     25  C   UNL A   1      41.428  35.845  29.171  1.00  0.00     0.031 C 
ATOM     26  C   UNL A   1      43.987  29.670  30.920  1.00  0.00     0.029 A 
ATOM     27  C   UNL A   1      44.931  30.552  30.242  1.00  0.00     0.049 A 
ATOM     28  H   UNL A   1      44.567  32.450  29.467  1.00  0.00     0.167 HD
ATOM     29  C   UNL A   1      43.575  36.607  28.207  1.00  0.00     0.031 A 
ATOM     30  C   UNL A   1      46.224  30.279  29.989  1.00  0.00     0.031 A 
ATOM     31  C   UNL A   1      44.932  36.381  27.805  1.00  0.00     0.049 A 
ATOM     32  C   UNL A   1      47.023  31.313  29.242  1.00  0.00     0.074 A 
ATOM     33  C   UNL A   1      45.792  37.226  27.130  1.00  0.00     0.029 A 
ATOM     34  N   UNL A   1      45.629  35.206  28.055  1.00  0.00    -0.354 N 
ATOM     35  N   UNL A   1      46.668  32.523  28.874  1.00  0.00    -0.248 NA
ATOM     36  C   UNL A   1      48.391  30.943  28.861  1.00  0.00     0.031 C 
ATOM     37  C   UNL A   1      46.999  36.543  26.933  1.00  0.00     0.029 A 
ATOM     38  C   UNL A   1      46.905  35.295  27.534  1.00  0.00     0.049 A 
ATOM     39  H   UNL A   1      45.267  34.425  28.532  1.00  0.00     0.167 HD
ATOM     40  C   UNL A   1      47.770  33.060  28.223  1.00  0.00     0.074 A 
ATOM     41  C   UNL A   1      48.815  32.056  28.281  1.00  0.00     0.031 C 
ATOM     42  C   UNL A   1      47.910  34.266  27.619  1.00  0.00     0.031 A 
BRANCH  29  43
ATOM     43  C   UNL A   1      42.923  37.930  27.927  1.00  0.00    -0.014 A 
ATOM     44  C   UNL A   1      42.963  38.981  28.857  1.00  0.00     0.009 A 
ATOM     45  C   UNL A   1      42.222  38.112  26.726  1.00  0.00     0.009 A 
ATOM     46  C   UNL A   1      42.284  40.177  28.602  1.00  0.00     0.001 A 
ATOM     47  C   UNL A   1      41.564  39.315  26.463  1.00  0.00     0.001 A 
ATOM     48  C   UNL A   1      41.587  40.341  27.405  1.00  0.00     0.000 A 
ENDBRANCH  29  43
BRANCH  30  49
ATOM     49  C   UNL A   1      46.815  28.962  30.354  1.00  0.00    -0.014 A 
ATOM     50  C   UNL A   1      47.496  28.779  31.567  1.00  0.00     0.009 A 
ATOM     51  C   UNL A   1      46.735  27.880  29.460  1.00  0.00     0.009 A 
ATOM     52  C   UNL A   1      48.110  27.556  31.860  1.00  0.00     0.001 A 
ATOM     53  C   UNL A   1      47.319  26.650  29.769  1.00  0.00     0.001 A 
ATOM     54  C   UNL A   1      48.019  26.493  30.963  1.00  0.00     0.000 A 
ENDBRANCH  30  49
BRANCH  42  55
ATOM     55  C   UNL A   1      49.247  34.556  27.005  1.00  0.00    -0.014 A 
ATOM     56  C   UNL A   1      50.299  35.071  27.775  1.00  0.00     0.009 A 
ATOM     57  C   UNL A   1      49.461  34.275  25.648  1.00  0.00     0.009 A 
ATOM     58  C   UNL A   1      51.536  35.335  27.186  1.00  0.00     0.001 A 
ATOM     59  C   UNL A   1      50.707  34.510  25.068  1.00  0.00     0.001 A 
ATOM     60  C   UNL A   1      51.739  35.049  25.835  1.00  0.00     0.000 A 
ENDBRANCH  42  55
ENDBRANCH  16  17
ENDBRANCH   9  11
ENDBRANCH   8   9
ENDBRANCH   7   8
ENDBRANCH   6   7
ENDBRANCH   5   6
ENDBRANCH   4   5
ENDBRANCH   3   4
ENDBRANCH   2   3
ENDBRANCH   1   2
BRANCH   1  61
ATOM     61  C   UNL A   1      32.697  29.852  26.702  1.00  0.00     0.188 C 
BRANCH  61  62
ATOM     62  O   UNL A   1      32.789  29.765  25.289  1.00  0.00    -0.376 OA
BRANCH  62  63
ATOM     63  C   UNL A   1      32.992  28.467  24.743  1.00  0.00     0.202 C 
BRANCH  63  64
ATOM     64  C   UNL A   1      31.765  27.764  24.139  1.00  0.00     0.261 C 
BRANCH  64  65
ATOM     65  O   UNL A   1      31.318  26.577  24.812  1.00  0.00    -0.459 OA
BRANCH  65  66
ATOM     66  C   UNL A   1      31.061  25.462  24.089  1.00  0.00     0.356 C 
ATOM     67  O   UNL A   1      31.084  25.388  22.868  1.00  0.00    -0.244 OA
BRANCH  66  68
ATOM     68  C   UNL A   1      30.994  24.342  24.991  1.00  0.00     0.152 A 
ATOM     69  N   UNL A   1      30.128  24.290  26.049  1.00  0.00    -0.271 N 
ATOM     70  C   UNL A   1      31.653  23.115  25.003  1.00  0.00     0.059 A 
ATOM     71  N   UNL A   1      30.011  23.066  26.591  1.00  0.00    -0.183 NA
ATOM     72  H   UNL A   1      29.637  25.076  26.382  1.00  0.00     0.190 HD
ATOM     73  C   UNL A   1      30.954  22.356  25.970  1.00  0.00     0.145 A 
BRANCH  70  74
ATOM     74  C   UNL A   1      32.843  22.690  24.204  1.00  0.00     0.303 C 
BRANCH  74  75
ATOM     75  N   UNL A   1      34.057  22.661  25.047  1.00  0.00    -0.331 N 
ATOM     76  C   UNL A   1      34.954  21.561  24.677  1.00  0.00     0.268 C 
ATOM     77  C   UNL A   1      34.747  23.959  25.075  1.00  0.00     0.268 C 
ATOM     78  H   UNL A   1      33.747  22.480  26.002  1.00  0.00     0.348 HD
ATOM     79  C   UNL A   1      36.171  21.472  25.573  1.00  0.00     0.126 C 
ATOM     80  C   UNL A   1      35.975  23.934  25.986  1.00  0.00     0.126 C 
ATOM     81  C   UNL A   1      36.929  22.809  25.559  1.00  0.00     0.195 C 
BRANCH  81  82
ATOM     82  N   UNL A   1      38.195  22.809  26.325  1.00  0.00    -0.331 N 
ATOM     83  C   UNL A   1      39.017  21.612  26.106  1.00  0.00     0.262 C 
ATOM     84  C   UNL A   1      38.954  24.038  26.024  1.00  0.00     0.275 C 
ATOM     85  H   UNL A   1      37.945  22.789  27.314  1.00  0.00     0.348 HD
ATOM     86  C   UNL A   1      40.309  21.660  26.923  1.00  0.00     0.062 C 
ATOM     87  C   UNL A   1      40.232  24.150  26.859  1.00  0.00     0.134 C 
ATOM     88  C   UNL A   1      41.113  22.926  26.624  1.00  0.00     0.025 C 
BRANCH  87  89
ATOM     89  C   UNL A   1      40.906  25.469  26.504  1.00  0.00     0.231 C 
ATOM     90  O   UNL A   1      41.718  25.556  25.581  1.00  0.00    -0.274 OA
ATOM     91  N   UNL A   1      40.490  26.586  27.186  1.00  0.00    -0.342 N 
ATOM     92  C   UNL A   1      39.798  26.667  28.458  1.00  0.00     0.119 C 
ATOM     93  C   UNL A   1      40.644  27.898  26.585  1.00  0.00     0.119 C 
ATOM     94  C   UNL A   1      38.988  27.943  28.335  1.00  0.00     0.023 C 
ATOM     95  C   UNL A   1      39.886  28.852  27.500  1.00  0.00     0.023 C 
ENDBRANCH  87  89
ENDBRANCH  81  82
ENDBRANCH  74  75
ENDBRANCH  70  74
ENDBRANCH  66  68
ENDBRANCH  65  66
ENDBRANCH  64  65
ENDBRANCH  63  64
ENDBRANCH  62  63
ENDBRANCH  61  62
ENDBRANCH   1  61
TORSDOF 24
ENDMDL
