MODEL 1
REMARK VINA RESULT:     -11.7      0.000      0.000
REMARK SMILES CC(=O)Nc1cnc(N2CC=C(c3ccccc3C)CC2)c(C(=O)OCCOCCOCCOCCOC(=O)c2ccc(-c3c4nc(c(-c5ccccc5)c5ccc([nH]5)c(-c5ccccc5)c5nc(c(-c6ccccc6)c6ccc3[nH]6)C=C5)C=C4)cc2)c1
REMARK SMILES IDX 31 1 30 2 29 3 28 4 27 5 26 6 25 7 23 8 24 9 22 10 5 11 6 12
REMARK SMILES IDX 88 13 7 14 8 15 4 16 1 17 2 18 3 19 9 21 10 22 21 23 11 24
REMARK SMILES IDX 20 25 12 26 13 27 14 28 18 29 15 30 17 31 19 32 16 33 32 34
REMARK SMILES IDX 33 35 34 36 35 37 36 38 37 39 38 40 39 41 40 42 41 43 87 44
REMARK SMILES IDX 42 45 86 46 43 47 44 48 45 49 80 50 46 51 85 52 79 53 81 54
REMARK SMILES IDX 47 55 84 56 78 57 77 58 48 60 70 61 55 62 69 63 56 64 59 65
REMARK SMILES IDX 68 66 82 67 57 68 58 69 67 71 83 72 60 73 49 74 50 75 54 76
REMARK SMILES IDX 51 77 53 78 52 79 71 80 72 81 76 82 73 83 75 84 74 85 61 86
REMARK SMILES IDX 62 87 66 88 63 89 65 90 64 91
REMARK H PARENT 4 20 81 59 59 70
REMARK Flexibility Score: inf
ROOT
ATOM      1  O   UNL A   1      35.247  32.701  27.628  1.00  0.00    -0.377 OA
ENDROOT
BRANCH   1   2
ATOM      2  C   UNL A   1      34.664  31.541  28.233  1.00  0.00     0.188 C 
BRANCH   2   3
ATOM      3  C   UNL A   1      34.319  30.370  27.309  1.00  0.00     0.188 C 
BRANCH   3   4
ATOM      4  O   UNL A   1      32.935  30.136  27.274  1.00  0.00    -0.376 OA
BRANCH   4   5
ATOM      5  C   UNL A   1      32.526  29.034  26.478  1.00  0.00     0.202 C 
BRANCH   5   6
ATOM      6  C   UNL A   1      31.674  28.106  27.318  1.00  0.00     0.261 C 
BRANCH   6   7
ATOM      7  O   UNL A   1      32.082  26.754  27.156  1.00  0.00    -0.460 OA
BRANCH   7   8
ATOM      8  C   UNL A   1      31.233  26.011  26.451  1.00  0.00     0.342 C 
ATOM      9  O   UNL A   1      30.023  25.933  26.629  1.00  0.00    -0.246 OA
BRANCH   8  10
ATOM     10  C   UNL A   1      32.034  25.432  25.375  1.00  0.00     0.104 A 
ATOM     11  C   UNL A   1      33.804  23.891  24.785  1.00  0.00     0.060 A 
ATOM     12  C   UNL A   1      33.688  24.430  23.507  1.00  0.00     0.139 A 
ATOM     13  C   UNL A   1      32.962  24.429  25.738  1.00  0.00     0.047 A 
ATOM     14  N   UNL A   1      32.835  25.427  23.144  1.00  0.00    -0.236 NA
ATOM     15  C   UNL A   1      32.004  25.952  24.074  1.00  0.00     0.143 A 
BRANCH  11  16
ATOM     16  N   UNL A   1      34.779  22.902  25.019  1.00  0.00    -0.325 N 
ATOM     17  C   UNL A   1      34.100  21.955  27.238  1.00  0.00     0.114 C 
ATOM     18  C   UNL A   1      35.041  22.076  26.074  1.00  0.00     0.221 C 
ATOM     19  O   UNL A   1      36.067  21.389  26.035  1.00  0.00    -0.275 OA
ATOM     20  H   UNL A   1      35.401  22.781  24.266  1.00  0.00     0.169 HD
ENDBRANCH  11  16
BRANCH  15  21
ATOM     21  N   UNL A   1      31.330  27.107  23.676  1.00  0.00    -0.352 N 
ATOM     22  C   UNL A   1      32.041  28.102  22.887  1.00  0.00     0.146 C 
ATOM     23  C   UNL A   1      29.951  26.852  23.284  1.00  0.00     0.123 C 
ATOM     24  C   UNL A   1      31.112  29.194  22.429  1.00  0.00    -0.002 C 
ATOM     25  C   UNL A   1      29.068  28.078  23.285  1.00  0.00     0.057 C 
ATOM     26  C   UNL A   1      29.779  29.211  22.616  1.00  0.00    -0.041 C 
BRANCH  26  27
ATOM     27  C   UNL A   1      29.022  30.414  22.255  1.00  0.00    -0.020 A 
ATOM     28  C   UNL A   1      28.386  30.471  21.004  1.00  0.00     0.008 A 
ATOM     29  C   UNL A   1      29.048  31.552  23.086  1.00  0.00    -0.044 A 
ATOM     30  C   UNL A   1      27.841  31.669  20.547  1.00  0.00     0.001 A 
ATOM     31  C   UNL A   1      28.492  32.744  22.611  1.00  0.00     0.004 A 
ATOM     32  C   UNL A   1      29.642  31.530  24.469  1.00  0.00     0.045 C 
ATOM     33  C   UNL A   1      27.917  32.810  21.341  1.00  0.00     0.000 A 
ENDBRANCH  26  27
ENDBRANCH  15  21
ENDBRANCH   8  10
ENDBRANCH   7   8
ENDBRANCH   6   7
ENDBRANCH   5   6
ENDBRANCH   4   5
ENDBRANCH   3   4
ENDBRANCH   2   3
ENDBRANCH   1   2
BRANCH   1  34
ATOM     34  C   UNL A   1      34.722  33.969  27.998  1.00  0.00     0.188 C 
BRANCH  34  35
ATOM     35  C   UNL A   1      33.210  34.038  28.050  1.00  0.00     0.188 C 
BRANCH  35  36
ATOM     36  O   UNL A   1      32.803  34.505  29.332  1.00  0.00    -0.376 OA
BRANCH  36  37
ATOM     37  C   UNL A   1      32.945  35.906  29.534  1.00  0.00     0.202 C 
BRANCH  37  38
ATOM     38  C   UNL A   1      32.611  36.338  30.967  1.00  0.00     0.261 C 
BRANCH  38  39
ATOM     39  O   UNL A   1      33.824  36.768  31.623  1.00  0.00    -0.460 OA
BRANCH  39  40
ATOM     40  C   UNL A   1      34.100  36.167  32.814  1.00  0.00     0.338 C 
ATOM     41  O   UNL A   1      34.094  36.716  33.903  1.00  0.00    -0.246 OA
BRANCH  40  42
ATOM     42  C   UNL A   1      34.713  34.824  32.574  1.00  0.00     0.060 A 
ATOM     43  C   UNL A   1      34.528  33.785  33.504  1.00  0.00     0.016 A 
ATOM     44  C   UNL A   1      35.727  34.720  31.631  1.00  0.00     0.016 A 
ATOM     45  C   UNL A   1      35.463  32.737  33.596  1.00  0.00     0.010 A 
ATOM     46  C   UNL A   1      36.700  33.758  31.807  1.00  0.00     0.010 A 
ATOM     47  C   UNL A   1      36.610  32.773  32.807  1.00  0.00    -0.014 A 
BRANCH  47  48
ATOM     48  C   UNL A   1      37.838  31.955  33.011  1.00  0.00     0.031 A 
ATOM     49  C   UNL A   1      37.901  30.609  32.303  1.00  0.00     0.074 A 
ATOM     50  C   UNL A   1      38.918  32.638  33.489  1.00  0.00     0.049 A 
ATOM     51  N   UNL A   1      38.871  29.756  32.320  1.00  0.00    -0.248 NA
ATOM     52  C   UNL A   1      36.800  30.119  31.459  1.00  0.00     0.031 C 
ATOM     53  C   UNL A   1      40.339  32.535  33.166  1.00  0.00     0.029 A 
ATOM     54  N   UNL A   1      38.974  33.734  34.320  1.00  0.00    -0.354 N 
ATOM     55  C   UNL A   1      38.697  28.847  31.266  1.00  0.00     0.074 A 
ATOM     56  C   UNL A   1      37.347  29.078  30.822  1.00  0.00     0.031 C 
ATOM     57  C   UNL A   1      41.109  33.340  33.908  1.00  0.00     0.029 A 
ATOM     58  C   UNL A   1      40.241  33.886  34.889  1.00  0.00     0.049 A 
ATOM     59  H   UNL A   1      38.215  34.337  34.491  1.00  0.00     0.167 HD
ATOM     60  C   UNL A   1      39.761  28.120  30.775  1.00  0.00     0.031 A 
ATOM     61  C   UNL A   1      40.428  33.664  36.215  1.00  0.00     0.031 A 
ATOM     62  C   UNL A   1      40.977  28.303  31.614  1.00  0.00     0.049 A 
ATOM     63  C   UNL A   1      41.018  32.243  36.393  1.00  0.00     0.074 A 
ATOM     64  C   UNL A   1      42.297  28.645  31.350  1.00  0.00     0.029 A 
ATOM     65  N   UNL A   1      40.851  28.418  33.004  1.00  0.00    -0.354 N 
ATOM     66  N   UNL A   1      40.837  31.236  35.549  1.00  0.00    -0.248 NA
ATOM     67  C   UNL A   1      42.087  31.946  37.353  1.00  0.00     0.031 C 
ATOM     68  C   UNL A   1      42.827  29.267  32.521  1.00  0.00     0.029 A 
ATOM     69  C   UNL A   1      41.908  29.121  33.553  1.00  0.00     0.049 A 
ATOM     70  H   UNL A   1      40.105  28.044  33.526  1.00  0.00     0.167 HD
ATOM     71  C   UNL A   1      41.789  30.262  35.765  1.00  0.00     0.074 A 
ATOM     72  C   UNL A   1      42.521  30.744  36.929  1.00  0.00     0.031 C 
ATOM     73  C   UNL A   1      42.089  29.163  34.996  1.00  0.00     0.031 A 
BRANCH  60  74
ATOM     74  C   UNL A   1      39.822  27.470  29.362  1.00  0.00    -0.014 A 
ATOM     75  C   UNL A   1      39.251  26.194  29.142  1.00  0.00     0.009 A 
ATOM     76  C   UNL A   1      40.484  27.991  28.231  1.00  0.00     0.009 A 
ATOM     77  C   UNL A   1      39.379  25.475  27.935  1.00  0.00     0.001 A 
ATOM     78  C   UNL A   1      40.588  27.294  27.002  1.00  0.00     0.001 A 
ATOM     79  C   UNL A   1      40.048  26.028  26.858  1.00  0.00     0.000 A 
ENDBRANCH  60  74
BRANCH  61  80
ATOM     80  C   UNL A   1      39.483  34.607  36.925  1.00  0.00    -0.014 A 
ATOM     81  C   UNL A   1      38.825  33.974  38.026  1.00  0.00     0.009 A 
ATOM     82  C   UNL A   1      39.821  35.963  37.096  1.00  0.00     0.009 A 
ATOM     83  C   UNL A   1      38.811  34.554  39.306  1.00  0.00     0.001 A 
ATOM     84  C   UNL A   1      39.763  36.554  38.382  1.00  0.00     0.001 A 
ATOM     85  C   UNL A   1      39.332  35.826  39.494  1.00  0.00     0.000 A 
ENDBRANCH  61  80
BRANCH  73  86
ATOM     86  C   UNL A   1      42.645  27.877  35.584  1.00  0.00    -0.014 A 
ATOM     87  C   UNL A   1      41.838  26.978  36.287  1.00  0.00     0.009 A 
ATOM     88  C   UNL A   1      43.925  27.406  35.187  1.00  0.00     0.009 A 
ATOM     89  C   UNL A   1      42.289  25.691  36.592  1.00  0.00     0.001 A 
ATOM     90  C   UNL A   1      44.355  26.107  35.441  1.00  0.00     0.001 A 
ATOM     91  C   UNL A   1      43.535  25.249  36.153  1.00  0.00     0.000 A 
ENDBRANCH  73  86
ENDBRANCH  47  48
ENDBRANCH  40  42
ENDBRANCH  39  40
ENDBRANCH  38  39
ENDBRANCH  37  38
ENDBRANCH  36  37
ENDBRANCH  35  36
ENDBRANCH  34  35
ENDBRANCH   1  34
TORSDOF 23
ENDMDL
MODEL 2
REMARK VINA RESULT:     -11.7      1.461      4.854
REMARK SMILES CC(=O)Nc1cnc(N2CC=C(c3ccccc3C)CC2)c(C(=O)OCCOCCOCCOCCOC(=O)c2ccc(-c3c4nc(c(-c5ccccc5)c5ccc([nH]5)c(-c5ccccc5)c5nc(c(-c6ccccc6)c6ccc3[nH]6)C=C5)C=C4)cc2)c1
REMARK SMILES IDX 31 1 30 2 29 3 28 4 27 5 26 6 25 7 23 8 24 9 22 10 5 11 6 12
REMARK SMILES IDX 88 13 7 14 8 15 4 16 1 17 2 18 3 19 9 21 10 22 21 23 11 24
REMARK SMILES IDX 20 25 12 26 13 27 14 28 18 29 15 30 17 31 19 32 16 33 32 34
REMARK SMILES IDX 33 35 34 36 35 37 36 38 37 39 38 40 39 41 40 42 41 43 87 44
REMARK SMILES IDX 42 45 86 46 43 47 44 48 45 49 80 50 46 51 85 52 79 53 81 54
REMARK SMILES IDX 47 55 84 56 78 57 77 58 48 60 70 61 55 62 69 63 56 64 59 65
REMARK SMILES IDX 68 66 82 67 57 68 58 69 67 71 83 72 60 73 49 74 50 75 54 76
REMARK SMILES IDX 51 77 53 78 52 79 71 80 72 81 76 82 73 83 75 84 74 85 61 86
REMARK SMILES IDX 62 87 66 88 63 89 65 90 64 91
REMARK H PARENT 4 20 81 59 59 70
REMARK Flexibility Score: inf
ROOT
ATOM      1  O   UNL A   1      35.396  32.707  27.637  1.00  0.00    -0.377 OA
ENDROOT
BRANCH   1   2
ATOM      2  C   UNL A   1      34.526  31.569  27.647  1.00  0.00     0.188 C 
BRANCH   2   3
ATOM      3  C   UNL A   1      35.119  30.241  28.127  1.00  0.00     0.188 C 
BRANCH   3   4
ATOM      4  O   UNL A   1      34.760  29.184  27.276  1.00  0.00    -0.376 OA
BRANCH   4   5
ATOM      5  C   UNL A   1      33.740  29.482  26.334  1.00  0.00     0.202 C 
BRANCH   5   6
ATOM      6  C   UNL A   1      33.942  28.628  25.100  1.00  0.00     0.261 C 
BRANCH   6   7
ATOM      7  O   UNL A   1      33.448  29.286  23.940  1.00  0.00    -0.460 OA
BRANCH   7   8
ATOM      8  C   UNL A   1      33.136  28.465  22.941  1.00  0.00     0.342 C 
ATOM      9  O   UNL A   1      33.925  27.937  22.167  1.00  0.00    -0.246 OA
BRANCH   8  10
ATOM     10  C   UNL A   1      31.695  28.249  23.060  1.00  0.00     0.104 A 
ATOM     11  C   UNL A   1      29.514  29.275  23.270  1.00  0.00     0.060 A 
ATOM     12  C   UNL A   1      29.051  27.977  23.462  1.00  0.00     0.139 A 
ATOM     13  C   UNL A   1      30.876  29.401  23.084  1.00  0.00     0.047 A 
ATOM     14  N   UNL A   1      29.825  26.857  23.489  1.00  0.00    -0.236 NA
ATOM     15  C   UNL A   1      31.160  26.976  23.301  1.00  0.00     0.143 A 
BRANCH  11  16
ATOM     16  N   UNL A   1      28.594  30.340  23.329  1.00  0.00    -0.325 N 
ATOM     17  C   UNL A   1      28.184  30.865  20.913  1.00  0.00     0.114 C 
ATOM     18  C   UNL A   1      28.026  31.141  22.381  1.00  0.00     0.221 C 
ATOM     19  O   UNL A   1      27.338  32.094  22.759  1.00  0.00    -0.275 OA
ATOM     20  H   UNL A   1      28.298  30.550  24.244  1.00  0.00     0.169 HD
ENDBRANCH  11  16
BRANCH  15  21
ATOM     21  N   UNL A   1      31.897  25.822  23.563  1.00  0.00    -0.352 N 
ATOM     22  C   UNL A   1      32.069  25.394  24.944  1.00  0.00     0.146 C 
ATOM     23  C   UNL A   1      31.654  24.762  22.595  1.00  0.00     0.123 C 
ATOM     24  C   UNL A   1      32.756  24.057  25.014  1.00  0.00    -0.002 C 
ATOM     25  C   UNL A   1      32.724  23.696  22.559  1.00  0.00     0.057 C 
ATOM     26  C   UNL A   1      33.077  23.290  23.955  1.00  0.00    -0.041 C 
BRANCH  26  27
ATOM     27  C   UNL A   1      33.886  22.084  24.164  1.00  0.00    -0.020 A 
ATOM     28  C   UNL A   1      33.242  20.841  24.278  1.00  0.00     0.008 A 
ATOM     29  C   UNL A   1      35.273  22.184  24.388  1.00  0.00    -0.044 A 
ATOM     30  C   UNL A   1      33.956  19.716  24.685  1.00  0.00     0.001 A 
ATOM     31  C   UNL A   1      35.973  21.041  24.791  1.00  0.00     0.004 A 
ATOM     32  C   UNL A   1      36.033  23.470  24.202  1.00  0.00     0.045 C 
ATOM     33  C   UNL A   1      35.315  19.823  24.964  1.00  0.00     0.000 A 
ENDBRANCH  26  27
ENDBRANCH  15  21
ENDBRANCH   8  10
ENDBRANCH   7   8
ENDBRANCH   6   7
ENDBRANCH   5   6
ENDBRANCH   4   5
ENDBRANCH   3   4
ENDBRANCH   2   3
ENDBRANCH   1   2
BRANCH   1  34
ATOM     34  C   UNL A   1      34.886  33.928  28.153  1.00  0.00     0.188 C 
BRANCH  34  35
ATOM     35  C   UNL A   1      33.384  34.086  28.040  1.00  0.00     0.188 C 
BRANCH  35  36
ATOM     36  O   UNL A   1      32.854  34.468  29.306  1.00  0.00    -0.376 OA
BRANCH  36  37
ATOM     37  C   UNL A   1      32.875  35.865  29.569  1.00  0.00     0.202 C 
BRANCH  37  38
ATOM     38  C   UNL A   1      32.565  36.201  31.033  1.00  0.00     0.261 C 
BRANCH  38  39
ATOM     39  O   UNL A   1      33.748  36.755  31.650  1.00  0.00    -0.460 OA
BRANCH  39  40
ATOM     40  C   UNL A   1      34.113  36.199  32.838  1.00  0.00     0.338 C 
ATOM     41  O   UNL A   1      34.179  36.787  33.905  1.00  0.00    -0.246 OA
BRANCH  40  42
ATOM     42  C   UNL A   1      34.721  34.852  32.604  1.00  0.00     0.060 A 
ATOM     43  C   UNL A   1      34.547  33.823  33.547  1.00  0.00     0.016 A 
ATOM     44  C   UNL A   1      35.720  34.737  31.647  1.00  0.00     0.016 A 
ATOM     45  C   UNL A   1      35.481  32.775  33.636  1.00  0.00     0.010 A 
ATOM     46  C   UNL A   1      36.694  33.774  31.819  1.00  0.00     0.010 A 
ATOM     47  C   UNL A   1      36.617  32.800  32.831  1.00  0.00    -0.014 A 
BRANCH  47  48
ATOM     48  C   UNL A   1      37.846  31.982  33.025  1.00  0.00     0.031 A 
ATOM     49  C   UNL A   1      37.914  30.648  32.297  1.00  0.00     0.074 A 
ATOM     50  C   UNL A   1      38.923  32.660  33.518  1.00  0.00     0.049 A 
ATOM     51  N   UNL A   1      38.886  29.797  32.303  1.00  0.00    -0.248 NA
ATOM     52  C   UNL A   1      36.817  30.169  31.441  1.00  0.00     0.031 C 
ATOM     53  C   UNL A   1      40.345  32.566  33.198  1.00  0.00     0.029 A 
ATOM     54  N   UNL A   1      38.973  33.743  34.366  1.00  0.00    -0.354 N 
ATOM     55  C   UNL A   1      38.718  28.904  31.235  1.00  0.00     0.074 A 
ATOM     56  C   UNL A   1      37.369  29.139  30.790  1.00  0.00     0.031 C 
ATOM     57  C   UNL A   1      41.111  33.360  33.955  1.00  0.00     0.029 A 
ATOM     58  C   UNL A   1      40.239  33.889  34.942  1.00  0.00     0.049 A 
ATOM     59  H   UNL A   1      38.212  34.342  34.545  1.00  0.00     0.167 HD
ATOM     60  C   UNL A   1      39.786  28.188  30.736  1.00  0.00     0.031 A 
ATOM     61  C   UNL A   1      40.422  33.647  36.265  1.00  0.00     0.031 A 
ATOM     62  C   UNL A   1      40.999  28.360  31.581  1.00  0.00     0.049 A 
ATOM     63  C   UNL A   1      41.015  32.224  36.422  1.00  0.00     0.074 A 
ATOM     64  C   UNL A   1      42.319  28.709  31.327  1.00  0.00     0.029 A 
ATOM     65  N   UNL A   1      40.868  28.453  32.972  1.00  0.00    -0.354 N 
ATOM     66  N   UNL A   1      40.839  31.230  35.562  1.00  0.00    -0.248 NA
ATOM     67  C   UNL A   1      42.081  31.915  37.380  1.00  0.00     0.031 C 
ATOM     68  C   UNL A   1      42.843  29.314  32.509  1.00  0.00     0.029 A 
ATOM     69  C   UNL A   1      41.921  29.150  33.535  1.00  0.00     0.049 A 
ATOM     70  H   UNL A   1      40.121  28.069  33.486  1.00  0.00     0.167 HD
ATOM     71  C   UNL A   1      41.793  30.255  35.765  1.00  0.00     0.074 A 
ATOM     72  C   UNL A   1      42.520  30.721  36.939  1.00  0.00     0.031 C 
ATOM     73  C   UNL A   1      42.098  29.169  34.979  1.00  0.00     0.031 A 
BRANCH  60  74
ATOM     74  C   UNL A   1      39.853  27.560  29.312  1.00  0.00    -0.014 A 
ATOM     75  C   UNL A   1      39.797  26.155  29.152  1.00  0.00     0.009 A 
ATOM     76  C   UNL A   1      40.053  28.256  28.102  1.00  0.00     0.009 A 
ATOM     77  C   UNL A   1      39.987  25.498  27.918  1.00  0.00     0.001 A 
ATOM     78  C   UNL A   1      40.209  27.609  26.851  1.00  0.00     0.001 A 
ATOM     79  C   UNL A   1      40.191  26.228  26.760  1.00  0.00     0.000 A 
ENDBRANCH  60  74
BRANCH  61  80
ATOM     80  C   UNL A   1      39.473  34.575  36.987  1.00  0.00    -0.014 A 
ATOM     81  C   UNL A   1      38.836  33.932  38.095  1.00  0.00     0.009 A 
ATOM     82  C   UNL A   1      39.794  35.936  37.155  1.00  0.00     0.009 A 
ATOM     83  C   UNL A   1      38.828  34.511  39.375  1.00  0.00     0.001 A 
ATOM     84  C   UNL A   1      39.743  36.524  38.443  1.00  0.00     0.001 A 
ATOM     85  C   UNL A   1      39.335  35.790  39.558  1.00  0.00     0.000 A 
ENDBRANCH  61  80
BRANCH  73  86
ATOM     86  C   UNL A   1      42.655  27.875  35.549  1.00  0.00    -0.014 A 
ATOM     87  C   UNL A   1      41.914  26.691  35.550  1.00  0.00     0.009 A 
ATOM     88  C   UNL A   1      44.043  27.757  35.825  1.00  0.00     0.009 A 
ATOM     89  C   UNL A   1      42.519  25.462  35.829  1.00  0.00     0.001 A 
ATOM     90  C   UNL A   1      44.659  26.529  36.048  1.00  0.00     0.001 A 
ATOM     91  C   UNL A   1      43.890  25.378  36.056  1.00  0.00     0.000 A 
ENDBRANCH  73  86
ENDBRANCH  47  48
ENDBRANCH  40  42
ENDBRANCH  39  40
ENDBRANCH  38  39
ENDBRANCH  37  38
ENDBRANCH  36  37
ENDBRANCH  35  36
ENDBRANCH  34  35
ENDBRANCH   1  34
TORSDOF 23
ENDMDL
MODEL 3
REMARK VINA RESULT:     -10.3      3.699      9.893
REMARK SMILES CC(=O)Nc1cnc(N2CC=C(c3ccccc3C)CC2)c(C(=O)OCCOCCOCCOCCOC(=O)c2ccc(-c3c4nc(c(-c5ccccc5)c5ccc([nH]5)c(-c5ccccc5)c5nc(c(-c6ccccc6)c6ccc3[nH]6)C=C5)C=C4)cc2)c1
REMARK SMILES IDX 31 1 30 2 29 3 28 4 27 5 26 6 25 7 23 8 24 9 22 10 5 11 6 12
REMARK SMILES IDX 88 13 7 14 8 15 4 16 1 17 2 18 3 19 9 21 10 22 21 23 11 24
REMARK SMILES IDX 20 25 12 26 13 27 14 28 18 29 15 30 17 31 19 32 16 33 32 34
REMARK SMILES IDX 33 35 34 36 35 37 36 38 37 39 38 40 39 41 40 42 41 43 87 44
REMARK SMILES IDX 42 45 86 46 43 47 44 48 45 49 80 50 46 51 85 52 79 53 81 54
REMARK SMILES IDX 47 55 84 56 78 57 77 58 48 60 70 61 55 62 69 63 56 64 59 65
REMARK SMILES IDX 68 66 82 67 57 68 58 69 67 71 83 72 60 73 49 74 50 75 54 76
REMARK SMILES IDX 51 77 53 78 52 79 71 80 72 81 76 82 73 83 75 84 74 85 61 86
REMARK SMILES IDX 62 87 66 88 63 89 65 90 64 91
REMARK H PARENT 4 20 81 59 59 70
REMARK Flexibility Score: inf
ROOT
ATOM      1  O   UNL A   1      35.862  23.730  22.795  1.00  0.00    -0.377 OA
ENDROOT
BRANCH   1   2
ATOM      2  C   UNL A   1      34.526  23.319  22.483  1.00  0.00     0.188 C 
BRANCH   2   3
ATOM      3  C   UNL A   1      33.454  24.411  22.436  1.00  0.00     0.188 C 
BRANCH   3   4
ATOM      4  O   UNL A   1      33.508  25.130  21.231  1.00  0.00    -0.376 OA
BRANCH   4   5
ATOM      5  C   UNL A   1      32.822  26.373  21.235  1.00  0.00     0.202 C 
BRANCH   5   6
ATOM      6  C   UNL A   1      33.092  27.082  22.546  1.00  0.00     0.261 C 
BRANCH   6   7
ATOM      7  O   UNL A   1      32.158  28.134  22.756  1.00  0.00    -0.460 OA
BRANCH   7   8
ATOM      8  C   UNL A   1      31.083  27.775  23.451  1.00  0.00     0.342 C 
ATOM      9  O   UNL A   1      30.144  27.106  23.035  1.00  0.00    -0.246 OA
BRANCH   8  10
ATOM     10  C   UNL A   1      31.335  28.241  24.813  1.00  0.00     0.104 A 
ATOM     11  C   UNL A   1      31.619  30.154  26.267  1.00  0.00     0.060 A 
ATOM     12  C   UNL A   1      31.968  29.218  27.236  1.00  0.00     0.139 A 
ATOM     13  C   UNL A   1      31.316  29.639  25.023  1.00  0.00     0.047 A 
ATOM     14  N   UNL A   1      32.038  27.871  27.046  1.00  0.00    -0.236 NA
ATOM     15  C   UNL A   1      31.735  27.363  25.829  1.00  0.00     0.143 A 
BRANCH  11  16
ATOM     16  N   UNL A   1      31.651  31.522  26.602  1.00  0.00    -0.325 N 
ATOM     17  C   UNL A   1      33.906  31.791  27.661  1.00  0.00     0.114 C 
ATOM     18  C   UNL A   1      32.548  32.302  27.273  1.00  0.00     0.221 C 
ATOM     19  O   UNL A   1      32.231  33.468  27.526  1.00  0.00    -0.275 OA
ATOM     20  H   UNL A   1      30.861  32.019  26.288  1.00  0.00     0.169 HD
ENDBRANCH  11  16
BRANCH  15  21
ATOM     21  N   UNL A   1      32.045  26.014  25.660  1.00  0.00    -0.352 N 
ATOM     22  C   UNL A   1      33.373  25.544  26.028  1.00  0.00     0.146 C 
ATOM     23  C   UNL A   1      30.941  25.131  26.006  1.00  0.00     0.123 C 
ATOM     24  C   UNL A   1      33.466  24.046  25.919  1.00  0.00    -0.002 C 
ATOM     25  C   UNL A   1      31.053  23.739  25.429  1.00  0.00     0.057 C 
ATOM     26  C   UNL A   1      32.442  23.221  25.631  1.00  0.00    -0.041 C 
BRANCH  26  27
ATOM     27  C   UNL A   1      32.712  21.798  25.403  1.00  0.00    -0.020 A 
ATOM     28  C   UNL A   1      32.242  21.194  24.224  1.00  0.00     0.008 A 
ATOM     29  C   UNL A   1      33.308  21.012  26.409  1.00  0.00    -0.044 A 
ATOM     30  C   UNL A   1      32.297  19.810  24.075  1.00  0.00     0.001 A 
ATOM     31  C   UNL A   1      33.358  19.625  26.238  1.00  0.00     0.004 A 
ATOM     32  C   UNL A   1      33.903  21.610  27.656  1.00  0.00     0.045 C 
ATOM     33  C   UNL A   1      32.832  19.026  25.093  1.00  0.00     0.000 A 
ENDBRANCH  26  27
ENDBRANCH  15  21
ENDBRANCH   8  10
ENDBRANCH   7   8
ENDBRANCH   6   7
ENDBRANCH   5   6
ENDBRANCH   4   5
ENDBRANCH   3   4
ENDBRANCH   2   3
ENDBRANCH   1   2
BRANCH   1  34
ATOM     34  C   UNL A   1      36.467  23.170  23.953  1.00  0.00     0.188 C 
BRANCH  34  35
ATOM     35  C   UNL A   1      36.055  21.744  24.257  1.00  0.00     0.188 C 
BRANCH  35  36
ATOM     36  O   UNL A   1      36.999  21.161  25.150  1.00  0.00    -0.376 OA
BRANCH  36  37
ATOM     37  C   UNL A   1      37.817  22.091  25.850  1.00  0.00     0.202 C 
BRANCH  37  38
ATOM     38  C   UNL A   1      39.245  21.577  26.075  1.00  0.00     0.261 C 
BRANCH  38  39
ATOM     39  O   UNL A   1      40.156  22.697  26.059  1.00  0.00    -0.460 OA
BRANCH  39  40
ATOM     40  C   UNL A   1      40.498  23.202  27.276  1.00  0.00     0.338 C 
ATOM     41  O   UNL A   1      40.873  22.548  28.235  1.00  0.00    -0.246 OA
BRANCH  40  42
ATOM     42  C   UNL A   1      40.056  24.628  27.377  1.00  0.00     0.060 A 
ATOM     43  C   UNL A   1      40.422  25.555  26.384  1.00  0.00     0.016 A 
ATOM     44  C   UNL A   1      39.593  25.090  28.602  1.00  0.00     0.016 A 
ATOM     45  C   UNL A   1      40.489  26.928  26.682  1.00  0.00     0.010 A 
ATOM     46  C   UNL A   1      39.777  26.421  28.920  1.00  0.00     0.010 A 
ATOM     47  C   UNL A   1      40.259  27.357  27.987  1.00  0.00    -0.014 A 
BRANCH  47  48
ATOM     48  C   UNL A   1      40.612  28.691  28.545  1.00  0.00     0.031 A 
ATOM     49  C   UNL A   1      39.469  29.661  28.803  1.00  0.00     0.074 A 
ATOM     50  C   UNL A   1      41.850  28.773  29.112  1.00  0.00     0.049 A 
ATOM     51  N   UNL A   1      39.543  30.851  29.301  1.00  0.00    -0.248 NA
ATOM     52  C   UNL A   1      38.069  29.313  28.510  1.00  0.00     0.031 C 
ATOM     53  C   UNL A   1      42.313  29.471  30.309  1.00  0.00     0.029 A 
ATOM     54  N   UNL A   1      43.011  28.102  28.803  1.00  0.00    -0.354 N 
ATOM     55  C   UNL A   1      38.266  31.252  29.718  1.00  0.00     0.074 A 
ATOM     56  C   UNL A   1      37.382  30.285  29.121  1.00  0.00     0.031 C 
ATOM     57  C   UNL A   1      43.633  29.369  30.504  1.00  0.00     0.029 A 
ATOM     58  C   UNL A   1      44.135  28.742  29.333  1.00  0.00     0.049 A 
ATOM     59  H   UNL A   1      43.046  27.272  28.274  1.00  0.00     0.167 HD
ATOM     60  C   UNL A   1      38.107  32.252  30.654  1.00  0.00     0.031 A 
ATOM     61  C   UNL A   1      45.023  29.360  28.513  1.00  0.00     0.031 A 
ATOM     62  C   UNL A   1      39.404  32.910  30.970  1.00  0.00     0.049 A 
ATOM     63  C   UNL A   1      44.717  30.879  28.520  1.00  0.00     0.074 A 
ATOM     64  C   UNL A   1      40.084  33.203  32.145  1.00  0.00     0.029 A 
ATOM     65  N   UNL A   1      40.347  33.111  29.954  1.00  0.00    -0.354 N 
ATOM     66  N   UNL A   1      43.529  31.412  28.769  1.00  0.00    -0.248 NA
ATOM     67  C   UNL A   1      45.774  31.895  28.555  1.00  0.00     0.031 C 
ATOM     68  C   UNL A   1      41.478  33.246  31.841  1.00  0.00     0.029 A 
ATOM     69  C   UNL A   1      41.631  33.183  30.461  1.00  0.00     0.049 A 
ATOM     70  H   UNL A   1      40.124  33.192  28.999  1.00  0.00     0.167 HD
ATOM     71  C   UNL A   1      43.668  32.744  29.094  1.00  0.00     0.074 A 
ATOM     72  C   UNL A   1      45.090  33.000  28.908  1.00  0.00     0.031 C 
ATOM     73  C   UNL A   1      42.732  33.609  29.610  1.00  0.00     0.031 A 
BRANCH  60  74
ATOM     74  C   UNL A   1      36.839  32.460  31.533  1.00  0.00    -0.014 A 
ATOM     75  C   UNL A   1      35.560  32.521  30.930  1.00  0.00     0.009 A 
ATOM     76  C   UNL A   1      36.815  32.687  32.925  1.00  0.00     0.009 A 
ATOM     77  C   UNL A   1      34.377  32.841  31.631  1.00  0.00     0.001 A 
ATOM     78  C   UNL A   1      35.630  32.973  33.645  1.00  0.00     0.001 A 
ATOM     79  C   UNL A   1      34.411  33.065  32.996  1.00  0.00     0.000 A 
ENDBRANCH  60  74
BRANCH  61  80
ATOM     80  C   UNL A   1      45.504  28.295  27.554  1.00  0.00    -0.014 A 
ATOM     81  C   UNL A   1      45.593  28.785  26.213  1.00  0.00     0.009 A 
ATOM     82  C   UNL A   1      46.491  27.371  27.948  1.00  0.00     0.009 A 
ATOM     83  C   UNL A   1      46.760  28.623  25.447  1.00  0.00     0.001 A 
ATOM     84  C   UNL A   1      47.645  27.180  27.149  1.00  0.00     0.001 A 
ATOM     85  C   UNL A   1      47.810  27.863  25.942  1.00  0.00     0.000 A 
ENDBRANCH  61  80
BRANCH  73  86
ATOM     86  C   UNL A   1      42.759  35.104  29.340  1.00  0.00    -0.014 A 
ATOM     87  C   UNL A   1      43.424  35.995  30.186  1.00  0.00     0.009 A 
ATOM     88  C   UNL A   1      42.365  35.606  28.072  1.00  0.00     0.009 A 
ATOM     89  C   UNL A   1      43.665  37.315  29.797  1.00  0.00     0.001 A 
ATOM     90  C   UNL A   1      42.652  36.904  27.659  1.00  0.00     0.001 A 
ATOM     91  C   UNL A   1      43.300  37.763  28.530  1.00  0.00     0.000 A 
ENDBRANCH  73  86
ENDBRANCH  47  48
ENDBRANCH  40  42
ENDBRANCH  39  40
ENDBRANCH  38  39
ENDBRANCH  37  38
ENDBRANCH  36  37
ENDBRANCH  35  36
ENDBRANCH  34  35
ENDBRANCH   1  34
TORSDOF 23
ENDMDL
