MODEL 1
REMARK VINA RESULT:      -9.8      0.000      0.000
REMARK SMILES C[C@@H]1Cc2ccccc2N1c1ccc(F)cc1C(=O)OCCOCCOCCOCCOC(=O)c1ccc(-c2c3nc(c(-c4ccccc4)c4ccc([nH]4)c(-c4ccccc4)c4nc(c(-c5ccccc5)c5ccc2[nH]5)C=C4)C=C3)cc1
REMARK SMILES IDX 27 1 26 2 25 3 24 4 23 5 22 6 21 7 20 8 18 9 19 10 17 11
REMARK SMILES IDX 11 12 12 13 13 14 16 15 14 16 15 17 10 18 1 19 2 20 3 21
REMARK SMILES IDX 4 22 9 23 5 24 8 25 6 26 7 27 28 28 29 29 30 30 31 31 32 32
REMARK SMILES IDX 33 33 34 34 35 35 36 36 82 37 37 38 81 39 38 40 39 41 40 42
REMARK SMILES IDX 75 43 41 44 80 45 74 46 76 47 42 48 79 49 73 50 72 51 43 53
REMARK SMILES IDX 65 54 50 55 64 56 51 57 54 58 63 59 77 60 52 61 53 62 62 64
REMARK SMILES IDX 78 65 55 66 44 67 45 68 49 69 46 70 48 71 47 72 66 73 67 74
REMARK SMILES IDX 71 75 68 76 70 77 69 78 56 79 57 80 61 81 58 82 60 83 59 84
REMARK H PARENT 76 52 54 63
REMARK Flexibility Score: inf
ROOT
ATOM      1  C   UNL A   1      35.591  23.046  24.570  1.00  0.00     0.188 C 
ENDROOT
BRANCH   1   2
ATOM      2  O   UNL A   1      35.199  24.404  24.461  1.00  0.00    -0.377 OA
BRANCH   2   3
ATOM      3  C   UNL A   1      34.530  24.927  25.600  1.00  0.00     0.188 C 
BRANCH   3   4
ATOM      4  C   UNL A   1      34.026  26.373  25.479  1.00  0.00     0.188 C 
BRANCH   4   5
ATOM      5  O   UNL A   1      33.116  26.739  26.518  1.00  0.00    -0.376 OA
BRANCH   5   6
ATOM      6  C   UNL A   1      33.087  28.115  26.882  1.00  0.00     0.202 C 
BRANCH   6   7
ATOM      7  C   UNL A   1      31.728  28.766  26.636  1.00  0.00     0.261 C 
BRANCH   7   8
ATOM      8  O   UNL A   1      31.762  29.762  25.608  1.00  0.00    -0.460 OA
BRANCH   8   9
ATOM      9  C   UNL A   1      31.773  29.336  24.330  1.00  0.00     0.340 C 
ATOM     10  O   UNL A   1      32.774  29.123  23.664  1.00  0.00    -0.246 OA
BRANCH   9  11
ATOM     11  C   UNL A   1      30.397  29.003  23.871  1.00  0.00     0.086 A 
ATOM     12  C   UNL A   1      29.865  27.697  23.736  1.00  0.00     0.056 A 
ATOM     13  C   UNL A   1      28.524  27.593  23.294  1.00  0.00     0.030 A 
ATOM     14  C   UNL A   1      27.781  28.709  22.903  1.00  0.00     0.041 A 
ATOM     15  C   UNL A   1      29.637  30.125  23.481  1.00  0.00     0.057 A 
ATOM     16  C   UNL A   1      28.356  29.964  22.980  1.00  0.00     0.124 A 
ATOM     17  F   UNL A   1      27.672  31.033  22.553  1.00  0.00    -0.207 F 
BRANCH  12  18
ATOM     18  N   UNL A   1      30.611  26.517  23.908  1.00  0.00    -0.337 N 
ATOM     19  C   UNL A   1      29.842  25.639  26.179  1.00  0.00     0.032 C 
ATOM     20  C   UNL A   1      30.081  25.366  24.702  1.00  0.00     0.089 C 
ATOM     21  C   UNL A   1      31.112  24.215  24.552  1.00  0.00     0.063 C 
ATOM     22  C   UNL A   1      31.704  24.543  23.229  1.00  0.00    -0.022 A 
ATOM     23  C   UNL A   1      31.424  25.875  22.917  1.00  0.00     0.045 A 
ATOM     24  C   UNL A   1      32.457  23.729  22.394  1.00  0.00     0.006 A 
ATOM     25  C   UNL A   1      31.922  26.418  21.740  1.00  0.00     0.026 A 
ATOM     26  C   UNL A   1      32.917  24.265  21.192  1.00  0.00     0.000 A 
ATOM     27  C   UNL A   1      32.651  25.602  20.866  1.00  0.00     0.002 A 
ENDBRANCH  12  18
ENDBRANCH   9  11
ENDBRANCH   8   9
ENDBRANCH   7   8
ENDBRANCH   6   7
ENDBRANCH   5   6
ENDBRANCH   4   5
ENDBRANCH   3   4
ENDBRANCH   2   3
ENDBRANCH   1   2
BRANCH   1  28
ATOM     28  C   UNL A   1      36.399  22.711  25.844  1.00  0.00     0.188 C 
BRANCH  28  29
ATOM     29  O   UNL A   1      37.418  21.716  25.883  1.00  0.00    -0.376 OA
BRANCH  29  30
ATOM     30  C   UNL A   1      37.544  20.754  24.853  1.00  0.00     0.202 C 
BRANCH  30  31
ATOM     31  C   UNL A   1      38.711  19.761  24.942  1.00  0.00     0.261 C 
BRANCH  31  32
ATOM     32  O   UNL A   1      39.420  19.754  26.185  1.00  0.00    -0.460 OA
BRANCH  32  33
ATOM     33  C   UNL A   1      40.769  19.687  26.091  1.00  0.00     0.338 C 
ATOM     34  O   UNL A   1      41.441  18.803  25.587  1.00  0.00    -0.246 OA
BRANCH  33  35
ATOM     35  C   UNL A   1      41.335  20.963  26.580  1.00  0.00     0.060 A 
ATOM     36  C   UNL A   1      41.951  21.860  25.702  1.00  0.00     0.016 A 
ATOM     37  C   UNL A   1      41.252  21.252  27.947  1.00  0.00     0.016 A 
ATOM     38  C   UNL A   1      42.458  23.065  26.195  1.00  0.00     0.010 A 
ATOM     39  C   UNL A   1      41.784  22.441  28.443  1.00  0.00     0.010 A 
ATOM     40  C   UNL A   1      42.364  23.367  27.564  1.00  0.00    -0.014 A 
BRANCH  40  41
ATOM     41  C   UNL A   1      42.675  24.732  28.044  1.00  0.00     0.031 A 
ATOM     42  C   UNL A   1      41.621  25.778  28.206  1.00  0.00     0.074 A 
ATOM     43  C   UNL A   1      43.964  25.013  28.311  1.00  0.00     0.049 A 
ATOM     44  N   UNL A   1      41.745  26.987  28.691  1.00  0.00    -0.248 NA
ATOM     45  C   UNL A   1      40.259  25.436  27.772  1.00  0.00     0.031 C 
ATOM     46  C   UNL A   1      45.072  24.065  28.163  1.00  0.00     0.029 A 
ATOM     47  N   UNL A   1      44.561  26.161  28.761  1.00  0.00    -0.354 N 
ATOM     48  C   UNL A   1      40.477  27.548  28.643  1.00  0.00     0.074 A 
ATOM     49  C   UNL A   1      39.604  26.561  28.041  1.00  0.00     0.031 C 
ATOM     50  C   UNL A   1      46.212  24.666  28.532  1.00  0.00     0.029 A 
ATOM     51  C   UNL A   1      45.920  26.042  28.921  1.00  0.00     0.049 A 
ATOM     52  H   UNL A   1      44.065  26.989  28.951  1.00  0.00     0.167 HD
ATOM     53  C   UNL A   1      40.087  28.770  29.077  1.00  0.00     0.031 A 
ATOM     54  C   UNL A   1      46.834  26.935  29.343  1.00  0.00     0.031 A 
ATOM     55  C   UNL A   1      40.976  29.753  29.645  1.00  0.00     0.049 A 
ATOM     56  C   UNL A   1      46.379  28.301  29.768  1.00  0.00     0.074 A 
ATOM     57  C   UNL A   1      40.659  30.998  30.162  1.00  0.00     0.029 A 
ATOM     58  N   UNL A   1      42.352  29.616  29.751  1.00  0.00    -0.354 N 
ATOM     59  N   UNL A   1      45.161  28.784  29.807  1.00  0.00    -0.248 NA
ATOM     60  C   UNL A   1      47.416  29.238  30.221  1.00  0.00     0.031 C 
ATOM     61  C   UNL A   1      41.849  31.640  30.517  1.00  0.00     0.029 A 
ATOM     62  C   UNL A   1      42.901  30.769  30.288  1.00  0.00     0.049 A 
ATOM     63  H   UNL A   1      42.863  28.817  29.485  1.00  0.00     0.167 HD
ATOM     64  C   UNL A   1      45.280  30.072  30.310  1.00  0.00     0.074 A 
ATOM     65  C   UNL A   1      46.688  30.292  30.572  1.00  0.00     0.031 C 
ATOM     66  C   UNL A   1      44.305  30.985  30.534  1.00  0.00     0.031 A 
BRANCH  53  67
ATOM     67  C   UNL A   1      38.631  29.130  28.974  1.00  0.00    -0.014 A 
ATOM     68  C   UNL A   1      38.135  29.720  27.802  1.00  0.00     0.009 A 
ATOM     69  C   UNL A   1      37.780  29.006  30.084  1.00  0.00     0.009 A 
ATOM     70  C   UNL A   1      36.823  30.198  27.747  1.00  0.00     0.001 A 
ATOM     71  C   UNL A   1      36.462  29.463  30.019  1.00  0.00     0.001 A 
ATOM     72  C   UNL A   1      35.988  30.067  28.855  1.00  0.00     0.000 A 
ENDBRANCH  53  67
BRANCH  54  73
ATOM     73  C   UNL A   1      48.259  26.527  29.422  1.00  0.00    -0.014 A 
ATOM     74  C   UNL A   1      48.749  25.866  30.559  1.00  0.00     0.009 A 
ATOM     75  C   UNL A   1      49.152  26.869  28.397  1.00  0.00     0.009 A 
ATOM     76  C   UNL A   1      50.110  25.579  30.681  1.00  0.00     0.001 A 
ATOM     77  C   UNL A   1      50.508  26.556  28.509  1.00  0.00     0.001 A 
ATOM     78  C   UNL A   1      50.988  25.921  29.654  1.00  0.00     0.000 A 
ENDBRANCH  54  73
BRANCH  66  79
ATOM     79  C   UNL A   1      44.710  32.319  31.098  1.00  0.00    -0.014 A 
ATOM     80  C   UNL A   1      44.672  32.530  32.486  1.00  0.00     0.009 A 
ATOM     81  C   UNL A   1      45.023  33.394  30.254  1.00  0.00     0.009 A 
ATOM     82  C   UNL A   1      44.919  33.798  33.016  1.00  0.00     0.001 A 
ATOM     83  C   UNL A   1      45.298  34.654  30.789  1.00  0.00     0.001 A 
ATOM     84  C   UNL A   1      45.234  34.857  32.168  1.00  0.00     0.000 A 
ENDBRANCH  66  79
ENDBRANCH  40  41
ENDBRANCH  33  35
ENDBRANCH  32  33
ENDBRANCH  31  32
ENDBRANCH  30  31
ENDBRANCH  29  30
ENDBRANCH  28  29
ENDBRANCH   1  28
TORSDOF 21
ENDMDL
MODEL 2
REMARK VINA RESULT:      -9.7      0.470      5.679
REMARK SMILES C[C@@H]1Cc2ccccc2N1c1ccc(F)cc1C(=O)OCCOCCOCCOCCOC(=O)c1ccc(-c2c3nc(c(-c4ccccc4)c4ccc([nH]4)c(-c4ccccc4)c4nc(c(-c5ccccc5)c5ccc2[nH]5)C=C4)C=C3)cc1
REMARK SMILES IDX 27 1 26 2 25 3 24 4 23 5 22 6 21 7 20 8 18 9 19 10 17 11
REMARK SMILES IDX 11 12 12 13 13 14 16 15 14 16 15 17 10 18 1 19 2 20 3 21
REMARK SMILES IDX 4 22 9 23 5 24 8 25 6 26 7 27 28 28 29 29 30 30 31 31 32 32
REMARK SMILES IDX 33 33 34 34 35 35 36 36 82 37 37 38 81 39 38 40 39 41 40 42
REMARK SMILES IDX 75 43 41 44 80 45 74 46 76 47 42 48 79 49 73 50 72 51 43 53
REMARK SMILES IDX 65 54 50 55 64 56 51 57 54 58 63 59 77 60 52 61 53 62 62 64
REMARK SMILES IDX 78 65 55 66 44 67 45 68 49 69 46 70 48 71 47 72 66 73 67 74
REMARK SMILES IDX 71 75 68 76 70 77 69 78 56 79 57 80 61 81 58 82 60 83 59 84
REMARK H PARENT 76 52 54 63
REMARK Flexibility Score: inf
ROOT
ATOM      1  C   UNL A   1      35.887  23.096  24.167  1.00  0.00     0.188 C 
ENDROOT
BRANCH   1   2
ATOM      2  O   UNL A   1      35.077  24.257  24.081  1.00  0.00    -0.377 OA
BRANCH   2   3
ATOM      3  C   UNL A   1      34.738  24.844  25.329  1.00  0.00     0.188 C 
BRANCH   3   4
ATOM      4  C   UNL A   1      34.131  26.254  25.266  1.00  0.00     0.188 C 
BRANCH   4   5
ATOM      5  O   UNL A   1      33.254  26.537  26.359  1.00  0.00    -0.376 OA
BRANCH   5   6
ATOM      6  C   UNL A   1      33.214  27.888  26.806  1.00  0.00     0.202 C 
BRANCH   6   7
ATOM      7  C   UNL A   1      31.868  28.559  26.542  1.00  0.00     0.261 C 
BRANCH   7   8
ATOM      8  O   UNL A   1      31.944  29.599  25.560  1.00  0.00    -0.460 OA
BRANCH   8   9
ATOM      9  C   UNL A   1      31.887  29.235  24.264  1.00  0.00     0.340 C 
ATOM     10  O   UNL A   1      32.850  29.052  23.537  1.00  0.00    -0.246 OA
BRANCH   9  11
ATOM     11  C   UNL A   1      30.487  28.929  23.862  1.00  0.00     0.086 A 
ATOM     12  C   UNL A   1      29.926  27.632  23.743  1.00  0.00     0.056 A 
ATOM     13  C   UNL A   1      28.567  27.554  23.358  1.00  0.00     0.030 A 
ATOM     14  C   UNL A   1      27.827  28.685  23.004  1.00  0.00     0.041 A 
ATOM     15  C   UNL A   1      29.731  30.066  23.510  1.00  0.00     0.057 A 
ATOM     16  C   UNL A   1      28.427  29.929  23.063  1.00  0.00     0.124 A 
ATOM     17  F   UNL A   1      27.744  31.012  22.670  1.00  0.00    -0.207 F 
BRANCH  12  18
ATOM     18  N   UNL A   1      30.658  26.439  23.877  1.00  0.00    -0.337 N 
ATOM     19  C   UNL A   1      29.904  25.516  26.135  1.00  0.00     0.032 C 
ATOM     20  C   UNL A   1      30.122  25.276  24.650  1.00  0.00     0.089 C 
ATOM     21  C   UNL A   1      31.135  24.116  24.460  1.00  0.00     0.063 C 
ATOM     22  C   UNL A   1      31.716  24.468  23.138  1.00  0.00    -0.022 A 
ATOM     23  C   UNL A   1      31.451  25.810  22.862  1.00  0.00     0.045 A 
ATOM     24  C   UNL A   1      32.450  23.665  22.276  1.00  0.00     0.006 A 
ATOM     25  C   UNL A   1      31.943  26.376  21.693  1.00  0.00     0.026 A 
ATOM     26  C   UNL A   1      32.903  24.224  21.082  1.00  0.00     0.000 A 
ATOM     27  C   UNL A   1      32.651  25.572  20.791  1.00  0.00     0.002 A 
ENDBRANCH  12  18
ENDBRANCH   9  11
ENDBRANCH   8   9
ENDBRANCH   7   8
ENDBRANCH   6   7
ENDBRANCH   5   6
ENDBRANCH   4   5
ENDBRANCH   3   4
ENDBRANCH   2   3
ENDBRANCH   1   2
BRANCH   1  28
ATOM     28  C   UNL A   1      36.862  23.082  25.366  1.00  0.00     0.188 C 
BRANCH  28  29
ATOM     29  O   UNL A   1      37.761  22.008  25.629  1.00  0.00    -0.376 OA
BRANCH  29  30
ATOM     30  C   UNL A   1      37.602  20.749  25.002  1.00  0.00     0.202 C 
BRANCH  30  31
ATOM     31  C   UNL A   1      38.694  19.694  25.232  1.00  0.00     0.261 C 
BRANCH  31  32
ATOM     32  O   UNL A   1      39.472  19.863  26.421  1.00  0.00    -0.460 OA
BRANCH  32  33
ATOM     33  C   UNL A   1      40.814  19.775  26.262  1.00  0.00     0.338 C 
ATOM     34  O   UNL A   1      41.448  18.867  25.752  1.00  0.00    -0.246 OA
BRANCH  33  35
ATOM     35  C   UNL A   1      41.419  21.056  26.685  1.00  0.00     0.060 A 
ATOM     36  C   UNL A   1      41.846  21.996  25.742  1.00  0.00     0.016 A 
ATOM     37  C   UNL A   1      41.570  21.305  28.054  1.00  0.00     0.016 A 
ATOM     38  C   UNL A   1      42.396  23.204  26.177  1.00  0.00     0.010 A 
ATOM     39  C   UNL A   1      42.146  22.499  28.487  1.00  0.00     0.010 A 
ATOM     40  C   UNL A   1      42.535  23.467  27.550  1.00  0.00    -0.014 A 
BRANCH  40  41
ATOM     41  C   UNL A   1      42.886  24.828  28.011  1.00  0.00     0.031 A 
ATOM     42  C   UNL A   1      44.299  25.251  28.246  1.00  0.00     0.074 A 
ATOM     43  C   UNL A   1      41.869  25.682  28.239  1.00  0.00     0.049 A 
ATOM     44  N   UNL A   1      44.748  26.435  28.574  1.00  0.00    -0.248 NA
ATOM     45  C   UNL A   1      45.342  24.225  28.100  1.00  0.00     0.031 C 
ATOM     46  C   UNL A   1      40.452  25.358  28.061  1.00  0.00     0.029 A 
ATOM     47  N   UNL A   1      41.866  26.985  28.664  1.00  0.00    -0.354 N 
ATOM     48  C   UNL A   1      46.128  26.309  28.654  1.00  0.00     0.074 A 
ATOM     49  C   UNL A   1      46.439  24.921  28.381  1.00  0.00     0.031 C 
ATOM     50  C   UNL A   1      39.717  26.438  28.358  1.00  0.00     0.029 A 
ATOM     51  C   UNL A   1      40.607  27.522  28.765  1.00  0.00     0.049 A 
ATOM     52  H   UNL A   1      42.686  27.486  28.875  1.00  0.00     0.167 HD
ATOM     53  C   UNL A   1      47.041  27.274  28.917  1.00  0.00     0.031 A 
ATOM     54  C   UNL A   1      40.205  28.751  29.136  1.00  0.00     0.031 A 
ATOM     55  C   UNL A   1      46.711  28.645  29.218  1.00  0.00     0.049 A 
ATOM     56  C   UNL A   1      41.238  29.786  29.475  1.00  0.00     0.074 A 
ATOM     57  C   UNL A   1      47.574  29.704  29.444  1.00  0.00     0.029 A 
ATOM     58  N   UNL A   1      45.424  29.143  29.355  1.00  0.00    -0.354 N 
ATOM     59  N   UNL A   1      42.545  29.678  29.452  1.00  0.00    -0.248 NA
ATOM     60  C   UNL A   1      40.749  31.113  29.872  1.00  0.00     0.031 C 
ATOM     61  C   UNL A   1      46.812  30.825  29.786  1.00  0.00     0.029 A 
ATOM     62  C   UNL A   1      45.472  30.483  29.703  1.00  0.00     0.049 A 
ATOM     63  H   UNL A   1      44.599  28.622  29.226  1.00  0.00     0.167 HD
ATOM     64  C   UNL A   1      43.035  30.926  29.809  1.00  0.00     0.074 A 
ATOM     65  C   UNL A   1      41.886  31.780  30.033  1.00  0.00     0.031 C 
ATOM     66  C   UNL A   1      44.324  31.324  29.937  1.00  0.00     0.031 A 
BRANCH  53  67
ATOM     67  C   UNL A   1      48.498  26.902  28.885  1.00  0.00    -0.014 A 
ATOM     68  C   UNL A   1      49.210  26.960  27.677  1.00  0.00     0.009 A 
ATOM     69  C   UNL A   1      49.129  26.370  30.020  1.00  0.00     0.009 A 
ATOM     70  C   UNL A   1      50.517  26.475  27.600  1.00  0.00     0.001 A 
ATOM     71  C   UNL A   1      50.445  25.907  29.946  1.00  0.00     0.001 A 
ATOM     72  C   UNL A   1      51.134  25.950  28.735  1.00  0.00     0.000 A 
ENDBRANCH  53  67
BRANCH  54  73
ATOM     73  C   UNL A   1      38.754  29.063  29.153  1.00  0.00    -0.014 A 
ATOM     74  C   UNL A   1      38.115  29.544  27.999  1.00  0.00     0.009 A 
ATOM     75  C   UNL A   1      38.021  28.959  30.343  1.00  0.00     0.009 A 
ATOM     76  C   UNL A   1      36.776  29.940  28.043  1.00  0.00     0.001 A 
ATOM     77  C   UNL A   1      36.675  29.329  30.377  1.00  0.00     0.001 A 
ATOM     78  C   UNL A   1      36.056  29.828  29.230  1.00  0.00     0.000 A 
ENDBRANCH  54  73
BRANCH  66  79
ATOM     79  C   UNL A   1      44.581  32.750  30.334  1.00  0.00    -0.014 A 
ATOM     80  C   UNL A   1      44.747  33.732  29.343  1.00  0.00     0.009 A 
ATOM     81  C   UNL A   1      44.767  33.103  31.679  1.00  0.00     0.009 A 
ATOM     82  C   UNL A   1      45.115  35.033  29.689  1.00  0.00     0.001 A 
ATOM     83  C   UNL A   1      45.107  34.413  32.024  1.00  0.00     0.001 A 
ATOM     84  C   UNL A   1      45.291  35.373  31.029  1.00  0.00     0.000 A 
ENDBRANCH  66  79
ENDBRANCH  40  41
ENDBRANCH  33  35
ENDBRANCH  32  33
ENDBRANCH  31  32
ENDBRANCH  30  31
ENDBRANCH  29  30
ENDBRANCH  28  29
ENDBRANCH   1  28
TORSDOF 21
ENDMDL
MODEL 3
REMARK VINA RESULT:      -9.5      3.303      8.146
REMARK SMILES C[C@@H]1Cc2ccccc2N1c1ccc(F)cc1C(=O)OCCOCCOCCOCCOC(=O)c1ccc(-c2c3nc(c(-c4ccccc4)c4ccc([nH]4)c(-c4ccccc4)c4nc(c(-c5ccccc5)c5ccc2[nH]5)C=C4)C=C3)cc1
REMARK SMILES IDX 27 1 26 2 25 3 24 4 23 5 22 6 21 7 20 8 18 9 19 10 17 11
REMARK SMILES IDX 11 12 12 13 13 14 16 15 14 16 15 17 10 18 1 19 2 20 3 21
REMARK SMILES IDX 4 22 9 23 5 24 8 25 6 26 7 27 28 28 29 29 30 30 31 31 32 32
REMARK SMILES IDX 33 33 34 34 35 35 36 36 82 37 37 38 81 39 38 40 39 41 40 42
REMARK SMILES IDX 75 43 41 44 80 45 74 46 76 47 42 48 79 49 73 50 72 51 43 53
REMARK SMILES IDX 65 54 50 55 64 56 51 57 54 58 63 59 77 60 52 61 53 62 62 64
REMARK SMILES IDX 78 65 55 66 44 67 45 68 49 69 46 70 48 71 47 72 66 73 67 74
REMARK SMILES IDX 71 75 68 76 70 77 69 78 56 79 57 80 61 81 58 82 60 83 59 84
REMARK H PARENT 76 52 54 63
REMARK Flexibility Score: inf
ROOT
ATOM      1  C   UNL A   1      33.136  36.718  30.240  1.00  0.00     0.188 C 
ENDROOT
BRANCH   1   2
ATOM      2  O   UNL A   1      33.926  35.881  29.411  1.00  0.00    -0.377 OA
BRANCH   2   3
ATOM      3  C   UNL A   1      33.243  34.760  28.869  1.00  0.00     0.188 C 
BRANCH   3   4
ATOM      4  C   UNL A   1      34.092  33.801  28.020  1.00  0.00     0.188 C 
BRANCH   4   5
ATOM      5  O   UNL A   1      33.905  32.428  28.367  1.00  0.00    -0.376 OA
BRANCH   5   6
ATOM      6  C   UNL A   1      34.136  31.475  27.335  1.00  0.00     0.202 C 
BRANCH   6   7
ATOM      7  C   UNL A   1      33.072  30.380  27.290  1.00  0.00     0.261 C 
BRANCH   7   8
ATOM      8  O   UNL A   1      32.896  29.822  25.983  1.00  0.00    -0.460 OA
BRANCH   8   9
ATOM      9  C   UNL A   1      32.278  28.629  25.896  1.00  0.00     0.340 C 
ATOM     10  O   UNL A   1      32.392  27.712  26.693  1.00  0.00    -0.246 OA
BRANCH   9  11
ATOM     11  C   UNL A   1      31.302  28.619  24.771  1.00  0.00     0.086 A 
ATOM     12  C   UNL A   1      31.061  27.530  23.897  1.00  0.00     0.056 A 
ATOM     13  C   UNL A   1      30.080  27.717  22.894  1.00  0.00     0.030 A 
ATOM     14  C   UNL A   1      29.447  28.946  22.693  1.00  0.00     0.041 A 
ATOM     15  C   UNL A   1      30.654  29.854  24.565  1.00  0.00     0.057 A 
ATOM     16  C   UNL A   1      29.759  30.009  23.519  1.00  0.00     0.124 A 
ATOM     17  F   UNL A   1      29.201  31.206  23.297  1.00  0.00    -0.207 F 
BRANCH  12  18
ATOM     18  N   UNL A   1      31.801  26.334  23.900  1.00  0.00    -0.337 N 
ATOM     19  C   UNL A   1      33.643  26.757  22.183  1.00  0.00     0.032 C 
ATOM     20  C   UNL A   1      33.264  26.320  23.588  1.00  0.00     0.089 C 
ATOM     21  C   UNL A   1      33.750  24.865  23.824  1.00  0.00     0.063 C 
ATOM     22  C   UNL A   1      32.772  24.406  24.844  1.00  0.00    -0.022 A 
ATOM     23  C   UNL A   1      31.661  25.251  24.828  1.00  0.00     0.045 A 
ATOM     24  C   UNL A   1      32.855  23.306  25.686  1.00  0.00     0.006 A 
ATOM     25  C   UNL A   1      30.591  24.985  25.672  1.00  0.00     0.026 A 
ATOM     26  C   UNL A   1      31.798  23.068  26.564  1.00  0.00     0.000 A 
ATOM     27  C   UNL A   1      30.672  23.903  26.558  1.00  0.00     0.002 A 
ENDBRANCH  12  18
ENDBRANCH   9  11
ENDBRANCH   8   9
ENDBRANCH   7   8
ENDBRANCH   6   7
ENDBRANCH   5   6
ENDBRANCH   4   5
ENDBRANCH   3   4
ENDBRANCH   2   3
ENDBRANCH   1   2
BRANCH   1  28
ATOM     28  C   UNL A   1      33.383  36.537  31.755  1.00  0.00     0.188 C 
BRANCH  28  29
ATOM     29  O   UNL A   1      33.566  35.264  32.369  1.00  0.00    -0.376 OA
BRANCH  29  30
ATOM     30  C   UNL A   1      34.563  35.062  33.353  1.00  0.00     0.202 C 
BRANCH  30  31
ATOM     31  C   UNL A   1      34.695  33.657  33.958  1.00  0.00     0.261 C 
BRANCH  31  32
ATOM     32  O   UNL A   1      35.759  32.857  33.432  1.00  0.00    -0.460 OA
BRANCH  32  33
ATOM     33  C   UNL A   1      35.515  32.267  32.238  1.00  0.00     0.338 C 
ATOM     34  O   UNL A   1      34.445  32.160  31.662  1.00  0.00    -0.246 OA
BRANCH  33  35
ATOM     35  C   UNL A   1      36.808  31.876  31.637  1.00  0.00     0.060 A 
ATOM     36  C   UNL A   1      37.809  31.280  32.408  1.00  0.00     0.016 A 
ATOM     37  C   UNL A   1      37.015  32.126  30.275  1.00  0.00     0.016 A 
ATOM     38  C   UNL A   1      39.012  30.906  31.803  1.00  0.00     0.010 A 
ATOM     39  C   UNL A   1      38.227  31.780  29.678  1.00  0.00     0.010 A 
ATOM     40  C   UNL A   1      39.220  31.141  30.434  1.00  0.00    -0.014 A 
BRANCH  40  41
ATOM     41  C   UNL A   1      40.380  30.531  29.746  1.00  0.00     0.031 A 
ATOM     42  C   UNL A   1      40.350  29.132  29.222  1.00  0.00     0.074 A 
ATOM     43  C   UNL A   1      41.491  31.282  29.626  1.00  0.00     0.049 A 
ATOM     44  N   UNL A   1      41.267  28.504  28.532  1.00  0.00    -0.248 NA
ATOM     45  C   UNL A   1      39.150  28.332  29.505  1.00  0.00     0.031 C 
ATOM     46  C   UNL A   1      41.627  32.653  30.125  1.00  0.00     0.029 A 
ATOM     47  N   UNL A   1      42.705  31.009  29.054  1.00  0.00    -0.354 N 
ATOM     48  C   UNL A   1      40.751  27.241  28.277  1.00  0.00     0.074 A 
ATOM     49  C   UNL A   1      39.457  27.178  28.922  1.00  0.00     0.031 C 
ATOM     50  C   UNL A   1      42.851  33.107  29.821  1.00  0.00     0.029 A 
ATOM     51  C   UNL A   1      43.590  32.056  29.127  1.00  0.00     0.049 A 
ATOM     52  H   UNL A   1      42.922  30.147  28.631  1.00  0.00     0.167 HD
ATOM     53  C   UNL A   1      41.311  26.241  27.555  1.00  0.00     0.031 A 
ATOM     54  C   UNL A   1      44.854  32.168  28.680  1.00  0.00     0.031 A 
ATOM     55  C   UNL A   1      42.616  26.310  26.945  1.00  0.00     0.049 A 
ATOM     56  C   UNL A   1      45.469  31.023  27.930  1.00  0.00     0.074 A 
ATOM     57  C   UNL A   1      43.242  25.364  26.150  1.00  0.00     0.029 A 
ATOM     58  N   UNL A   1      43.502  27.369  27.077  1.00  0.00    -0.354 N 
ATOM     59  N   UNL A   1      44.932  29.870  27.612  1.00  0.00    -0.248 NA
ATOM     60  C   UNL A   1      46.850  31.196  27.462  1.00  0.00     0.031 C 
ATOM     61  C   UNL A   1      44.530  25.820  25.859  1.00  0.00     0.029 A 
ATOM     62  C   UNL A   1      44.683  27.081  26.412  1.00  0.00     0.049 A 
ATOM     63  H   UNL A   1      43.320  28.201  27.571  1.00  0.00     0.167 HD
ATOM     64  C   UNL A   1      45.900  29.188  26.889  1.00  0.00     0.074 A 
ATOM     65  C   UNL A   1      47.053  30.061  26.804  1.00  0.00     0.031 C 
ATOM     66  C   UNL A   1      45.832  27.950  26.343  1.00  0.00     0.031 A 
BRANCH  53  67
ATOM     67  C   UNL A   1      40.522  24.975  27.363  1.00  0.00    -0.014 A 
ATOM     68  C   UNL A   1      40.990  23.768  27.906  1.00  0.00     0.009 A 
ATOM     69  C   UNL A   1      39.390  24.953  26.535  1.00  0.00     0.009 A 
ATOM     70  C   UNL A   1      40.351  22.562  27.609  1.00  0.00     0.001 A 
ATOM     71  C   UNL A   1      38.739  23.749  26.259  1.00  0.00     0.001 A 
ATOM     72  C   UNL A   1      39.226  22.554  26.787  1.00  0.00     0.000 A 
ENDBRANCH  53  67
BRANCH  54  73
ATOM     73  C   UNL A   1      45.588  33.440  28.900  1.00  0.00    -0.014 A 
ATOM     74  C   UNL A   1      46.327  33.642  30.077  1.00  0.00     0.009 A 
ATOM     75  C   UNL A   1      45.487  34.486  27.974  1.00  0.00     0.009 A 
ATOM     76  C   UNL A   1      46.928  34.876  30.334  1.00  0.00     0.001 A 
ATOM     77  C   UNL A   1      46.112  35.711  28.220  1.00  0.00     0.001 A 
ATOM     78  C   UNL A   1      46.823  35.908  29.403  1.00  0.00     0.000 A 
ENDBRANCH  54  73
BRANCH  66  79
ATOM     79  C   UNL A   1      47.034  27.446  25.595  1.00  0.00    -0.014 A 
ATOM     80  C   UNL A   1      47.182  27.743  24.230  1.00  0.00     0.009 A 
ATOM     81  C   UNL A   1      47.962  26.592  26.210  1.00  0.00     0.009 A 
ATOM     82  C   UNL A   1      48.221  27.177  23.490  1.00  0.00     0.001 A 
ATOM     83  C   UNL A   1      49.018  26.051  25.474  1.00  0.00     0.001 A 
ATOM     84  C   UNL A   1      49.140  26.334  24.113  1.00  0.00     0.000 A 
ENDBRANCH  66  79
ENDBRANCH  40  41
ENDBRANCH  33  35
ENDBRANCH  32  33
ENDBRANCH  31  32
ENDBRANCH  30  31
ENDBRANCH  29  30
ENDBRANCH  28  29
ENDBRANCH   1  28
TORSDOF 21
ENDMDL
