MODEL 1
REMARK VINA RESULT:      -8.8      0.000      0.000
REMARK SMILES C[C@H](c1ccc(Br)s1)[NH+]1CCC(CC(=O)OCCOCCOCCOCCOC(=O)c2ccc(-c3c4nc(c(-c5ccccc5)c5ccc([nH]5)c(-c5ccccc5)c5nc(c(-c6ccccc6)c6ccc3[nH]6)C=C5)C=C4)cc2)CC1
REMARK SMILES IDX 21 1 20 2 19 3 18 4 17 5 16 6 14 7 15 8 13 9 12 10 9 11
REMARK SMILES IDX 10 12 80 13 11 15 79 16 2 17 1 18 3 19 4 20 8 21 5 22 6 23
REMARK SMILES IDX 7 24 22 25 23 26 24 27 25 28 26 29 27 30 28 31 29 32 30 33
REMARK SMILES IDX 31 34 32 35 78 36 33 37 77 38 34 39 35 40 36 41 71 42 37 43
REMARK SMILES IDX 76 44 70 45 72 46 38 47 75 48 69 49 68 50 39 52 61 53 46 54
REMARK SMILES IDX 60 55 47 56 50 57 59 58 73 59 48 60 49 61 58 63 74 64 51 65
REMARK SMILES IDX 40 66 41 67 45 68 42 69 44 70 43 71 62 72 63 73 67 74 64 75
REMARK SMILES IDX 66 76 65 77 52 78 53 79 57 80 54 81 56 82 55 83
REMARK H PARENT 9 14 72 51 50 62
REMARK Flexibility Score: inf
ROOT
ATOM      1  C   UNL A   1      39.639  21.810  25.992  1.00  0.00     0.188 C 
ENDROOT
BRANCH   1   2
ATOM      2  C   UNL A   1      38.132  22.086  25.954  1.00  0.00     0.188 C 
BRANCH   2   3
ATOM      3  O   UNL A   1      37.577  22.644  24.783  1.00  0.00    -0.376 OA
BRANCH   3   4
ATOM      4  C   UNL A   1      36.429  22.072  24.173  1.00  0.00     0.202 C 
BRANCH   4   5
ATOM      5  C   UNL A   1      35.217  21.492  24.927  1.00  0.00     0.261 C 
BRANCH   5   6
ATOM      6  O   UNL A   1      35.251  21.510  26.361  1.00  0.00    -0.463 OA
BRANCH   6   7
ATOM      7  C   UNL A   1      34.079  21.773  26.981  1.00  0.00     0.306 C 
ATOM      8  O   UNL A   1      33.409  20.929  27.569  1.00  0.00    -0.252 OA
BRANCH   7   9
ATOM      9  C   UNL A   1      33.628  23.220  26.936  1.00  0.00     0.126 C 
BRANCH   9  10
ATOM     10  C   UNL A   1      32.776  23.793  25.796  1.00  0.00     0.011 C 
ATOM     11  N   UNL A   1      31.516  25.884  24.147  1.00  0.00    -0.328 N 
ATOM     12  C   UNL A   1      30.714  24.963  24.954  1.00  0.00     0.263 C 
ATOM     13  C   UNL A   1      32.838  25.353  23.806  1.00  0.00     0.263 C 
ATOM     14  H   UNL A   1      31.702  26.657  24.785  1.00  0.00     0.348 HD
ATOM     15  C   UNL A   1      31.464  24.460  26.200  1.00  0.00     0.066 C 
ATOM     16  C   UNL A   1      33.606  24.822  25.015  1.00  0.00     0.066 C 
BRANCH  11  17
ATOM     17  C   UNL A   1      30.809  26.617  23.060  1.00  0.00     0.222 C 
ATOM     18  C   UNL A   1      31.452  26.581  21.658  1.00  0.00     0.082 C 
BRANCH  17  19
ATOM     19  C   UNL A   1      30.450  28.067  23.375  1.00  0.00     0.063 A 
ATOM     20  C   UNL A   1      31.030  28.941  24.283  1.00  0.00     0.023 A 
ATOM     21  S   UNL A   1      29.161  28.834  22.527  1.00  0.00    -0.127 S 
ATOM     22  C   UNL A   1      30.375  30.209  24.320  1.00  0.00     0.028 A 
ATOM     23  C   UNL A   1      29.348  30.263  23.414  1.00  0.00     0.070 A 
ATOM     24  Br  UNL A   1      28.255  31.765  23.176  1.00  0.00    -0.039 Br
ENDBRANCH  17  19
ENDBRANCH  11  17
ENDBRANCH   9  10
ENDBRANCH   7   9
ENDBRANCH   6   7
ENDBRANCH   5   6
ENDBRANCH   4   5
ENDBRANCH   3   4
ENDBRANCH   2   3
ENDBRANCH   1   2
BRANCH   1  25
ATOM     25  O   UNL A   1      40.075  20.732  26.798  1.00  0.00    -0.377 OA
BRANCH  25  26
ATOM     26  C   UNL A   1      40.680  19.599  26.184  1.00  0.00     0.188 C 
BRANCH  26  27
ATOM     27  C   UNL A   1      42.196  19.549  25.902  1.00  0.00     0.188 C 
BRANCH  27  28
ATOM     28  O   UNL A   1      43.016  20.187  26.867  1.00  0.00    -0.376 OA
BRANCH  28  29
ATOM     29  C   UNL A   1      43.140  21.601  26.828  1.00  0.00     0.202 C 
BRANCH  29  30
ATOM     30  C   UNL A   1      44.488  22.174  26.365  1.00  0.00     0.261 C 
BRANCH  30  31
ATOM     31  O   UNL A   1      44.591  23.608  26.356  1.00  0.00    -0.460 OA
BRANCH  31  32
ATOM     32  C   UNL A   1      43.823  24.279  25.478  1.00  0.00     0.338 C 
ATOM     33  O   UNL A   1      43.679  24.047  24.286  1.00  0.00    -0.246 OA
BRANCH  32  34
ATOM     34  C   UNL A   1      43.022  25.264  26.221  1.00  0.00     0.060 A 
ATOM     35  C   UNL A   1      43.496  26.579  26.320  1.00  0.00     0.016 A 
ATOM     36  C   UNL A   1      41.845  24.880  26.867  1.00  0.00     0.016 A 
ATOM     37  C   UNL A   1      42.834  27.497  27.131  1.00  0.00     0.010 A 
ATOM     38  C   UNL A   1      41.190  25.797  27.694  1.00  0.00     0.010 A 
ATOM     39  C   UNL A   1      41.717  27.088  27.873  1.00  0.00    -0.014 A 
BRANCH  39  40
ATOM     40  C   UNL A   1      41.280  27.914  29.023  1.00  0.00     0.031 A 
ATOM     41  C   UNL A   1      42.057  27.800  30.308  1.00  0.00     0.074 A 
ATOM     42  C   UNL A   1      40.259  28.782  28.923  1.00  0.00     0.049 A 
ATOM     43  N   UNL A   1      41.865  28.402  31.454  1.00  0.00    -0.248 NA
ATOM     44  C   UNL A   1      43.207  26.880  30.298  1.00  0.00     0.031 C 
ATOM     45  C   UNL A   1      39.469  29.030  27.720  1.00  0.00     0.029 A 
ATOM     46  N   UNL A   1      39.717  29.620  29.864  1.00  0.00    -0.354 N 
ATOM     47  C   UNL A   1      42.860  27.925  32.299  1.00  0.00     0.074 A 
ATOM     48  C   UNL A   1      43.631  26.961  31.549  1.00  0.00     0.031 C 
ATOM     49  C   UNL A   1      38.537  29.959  27.997  1.00  0.00     0.029 A 
ATOM     50  C   UNL A   1      38.644  30.343  29.404  1.00  0.00     0.049 A 
ATOM     51  H   UNL A   1      40.063  29.697  30.783  1.00  0.00     0.167 HD
ATOM     52  C   UNL A   1      43.116  28.264  33.584  1.00  0.00     0.031 A 
ATOM     53  C   UNL A   1      37.834  31.203  30.053  1.00  0.00     0.031 A 
ATOM     54  C   UNL A   1      42.342  29.213  34.335  1.00  0.00     0.049 A 
ATOM     55  C   UNL A   1      38.086  31.500  31.509  1.00  0.00     0.074 A 
ATOM     56  C   UNL A   1      42.521  29.630  35.642  1.00  0.00     0.029 A 
ATOM     57  N   UNL A   1      41.235  29.889  33.846  1.00  0.00    -0.354 N 
ATOM     58  N   UNL A   1      39.039  31.055  32.293  1.00  0.00    -0.248 NA
ATOM     59  C   UNL A   1      37.154  32.430  32.164  1.00  0.00     0.031 C 
ATOM     60  C   UNL A   1      41.485  30.512  35.963  1.00  0.00     0.029 A 
ATOM     61  C   UNL A   1      40.705  30.701  34.832  1.00  0.00     0.049 A 
ATOM     62  H   UNL A   1      40.880  29.804  32.932  1.00  0.00     0.167 HD
ATOM     63  C   UNL A   1      38.844  31.681  33.520  1.00  0.00     0.074 A 
ATOM     64  C   UNL A   1      37.690  32.543  33.371  1.00  0.00     0.031 C 
ATOM     65  C   UNL A   1      39.560  31.559  34.666  1.00  0.00     0.031 A 
BRANCH  52  66
ATOM     66  C   UNL A   1      44.259  27.565  34.268  1.00  0.00    -0.014 A 
ATOM     67  C   UNL A   1      44.042  26.516  35.175  1.00  0.00     0.009 A 
ATOM     68  C   UNL A   1      45.578  27.954  33.985  1.00  0.00     0.009 A 
ATOM     69  C   UNL A   1      45.119  25.897  35.813  1.00  0.00     0.001 A 
ATOM     70  C   UNL A   1      46.654  27.311  34.599  1.00  0.00     0.001 A 
ATOM     71  C   UNL A   1      46.425  26.292  35.520  1.00  0.00     0.000 A 
ENDBRANCH  52  66
BRANCH  53  72
ATOM     72  C   UNL A   1      36.691  31.835  29.340  1.00  0.00    -0.014 A 
ATOM     73  C   UNL A   1      35.469  31.160  29.199  1.00  0.00     0.009 A 
ATOM     74  C   UNL A   1      36.829  33.109  28.767  1.00  0.00     0.009 A 
ATOM     75  C   UNL A   1      34.421  31.733  28.474  1.00  0.00     0.001 A 
ATOM     76  C   UNL A   1      35.770  33.694  28.070  1.00  0.00     0.001 A 
ATOM     77  C   UNL A   1      34.571  33.001  27.915  1.00  0.00     0.000 A 
ENDBRANCH  53  72
BRANCH  65  78
ATOM     78  C   UNL A   1      39.156  32.419  35.833  1.00  0.00    -0.014 A 
ATOM     79  C   UNL A   1      39.690  33.701  36.025  1.00  0.00     0.009 A 
ATOM     80  C   UNL A   1      38.184  31.947  36.731  1.00  0.00     0.009 A 
ATOM     81  C   UNL A   1      39.289  34.477  37.115  1.00  0.00     0.001 A 
ATOM     82  C   UNL A   1      37.759  32.737  37.799  1.00  0.00     0.001 A 
ATOM     83  C   UNL A   1      38.320  33.997  37.997  1.00  0.00     0.000 A 
ENDBRANCH  65  78
ENDBRANCH  39  40
ENDBRANCH  32  34
ENDBRANCH  31  32
ENDBRANCH  30  31
ENDBRANCH  29  30
ENDBRANCH  28  29
ENDBRANCH  27  28
ENDBRANCH  26  27
ENDBRANCH  25  26
ENDBRANCH   1  25
TORSDOF 23
ENDMDL
MODEL 2
REMARK VINA RESULT:      -8.7      5.864     12.204
REMARK SMILES C[C@H](c1ccc(Br)s1)[NH+]1CCC(CC(=O)OCCOCCOCCOCCOC(=O)c2ccc(-c3c4nc(c(-c5ccccc5)c5ccc([nH]5)c(-c5ccccc5)c5nc(c(-c6ccccc6)c6ccc3[nH]6)C=C5)C=C4)cc2)CC1
REMARK SMILES IDX 21 1 20 2 19 3 18 4 17 5 16 6 14 7 15 8 13 9 12 10 9 11
REMARK SMILES IDX 10 12 80 13 11 15 79 16 2 17 1 18 3 19 4 20 8 21 5 22 6 23
REMARK SMILES IDX 7 24 22 25 23 26 24 27 25 28 26 29 27 30 28 31 29 32 30 33
REMARK SMILES IDX 31 34 32 35 78 36 33 37 77 38 34 39 35 40 36 41 71 42 37 43
REMARK SMILES IDX 76 44 70 45 72 46 38 47 75 48 69 49 68 50 39 52 61 53 46 54
REMARK SMILES IDX 60 55 47 56 50 57 59 58 73 59 48 60 49 61 58 63 74 64 51 65
REMARK SMILES IDX 40 66 41 67 45 68 42 69 44 70 43 71 62 72 63 73 67 74 64 75
REMARK SMILES IDX 66 76 65 77 52 78 53 79 57 80 54 81 56 82 55 83
REMARK H PARENT 9 14 72 51 50 62
REMARK Flexibility Score: inf
ROOT
ATOM      1  C   UNL A   1      35.193  32.174  32.362  1.00  0.00     0.188 C 
ENDROOT
BRANCH   1   2
ATOM      2  C   UNL A   1      35.880  32.776  33.593  1.00  0.00     0.188 C 
BRANCH   2   3
ATOM      3  O   UNL A   1      37.200  32.381  33.891  1.00  0.00    -0.376 OA
BRANCH   3   4
ATOM      4  C   UNL A   1      37.642  32.260  35.235  1.00  0.00     0.202 C 
BRANCH   4   5
ATOM      5  C   UNL A   1      38.911  31.513  35.690  1.00  0.00     0.261 C 
BRANCH   5   6
ATOM      6  O   UNL A   1      39.278  30.323  34.978  1.00  0.00    -0.463 OA
BRANCH   6   7
ATOM      7  C   UNL A   1      40.480  29.790  35.291  1.00  0.00     0.306 C 
ATOM      8  O   UNL A   1      40.676  29.056  36.256  1.00  0.00    -0.252 OA
BRANCH   7   9
ATOM      9  C   UNL A   1      41.612  30.133  34.342  1.00  0.00     0.126 C 
BRANCH   9  10
ATOM     10  C   UNL A   1      42.714  29.135  33.963  1.00  0.00     0.011 C 
ATOM     11  N   UNL A   1      44.200  26.592  34.026  1.00  0.00    -0.328 N 
ATOM     12  C   UNL A   1      44.800  27.837  34.508  1.00  0.00     0.263 C 
ATOM     13  C   UNL A   1      43.116  26.806  33.063  1.00  0.00     0.263 C 
ATOM     14  H   UNL A   1      43.741  26.215  34.856  1.00  0.00     0.348 HD
ATOM     15  C   UNL A   1      43.753  28.832  35.039  1.00  0.00     0.066 C 
ATOM     16  C   UNL A   1      42.068  27.806  33.546  1.00  0.00     0.066 C 
BRANCH  11  17
ATOM     17  C   UNL A   1      45.130  25.471  33.720  1.00  0.00     0.222 C 
ATOM     18  C   UNL A   1      44.734  24.527  32.565  1.00  0.00     0.082 C 
BRANCH  17  19
ATOM     19  C   UNL A   1      45.532  24.608  34.914  1.00  0.00     0.063 A 
ATOM     20  C   UNL A   1      46.049  24.992  36.143  1.00  0.00     0.023 A 
ATOM     21  S   UNL A   1      45.347  22.897  34.837  1.00  0.00    -0.127 S 
ATOM     22  C   UNL A   1      46.344  23.878  36.987  1.00  0.00     0.028 A 
ATOM     23  C   UNL A   1      46.007  22.696  36.381  1.00  0.00     0.070 A 
ATOM     24  Br  UNL A   1      46.252  21.018  37.178  1.00  0.00    -0.039 Br
ENDBRANCH  17  19
ENDBRANCH  11  17
ENDBRANCH   9  10
ENDBRANCH   7   9
ENDBRANCH   6   7
ENDBRANCH   5   6
ENDBRANCH   4   5
ENDBRANCH   3   4
ENDBRANCH   2   3
ENDBRANCH   1   2
BRANCH   1  25
ATOM     25  O   UNL A   1      35.906  32.222  31.141  1.00  0.00    -0.377 OA
BRANCH  25  26
ATOM     26  C   UNL A   1      35.732  33.336  30.272  1.00  0.00     0.188 C 
BRANCH  26  27
ATOM     27  C   UNL A   1      36.498  33.446  28.937  1.00  0.00     0.188 C 
BRANCH  27  28
ATOM     28  O   UNL A   1      35.689  33.483  27.774  1.00  0.00    -0.376 OA
BRANCH  28  29
ATOM     29  C   UNL A   1      34.288  33.291  27.910  1.00  0.00     0.202 C 
BRANCH  29  30
ATOM     30  C   UNL A   1      33.735  31.897  27.575  1.00  0.00     0.261 C 
BRANCH  30  31
ATOM     31  O   UNL A   1      34.089  30.846  28.489  1.00  0.00    -0.460 OA
BRANCH  31  32
ATOM     32  C   UNL A   1      34.694  29.758  27.979  1.00  0.00     0.338 C 
ATOM     33  O   UNL A   1      34.233  28.957  27.178  1.00  0.00    -0.246 OA
BRANCH  32  34
ATOM     34  C   UNL A   1      36.101  29.766  28.410  1.00  0.00     0.060 A 
ATOM     35  C   UNL A   1      37.086  30.133  27.484  1.00  0.00     0.016 A 
ATOM     36  C   UNL A   1      36.451  29.354  29.698  1.00  0.00     0.016 A 
ATOM     37  C   UNL A   1      38.432  30.015  27.818  1.00  0.00     0.010 A 
ATOM     38  C   UNL A   1      37.802  29.220  30.027  1.00  0.00     0.010 A 
ATOM     39  C   UNL A   1      38.794  29.494  29.068  1.00  0.00    -0.014 A 
BRANCH  39  40
ATOM     40  C   UNL A   1      40.172  28.986  29.261  1.00  0.00     0.031 A 
ATOM     41  C   UNL A   1      41.161  29.880  29.962  1.00  0.00     0.074 A 
ATOM     42  C   UNL A   1      40.531  27.749  28.879  1.00  0.00     0.049 A 
ATOM     43  N   UNL A   1      42.423  29.673  30.237  1.00  0.00    -0.248 NA
ATOM     44  C   UNL A   1      40.655  31.188  30.414  1.00  0.00     0.031 C 
ATOM     45  C   UNL A   1      39.653  26.767  28.247  1.00  0.00     0.029 A 
ATOM     46  N   UNL A   1      41.742  27.111  28.972  1.00  0.00    -0.354 N 
ATOM     47  C   UNL A   1      42.861  30.824  30.880  1.00  0.00     0.074 A 
ATOM     48  C   UNL A   1      41.743  31.739  30.925  1.00  0.00     0.031 C 
ATOM     49  C   UNL A   1      40.357  25.646  28.006  1.00  0.00     0.029 A 
ATOM     50  C   UNL A   1      41.741  25.848  28.434  1.00  0.00     0.049 A 
ATOM     51  H   UNL A   1      42.536  27.520  29.386  1.00  0.00     0.167 HD
ATOM     52  C   UNL A   1      44.082  31.096  31.396  1.00  0.00     0.031 A 
ATOM     53  C   UNL A   1      42.749  24.965  28.290  1.00  0.00     0.031 A 
ATOM     54  C   UNL A   1      45.198  30.192  31.341  1.00  0.00     0.049 A 
ATOM     55  C   UNL A   1      44.124  25.324  28.796  1.00  0.00     0.074 A 
ATOM     56  C   UNL A   1      46.477  30.369  31.837  1.00  0.00     0.029 A 
ATOM     57  N   UNL A   1      45.168  28.940  30.746  1.00  0.00    -0.354 N 
ATOM     58  N   UNL A   1      44.522  26.409  29.416  1.00  0.00    -0.248 NA
ATOM     59  C   UNL A   1      45.184  24.327  28.590  1.00  0.00     0.031 C 
ATOM     60  C   UNL A   1      47.239  29.250  31.488  1.00  0.00     0.029 A 
ATOM     61  C   UNL A   1      46.413  28.344  30.840  1.00  0.00     0.049 A 
ATOM     62  H   UNL A   1      44.378  28.536  30.321  1.00  0.00     0.167 HD
ATOM     63  C   UNL A   1      45.866  26.207  29.709  1.00  0.00     0.074 A 
ATOM     64  C   UNL A   1      46.211  24.893  29.207  1.00  0.00     0.031 C 
ATOM     65  C   UNL A   1      46.737  27.032  30.342  1.00  0.00     0.031 A 
BRANCH  52  66
ATOM     66  C   UNL A   1      44.281  32.447  32.027  1.00  0.00    -0.014 A 
ATOM     67  C   UNL A   1      44.622  33.572  31.260  1.00  0.00     0.009 A 
ATOM     68  C   UNL A   1      44.106  32.598  33.411  1.00  0.00     0.009 A 
ATOM     69  C   UNL A   1      44.821  34.812  31.871  1.00  0.00     0.001 A 
ATOM     70  C   UNL A   1      44.274  33.845  34.016  1.00  0.00     0.001 A 
ATOM     71  C   UNL A   1      44.642  34.948  33.248  1.00  0.00     0.000 A 
ENDBRANCH  52  66
BRANCH  53  72
ATOM     72  C   UNL A   1      42.509  23.658  27.621  1.00  0.00    -0.014 A 
ATOM     73  C   UNL A   1      42.868  23.460  26.279  1.00  0.00     0.009 A 
ATOM     74  C   UNL A   1      41.885  22.610  28.315  1.00  0.00     0.009 A 
ATOM     75  C   UNL A   1      42.582  22.253  25.638  1.00  0.00     0.001 A 
ATOM     76  C   UNL A   1      41.628  21.392  27.682  1.00  0.00     0.001 A 
ATOM     77  C   UNL A   1      41.967  21.217  26.342  1.00  0.00     0.000 A 
ENDBRANCH  53  72
BRANCH  65  78
ATOM     78  C   UNL A   1      48.131  26.519  30.583  1.00  0.00    -0.014 A 
ATOM     79  C   UNL A   1      49.212  26.910  29.779  1.00  0.00     0.009 A 
ATOM     80  C   UNL A   1      48.369  25.660  31.669  1.00  0.00     0.009 A 
ATOM     81  C   UNL A   1      50.495  26.420  30.033  1.00  0.00     0.001 A 
ATOM     82  C   UNL A   1      49.658  25.199  31.942  1.00  0.00     0.001 A 
ATOM     83  C   UNL A   1      50.717  25.571  31.117  1.00  0.00     0.000 A 
ENDBRANCH  65  78
ENDBRANCH  39  40
ENDBRANCH  32  34
ENDBRANCH  31  32
ENDBRANCH  30  31
ENDBRANCH  29  30
ENDBRANCH  28  29
ENDBRANCH  27  28
ENDBRANCH  26  27
ENDBRANCH  25  26
ENDBRANCH   1  25
TORSDOF 23
ENDMDL
MODEL 3
REMARK VINA RESULT:      -8.0      4.564      6.234
REMARK SMILES C[C@H](c1ccc(Br)s1)[NH+]1CCC(CC(=O)OCCOCCOCCOCCOC(=O)c2ccc(-c3c4nc(c(-c5ccccc5)c5ccc([nH]5)c(-c5ccccc5)c5nc(c(-c6ccccc6)c6ccc3[nH]6)C=C5)C=C4)cc2)CC1
REMARK SMILES IDX 21 1 20 2 19 3 18 4 17 5 16 6 14 7 15 8 13 9 12 10 9 11
REMARK SMILES IDX 10 12 80 13 11 15 79 16 2 17 1 18 3 19 4 20 8 21 5 22 6 23
REMARK SMILES IDX 7 24 22 25 23 26 24 27 25 28 26 29 27 30 28 31 29 32 30 33
REMARK SMILES IDX 31 34 32 35 78 36 33 37 77 38 34 39 35 40 36 41 71 42 37 43
REMARK SMILES IDX 76 44 70 45 72 46 38 47 75 48 69 49 68 50 39 52 61 53 46 54
REMARK SMILES IDX 60 55 47 56 50 57 59 58 73 59 48 60 49 61 58 63 74 64 51 65
REMARK SMILES IDX 40 66 41 67 45 68 42 69 44 70 43 71 62 72 63 73 67 74 64 75
REMARK SMILES IDX 66 76 65 77 52 78 53 79 57 80 54 81 56 82 55 83
REMARK H PARENT 9 14 72 51 50 62
REMARK Flexibility Score: inf
ROOT
ATOM      1  C   UNL A   1      38.285  22.275  26.030  1.00  0.00     0.188 C 
ENDROOT
BRANCH   1   2
ATOM      2  C   UNL A   1      36.912  21.860  25.489  1.00  0.00     0.188 C 
BRANCH   2   3
ATOM      3  O   UNL A   1      35.932  22.856  25.297  1.00  0.00    -0.376 OA
BRANCH   3   4
ATOM      4  C   UNL A   1      35.740  23.458  24.026  1.00  0.00     0.202 C 
BRANCH   4   5
ATOM      5  C   UNL A   1      34.698  23.015  22.980  1.00  0.00     0.261 C 
BRANCH   5   6
ATOM      6  O   UNL A   1      33.693  22.079  23.394  1.00  0.00    -0.463 OA
BRANCH   6   7
ATOM      7  C   UNL A   1      32.452  22.581  23.575  1.00  0.00     0.306 C 
ATOM      8  O   UNL A   1      31.564  22.541  22.728  1.00  0.00    -0.252 OA
BRANCH   7   9
ATOM      9  C   UNL A   1      32.190  23.194  24.937  1.00  0.00     0.126 C 
BRANCH   9  10
ATOM     10  C   UNL A   1      31.721  24.643  25.123  1.00  0.00     0.011 C 
ATOM     11  N   UNL A   1      31.954  27.492  25.838  1.00  0.00    -0.328 N 
ATOM     12  C   UNL A   1      31.081  26.587  26.587  1.00  0.00     0.263 C 
ATOM     13  C   UNL A   1      32.226  27.035  24.472  1.00  0.00     0.263 C 
ATOM     14  H   UNL A   1      32.848  27.413  26.322  1.00  0.00     0.348 HD
ATOM     15  C   UNL A   1      31.577  25.130  26.562  1.00  0.00     0.066 C 
ATOM     16  C   UNL A   1      32.700  25.584  24.404  1.00  0.00     0.066 C 
BRANCH  11  17
ATOM     17  C   UNL A   1      31.707  28.952  25.998  1.00  0.00     0.222 C 
ATOM     18  C   UNL A   1      31.293  29.735  24.734  1.00  0.00     0.082 C 
BRANCH  17  19
ATOM     19  C   UNL A   1      32.822  29.732  26.690  1.00  0.00     0.063 A 
ATOM     20  C   UNL A   1      32.809  31.023  27.199  1.00  0.00     0.023 A 
ATOM     21  S   UNL A   1      34.358  28.993  26.940  1.00  0.00    -0.127 S 
ATOM     22  C   UNL A   1      34.073  31.415  27.735  1.00  0.00     0.028 A 
ATOM     23  C   UNL A   1      34.986  30.397  27.644  1.00  0.00     0.070 A 
ATOM     24  Br  UNL A   1      36.757  30.539  28.238  1.00  0.00    -0.039 Br
ENDBRANCH  17  19
ENDBRANCH  11  17
ENDBRANCH   9  10
ENDBRANCH   7   9
ENDBRANCH   6   7
ENDBRANCH   5   6
ENDBRANCH   4   5
ENDBRANCH   3   4
ENDBRANCH   2   3
ENDBRANCH   1   2
BRANCH   1  25
ATOM     25  O   UNL A   1      39.112  21.247  26.541  1.00  0.00    -0.377 OA
BRANCH  25  26
ATOM     26  C   UNL A   1      40.331  20.933  25.876  1.00  0.00     0.188 C 
BRANCH  26  27
ATOM     27  C   UNL A   1      41.698  21.113  26.568  1.00  0.00     0.188 C 
BRANCH  27  28
ATOM     28  O   UNL A   1      41.642  21.432  27.948  1.00  0.00    -0.376 OA
BRANCH  28  29
ATOM     29  C   UNL A   1      41.915  22.767  28.352  1.00  0.00     0.202 C 
BRANCH  29  30
ATOM     30  C   UNL A   1      41.597  23.883  27.344  1.00  0.00     0.261 C 
BRANCH  30  31
ATOM     31  O   UNL A   1      42.006  25.207  27.726  1.00  0.00    -0.460 OA
BRANCH  31  32
ATOM     32  C   UNL A   1      41.346  26.242  27.176  1.00  0.00     0.338 C 
ATOM     33  O   UNL A   1      40.762  26.266  26.101  1.00  0.00    -0.246 OA
BRANCH  32  34
ATOM     34  C   UNL A   1      41.281  27.329  28.165  1.00  0.00     0.060 A 
ATOM     35  C   UNL A   1      40.451  28.427  27.904  1.00  0.00     0.016 A 
ATOM     36  C   UNL A   1      42.079  27.295  29.310  1.00  0.00     0.016 A 
ATOM     37  C   UNL A   1      40.475  29.533  28.751  1.00  0.00     0.010 A 
ATOM     38  C   UNL A   1      42.116  28.411  30.150  1.00  0.00     0.010 A 
ATOM     39  C   UNL A   1      41.358  29.554  29.839  1.00  0.00    -0.014 A 
BRANCH  39  40
ATOM     40  C   UNL A   1      41.683  30.854  30.472  1.00  0.00     0.031 A 
ATOM     41  C   UNL A   1      42.736  31.711  29.820  1.00  0.00     0.074 A 
ATOM     42  C   UNL A   1      41.031  31.293  31.562  1.00  0.00     0.049 A 
ATOM     43  N   UNL A   1      43.206  32.876  30.187  1.00  0.00    -0.248 NA
ATOM     44  C   UNL A   1      43.340  31.181  28.586  1.00  0.00     0.031 C 
ATOM     45  C   UNL A   1      39.952  30.587  32.249  1.00  0.00     0.029 A 
ATOM     46  N   UNL A   1      41.189  32.452  32.279  1.00  0.00    -0.354 N 
ATOM     47  C   UNL A   1      44.166  33.208  29.238  1.00  0.00     0.074 A 
ATOM     48  C   UNL A   1      44.236  32.111  28.300  1.00  0.00     0.031 C 
ATOM     49  C   UNL A   1      39.546  31.328  33.295  1.00  0.00     0.029 A 
ATOM     50  C   UNL A   1      40.359  32.542  33.369  1.00  0.00     0.049 A 
ATOM     51  H   UNL A   1      41.836  33.153  32.036  1.00  0.00     0.167 HD
ATOM     52  C   UNL A   1      44.917  34.330  29.148  1.00  0.00     0.031 A 
ATOM     53  C   UNL A   1      40.280  33.488  34.325  1.00  0.00     0.031 A 
ATOM     54  C   UNL A   1      44.857  35.416  30.087  1.00  0.00     0.049 A 
ATOM     55  C   UNL A   1      41.188  34.690  34.252  1.00  0.00     0.074 A 
ATOM     56  C   UNL A   1      45.574  36.600  30.084  1.00  0.00     0.029 A 
ATOM     57  N   UNL A   1      44.035  35.447  31.203  1.00  0.00    -0.354 N 
ATOM     58  N   UNL A   1      42.080  35.001  33.341  1.00  0.00    -0.248 NA
ATOM     59  C   UNL A   1      41.067  35.676  35.335  1.00  0.00     0.031 C 
ATOM     60  C   UNL A   1      45.231  37.319  31.233  1.00  0.00     0.029 A 
ATOM     61  C   UNL A   1      44.245  36.617  31.910  1.00  0.00     0.049 A 
ATOM     62  H   UNL A   1      43.397  34.741  31.454  1.00  0.00     0.167 HD
ATOM     63  C   UNL A   1      42.596  36.235  33.721  1.00  0.00     0.074 A 
ATOM     64  C   UNL A   1      41.910  36.618  34.937  1.00  0.00     0.031 C 
ATOM     65  C   UNL A   1      43.549  36.987  33.115  1.00  0.00     0.031 A 
BRANCH  52  66
ATOM     66  C   UNL A   1      45.901  34.413  28.013  1.00  0.00    -0.014 A 
ATOM     67  C   UNL A   1      47.217  33.941  28.146  1.00  0.00     0.009 A 
ATOM     68  C   UNL A   1      45.498  34.959  26.785  1.00  0.00     0.009 A 
ATOM     69  C   UNL A   1      48.118  34.048  27.084  1.00  0.00     0.001 A 
ATOM     70  C   UNL A   1      46.391  35.035  25.715  1.00  0.00     0.001 A 
ATOM     71  C   UNL A   1      47.702  34.591  25.867  1.00  0.00     0.000 A 
ENDBRANCH  52  66
BRANCH  53  72
ATOM     72  C   UNL A   1      39.318  33.337  35.449  1.00  0.00    -0.014 A 
ATOM     73  C   UNL A   1      37.980  33.737  35.310  1.00  0.00     0.009 A 
ATOM     74  C   UNL A   1      39.743  32.821  36.683  1.00  0.00     0.009 A 
ATOM     75  C   UNL A   1      37.097  33.652  36.389  1.00  0.00     0.001 A 
ATOM     76  C   UNL A   1      38.852  32.707  37.752  1.00  0.00     0.001 A 
ATOM     77  C   UNL A   1      37.533  33.132  37.608  1.00  0.00     0.000 A 
ENDBRANCH  53  72
BRANCH  65  78
ATOM     78  C   UNL A   1      43.864  38.328  33.721  1.00  0.00    -0.014 A 
ATOM     79  C   UNL A   1      44.796  38.468  34.760  1.00  0.00     0.009 A 
ATOM     80  C   UNL A   1      43.246  39.479  33.205  1.00  0.00     0.009 A 
ATOM     81  C   UNL A   1      45.071  39.728  35.297  1.00  0.00     0.001 A 
ATOM     82  C   UNL A   1      43.549  40.740  33.718  1.00  0.00     0.001 A 
ATOM     83  C   UNL A   1      44.453  40.862  34.772  1.00  0.00     0.000 A 
ENDBRANCH  65  78
ENDBRANCH  39  40
ENDBRANCH  32  34
ENDBRANCH  31  32
ENDBRANCH  30  31
ENDBRANCH  29  30
ENDBRANCH  28  29
ENDBRANCH  27  28
ENDBRANCH  26  27
ENDBRANCH  25  26
ENDBRANCH   1  25
TORSDOF 23
ENDMDL
