MODEL 1
REMARK VINA RESULT:      -8.1      0.000      0.000
REMARK SMILES Cc1c(CC(=O)OCCOCCOCCOCCOC(=O)c2ccc(-c3c4nc(c(-c5ccccc5)c5ccc([nH]5)c(-c5ccccc5)c5nc(c(-c6ccccc6)c6ccc3[nH]6)C=C5)C=C4)cc2)c2cc(O)ccc2n1C(=O)c1ccc(Cl)cc1
REMARK SMILES IDX 12 1 11 2 10 3 9 4 8 5 7 6 5 7 6 8 4 9 3 10 1 11 2 12 77 13
REMARK SMILES IDX 70 14 76 15 71 16 75 17 72 18 74 19 78 20 79 21 80 22 81 23
REMARK SMILES IDX 86 24 82 25 85 26 83 27 84 28 73 29 13 31 14 32 15 33 16 34
REMARK SMILES IDX 17 35 18 36 19 37 20 38 21 39 22 40 23 41 69 42 24 43 68 44
REMARK SMILES IDX 25 45 26 46 27 47 62 48 28 49 67 50 61 51 63 52 29 53 66 54
REMARK SMILES IDX 60 55 59 56 30 58 52 59 37 60 51 61 38 62 41 63 50 64 64 65
REMARK SMILES IDX 39 66 40 67 49 69 65 70 42 71 31 72 32 73 36 74 33 75 35 76
REMARK SMILES IDX 34 77 53 78 54 79 58 80 55 81 57 82 56 83 43 84 44 85 48 86
REMARK SMILES IDX 45 87 47 88 46 89
REMARK H PARENT 73 30 63 57 41 68
REMARK Flexibility Score: inf
ROOT
ATOM      1  C   UNL A   1      33.111  27.805  24.859  1.00  0.00     0.188 C 
ENDROOT
BRANCH   1   2
ATOM      2  C   UNL A   1      33.684  28.398  26.142  1.00  0.00     0.188 C 
BRANCH   2   3
ATOM      3  O   UNL A   1      34.007  29.773  26.300  1.00  0.00    -0.376 OA
BRANCH   3   4
ATOM      4  C   UNL A   1      33.353  30.621  27.214  1.00  0.00     0.202 C 
BRANCH   4   5
ATOM      5  C   UNL A   1      34.120  31.869  27.695  1.00  0.00     0.261 C 
BRANCH   5   6
ATOM      6  O   UNL A   1      34.460  31.907  29.095  1.00  0.00    -0.463 OA
BRANCH   6   7
ATOM      7  C   UNL A   1      35.686  31.435  29.437  1.00  0.00     0.310 C 
ATOM      8  O   UNL A   1      36.693  31.639  28.762  1.00  0.00    -0.252 OA
BRANCH   7   9
ATOM      9  C   UNL A   1      35.761  30.616  30.724  1.00  0.00     0.160 C 
BRANCH   9  10
ATOM     10  C   UNL A   1      36.214  31.239  32.034  1.00  0.00    -0.008 A 
ATOM     11  C   UNL A   1      37.754  29.355  32.882  1.00  0.00     0.065 C 
ATOM     12  C   UNL A   1      37.078  30.686  32.974  1.00  0.00     0.028 A 
ATOM     13  N   UNL A   1      37.278  31.601  34.024  1.00  0.00    -0.280 N 
ATOM     14  C   UNL A   1      35.921  32.567  32.489  1.00  0.00     0.008 A 
ATOM     15  C   UNL A   1      36.444  32.707  33.782  1.00  0.00     0.057 A 
ATOM     16  C   UNL A   1      35.165  33.637  31.944  1.00  0.00     0.056 A 
ATOM     17  C   UNL A   1      36.115  33.842  34.560  1.00  0.00     0.031 A 
ATOM     18  C   UNL A   1      34.796  34.711  32.757  1.00  0.00     0.116 A 
ATOM     19  C   UNL A   1      35.260  34.819  34.052  1.00  0.00     0.048 A 
BRANCH  13  20
ATOM     20  C   UNL A   1      38.192  31.464  35.116  1.00  0.00     0.262 C 
ATOM     21  O   UNL A   1      37.768  31.129  36.220  1.00  0.00    -0.268 OA
BRANCH  20  22
ATOM     22  C   UNL A   1      39.653  31.643  35.021  1.00  0.00     0.040 A 
ATOM     23  C   UNL A   1      40.506  30.857  35.807  1.00  0.00     0.015 A 
ATOM     24  C   UNL A   1      40.166  32.639  34.182  1.00  0.00     0.015 A 
ATOM     25  C   UNL A   1      41.878  31.127  35.808  1.00  0.00     0.021 A 
ATOM     26  C   UNL A   1      41.540  32.897  34.182  1.00  0.00     0.021 A 
ATOM     27  C   UNL A   1      42.386  32.154  35.008  1.00  0.00     0.041 A 
ATOM     28  Cl  UNL A   1      44.064  32.527  35.062  1.00  0.00    -0.084 Cl
ENDBRANCH  20  22
ENDBRANCH  13  20
BRANCH  18  29
ATOM     29  O   UNL A   1      33.884  35.598  32.266  1.00  0.00    -0.508 OA
ATOM     30  H   UNL A   1      34.147  36.470  32.048  1.00  0.00     0.293 HD
ENDBRANCH  18  29
ENDBRANCH   9  10
ENDBRANCH   7   9
ENDBRANCH   6   7
ENDBRANCH   5   6
ENDBRANCH   4   5
ENDBRANCH   3   4
ENDBRANCH   2   3
ENDBRANCH   1   2
BRANCH   1  31
ATOM     31  O   UNL A   1      33.312  26.486  24.437  1.00  0.00    -0.377 OA
BRANCH  31  32
ATOM     32  C   UNL A   1      33.361  26.212  23.078  1.00  0.00     0.188 C 
BRANCH  32  33
ATOM     33  C   UNL A   1      33.518  24.729  22.762  1.00  0.00     0.188 C 
BRANCH  33  34
ATOM     34  O   UNL A   1      34.776  24.062  22.861  1.00  0.00    -0.376 OA
BRANCH  34  35
ATOM     35  C   UNL A   1      35.197  23.432  24.065  1.00  0.00     0.202 C 
BRANCH  35  36
ATOM     36  C   UNL A   1      36.651  22.925  24.139  1.00  0.00     0.261 C 
BRANCH  36  37
ATOM     37  O   UNL A   1      37.338  23.323  25.329  1.00  0.00    -0.460 OA
BRANCH  37  38
ATOM     38  C   UNL A   1      38.281  22.483  25.822  1.00  0.00     0.338 C 
ATOM     39  O   UNL A   1      38.422  21.293  25.596  1.00  0.00    -0.246 OA
BRANCH  38  40
ATOM     40  C   UNL A   1      39.317  23.362  26.398  1.00  0.00     0.060 A 
ATOM     41  C   UNL A   1      40.202  22.896  27.379  1.00  0.00     0.016 A 
ATOM     42  C   UNL A   1      39.127  24.734  26.190  1.00  0.00     0.016 A 
ATOM     43  C   UNL A   1      40.793  23.818  28.242  1.00  0.00     0.010 A 
ATOM     44  C   UNL A   1      39.692  25.647  27.073  1.00  0.00     0.010 A 
ATOM     45  C   UNL A   1      40.492  25.189  28.126  1.00  0.00    -0.014 A 
BRANCH  45  46
ATOM     46  C   UNL A   1      41.270  26.144  28.921  1.00  0.00     0.031 A 
ATOM     47  C   UNL A   1      42.733  25.948  28.748  1.00  0.00     0.074 A 
ATOM     48  C   UNL A   1      40.802  27.229  29.576  1.00  0.00     0.049 A 
ATOM     49  N   UNL A   1      43.641  25.811  29.657  1.00  0.00    -0.248 NA
ATOM     50  C   UNL A   1      43.219  25.774  27.365  1.00  0.00     0.031 C 
ATOM     51  C   UNL A   1      39.429  27.731  29.589  1.00  0.00     0.029 A 
ATOM     52  N   UNL A   1      41.493  28.192  30.272  1.00  0.00    -0.354 N 
ATOM     53  C   UNL A   1      44.835  25.683  28.958  1.00  0.00     0.074 A 
ATOM     54  C   UNL A   1      44.503  25.505  27.570  1.00  0.00     0.031 C 
ATOM     55  C   UNL A   1      39.418  28.990  30.079  1.00  0.00     0.029 A 
ATOM     56  C   UNL A   1      40.769  29.365  30.467  1.00  0.00     0.049 A 
ATOM     57  H   UNL A   1      42.411  28.064  30.602  1.00  0.00     0.167 HD
ATOM     58  C   UNL A   1      46.041  25.968  29.512  1.00  0.00     0.031 A 
ATOM     59  C   UNL A   1      41.246  30.588  30.819  1.00  0.00     0.031 A 
ATOM     60  C   UNL A   1      46.014  25.927  30.945  1.00  0.00     0.049 A 
ATOM     61  C   UNL A   1      42.588  30.414  31.416  1.00  0.00     0.074 A 
ATOM     62  C   UNL A   1      45.715  24.949  31.871  1.00  0.00     0.029 A 
ATOM     63  N   UNL A   1      45.998  27.119  31.621  1.00  0.00    -0.354 N 
ATOM     64  N   UNL A   1      42.805  29.881  32.582  1.00  0.00    -0.248 NA
ATOM     65  C   UNL A   1      43.759  30.540  30.562  1.00  0.00     0.031 C 
ATOM     66  C   UNL A   1      45.120  25.636  32.964  1.00  0.00     0.029 A 
ATOM     67  C   UNL A   1      45.113  26.999  32.663  1.00  0.00     0.049 A 
ATOM     68  H   UNL A   1      46.527  27.920  31.399  1.00  0.00     0.167 HD
ATOM     69  C   UNL A   1      44.009  29.211  32.441  1.00  0.00     0.074 A 
ATOM     70  C   UNL A   1      44.614  29.769  31.238  1.00  0.00     0.031 C 
ATOM     71  C   UNL A   1      44.262  28.069  33.144  1.00  0.00     0.031 A 
BRANCH  58  72
ATOM     72  C   UNL A   1      47.134  26.620  28.714  1.00  0.00    -0.014 A 
ATOM     73  C   UNL A   1      48.090  25.877  27.984  1.00  0.00     0.009 A 
ATOM     74  C   UNL A   1      47.097  28.001  28.482  1.00  0.00     0.009 A 
ATOM     75  C   UNL A   1      48.992  26.478  27.108  1.00  0.00     0.001 A 
ATOM     76  C   UNL A   1      47.967  28.601  27.563  1.00  0.00     0.001 A 
ATOM     77  C   UNL A   1      48.918  27.842  26.884  1.00  0.00     0.000 A 
ENDBRANCH  58  72
BRANCH  59  78
ATOM     78  C   UNL A   1      40.729  31.928  30.441  1.00  0.00    -0.014 A 
ATOM     79  C   UNL A   1      41.602  32.935  29.993  1.00  0.00     0.009 A 
ATOM     80  C   UNL A   1      39.412  32.313  30.754  1.00  0.00     0.009 A 
ATOM     81  C   UNL A   1      41.197  34.270  29.888  1.00  0.00     0.001 A 
ATOM     82  C   UNL A   1      39.008  33.655  30.663  1.00  0.00     0.001 A 
ATOM     83  C   UNL A   1      39.905  34.633  30.242  1.00  0.00     0.000 A 
ENDBRANCH  59  78
BRANCH  71  84
ATOM     84  C   UNL A   1      43.375  27.739  34.324  1.00  0.00    -0.014 A 
ATOM     85  C   UNL A   1      43.826  28.079  35.610  1.00  0.00     0.009 A 
ATOM     86  C   UNL A   1      42.207  26.963  34.217  1.00  0.00     0.009 A 
ATOM     87  C   UNL A   1      43.142  27.649  36.750  1.00  0.00     0.001 A 
ATOM     88  C   UNL A   1      41.505  26.559  35.357  1.00  0.00     0.001 A 
ATOM     89  C   UNL A   1      41.980  26.892  36.623  1.00  0.00     0.000 A 
ENDBRANCH  71  84
ENDBRANCH  45  46
ENDBRANCH  38  40
ENDBRANCH  37  38
ENDBRANCH  36  37
ENDBRANCH  35  36
ENDBRANCH  34  35
ENDBRANCH  33  34
ENDBRANCH  32  33
ENDBRANCH  31  32
ENDBRANCH   1  31
TORSDOF 24
ENDMDL
MODEL 2
REMARK VINA RESULT:      -8.0      1.867      2.558
REMARK SMILES Cc1c(CC(=O)OCCOCCOCCOCCOC(=O)c2ccc(-c3c4nc(c(-c5ccccc5)c5ccc([nH]5)c(-c5ccccc5)c5nc(c(-c6ccccc6)c6ccc3[nH]6)C=C5)C=C4)cc2)c2cc(O)ccc2n1C(=O)c1ccc(Cl)cc1
REMARK SMILES IDX 12 1 11 2 10 3 9 4 8 5 7 6 5 7 6 8 4 9 3 10 1 11 2 12 77 13
REMARK SMILES IDX 70 14 76 15 71 16 75 17 72 18 74 19 78 20 79 21 80 22 81 23
REMARK SMILES IDX 86 24 82 25 85 26 83 27 84 28 73 29 13 31 14 32 15 33 16 34
REMARK SMILES IDX 17 35 18 36 19 37 20 38 21 39 22 40 23 41 69 42 24 43 68 44
REMARK SMILES IDX 25 45 26 46 27 47 62 48 28 49 67 50 61 51 63 52 29 53 66 54
REMARK SMILES IDX 60 55 59 56 30 58 52 59 37 60 51 61 38 62 41 63 50 64 64 65
REMARK SMILES IDX 39 66 40 67 49 69 65 70 42 71 31 72 32 73 36 74 33 75 35 76
REMARK SMILES IDX 34 77 53 78 54 79 58 80 55 81 57 82 56 83 43 84 44 85 48 86
REMARK SMILES IDX 45 87 47 88 46 89
REMARK H PARENT 73 30 63 57 41 68
REMARK Flexibility Score: inf
ROOT
ATOM      1  C   UNL A   1      32.630  26.863  25.074  1.00  0.00     0.188 C 
ENDROOT
BRANCH   1   2
ATOM      2  C   UNL A   1      33.486  27.125  26.309  1.00  0.00     0.188 C 
BRANCH   2   3
ATOM      3  O   UNL A   1      34.382  28.222  26.429  1.00  0.00    -0.376 OA
BRANCH   3   4
ATOM      4  C   UNL A   1      33.957  29.545  26.657  1.00  0.00     0.202 C 
BRANCH   4   5
ATOM      5  C   UNL A   1      34.616  30.310  27.822  1.00  0.00     0.261 C 
BRANCH   5   6
ATOM      6  O   UNL A   1      34.548  31.748  27.760  1.00  0.00    -0.463 OA
BRANCH   6   7
ATOM      7  C   UNL A   1      35.088  32.429  28.802  1.00  0.00     0.310 C 
ATOM      8  O   UNL A   1      35.829  33.400  28.655  1.00  0.00    -0.252 OA
BRANCH   7   9
ATOM      9  C   UNL A   1      34.734  31.924  30.199  1.00  0.00     0.160 C 
BRANCH   9  10
ATOM     10  C   UNL A   1      35.106  32.711  31.444  1.00  0.00    -0.008 A 
ATOM     11  C   UNL A   1      36.658  30.994  32.576  1.00  0.00     0.065 C 
ATOM     12  C   UNL A   1      35.940  32.302  32.480  1.00  0.00     0.028 A 
ATOM     13  N   UNL A   1      36.062  33.340  33.422  1.00  0.00    -0.280 N 
ATOM     14  C   UNL A   1      34.752  34.072  31.726  1.00  0.00     0.008 A 
ATOM     15  C   UNL A   1      35.208  34.380  33.015  1.00  0.00     0.057 A 
ATOM     16  C   UNL A   1      33.991  35.044  31.025  1.00  0.00     0.056 A 
ATOM     17  C   UNL A   1      34.810  35.586  33.637  1.00  0.00     0.031 A 
ATOM     18  C   UNL A   1      33.553  36.192  31.688  1.00  0.00     0.116 A 
ATOM     19  C   UNL A   1      33.951  36.467  32.980  1.00  0.00     0.048 A 
BRANCH  13  20
ATOM     20  C   UNL A   1      36.927  33.364  34.561  1.00  0.00     0.262 C 
ATOM     21  O   UNL A   1      36.459  33.156  35.679  1.00  0.00    -0.268 OA
BRANCH  20  22
ATOM     22  C   UNL A   1      38.387  33.569  34.508  1.00  0.00     0.040 A 
ATOM     23  C   UNL A   1      39.252  32.517  34.837  1.00  0.00     0.015 A 
ATOM     24  C   UNL A   1      38.887  34.834  34.182  1.00  0.00     0.015 A 
ATOM     25  C   UNL A   1      40.627  32.760  34.913  1.00  0.00     0.021 A 
ATOM     26  C   UNL A   1      40.264  35.067  34.253  1.00  0.00     0.021 A 
ATOM     27  C   UNL A   1      41.124  34.036  34.636  1.00  0.00     0.041 A 
ATOM     28  Cl  UNL A   1      42.808  34.348  34.795  1.00  0.00    -0.084 Cl
ENDBRANCH  20  22
ENDBRANCH  13  20
BRANCH  18  29
ATOM     29  O   UNL A   1      32.639  36.983  31.056  1.00  0.00    -0.508 OA
ATOM     30  H   UNL A   1      32.095  36.626  30.383  1.00  0.00     0.293 HD
ENDBRANCH  18  29
ENDBRANCH   9  10
ENDBRANCH   7   9
ENDBRANCH   6   7
ENDBRANCH   5   6
ENDBRANCH   4   5
ENDBRANCH   3   4
ENDBRANCH   2   3
ENDBRANCH   1   2
BRANCH   1  31
ATOM     31  O   UNL A   1      31.388  26.220  25.093  1.00  0.00    -0.377 OA
BRANCH  31  32
ATOM     32  C   UNL A   1      31.262  24.975  24.496  1.00  0.00     0.188 C 
BRANCH  32  33
ATOM     33  C   UNL A   1      31.365  23.815  25.479  1.00  0.00     0.188 C 
BRANCH  33  34
ATOM     34  O   UNL A   1      32.610  23.410  26.048  1.00  0.00    -0.376 OA
BRANCH  34  35
ATOM     35  C   UNL A   1      33.291  22.242  25.607  1.00  0.00     0.202 C 
BRANCH  35  36
ATOM     36  C   UNL A   1      34.693  22.417  24.992  1.00  0.00     0.261 C 
BRANCH  36  37
ATOM     37  O   UNL A   1      35.744  21.871  25.794  1.00  0.00    -0.460 OA
BRANCH  37  38
ATOM     38  C   UNL A   1      36.988  21.827  25.257  1.00  0.00     0.338 C 
ATOM     39  O   UNL A   1      37.314  21.458  24.141  1.00  0.00    -0.246 OA
BRANCH  38  40
ATOM     40  C   UNL A   1      37.823  22.652  26.151  1.00  0.00     0.060 A 
ATOM     41  C   UNL A   1      37.512  23.994  26.401  1.00  0.00     0.016 A 
ATOM     42  C   UNL A   1      39.100  22.143  26.422  1.00  0.00     0.016 A 
ATOM     43  C   UNL A   1      38.534  24.857  26.799  1.00  0.00     0.010 A 
ATOM     44  C   UNL A   1      40.122  23.012  26.787  1.00  0.00     0.010 A 
ATOM     45  C   UNL A   1      39.851  24.377  26.935  1.00  0.00    -0.014 A 
BRANCH  45  46
ATOM     46  C   UNL A   1      40.858  25.260  27.533  1.00  0.00     0.031 A 
ATOM     47  C   UNL A   1      42.150  25.204  26.802  1.00  0.00     0.074 A 
ATOM     48  C   UNL A   1      40.656  26.196  28.486  1.00  0.00     0.049 A 
ATOM     49  N   UNL A   1      43.335  25.002  27.274  1.00  0.00    -0.248 NA
ATOM     50  C   UNL A   1      42.080  25.275  25.329  1.00  0.00     0.031 C 
ATOM     51  C   UNL A   1      39.382  26.584  29.090  1.00  0.00     0.029 A 
ATOM     52  N   UNL A   1      41.544  27.094  29.028  1.00  0.00    -0.354 N 
ATOM     53  C   UNL A   1      44.179  25.071  26.171  1.00  0.00     0.074 A 
ATOM     54  C   UNL A   1      43.350  25.077  24.997  1.00  0.00     0.031 C 
ATOM     55  C   UNL A   1      39.539  27.751  29.751  1.00  0.00     0.029 A 
ATOM     56  C   UNL A   1      40.930  28.166  29.669  1.00  0.00     0.049 A 
ATOM     57  H   UNL A   1      42.521  26.989  28.968  1.00  0.00     0.167 HD
ATOM     58  C   UNL A   1      45.500  25.361  26.280  1.00  0.00     0.031 A 
ATOM     59  C   UNL A   1      41.487  29.355  30.018  1.00  0.00     0.031 A 
ATOM     60  C   UNL A   1      46.017  25.105  27.592  1.00  0.00     0.049 A 
ATOM     61  C   UNL A   1      42.958  29.197  30.039  1.00  0.00     0.074 A 
ATOM     62  C   UNL A   1      46.104  23.980  28.386  1.00  0.00     0.029 A 
ATOM     63  N   UNL A   1      46.241  26.178  28.415  1.00  0.00    -0.354 N 
ATOM     64  N   UNL A   1      43.606  28.514  30.935  1.00  0.00    -0.248 NA
ATOM     65  C   UNL A   1      43.718  29.538  28.845  1.00  0.00     0.031 C 
ATOM     66  C   UNL A   1      45.955  24.448  29.719  1.00  0.00     0.029 A 
ATOM     67  C   UNL A   1      45.815  25.837  29.674  1.00  0.00     0.049 A 
ATOM     68  H   UNL A   1      46.635  27.041  28.150  1.00  0.00     0.167 HD
ATOM     69  C   UNL A   1      44.678  27.967  30.249  1.00  0.00     0.074 A 
ATOM     70  C   UNL A   1      44.776  28.742  29.019  1.00  0.00     0.031 C 
ATOM     71  C   UNL A   1      45.194  26.755  30.607  1.00  0.00     0.031 A 
BRANCH  58  72
ATOM     72  C   UNL A   1      46.203  26.206  25.254  1.00  0.00    -0.014 A 
ATOM     73  C   UNL A   1      45.823  27.538  24.977  1.00  0.00     0.009 A 
ATOM     74  C   UNL A   1      47.413  25.766  24.703  1.00  0.00     0.009 A 
ATOM     75  C   UNL A   1      46.580  28.375  24.158  1.00  0.00     0.001 A 
ATOM     76  C   UNL A   1      48.202  26.620  23.922  1.00  0.00     0.001 A 
ATOM     77  C   UNL A   1      47.781  27.919  23.643  1.00  0.00     0.000 A 
ENDBRANCH  58  72
BRANCH  59  78
ATOM     78  C   UNL A   1      40.846  30.694  30.087  1.00  0.00    -0.014 A 
ATOM     79  C   UNL A   1      41.407  31.719  30.870  1.00  0.00     0.009 A 
ATOM     80  C   UNL A   1      39.546  30.904  29.592  1.00  0.00     0.009 A 
ATOM     81  C   UNL A   1      40.701  32.888  31.171  1.00  0.00     0.001 A 
ATOM     82  C   UNL A   1      38.830  32.069  29.905  1.00  0.00     0.001 A 
ATOM     83  C   UNL A   1      39.403  33.054  30.705  1.00  0.00     0.000 A 
ENDBRANCH  59  78
BRANCH  71  84
ATOM     84  C   UNL A   1      44.823  26.186  31.959  1.00  0.00    -0.014 A 
ATOM     85  C   UNL A   1      45.360  26.793  33.106  1.00  0.00     0.009 A 
ATOM     86  C   UNL A   1      44.107  24.986  32.119  1.00  0.00     0.009 A 
ATOM     87  C   UNL A   1      45.200  26.216  34.368  1.00  0.00     0.001 A 
ATOM     88  C   UNL A   1      43.920  24.424  33.387  1.00  0.00     0.001 A 
ATOM     89  C   UNL A   1      44.478  25.033  34.508  1.00  0.00     0.000 A 
ENDBRANCH  71  84
ENDBRANCH  45  46
ENDBRANCH  38  40
ENDBRANCH  37  38
ENDBRANCH  36  37
ENDBRANCH  35  36
ENDBRANCH  34  35
ENDBRANCH  33  34
ENDBRANCH  32  33
ENDBRANCH  31  32
ENDBRANCH   1  31
TORSDOF 24
ENDMDL
MODEL 3
REMARK VINA RESULT:      -7.9      4.251     10.374
REMARK SMILES Cc1c(CC(=O)OCCOCCOCCOCCOC(=O)c2ccc(-c3c4nc(c(-c5ccccc5)c5ccc([nH]5)c(-c5ccccc5)c5nc(c(-c6ccccc6)c6ccc3[nH]6)C=C5)C=C4)cc2)c2cc(O)ccc2n1C(=O)c1ccc(Cl)cc1
REMARK SMILES IDX 12 1 11 2 10 3 9 4 8 5 7 6 5 7 6 8 4 9 3 10 1 11 2 12 77 13
REMARK SMILES IDX 70 14 76 15 71 16 75 17 72 18 74 19 78 20 79 21 80 22 81 23
REMARK SMILES IDX 86 24 82 25 85 26 83 27 84 28 73 29 13 31 14 32 15 33 16 34
REMARK SMILES IDX 17 35 18 36 19 37 20 38 21 39 22 40 23 41 69 42 24 43 68 44
REMARK SMILES IDX 25 45 26 46 27 47 62 48 28 49 67 50 61 51 63 52 29 53 66 54
REMARK SMILES IDX 60 55 59 56 30 58 52 59 37 60 51 61 38 62 41 63 50 64 64 65
REMARK SMILES IDX 39 66 40 67 49 69 65 70 42 71 31 72 32 73 36 74 33 75 35 76
REMARK SMILES IDX 34 77 53 78 54 79 58 80 55 81 57 82 56 83 43 84 44 85 48 86
REMARK SMILES IDX 45 87 47 88 46 89
REMARK H PARENT 73 30 63 57 41 68
REMARK Flexibility Score: inf
ROOT
ATOM      1  C   UNL A   1      42.324  20.433  26.884  1.00  0.00     0.188 C 
ENDROOT
BRANCH   1   2
ATOM      2  C   UNL A   1      40.931  21.042  27.012  1.00  0.00     0.188 C 
BRANCH   2   3
ATOM      3  O   UNL A   1      39.975  21.053  25.960  1.00  0.00    -0.376 OA
BRANCH   3   4
ATOM      4  C   UNL A   1      38.688  21.608  26.091  1.00  0.00     0.202 C 
BRANCH   4   5
ATOM      5  C   UNL A   1      37.854  21.774  24.805  1.00  0.00     0.261 C 
BRANCH   5   6
ATOM      6  O   UNL A   1      37.116  23.005  24.678  1.00  0.00    -0.463 OA
BRANCH   6   7
ATOM      7  C   UNL A   1      36.845  23.675  25.827  1.00  0.00     0.310 C 
ATOM      8  O   UNL A   1      37.722  24.072  26.593  1.00  0.00    -0.252 OA
BRANCH   7   9
ATOM      9  C   UNL A   1      35.369  23.915  26.140  1.00  0.00     0.160 C 
BRANCH   9  10
ATOM     10  C   UNL A   1      34.309  23.844  25.054  1.00  0.00    -0.008 A 
ATOM     11  C   UNL A   1      33.929  26.364  24.675  1.00  0.00     0.065 C 
ATOM     12  C   UNL A   1      33.680  24.912  24.421  1.00  0.00     0.028 A 
ATOM     13  N   UNL A   1      32.794  24.423  23.443  1.00  0.00    -0.280 N 
ATOM     14  C   UNL A   1      33.841  22.656  24.400  1.00  0.00     0.008 A 
ATOM     15  C   UNL A   1      32.798  23.020  23.537  1.00  0.00     0.057 A 
ATOM     16  C   UNL A   1      34.155  21.280  24.542  1.00  0.00     0.056 A 
ATOM     17  C   UNL A   1      32.006  22.021  22.923  1.00  0.00     0.031 A 
ATOM     18  C   UNL A   1      33.314  20.315  23.984  1.00  0.00     0.116 A 
ATOM     19  C   UNL A   1      32.249  20.673  23.184  1.00  0.00     0.048 A 
BRANCH  13  20
ATOM     20  C   UNL A   1      32.057  25.196  22.493  1.00  0.00     0.262 C 
ATOM     21  O   UNL A   1      32.284  25.057  21.293  1.00  0.00    -0.268 OA
BRANCH  20  22
ATOM     22  C   UNL A   1      30.974  26.140  22.832  1.00  0.00     0.040 A 
ATOM     23  C   UNL A   1      29.894  25.712  23.616  1.00  0.00     0.015 A 
ATOM     24  C   UNL A   1      31.015  27.440  22.316  1.00  0.00     0.015 A 
ATOM     25  C   UNL A   1      28.811  26.573  23.818  1.00  0.00     0.021 A 
ATOM     26  C   UNL A   1      29.932  28.298  22.529  1.00  0.00     0.021 A 
ATOM     27  C   UNL A   1      28.829  27.855  23.262  1.00  0.00     0.041 A 
ATOM     28  Cl  UNL A   1      27.467  28.888  23.456  1.00  0.00    -0.084 Cl
ENDBRANCH  20  22
ENDBRANCH  13  20
BRANCH  18  29
ATOM     29  O   UNL A   1      33.518  19.012  24.334  1.00  0.00    -0.508 OA
ATOM     30  H   UNL A   1      32.817  18.510  24.701  1.00  0.00     0.293 HD
ENDBRANCH  18  29
ENDBRANCH   9  10
ENDBRANCH   7   9
ENDBRANCH   6   7
ENDBRANCH   5   6
ENDBRANCH   4   5
ENDBRANCH   3   4
ENDBRANCH   2   3
ENDBRANCH   1   2
BRANCH   1  31
ATOM     31  O   UNL A   1      42.631  19.316  26.100  1.00  0.00    -0.377 OA
BRANCH  31  32
ATOM     32  C   UNL A   1      43.486  19.465  25.018  1.00  0.00     0.188 C 
BRANCH  32  33
ATOM     33  C   UNL A   1      44.586  20.494  25.248  1.00  0.00     0.188 C 
BRANCH  33  34
ATOM     34  O   UNL A   1      44.310  21.801  25.751  1.00  0.00    -0.376 OA
BRANCH  34  35
ATOM     35  C   UNL A   1      45.323  22.608  26.340  1.00  0.00     0.202 C 
BRANCH  35  36
ATOM     36  C   UNL A   1      45.208  22.918  27.845  1.00  0.00     0.261 C 
BRANCH  36  37
ATOM     37  O   UNL A   1      44.462  24.104  28.131  1.00  0.00    -0.460 OA
BRANCH  37  38
ATOM     38  C   UNL A   1      45.104  25.114  28.767  1.00  0.00     0.338 C 
ATOM     39  O   UNL A   1      46.291  25.395  28.728  1.00  0.00    -0.246 OA
BRANCH  38  40
ATOM     40  C   UNL A   1      44.036  26.024  29.224  1.00  0.00     0.060 A 
ATOM     41  C   UNL A   1      42.834  26.147  28.515  1.00  0.00     0.016 A 
ATOM     42  C   UNL A   1      44.428  26.994  30.155  1.00  0.00     0.016 A 
ATOM     43  C   UNL A   1      42.094  27.321  28.648  1.00  0.00     0.010 A 
ATOM     44  C   UNL A   1      43.704  28.177  30.260  1.00  0.00     0.010 A 
ATOM     45  C   UNL A   1      42.560  28.360  29.476  1.00  0.00    -0.014 A 
BRANCH  45  46
ATOM     46  C   UNL A   1      41.670  29.496  29.739  1.00  0.00     0.031 A 
ATOM     47  C   UNL A   1      42.348  30.798  29.507  1.00  0.00     0.074 A 
ATOM     48  C   UNL A   1      40.337  29.453  29.954  1.00  0.00     0.049 A 
ATOM     49  N   UNL A   1      42.426  31.818  30.295  1.00  0.00    -0.248 NA
ATOM     50  C   UNL A   1      43.136  30.921  28.265  1.00  0.00     0.031 C 
ATOM     51  C   UNL A   1      39.471  28.275  29.910  1.00  0.00     0.029 A 
ATOM     52  N   UNL A   1      39.449  30.486  30.133  1.00  0.00    -0.354 N 
ATOM     53  C   UNL A   1      43.147  32.770  29.583  1.00  0.00     0.074 A 
ATOM     54  C   UNL A   1      43.692  32.116  28.425  1.00  0.00     0.031 C 
ATOM     55  C   UNL A   1      38.181  28.671  29.857  1.00  0.00     0.029 A 
ATOM     56  C   UNL A   1      38.122  30.123  29.920  1.00  0.00     0.049 A 
ATOM     57  H   UNL A   1      39.725  31.396  30.389  1.00  0.00     0.167 HD
ATOM     58  C   UNL A   1      43.065  34.098  29.849  1.00  0.00     0.031 A 
ATOM     59  C   UNL A   1      37.060  30.943  29.705  1.00  0.00     0.031 A 
ATOM     60  C   UNL A   1      42.590  34.369  31.174  1.00  0.00     0.049 A 
ATOM     61  C   UNL A   1      37.411  32.300  30.178  1.00  0.00     0.074 A 
ATOM     62  C   UNL A   1      43.040  34.048  32.439  1.00  0.00     0.029 A 
ATOM     63  N   UNL A   1      41.291  34.784  31.318  1.00  0.00    -0.354 N 
ATOM     64  N   UNL A   1      37.539  32.626  31.430  1.00  0.00    -0.248 NA
ATOM     65  C   UNL A   1      37.955  33.257  29.226  1.00  0.00     0.031 C 
ATOM     66  C   UNL A   1      41.867  33.882  33.224  1.00  0.00     0.029 A 
ATOM     67  C   UNL A   1      40.763  34.138  32.408  1.00  0.00     0.049 A 
ATOM     68  H   UNL A   1      40.821  35.429  30.742  1.00  0.00     0.167 HD
ATOM     69  C   UNL A   1      38.547  33.576  31.442  1.00  0.00     0.074 A 
ATOM     70  C   UNL A   1      38.659  34.026  30.060  1.00  0.00     0.031 C 
ATOM     71  C   UNL A   1      39.388  33.692  32.510  1.00  0.00     0.031 A 
BRANCH  58  72
ATOM     72  C   UNL A   1      43.101  35.120  28.748  1.00  0.00    -0.014 A 
ATOM     73  C   UNL A   1      41.928  35.651  28.165  1.00  0.00     0.009 A 
ATOM     74  C   UNL A   1      44.309  35.752  28.425  1.00  0.00     0.009 A 
ATOM     75  C   UNL A   1      41.957  36.721  27.272  1.00  0.00     0.001 A 
ATOM     76  C   UNL A   1      44.336  36.860  27.569  1.00  0.00     0.001 A 
ATOM     77  C   UNL A   1      43.163  37.337  26.987  1.00  0.00     0.000 A 
ENDBRANCH  58  72
BRANCH  59  78
ATOM     78  C   UNL A   1      35.849  30.694  28.881  1.00  0.00    -0.014 A 
ATOM     79  C   UNL A   1      35.765  29.561  28.051  1.00  0.00     0.009 A 
ATOM     80  C   UNL A   1      34.871  31.690  28.707  1.00  0.00     0.009 A 
ATOM     81  C   UNL A   1      34.773  29.435  27.074  1.00  0.00     0.001 A 
ATOM     82  C   UNL A   1      33.884  31.572  27.716  1.00  0.00     0.001 A 
ATOM     83  C   UNL A   1      33.844  30.450  26.893  1.00  0.00     0.000 A 
ENDBRANCH  59  78
BRANCH  71  84
ATOM     84  C   UNL A   1      38.997  33.024  33.810  1.00  0.00    -0.014 A 
ATOM     85  C   UNL A   1      38.250  33.766  34.740  1.00  0.00     0.009 A 
ATOM     86  C   UNL A   1      39.482  31.765  34.206  1.00  0.00     0.009 A 
ATOM     87  C   UNL A   1      38.005  33.274  36.024  1.00  0.00     0.001 A 
ATOM     88  C   UNL A   1      39.211  31.258  35.481  1.00  0.00     0.001 A 
ATOM     89  C   UNL A   1      38.484  32.019  36.393  1.00  0.00     0.000 A 
ENDBRANCH  71  84
ENDBRANCH  45  46
ENDBRANCH  38  40
ENDBRANCH  37  38
ENDBRANCH  36  37
ENDBRANCH  35  36
ENDBRANCH  34  35
ENDBRANCH  33  34
ENDBRANCH  32  33
ENDBRANCH  31  32
ENDBRANCH   1  31
TORSDOF 24
ENDMDL
