MODEL 1
REMARK VINA RESULT:     -10.0      0.000      0.000
REMARK SMILES COc1ccc([C@H]2CC(c3ccc(S(C)(=O)=O)cc3)=NN2c2ccc(C(=O)OCCOCCOCCOCCOC(=O)c3ccc(-c4c5nc(c(-c6ccccc6)c6ccc([nH]6)c(-c6ccccc6)c6nc(c(-c7ccccc7)c7ccc4[nH]7)C=C6)C=C5)cc3)cc2)cc1
REMARK SMILES IDX 33 1 32 2 31 3 30 4 29 5 28 6 26 7 27 8 25 9 22 10 23 11
REMARK SMILES IDX 92 12 24 13 91 14 21 15 7 16 8 17 9 18 20 19 6 20 3 21 4 22
REMARK SMILES IDX 94 23 5 24 93 25 2 26 1 27 10 28 11 29 19 30 12 31 18 32
REMARK SMILES IDX 13 33 14 34 15 35 16 36 17 37 34 38 35 39 36 40 37 41 38 42
REMARK SMILES IDX 39 43 40 44 41 45 42 46 43 47 44 48 90 49 45 50 89 51 46 52
REMARK SMILES IDX 47 53 48 54 83 55 49 56 88 57 82 58 84 59 50 60 87 61 81 62
REMARK SMILES IDX 80 63 51 65 73 66 58 67 72 68 59 69 62 70 71 71 85 72 60 73
REMARK SMILES IDX 61 74 70 76 86 77 63 78 52 79 53 80 57 81 54 82 56 83 55 84
REMARK SMILES IDX 74 85 75 86 79 87 76 88 78 89 77 90 64 91 65 92 69 93 66 94
REMARK SMILES IDX 68 95 67 96
REMARK H PARENT 84 64 62 75
REMARK Flexibility Score: inf
ROOT
ATOM      1  C   UNL A   1      40.059  29.113  29.618  1.00  0.00     0.188 C 
ENDROOT
BRANCH   1   2
ATOM      2  C   UNL A   1      39.417  30.518  29.631  1.00  0.00     0.188 C 
BRANCH   2   3
ATOM      3  O   UNL A   1      38.006  30.509  29.494  1.00  0.00    -0.376 OA
BRANCH   3   4
ATOM      4  C   UNL A   1      37.250  31.536  30.103  1.00  0.00     0.202 C 
BRANCH   4   5
ATOM      5  C   UNL A   1      35.856  31.853  29.542  1.00  0.00     0.261 C 
BRANCH   5   6
ATOM      6  O   UNL A   1      35.271  30.850  28.704  1.00  0.00    -0.460 OA
BRANCH   6   7
ATOM      7  C   UNL A   1      34.158  31.202  28.024  1.00  0.00     0.338 C 
ATOM      8  O   UNL A   1      33.746  32.334  27.843  1.00  0.00    -0.246 OA
BRANCH   7   9
ATOM      9  C   UNL A   1      33.615  29.993  27.362  1.00  0.00     0.060 A 
ATOM     10  C   UNL A   1      32.526  27.673  26.211  1.00  0.00     0.060 A 
ATOM     11  C   UNL A   1      31.689  28.664  26.736  1.00  0.00     0.029 A 
ATOM     12  C   UNL A   1      33.909  27.913  26.177  1.00  0.00     0.029 A 
ATOM     13  C   UNL A   1      32.229  29.802  27.342  1.00  0.00     0.018 A 
ATOM     14  C   UNL A   1      34.455  29.074  26.731  1.00  0.00     0.018 A 
BRANCH  10  15
ATOM     15  N   UNL A   1      32.019  26.429  25.846  1.00  0.00    -0.257 N 
ATOM     16  C   UNL A   1      30.657  26.290  25.322  1.00  0.00     0.144 C 
ATOM     17  C   UNL A   1      30.622  24.831  24.862  1.00  0.00     0.091 C 
ATOM     18  C   UNL A   1      32.038  24.422  25.162  1.00  0.00     0.071 C 
ATOM     19  N   UNL A   1      32.806  25.332  25.675  1.00  0.00    -0.176 NA
BRANCH  16  20
ATOM     20  C   UNL A   1      30.347  27.276  24.202  1.00  0.00    -0.023 A 
ATOM     21  C   UNL A   1      29.712  29.102  22.139  1.00  0.00     0.118 A 
ATOM     22  C   UNL A   1      28.701  28.460  22.856  1.00  0.00     0.047 A 
ATOM     23  C   UNL A   1      31.043  28.859  22.475  1.00  0.00     0.047 A 
ATOM     24  C   UNL A   1      29.011  27.552  23.871  1.00  0.00     0.010 A 
ATOM     25  C   UNL A   1      31.356  27.959  23.504  1.00  0.00     0.010 A 
BRANCH  21  26
ATOM     26  O   UNL A   1      29.277  29.971  21.178  1.00  0.00    -0.497 OA
ATOM     27  C   UNL A   1      28.775  31.220  21.640  1.00  0.00     0.278 C 
ENDBRANCH  21  26
ENDBRANCH  16  20
BRANCH  18  28
ATOM     28  C   UNL A   1      32.460  23.035  24.923  1.00  0.00    -0.002 A 
ATOM     29  C   UNL A   1      33.175  22.365  25.920  1.00  0.00     0.011 A 
ATOM     30  C   UNL A   1      32.092  22.382  23.743  1.00  0.00     0.011 A 
ATOM     31  C   UNL A   1      33.510  21.020  25.747  1.00  0.00     0.021 A 
ATOM     32  C   UNL A   1      32.448  21.045  23.557  1.00  0.00     0.021 A 
ATOM     33  C   UNL A   1      33.154  20.370  24.560  1.00  0.00     0.067 A 
BRANCH  33  34
ATOM     34  S   UNL A   1      33.560  18.650  24.352  1.00  0.00     0.175 S 
ATOM     35  C   UNL A   1      32.682  17.827  25.654  1.00  0.00     0.163 C 
ATOM     36  O   UNL A   1      32.993  18.239  23.083  1.00  0.00    -0.224 OA
ATOM     37  O   UNL A   1      34.979  18.500  24.621  1.00  0.00    -0.224 OA
ENDBRANCH  33  34
ENDBRANCH  18  28
ENDBRANCH  10  15
ENDBRANCH   7   9
ENDBRANCH   6   7
ENDBRANCH   5   6
ENDBRANCH   4   5
ENDBRANCH   3   4
ENDBRANCH   2   3
ENDBRANCH   1   2
BRANCH   1  38
ATOM     38  O   UNL A   1      41.263  28.898  28.891  1.00  0.00    -0.377 OA
BRANCH  38  39
ATOM     39  C   UNL A   1      41.219  28.662  27.487  1.00  0.00     0.188 C 
BRANCH  39  40
ATOM     40  C   UNL A   1      40.297  27.581  26.876  1.00  0.00     0.188 C 
BRANCH  40  41
ATOM     41  O   UNL A   1      39.773  26.655  27.810  1.00  0.00    -0.376 OA
BRANCH  41  42
ATOM     42  C   UNL A   1      40.525  25.487  28.080  1.00  0.00     0.202 C 
BRANCH  42  43
ATOM     43  C   UNL A   1      41.256  24.829  26.903  1.00  0.00     0.261 C 
BRANCH  43  44
ATOM     44  O   UNL A   1      41.888  23.567  27.170  1.00  0.00    -0.460 OA
BRANCH  44  45
ATOM     45  C   UNL A   1      43.053  23.308  26.545  1.00  0.00     0.338 C 
ATOM     46  O   UNL A   1      43.360  22.295  25.935  1.00  0.00    -0.246 OA
BRANCH  45  47
ATOM     47  C   UNL A   1      43.850  24.551  26.563  1.00  0.00     0.060 A 
ATOM     48  C   UNL A   1      43.986  25.300  25.387  1.00  0.00     0.016 A 
ATOM     49  C   UNL A   1      44.449  24.981  27.750  1.00  0.00     0.016 A 
ATOM     50  C   UNL A   1      44.748  26.469  25.388  1.00  0.00     0.010 A 
ATOM     51  C   UNL A   1      45.230  26.138  27.744  1.00  0.00     0.010 A 
ATOM     52  C   UNL A   1      45.411  26.868  26.555  1.00  0.00    -0.014 A 
BRANCH  52  53
ATOM     53  C   UNL A   1      46.448  27.927  26.493  1.00  0.00     0.031 A 
ATOM     54  C   UNL A   1      46.001  29.363  26.547  1.00  0.00     0.074 A 
ATOM     55  C   UNL A   1      47.755  27.628  26.402  1.00  0.00     0.049 A 
ATOM     56  N   UNL A   1      46.710  30.458  26.455  1.00  0.00    -0.248 NA
ATOM     57  C   UNL A   1      44.557  29.590  26.725  1.00  0.00     0.031 C 
ATOM     58  C   UNL A   1      48.320  26.282  26.392  1.00  0.00     0.029 A 
ATOM     59  N   UNL A   1      48.847  28.455  26.295  1.00  0.00    -0.354 N 
ATOM     60  C   UNL A   1      45.798  31.502  26.552  1.00  0.00     0.074 A 
ATOM     61  C   UNL A   1      44.485  30.911  26.679  1.00  0.00     0.031 C 
ATOM     62  C   UNL A   1      49.657  26.372  26.275  1.00  0.00     0.029 A 
ATOM     63  C   UNL A   1      50.035  27.781  26.164  1.00  0.00     0.049 A 
ATOM     64  H   UNL A   1      48.783  29.437  26.309  1.00  0.00     0.167 HD
ATOM     65  C   UNL A   1      46.033  32.836  26.543  1.00  0.00     0.031 A 
ATOM     66  C   UNL A   1      51.282  28.247  25.954  1.00  0.00     0.031 A 
ATOM     67  C   UNL A   1      47.338  33.423  26.397  1.00  0.00     0.049 A 
ATOM     68  C   UNL A   1      51.507  29.735  25.853  1.00  0.00     0.074 A 
ATOM     69  C   UNL A   1      47.682  34.763  26.386  1.00  0.00     0.029 A 
ATOM     70  N   UNL A   1      48.511  32.706  26.224  1.00  0.00    -0.354 N 
ATOM     71  N   UNL A   1      50.643  30.715  25.973  1.00  0.00    -0.248 NA
ATOM     72  C   UNL A   1      52.885  30.179  25.595  1.00  0.00     0.031 C 
ATOM     73  C   UNL A   1      49.055  34.858  26.138  1.00  0.00     0.029 A 
ATOM     74  C   UNL A   1      49.577  33.576  26.072  1.00  0.00     0.049 A 
ATOM     75  H   UNL A   1      48.577  31.723  26.211  1.00  0.00     0.167 HD
ATOM     76  C   UNL A   1      51.377  31.888  25.840  1.00  0.00     0.074 A 
ATOM     77  C   UNL A   1      52.758  31.498  25.645  1.00  0.00     0.031 C 
ATOM     78  C   UNL A   1      50.948  33.174  25.879  1.00  0.00     0.031 A 
BRANCH  65  79
ATOM     79  C   UNL A   1      44.842  33.748  26.648  1.00  0.00    -0.014 A 
ATOM     80  C   UNL A   1      44.484  34.350  27.866  1.00  0.00     0.009 A 
ATOM     81  C   UNL A   1      44.081  34.029  25.503  1.00  0.00     0.009 A 
ATOM     82  C   UNL A   1      43.366  35.184  27.940  1.00  0.00     0.001 A 
ATOM     83  C   UNL A   1      42.984  34.890  25.574  1.00  0.00     0.001 A 
ATOM     84  C   UNL A   1      42.621  35.457  26.793  1.00  0.00     0.000 A 
ENDBRANCH  65  79
BRANCH  66  85
ATOM     85  C   UNL A   1      52.419  27.301  25.799  1.00  0.00    -0.014 A 
ATOM     86  C   UNL A   1      52.758  26.784  24.539  1.00  0.00     0.009 A 
ATOM     87  C   UNL A   1      53.155  26.883  26.920  1.00  0.00     0.009 A 
ATOM     88  C   UNL A   1      53.790  25.851  24.409  1.00  0.00     0.001 A 
ATOM     89  C   UNL A   1      54.207  25.976  26.782  1.00  0.00     0.001 A 
ATOM     90  C   UNL A   1      54.516  25.452  25.529  1.00  0.00     0.000 A 
ENDBRANCH  66  85
BRANCH  78  91
ATOM     91  C   UNL A   1      51.985  34.257  25.756  1.00  0.00    -0.014 A 
ATOM     92  C   UNL A   1      52.625  34.795  26.883  1.00  0.00     0.009 A 
ATOM     93  C   UNL A   1      52.359  34.713  24.481  1.00  0.00     0.009 A 
ATOM     94  C   UNL A   1      53.590  35.795  26.737  1.00  0.00     0.001 A 
ATOM     95  C   UNL A   1      53.349  35.686  24.336  1.00  0.00     0.001 A 
ATOM     96  C   UNL A   1      53.956  36.234  25.464  1.00  0.00     0.000 A 
ENDBRANCH  78  91
ENDBRANCH  52  53
ENDBRANCH  45  47
ENDBRANCH  44  45
ENDBRANCH  43  44
ENDBRANCH  42  43
ENDBRANCH  41  42
ENDBRANCH  40  41
ENDBRANCH  39  40
ENDBRANCH  38  39
ENDBRANCH   1  38
TORSDOF 25
ENDMDL
MODEL 2
REMARK VINA RESULT:      -9.4      5.966     11.004
REMARK SMILES COc1ccc([C@H]2CC(c3ccc(S(C)(=O)=O)cc3)=NN2c2ccc(C(=O)OCCOCCOCCOCCOC(=O)c3ccc(-c4c5nc(c(-c6ccccc6)c6ccc([nH]6)c(-c6ccccc6)c6nc(c(-c7ccccc7)c7ccc4[nH]7)C=C6)C=C5)cc3)cc2)cc1
REMARK SMILES IDX 33 1 32 2 31 3 30 4 29 5 28 6 26 7 27 8 25 9 22 10 23 11
REMARK SMILES IDX 92 12 24 13 91 14 21 15 7 16 8 17 9 18 20 19 6 20 3 21 4 22
REMARK SMILES IDX 94 23 5 24 93 25 2 26 1 27 10 28 11 29 19 30 12 31 18 32
REMARK SMILES IDX 13 33 14 34 15 35 16 36 17 37 34 38 35 39 36 40 37 41 38 42
REMARK SMILES IDX 39 43 40 44 41 45 42 46 43 47 44 48 90 49 45 50 89 51 46 52
REMARK SMILES IDX 47 53 48 54 83 55 49 56 88 57 82 58 84 59 50 60 87 61 81 62
REMARK SMILES IDX 80 63 51 65 73 66 58 67 72 68 59 69 62 70 71 71 85 72 60 73
REMARK SMILES IDX 61 74 70 76 86 77 63 78 52 79 53 80 57 81 54 82 56 83 55 84
REMARK SMILES IDX 74 85 75 86 79 87 76 88 78 89 77 90 64 91 65 92 69 93 66 94
REMARK SMILES IDX 68 95 67 96
REMARK H PARENT 84 64 62 75
REMARK Flexibility Score: inf
ROOT
ATOM      1  C   UNL A   1      32.790  32.886  27.159  1.00  0.00     0.188 C 
ENDROOT
BRANCH   1   2
ATOM      2  C   UNL A   1      33.904  32.513  28.163  1.00  0.00     0.188 C 
BRANCH   2   3
ATOM      3  O   UNL A   1      34.402  33.611  28.908  1.00  0.00    -0.376 OA
BRANCH   3   4
ATOM      4  C   UNL A   1      34.157  34.923  28.442  1.00  0.00     0.202 C 
BRANCH   4   5
ATOM      5  C   UNL A   1      33.254  35.843  29.279  1.00  0.00     0.261 C 
BRANCH   5   6
ATOM      6  O   UNL A   1      32.518  35.213  30.333  1.00  0.00    -0.460 OA
BRANCH   6   7
ATOM      7  C   UNL A   1      32.581  35.798  31.549  1.00  0.00     0.338 C 
ATOM      8  O   UNL A   1      31.809  36.628  31.995  1.00  0.00    -0.246 OA
BRANCH   7   9
ATOM      9  C   UNL A   1      33.636  35.121  32.337  1.00  0.00     0.060 A 
ATOM     10  C   UNL A   1      35.552  33.801  33.913  1.00  0.00     0.060 A 
ATOM     11  C   UNL A   1      34.462  33.099  33.384  1.00  0.00     0.029 A 
ATOM     12  C   UNL A   1      35.721  35.146  33.550  1.00  0.00     0.029 A 
ATOM     13  C   UNL A   1      33.488  33.761  32.631  1.00  0.00     0.018 A 
ATOM     14  C   UNL A   1      34.782  35.804  32.752  1.00  0.00     0.018 A 
BRANCH  10  15
ATOM     15  N   UNL A   1      36.378  33.220  34.870  1.00  0.00    -0.257 N 
ATOM     16  C   UNL A   1      37.358  32.193  34.505  1.00  0.00     0.144 C 
ATOM     17  C   UNL A   1      38.163  32.022  35.795  1.00  0.00     0.091 C 
ATOM     18  C   UNL A   1      37.509  33.066  36.659  1.00  0.00     0.071 C 
ATOM     19  N   UNL A   1      36.544  33.742  36.116  1.00  0.00    -0.176 NA
BRANCH  16  20
ATOM     20  C   UNL A   1      38.221  32.591  33.313  1.00  0.00    -0.023 A 
ATOM     21  C   UNL A   1      39.791  33.288  31.068  1.00  0.00     0.118 A 
ATOM     22  C   UNL A   1      38.926  32.194  31.018  1.00  0.00     0.047 A 
ATOM     23  C   UNL A   1      39.847  34.058  32.228  1.00  0.00     0.047 A 
ATOM     24  C   UNL A   1      38.154  31.843  32.128  1.00  0.00     0.010 A 
ATOM     25  C   UNL A   1      39.062  33.716  33.338  1.00  0.00     0.010 A 
BRANCH  21  26
ATOM     26  O   UNL A   1      40.484  33.530  29.914  1.00  0.00    -0.497 OA
ATOM     27  C   UNL A   1      41.895  33.661  30.044  1.00  0.00     0.278 C 
ENDBRANCH  21  26
ENDBRANCH  16  20
BRANCH  18  28
ATOM     28  C   UNL A   1      37.937  33.227  38.054  1.00  0.00    -0.002 A 
ATOM     29  C   UNL A   1      38.739  34.321  38.393  1.00  0.00     0.011 A 
ATOM     30  C   UNL A   1      37.491  32.335  39.033  1.00  0.00     0.011 A 
ATOM     31  C   UNL A   1      39.085  34.538  39.729  1.00  0.00     0.021 A 
ATOM     32  C   UNL A   1      37.856  32.536  40.366  1.00  0.00     0.021 A 
ATOM     33  C   UNL A   1      38.650  33.637  40.707  1.00  0.00     0.067 A 
BRANCH  33  34
ATOM     34  S   UNL A   1      39.071  33.931  42.411  1.00  0.00     0.175 S 
ATOM     35  C   UNL A   1      38.556  32.459  43.255  1.00  0.00     0.163 C 
ATOM     36  O   UNL A   1      40.517  34.014  42.474  1.00  0.00    -0.224 OA
ATOM     37  O   UNL A   1      38.238  35.019  42.886  1.00  0.00    -0.224 OA
ENDBRANCH  33  34
ENDBRANCH  18  28
ENDBRANCH  10  15
ENDBRANCH   7   9
ENDBRANCH   6   7
ENDBRANCH   5   6
ENDBRANCH   4   5
ENDBRANCH   3   4
ENDBRANCH   2   3
ENDBRANCH   1   2
BRANCH   1  38
ATOM     38  O   UNL A   1      31.604  32.104  27.104  1.00  0.00    -0.377 OA
BRANCH  38  39
ATOM     39  C   UNL A   1      31.611  30.835  26.456  1.00  0.00     0.188 C 
BRANCH  39  40
ATOM     40  C   UNL A   1      32.869  30.304  25.729  1.00  0.00     0.188 C 
BRANCH  40  41
ATOM     41  O   UNL A   1      33.055  28.904  25.819  1.00  0.00    -0.376 OA
BRANCH  41  42
ATOM     42  C   UNL A   1      34.151  28.427  26.578  1.00  0.00     0.202 C 
BRANCH  42  43
ATOM     43  C   UNL A   1      34.765  29.382  27.610  1.00  0.00     0.261 C 
BRANCH  43  44
ATOM     44  O   UNL A   1      36.190  29.313  27.774  1.00  0.00    -0.460 OA
BRANCH  44  45
ATOM     45  C   UNL A   1      36.683  29.485  29.017  1.00  0.00     0.338 C 
ATOM     46  O   UNL A   1      36.071  29.826  30.018  1.00  0.00    -0.246 OA
BRANCH  45  47
ATOM     47  C   UNL A   1      38.081  29.008  29.008  1.00  0.00     0.060 A 
ATOM     48  C   UNL A   1      38.517  28.135  30.013  1.00  0.00     0.016 A 
ATOM     49  C   UNL A   1      38.953  29.415  27.995  1.00  0.00     0.016 A 
ATOM     50  C   UNL A   1      39.839  27.689  30.025  1.00  0.00     0.010 A 
ATOM     51  C   UNL A   1      40.281  28.986  28.021  1.00  0.00     0.010 A 
ATOM     52  C   UNL A   1      40.739  28.149  29.055  1.00  0.00    -0.014 A 
BRANCH  52  53
ATOM     53  C   UNL A   1      42.194  27.921  29.227  1.00  0.00     0.031 A 
ATOM     54  C   UNL A   1      42.943  28.805  30.186  1.00  0.00     0.074 A 
ATOM     55  C   UNL A   1      42.837  26.947  28.560  1.00  0.00     0.049 A 
ATOM     56  N   UNL A   1      44.221  28.835  30.463  1.00  0.00    -0.248 NA
ATOM     57  C   UNL A   1      42.140  29.790  30.928  1.00  0.00     0.031 C 
ATOM     58  C   UNL A   1      42.220  25.994  27.643  1.00  0.00     0.029 A 
ATOM     59  N   UNL A   1      44.169  26.609  28.554  1.00  0.00    -0.354 N 
ATOM     60  C   UNL A   1      44.376  29.848  31.402  1.00  0.00     0.074 A 
ATOM     61  C   UNL A   1      43.069  30.428  31.623  1.00  0.00     0.031 C 
ATOM     62  C   UNL A   1      43.172  25.180  27.154  1.00  0.00     0.029 A 
ATOM     63  C   UNL A   1      44.470  25.582  27.695  1.00  0.00     0.049 A 
ATOM     64  H   UNL A   1      44.842  27.061  29.112  1.00  0.00     0.167 HD
ATOM     65  C   UNL A   1      45.503  30.257  32.031  1.00  0.00     0.031 A 
ATOM     66  C   UNL A   1      45.662  25.045  27.365  1.00  0.00     0.031 A 
ATOM     67  C   UNL A   1      46.806  29.692  31.796  1.00  0.00     0.049 A 
ATOM     68  C   UNL A   1      46.917  25.579  28.008  1.00  0.00     0.074 A 
ATOM     69  C   UNL A   1      48.009  30.030  32.389  1.00  0.00     0.029 A 
ATOM     70  N   UNL A   1      47.076  28.682  30.886  1.00  0.00    -0.354 N 
ATOM     71  N   UNL A   1      47.050  26.518  28.914  1.00  0.00    -0.248 NA
ATOM     72  C   UNL A   1      48.187  24.970  27.586  1.00  0.00     0.031 C 
ATOM     73  C   UNL A   1      49.018  29.270  31.789  1.00  0.00     0.029 A 
ATOM     74  C   UNL A   1      48.432  28.407  30.878  1.00  0.00     0.049 A 
ATOM     75  H   UNL A   1      46.403  28.229  30.328  1.00  0.00     0.167 HD
ATOM     76  C   UNL A   1      48.409  26.588  29.194  1.00  0.00     0.074 A 
ATOM     77  C   UNL A   1      49.058  25.587  28.372  1.00  0.00     0.031 C 
ATOM     78  C   UNL A   1      49.064  27.406  30.055  1.00  0.00     0.031 A 
BRANCH  65  79
ATOM     79  C   UNL A   1      45.380  31.401  32.998  1.00  0.00    -0.014 A 
ATOM     80  C   UNL A   1      45.480  32.736  32.573  1.00  0.00     0.009 A 
ATOM     81  C   UNL A   1      45.133  31.138  34.355  1.00  0.00     0.009 A 
ATOM     82  C   UNL A   1      45.374  33.781  33.493  1.00  0.00     0.001 A 
ATOM     83  C   UNL A   1      44.995  32.186  35.266  1.00  0.00     0.001 A 
ATOM     84  C   UNL A   1      45.126  33.505  34.837  1.00  0.00     0.000 A 
ENDBRANCH  65  79
BRANCH  66  85
ATOM     85  C   UNL A   1      45.737  23.951  26.359  1.00  0.00    -0.014 A 
ATOM     86  C   UNL A   1      46.002  24.233  25.010  1.00  0.00     0.009 A 
ATOM     87  C   UNL A   1      45.513  22.618  26.739  1.00  0.00     0.009 A 
ATOM     88  C   UNL A   1      46.014  23.209  24.060  1.00  0.00     0.001 A 
ATOM     89  C   UNL A   1      45.557  21.592  25.793  1.00  0.00     0.001 A 
ATOM     90  C   UNL A   1      45.797  21.889  24.453  1.00  0.00     0.000 A 
ENDBRANCH  66  85
BRANCH  78  91
ATOM     91  C   UNL A   1      50.551  27.223  30.193  1.00  0.00    -0.014 A 
ATOM     92  C   UNL A   1      51.128  26.741  31.379  1.00  0.00     0.009 A 
ATOM     93  C   UNL A   1      51.386  27.496  29.096  1.00  0.00     0.009 A 
ATOM     94  C   UNL A   1      52.511  26.574  31.474  1.00  0.00     0.001 A 
ATOM     95  C   UNL A   1      52.763  27.293  29.183  1.00  0.00     0.001 A 
ATOM     96  C   UNL A   1      53.327  26.844  30.375  1.00  0.00     0.000 A 
ENDBRANCH  78  91
ENDBRANCH  52  53
ENDBRANCH  45  47
ENDBRANCH  44  45
ENDBRANCH  43  44
ENDBRANCH  42  43
ENDBRANCH  41  42
ENDBRANCH  40  41
ENDBRANCH  39  40
ENDBRANCH  38  39
ENDBRANCH   1  38
TORSDOF 25
ENDMDL
MODEL 3
REMARK VINA RESULT:      -9.3      5.633     11.435
REMARK SMILES COc1ccc([C@H]2CC(c3ccc(S(C)(=O)=O)cc3)=NN2c2ccc(C(=O)OCCOCCOCCOCCOC(=O)c3ccc(-c4c5nc(c(-c6ccccc6)c6ccc([nH]6)c(-c6ccccc6)c6nc(c(-c7ccccc7)c7ccc4[nH]7)C=C6)C=C5)cc3)cc2)cc1
REMARK SMILES IDX 33 1 32 2 31 3 30 4 29 5 28 6 26 7 27 8 25 9 22 10 23 11
REMARK SMILES IDX 92 12 24 13 91 14 21 15 7 16 8 17 9 18 20 19 6 20 3 21 4 22
REMARK SMILES IDX 94 23 5 24 93 25 2 26 1 27 10 28 11 29 19 30 12 31 18 32
REMARK SMILES IDX 13 33 14 34 15 35 16 36 17 37 34 38 35 39 36 40 37 41 38 42
REMARK SMILES IDX 39 43 40 44 41 45 42 46 43 47 44 48 90 49 45 50 89 51 46 52
REMARK SMILES IDX 47 53 48 54 83 55 49 56 88 57 82 58 84 59 50 60 87 61 81 62
REMARK SMILES IDX 80 63 51 65 73 66 58 67 72 68 59 69 62 70 71 71 85 72 60 73
REMARK SMILES IDX 61 74 70 76 86 77 63 78 52 79 53 80 57 81 54 82 56 83 55 84
REMARK SMILES IDX 74 85 75 86 79 87 76 88 78 89 77 90 64 91 65 92 69 93 66 94
REMARK SMILES IDX 68 95 67 96
REMARK H PARENT 84 64 62 75
REMARK Flexibility Score: inf
ROOT
ATOM      1  C   UNL A   1      32.892  33.174  27.248  1.00  0.00     0.188 C 
ENDROOT
BRANCH   1   2
ATOM      2  C   UNL A   1      33.998  32.797  28.259  1.00  0.00     0.188 C 
BRANCH   2   3
ATOM      3  O   UNL A   1      34.437  33.877  29.065  1.00  0.00    -0.376 OA
BRANCH   3   4
ATOM      4  C   UNL A   1      34.196  35.200  28.630  1.00  0.00     0.202 C 
BRANCH   4   5
ATOM      5  C   UNL A   1      33.192  36.058  29.413  1.00  0.00     0.261 C 
BRANCH   5   6
ATOM      6  O   UNL A   1      32.416  35.375  30.403  1.00  0.00    -0.460 OA
BRANCH   6   7
ATOM      7  C   UNL A   1      32.443  35.887  31.654  1.00  0.00     0.338 C 
ATOM      8  O   UNL A   1      31.631  36.652  32.142  1.00  0.00    -0.246 OA
BRANCH   7   9
ATOM      9  C   UNL A   1      33.524  35.211  32.409  1.00  0.00     0.060 A 
ATOM     10  C   UNL A   1      35.487  33.889  33.923  1.00  0.00     0.060 A 
ATOM     11  C   UNL A   1      34.401  33.180  33.396  1.00  0.00     0.029 A 
ATOM     12  C   UNL A   1      35.627  35.245  33.590  1.00  0.00     0.029 A 
ATOM     13  C   UNL A   1      33.404  33.841  32.674  1.00  0.00     0.018 A 
ATOM     14  C   UNL A   1      34.663  35.904  32.822  1.00  0.00     0.018 A 
BRANCH  10  15
ATOM     15  N   UNL A   1      36.339  33.302  34.855  1.00  0.00    -0.257 N 
ATOM     16  C   UNL A   1      37.218  32.189  34.483  1.00  0.00     0.144 C 
ATOM     17  C   UNL A   1      38.100  32.029  35.722  1.00  0.00     0.091 C 
ATOM     18  C   UNL A   1      37.582  33.161  36.567  1.00  0.00     0.071 C 
ATOM     19  N   UNL A   1      36.630  33.876  36.054  1.00  0.00    -0.176 NA
BRANCH  16  20
ATOM     20  C   UNL A   1      38.017  32.460  33.214  1.00  0.00    -0.023 A 
ATOM     21  C   UNL A   1      39.541  32.995  30.893  1.00  0.00     0.118 A 
ATOM     22  C   UNL A   1      39.858  33.605  32.107  1.00  0.00     0.047 A 
ATOM     23  C   UNL A   1      38.483  32.089  30.843  1.00  0.00     0.047 A 
ATOM     24  C   UNL A   1      39.103  33.349  33.254  1.00  0.00     0.010 A 
ATOM     25  C   UNL A   1      37.733  31.818  31.997  1.00  0.00     0.010 A 
BRANCH  21  26
ATOM     26  O   UNL A   1      40.360  33.323  29.849  1.00  0.00    -0.497 OA
ATOM     27  C   UNL A   1      40.963  34.611  29.903  1.00  0.00     0.278 C 
ENDBRANCH  21  26
ENDBRANCH  16  20
BRANCH  18  28
ATOM     28  C   UNL A   1      38.120  33.364  37.919  1.00  0.00    -0.002 A 
ATOM     29  C   UNL A   1      37.941  32.361  38.876  1.00  0.00     0.011 A 
ATOM     30  C   UNL A   1      38.854  34.515  38.217  1.00  0.00     0.011 A 
ATOM     31  C   UNL A   1      38.518  32.498  40.140  1.00  0.00     0.021 A 
ATOM     32  C   UNL A   1      39.411  34.667  39.489  1.00  0.00     0.021 A 
ATOM     33  C   UNL A   1      39.242  33.657  40.443  1.00  0.00     0.067 A 
BRANCH  33  34
ATOM     34  S   UNL A   1      39.998  33.819  42.046  1.00  0.00     0.175 S 
ATOM     35  C   UNL A   1      38.632  33.886  43.175  1.00  0.00     0.163 C 
ATOM     36  O   UNL A   1      40.732  32.592  42.285  1.00  0.00    -0.224 OA
ATOM     37  O   UNL A   1      40.662  35.108  42.088  1.00  0.00    -0.224 OA
ENDBRANCH  33  34
ENDBRANCH  18  28
ENDBRANCH  10  15
ENDBRANCH   7   9
ENDBRANCH   6   7
ENDBRANCH   5   6
ENDBRANCH   4   5
ENDBRANCH   3   4
ENDBRANCH   2   3
ENDBRANCH   1   2
BRANCH   1  38
ATOM     38  O   UNL A   1      31.643  32.494  27.288  1.00  0.00    -0.377 OA
BRANCH  38  39
ATOM     39  C   UNL A   1      31.545  31.149  26.830  1.00  0.00     0.188 C 
BRANCH  39  40
ATOM     40  C   UNL A   1      32.688  30.481  26.030  1.00  0.00     0.188 C 
BRANCH  40  41
ATOM     41  O   UNL A   1      32.790  29.080  26.207  1.00  0.00    -0.376 OA
BRANCH  41  42
ATOM     42  C   UNL A   1      33.923  28.579  26.893  1.00  0.00     0.202 C 
BRANCH  42  43
ATOM     43  C   UNL A   1      34.741  29.573  27.727  1.00  0.00     0.261 C 
BRANCH  43  44
ATOM     44  O   UNL A   1      36.152  29.318  27.818  1.00  0.00    -0.460 OA
BRANCH  44  45
ATOM     45  C   UNL A   1      36.706  29.313  29.047  1.00  0.00     0.338 C 
ATOM     46  O   UNL A   1      36.131  29.402  30.121  1.00  0.00    -0.246 OA
BRANCH  45  47
ATOM     47  C   UNL A   1      38.139  28.994  28.885  1.00  0.00     0.060 A 
ATOM     48  C   UNL A   1      38.797  28.256  29.877  1.00  0.00     0.016 A 
ATOM     49  C   UNL A   1      38.825  29.413  27.742  1.00  0.00     0.016 A 
ATOM     50  C   UNL A   1      40.154  27.960  29.742  1.00  0.00     0.010 A 
ATOM     51  C   UNL A   1      40.187  29.137  27.619  1.00  0.00     0.010 A 
ATOM     52  C   UNL A   1      40.866  28.439  28.635  1.00  0.00    -0.014 A 
BRANCH  52  53
ATOM     53  C   UNL A   1      42.348  28.386  28.628  1.00  0.00     0.031 A 
ATOM     54  C   UNL A   1      43.015  27.241  27.916  1.00  0.00     0.074 A 
ATOM     55  C   UNL A   1      43.088  29.333  29.228  1.00  0.00     0.049 A 
ATOM     56  N   UNL A   1      44.286  26.950  27.820  1.00  0.00    -0.248 NA
ATOM     57  C   UNL A   1      42.124  26.296  27.223  1.00  0.00     0.031 C 
ATOM     58  C   UNL A   1      42.567  30.517  29.907  1.00  0.00     0.029 A 
ATOM     59  N   UNL A   1      44.451  29.438  29.364  1.00  0.00    -0.354 N 
ATOM     60  C   UNL A   1      44.346  25.784  27.066  1.00  0.00     0.074 A 
ATOM     61  C   UNL A   1      42.985  25.405  26.758  1.00  0.00     0.031 C 
ATOM     62  C   UNL A   1      43.599  31.227  30.396  1.00  0.00     0.029 A 
ATOM     63  C   UNL A   1      44.848  30.528  30.098  1.00  0.00     0.049 A 
ATOM     64  H   UNL A   1      45.083  28.793  28.972  1.00  0.00     0.167 HD
ATOM     65  C   UNL A   1      45.437  25.092  26.660  1.00  0.00     0.031 A 
ATOM     66  C   UNL A   1      46.077  30.903  30.504  1.00  0.00     0.031 A 
ATOM     67  C   UNL A   1      46.790  25.459  26.984  1.00  0.00     0.049 A 
ATOM     68  C   UNL A   1      47.270  30.065  30.119  1.00  0.00     0.074 A 
ATOM     69  C   UNL A   1      47.964  24.829  26.612  1.00  0.00     0.029 A 
ATOM     70  N   UNL A   1      47.147  26.546  27.767  1.00  0.00    -0.354 N 
ATOM     71  N   UNL A   1      47.320  28.980  29.384  1.00  0.00    -0.248 NA
ATOM     72  C   UNL A   1      48.580  30.513  30.616  1.00  0.00     0.031 C 
ATOM     73  C   UNL A   1      49.029  25.496  27.226  1.00  0.00     0.029 A 
ATOM     74  C   UNL A   1      48.522  26.585  27.917  1.00  0.00     0.049 A 
ATOM     75  H   UNL A   1      46.516  27.192  28.158  1.00  0.00     0.167 HD
ATOM     76  C   UNL A   1      48.664  28.636  29.302  1.00  0.00     0.074 A 
ATOM     77  C   UNL A   1      49.398  29.636  30.050  1.00  0.00     0.031 C 
ATOM     78  C   UNL A   1      49.241  27.588  28.663  1.00  0.00     0.031 A 
BRANCH  65  79
ATOM     79  C   UNL A   1      45.204  23.840  25.860  1.00  0.00    -0.014 A 
ATOM     80  C   UNL A   1      45.270  23.843  24.457  1.00  0.00     0.009 A 
ATOM     81  C   UNL A   1      44.938  22.632  26.525  1.00  0.00     0.009 A 
ATOM     82  C   UNL A   1      45.038  22.669  23.736  1.00  0.00     0.001 A 
ATOM     83  C   UNL A   1      44.739  21.455  25.802  1.00  0.00     0.001 A 
ATOM     84  C   UNL A   1      44.778  21.476  24.410  1.00  0.00     0.000 A 
ENDBRANCH  65  79
BRANCH  66  85
ATOM     85  C   UNL A   1      46.250  32.120  31.343  1.00  0.00    -0.014 A 
ATOM     86  C   UNL A   1      46.213  33.400  30.770  1.00  0.00     0.009 A 
ATOM     87  C   UNL A   1      46.485  32.004  32.723  1.00  0.00     0.009 A 
ATOM     88  C   UNL A   1      46.433  34.535  31.553  1.00  0.00     0.001 A 
ATOM     89  C   UNL A   1      46.673  33.142  33.509  1.00  0.00     0.001 A 
ATOM     90  C   UNL A   1      46.658  34.406  32.923  1.00  0.00     0.000 A 
ENDBRANCH  66  85
BRANCH  78  91
ATOM     91  C   UNL A   1      50.742  27.491  28.701  1.00  0.00    -0.014 A 
ATOM     92  C   UNL A   1      51.555  28.344  27.938  1.00  0.00     0.009 A 
ATOM     93  C   UNL A   1      51.353  26.557  29.555  1.00  0.00     0.009 A 
ATOM     94  C   UNL A   1      52.946  28.236  28.000  1.00  0.00     0.001 A 
ATOM     95  C   UNL A   1      52.743  26.476  29.642  1.00  0.00     0.001 A 
ATOM     96  C   UNL A   1      53.539  27.307  28.856  1.00  0.00     0.000 A 
ENDBRANCH  78  91
ENDBRANCH  52  53
ENDBRANCH  45  47
ENDBRANCH  44  45
ENDBRANCH  43  44
ENDBRANCH  42  43
ENDBRANCH  41  42
ENDBRANCH  40  41
ENDBRANCH  39  40
ENDBRANCH  38  39
ENDBRANCH   1  38
TORSDOF 25
ENDMDL
