MODEL 1
REMARK VINA RESULT:     -12.1      0.000      0.000
REMARK SMILES COc1ccc(-c2[nH]nc3nc(-c4ccc(C(F)(F)F)cc4)cc(C(=O)OCCOCCOCCOCCOC(=O)c4ccc(-c5c6nc(c(-c7ccccc7)c7ccc([nH]7)c(-c7ccccc7)c7nc(c(-c8ccccc8)c8ccc5[nH]8)C=C7)C=C6)cc4)c23)cc1
REMARK SMILES IDX 33 1 32 2 31 3 30 4 29 5 28 6 27 7 25 8 26 9 24 10 7 11 8 12
REMARK SMILES IDX 90 13 9 14 10 16 11 17 23 18 12 19 6 20 3 21 4 22 92 23 5 24
REMARK SMILES IDX 91 25 2 26 1 27 13 28 14 29 22 30 15 31 21 32 16 33 17 34
REMARK SMILES IDX 18 35 19 36 20 37 34 38 35 39 36 40 37 41 38 42 39 43 40 44
REMARK SMILES IDX 41 45 42 46 43 47 89 48 44 49 88 50 45 51 46 52 47 53 82 54
REMARK SMILES IDX 48 55 87 56 81 57 83 58 49 59 86 60 80 61 79 62 50 64 72 65
REMARK SMILES IDX 57 66 71 67 58 68 61 69 70 70 84 71 59 72 60 73 69 75 85 76
REMARK SMILES IDX 62 77 51 78 52 79 56 80 53 81 55 82 54 83 73 84 74 85 78 86
REMARK SMILES IDX 75 87 77 88 76 89 63 90 64 91 68 92 65 93 67 94 66 95
REMARK H PARENT 8 15 83 63 61 74
REMARK Flexibility Score: inf
ROOT
ATOM      1  O   UNL A   1      38.214  21.103  25.278  1.00  0.00    -0.377 OA
ENDROOT
BRANCH   1   2
ATOM      2  C   UNL A   1      37.477  22.202  24.749  1.00  0.00     0.188 C 
BRANCH   2   3
ATOM      3  C   UNL A   1      36.221  22.592  25.519  1.00  0.00     0.188 C 
BRANCH   3   4
ATOM      4  O   UNL A   1      36.160  23.941  25.940  1.00  0.00    -0.376 OA
BRANCH   4   5
ATOM      5  C   UNL A   1      35.162  24.812  25.429  1.00  0.00     0.202 C 
BRANCH   5   6
ATOM      6  C   UNL A   1      34.816  24.733  23.935  1.00  0.00     0.261 C 
BRANCH   6   7
ATOM      7  O   UNL A   1      33.827  25.684  23.492  1.00  0.00    -0.460 OA
BRANCH   7   8
ATOM      8  C   UNL A   1      32.652  25.209  23.020  1.00  0.00     0.339 C 
ATOM      9  O   UNL A   1      32.166  25.493  21.938  1.00  0.00    -0.246 OA
BRANCH   8  10
ATOM     10  C   UNL A   1      32.140  24.214  23.993  1.00  0.00     0.075 A 
ATOM     11  C   UNL A   1      30.393  25.522  25.278  1.00  0.00     0.075 A 
ATOM     12  N   UNL A   1      29.705  25.174  26.418  1.00  0.00    -0.275 N 
ATOM     13  C   UNL A   1      31.205  24.429  25.018  1.00  0.00     0.061 A 
ATOM     14  N   UNL A   1      29.849  23.894  26.790  1.00  0.00    -0.154 NA
ATOM     15  H   UNL A   1      29.151  25.815  26.921  1.00  0.00     0.190 HD
ATOM     16  C   UNL A   1      30.729  23.410  25.915  1.00  0.00     0.182 A 
ATOM     17  N   UNL A   1      31.105  22.112  25.821  1.00  0.00    -0.226 NA
ATOM     18  C   UNL A   1      32.474  22.843  23.908  1.00  0.00     0.045 A 
ATOM     19  C   UNL A   1      31.967  21.858  24.800  1.00  0.00     0.074 A 
BRANCH  11  20
ATOM     20  C   UNL A   1      30.039  26.738  24.556  1.00  0.00     0.001 A 
ATOM     21  C   UNL A   1      29.377  29.152  23.260  1.00  0.00     0.118 A 
ATOM     22  C   UNL A   1      28.531  28.043  23.188  1.00  0.00     0.047 A 
ATOM     23  C   UNL A   1      30.580  29.041  23.954  1.00  0.00     0.047 A 
ATOM     24  C   UNL A   1      28.862  26.837  23.818  1.00  0.00     0.014 A 
ATOM     25  C   UNL A   1      30.910  27.839  24.592  1.00  0.00     0.014 A 
BRANCH  21  26
ATOM     26  O   UNL A   1      28.908  30.274  22.635  1.00  0.00    -0.497 OA
ATOM     27  C   UNL A   1      28.195  30.089  21.418  1.00  0.00     0.278 C 
ENDBRANCH  21  26
ENDBRANCH  11  20
BRANCH  19  28
ATOM     28  C   UNL A   1      32.393  20.439  24.682  1.00  0.00     0.000 A 
ATOM     29  C   UNL A   1      32.393  19.754  23.452  1.00  0.00     0.011 A 
ATOM     30  C   UNL A   1      32.781  19.708  25.819  1.00  0.00     0.011 A 
ATOM     31  C   UNL A   1      32.757  18.400  23.367  1.00  0.00     0.014 A 
ATOM     32  C   UNL A   1      33.144  18.360  25.740  1.00  0.00     0.014 A 
ATOM     33  C   UNL A   1      33.131  17.688  24.514  1.00  0.00     0.056 A 
BRANCH  33  34
ATOM     34  C   UNL A   1      33.491  16.223  24.435  1.00  0.00     0.416 C 
ATOM     35  F   UNL A   1      34.473  15.876  25.314  1.00  0.00    -0.166 F 
ATOM     36  F   UNL A   1      32.436  15.407  24.711  1.00  0.00    -0.166 F 
ATOM     37  F   UNL A   1      33.942  15.841  23.207  1.00  0.00    -0.166 F 
ENDBRANCH  33  34
ENDBRANCH  19  28
ENDBRANCH   8  10
ENDBRANCH   7   8
ENDBRANCH   6   7
ENDBRANCH   5   6
ENDBRANCH   4   5
ENDBRANCH   3   4
ENDBRANCH   2   3
ENDBRANCH   1   2
BRANCH   1  38
ATOM     38  C   UNL A   1      39.243  21.428  26.215  1.00  0.00     0.188 C 
BRANCH  38  39
ATOM     39  C   UNL A   1      40.724  21.358  25.746  1.00  0.00     0.188 C 
BRANCH  39  40
ATOM     40  O   UNL A   1      41.622  20.735  26.654  1.00  0.00    -0.376 OA
BRANCH  40  41
ATOM     41  C   UNL A   1      41.999  19.372  26.561  1.00  0.00     0.202 C 
BRANCH  41  42
ATOM     42  C   UNL A   1      43.179  18.889  25.711  1.00  0.00     0.261 C 
BRANCH  42  43
ATOM     43  O   UNL A   1      43.453  19.660  24.566  1.00  0.00    -0.460 OA
BRANCH  43  44
ATOM     44  C   UNL A   1      44.755  19.780  24.271  1.00  0.00     0.338 C 
ATOM     45  O   UNL A   1      45.544  18.881  24.033  1.00  0.00    -0.246 OA
BRANCH  44  46
ATOM     46  C   UNL A   1      45.120  21.191  24.397  1.00  0.00     0.060 A 
ATOM     47  C   UNL A   1      46.072  21.480  25.370  1.00  0.00     0.016 A 
ATOM     48  C   UNL A   1      44.244  22.158  23.881  1.00  0.00     0.016 A 
ATOM     49  C   UNL A   1      45.927  22.656  26.060  1.00  0.00     0.010 A 
ATOM     50  C   UNL A   1      44.082  23.319  24.588  1.00  0.00     0.010 A 
ATOM     51  C   UNL A   1      44.855  23.494  25.730  1.00  0.00    -0.014 A 
BRANCH  51  52
ATOM     52  C   UNL A   1      44.644  24.659  26.552  1.00  0.00     0.031 A 
ATOM     53  C   UNL A   1      45.781  25.587  26.439  1.00  0.00     0.074 A 
ATOM     54  C   UNL A   1      43.523  24.860  27.267  1.00  0.00     0.049 A 
ATOM     55  N   UNL A   1      46.725  25.757  27.300  1.00  0.00    -0.248 NA
ATOM     56  C   UNL A   1      46.039  26.195  25.122  1.00  0.00     0.031 C 
ATOM     57  C   UNL A   1      42.267  24.104  27.209  1.00  0.00     0.029 A 
ATOM     58  N   UNL A   1      43.234  25.867  28.132  1.00  0.00    -0.354 N 
ATOM     59  C   UNL A   1      47.562  26.702  26.725  1.00  0.00     0.074 A 
ATOM     60  C   UNL A   1      47.242  26.732  25.323  1.00  0.00     0.031 C 
ATOM     61  C   UNL A   1      41.289  24.821  27.815  1.00  0.00     0.029 A 
ATOM     62  C   UNL A   1      41.881  26.005  28.416  1.00  0.00     0.049 A 
ATOM     63  H   UNL A   1      43.924  26.449  28.525  1.00  0.00     0.167 HD
ATOM     64  C   UNL A   1      48.154  27.642  27.508  1.00  0.00     0.031 A 
ATOM     65  C   UNL A   1      41.303  27.056  29.049  1.00  0.00     0.031 A 
ATOM     66  C   UNL A   1      48.116  27.257  28.898  1.00  0.00     0.049 A 
ATOM     67  C   UNL A   1      42.370  27.767  29.786  1.00  0.00     0.074 A 
ATOM     68  C   UNL A   1      48.668  26.260  29.673  1.00  0.00     0.029 A 
ATOM     69  N   UNL A   1      47.038  27.756  29.587  1.00  0.00    -0.354 N 
ATOM     70  N   UNL A   1      42.970  27.272  30.828  1.00  0.00    -0.248 NA
ATOM     71  C   UNL A   1      43.050  28.885  29.146  1.00  0.00     0.031 C 
ATOM     72  C   UNL A   1      47.718  26.004  30.708  1.00  0.00     0.029 A 
ATOM     73  C   UNL A   1      46.648  26.891  30.570  1.00  0.00     0.049 A 
ATOM     74  H   UNL A   1      46.604  28.619  29.397  1.00  0.00     0.167 HD
ATOM     75  C   UNL A   1      44.284  27.688  30.697  1.00  0.00     0.074 A 
ATOM     76  C   UNL A   1      44.234  28.807  29.761  1.00  0.00     0.031 C 
ATOM     77  C   UNL A   1      45.306  26.885  31.116  1.00  0.00     0.031 A 
BRANCH  64  78
ATOM     78  C   UNL A   1      48.201  29.104  27.105  1.00  0.00    -0.014 A 
ATOM     79  C   UNL A   1      49.416  29.793  27.257  1.00  0.00     0.009 A 
ATOM     80  C   UNL A   1      47.055  29.898  26.890  1.00  0.00     0.009 A 
ATOM     81  C   UNL A   1      49.465  31.191  27.272  1.00  0.00     0.001 A 
ATOM     82  C   UNL A   1      47.103  31.293  26.868  1.00  0.00     0.001 A 
ATOM     83  C   UNL A   1      48.307  31.941  27.086  1.00  0.00     0.000 A 
ENDBRANCH  64  78
BRANCH  65  84
ATOM     84  C   UNL A   1      39.964  27.660  28.877  1.00  0.00    -0.014 A 
ATOM     85  C   UNL A   1      39.070  27.720  29.961  1.00  0.00     0.009 A 
ATOM     86  C   UNL A   1      39.682  28.452  27.752  1.00  0.00     0.009 A 
ATOM     87  C   UNL A   1      37.970  28.589  29.944  1.00  0.00     0.001 A 
ATOM     88  C   UNL A   1      38.581  29.317  27.734  1.00  0.00     0.001 A 
ATOM     89  C   UNL A   1      37.738  29.400  28.837  1.00  0.00     0.000 A 
ENDBRANCH  65  84
BRANCH  77  90
ATOM     90  C   UNL A   1      44.968  25.795  32.097  1.00  0.00    -0.014 A 
ATOM     91  C   UNL A   1      44.908  25.977  33.489  1.00  0.00     0.009 A 
ATOM     92  C   UNL A   1      44.614  24.542  31.572  1.00  0.00     0.009 A 
ATOM     93  C   UNL A   1      44.539  24.920  34.330  1.00  0.00     0.001 A 
ATOM     94  C   UNL A   1      44.224  23.497  32.408  1.00  0.00     0.001 A 
ATOM     95  C   UNL A   1      44.194  23.683  33.787  1.00  0.00     0.000 A 
ENDBRANCH  77  90
ENDBRANCH  51  52
ENDBRANCH  44  46
ENDBRANCH  43  44
ENDBRANCH  42  43
ENDBRANCH  41  42
ENDBRANCH  40  41
ENDBRANCH  39  40
ENDBRANCH  38  39
ENDBRANCH   1  38
TORSDOF 24
ENDMDL
MODEL 2
REMARK VINA RESULT:     -11.3      2.970      7.599
REMARK SMILES COc1ccc(-c2[nH]nc3nc(-c4ccc(C(F)(F)F)cc4)cc(C(=O)OCCOCCOCCOCCOC(=O)c4ccc(-c5c6nc(c(-c7ccccc7)c7ccc([nH]7)c(-c7ccccc7)c7nc(c(-c8ccccc8)c8ccc5[nH]8)C=C7)C=C6)cc4)c23)cc1
REMARK SMILES IDX 33 1 32 2 31 3 30 4 29 5 28 6 27 7 25 8 26 9 24 10 7 11 8 12
REMARK SMILES IDX 90 13 9 14 10 16 11 17 23 18 12 19 6 20 3 21 4 22 92 23 5 24
REMARK SMILES IDX 91 25 2 26 1 27 13 28 14 29 22 30 15 31 21 32 16 33 17 34
REMARK SMILES IDX 18 35 19 36 20 37 34 38 35 39 36 40 37 41 38 42 39 43 40 44
REMARK SMILES IDX 41 45 42 46 43 47 89 48 44 49 88 50 45 51 46 52 47 53 82 54
REMARK SMILES IDX 48 55 87 56 81 57 83 58 49 59 86 60 80 61 79 62 50 64 72 65
REMARK SMILES IDX 57 66 71 67 58 68 61 69 70 70 84 71 59 72 60 73 69 75 85 76
REMARK SMILES IDX 62 77 51 78 52 79 56 80 53 81 55 82 54 83 73 84 74 85 78 86
REMARK SMILES IDX 75 87 77 88 76 89 63 90 64 91 68 92 65 93 67 94 66 95
REMARK H PARENT 8 15 83 63 61 74
REMARK Flexibility Score: inf
ROOT
ATOM      1  O   UNL A   1      34.532  31.827  27.424  1.00  0.00    -0.377 OA
ENDROOT
BRANCH   1   2
ATOM      2  C   UNL A   1      34.546  30.427  27.694  1.00  0.00     0.188 C 
BRANCH   2   3
ATOM      3  C   UNL A   1      33.768  29.555  26.715  1.00  0.00     0.188 C 
BRANCH   3   4
ATOM      4  O   UNL A   1      34.535  28.601  26.008  1.00  0.00    -0.376 OA
BRANCH   4   5
ATOM      5  C   UNL A   1      33.901  27.564  25.274  1.00  0.00     0.202 C 
BRANCH   5   6
ATOM      6  C   UNL A   1      33.835  27.683  23.745  1.00  0.00     0.261 C 
BRANCH   6   7
ATOM      7  O   UNL A   1      33.785  26.426  23.041  1.00  0.00    -0.460 OA
BRANCH   7   8
ATOM      8  C   UNL A   1      32.572  25.926  22.713  1.00  0.00     0.339 C 
ATOM      9  O   UNL A   1      31.955  26.196  21.697  1.00  0.00    -0.246 OA
BRANCH   8  10
ATOM     10  C   UNL A   1      32.201  24.924  23.741  1.00  0.00     0.075 A 
ATOM     11  C   UNL A   1      30.381  26.100  25.051  1.00  0.00     0.075 A 
ATOM     12  N   UNL A   1      29.776  25.729  26.231  1.00  0.00    -0.275 N 
ATOM     13  C   UNL A   1      31.290  25.084  24.796  1.00  0.00     0.061 A 
ATOM     14  N   UNL A   1      30.063  24.486  26.641  1.00  0.00    -0.154 NA
ATOM     15  H   UNL A   1      29.180  26.331  26.735  1.00  0.00     0.190 HD
ATOM     16  C   UNL A   1      30.954  24.058  25.747  1.00  0.00     0.182 A 
ATOM     17  N   UNL A   1      31.455  22.801  25.683  1.00  0.00    -0.226 NA
ATOM     18  C   UNL A   1      32.670  23.590  23.691  1.00  0.00     0.045 A 
ATOM     19  C   UNL A   1      32.299  22.595  24.636  1.00  0.00     0.074 A 
BRANCH  11  20
ATOM     20  C   UNL A   1      29.878  27.245  24.303  1.00  0.00     0.001 A 
ATOM     21  C   UNL A   1      28.929  29.529  22.952  1.00  0.00     0.118 A 
ATOM     22  C   UNL A   1      28.184  28.347  22.975  1.00  0.00     0.047 A 
ATOM     23  C   UNL A   1      30.173  29.557  23.578  1.00  0.00     0.047 A 
ATOM     24  C   UNL A   1      28.658  27.205  23.632  1.00  0.00     0.014 A 
ATOM     25  C   UNL A   1      30.646  28.419  24.244  1.00  0.00     0.014 A 
BRANCH  21  26
ATOM     26  O   UNL A   1      28.326  30.575  22.311  1.00  0.00    -0.497 OA
ATOM     27  C   UNL A   1      27.651  31.531  23.121  1.00  0.00     0.278 C 
ENDBRANCH  21  26
ENDBRANCH  11  20
BRANCH  19  28
ATOM     28  C   UNL A   1      32.863  21.222  24.551  1.00  0.00     0.000 A 
ATOM     29  C   UNL A   1      34.139  20.903  25.052  1.00  0.00     0.011 A 
ATOM     30  C   UNL A   1      32.145  20.188  23.923  1.00  0.00     0.011 A 
ATOM     31  C   UNL A   1      34.674  19.610  24.923  1.00  0.00     0.014 A 
ATOM     32  C   UNL A   1      32.673  18.900  23.792  1.00  0.00     0.014 A 
ATOM     33  C   UNL A   1      33.946  18.596  24.285  1.00  0.00     0.056 A 
BRANCH  33  34
ATOM     34  C   UNL A   1      34.528  17.213  24.113  1.00  0.00     0.416 C 
ATOM     35  F   UNL A   1      34.634  16.847  22.805  1.00  0.00    -0.166 F 
ATOM     36  F   UNL A   1      35.781  17.102  24.637  1.00  0.00    -0.166 F 
ATOM     37  F   UNL A   1      33.790  16.236  24.712  1.00  0.00    -0.166 F 
ENDBRANCH  33  34
ENDBRANCH  19  28
ENDBRANCH   8  10
ENDBRANCH   7   8
ENDBRANCH   6   7
ENDBRANCH   5   6
ENDBRANCH   4   5
ENDBRANCH   3   4
ENDBRANCH   2   3
ENDBRANCH   1   2
BRANCH   1  38
ATOM     38  C   UNL A   1      33.369  32.538  27.853  1.00  0.00     0.188 C 
BRANCH  38  39
ATOM     39  C   UNL A   1      33.515  34.039  28.233  1.00  0.00     0.188 C 
BRANCH  39  40
ATOM     40  O   UNL A   1      33.406  34.331  29.619  1.00  0.00    -0.376 OA
BRANCH  40  41
ATOM     41  C   UNL A   1      34.351  33.897  30.581  1.00  0.00     0.202 C 
BRANCH  41  42
ATOM     42  C   UNL A   1      35.859  34.110  30.424  1.00  0.00     0.261 C 
BRANCH  42  43
ATOM     43  O   UNL A   1      36.556  33.058  29.802  1.00  0.00    -0.460 OA
BRANCH  43  44
ATOM     44  C   UNL A   1      37.270  32.289  30.637  1.00  0.00     0.338 C 
ATOM     45  O   UNL A   1      37.256  32.312  31.856  1.00  0.00    -0.246 OA
BRANCH  44  46
ATOM     46  C   UNL A   1      38.181  31.473  29.834  1.00  0.00     0.060 A 
ATOM     47  C   UNL A   1      37.682  30.238  29.429  1.00  0.00     0.016 A 
ATOM     48  C   UNL A   1      39.553  31.758  29.880  1.00  0.00     0.016 A 
ATOM     49  C   UNL A   1      38.564  29.188  29.387  1.00  0.00     0.010 A 
ATOM     50  C   UNL A   1      40.429  30.706  29.865  1.00  0.00     0.010 A 
ATOM     51  C   UNL A   1      39.901  29.428  29.727  1.00  0.00    -0.014 A 
BRANCH  51  52
ATOM     52  C   UNL A   1      40.781  28.290  29.803  1.00  0.00     0.031 A 
ATOM     53  C   UNL A   1      41.276  28.107  31.177  1.00  0.00     0.074 A 
ATOM     54  C   UNL A   1      41.045  27.494  28.751  1.00  0.00     0.049 A 
ATOM     55  N   UNL A   1      42.444  28.419  31.623  1.00  0.00    -0.248 NA
ATOM     56  C   UNL A   1      40.288  27.789  32.223  1.00  0.00     0.031 C 
ATOM     57  C   UNL A   1      40.382  27.477  27.443  1.00  0.00     0.029 A 
ATOM     58  N   UNL A   1      41.906  26.446  28.671  1.00  0.00    -0.354 N 
ATOM     59  C   UNL A   1      42.410  28.086  32.969  1.00  0.00     0.074 A 
ATOM     60  C   UNL A   1      41.022  27.958  33.322  1.00  0.00     0.031 C 
ATOM     61  C   UNL A   1      40.694  26.324  26.802  1.00  0.00     0.029 A 
ATOM     62  C   UNL A   1      41.680  25.602  27.591  1.00  0.00     0.049 A 
ATOM     63  H   UNL A   1      42.628  26.297  29.323  1.00  0.00     0.167 HD
ATOM     64  C   UNL A   1      43.516  27.562  33.562  1.00  0.00     0.031 A 
ATOM     65  C   UNL A   1      42.228  24.375  27.410  1.00  0.00     0.031 A 
ATOM     66  C   UNL A   1      44.694  27.802  32.763  1.00  0.00     0.049 A 
ATOM     67  C   UNL A   1      43.430  24.299  28.269  1.00  0.00     0.074 A 
ATOM     68  C   UNL A   1      45.423  28.901  32.366  1.00  0.00     0.029 A 
ATOM     69  N   UNL A   1      45.004  26.777  31.904  1.00  0.00    -0.354 N 
ATOM     70  N   UNL A   1      44.512  24.985  28.048  1.00  0.00    -0.248 NA
ATOM     71  C   UNL A   1      43.308  23.739  29.608  1.00  0.00     0.031 C 
ATOM     72  C   UNL A   1      45.959  28.568  31.085  1.00  0.00     0.029 A 
ATOM     73  C   UNL A   1      45.593  27.258  30.768  1.00  0.00     0.049 A 
ATOM     74  H   UNL A   1      44.826  25.825  32.080  1.00  0.00     0.167 HD
ATOM     75  C   UNL A   1      44.963  25.331  29.310  1.00  0.00     0.074 A 
ATOM     76  C   UNL A   1      44.298  24.400  30.216  1.00  0.00     0.031 C 
ATOM     77  C   UNL A   1      45.582  26.530  29.515  1.00  0.00     0.031 A 
BRANCH  64  78
ATOM     78  C   UNL A   1      43.434  26.365  34.490  1.00  0.00    -0.014 A 
ATOM     79  C   UNL A   1      43.574  25.084  33.931  1.00  0.00     0.009 A 
ATOM     80  C   UNL A   1      42.921  26.421  35.803  1.00  0.00     0.009 A 
ATOM     81  C   UNL A   1      43.151  23.939  34.615  1.00  0.00     0.001 A 
ATOM     82  C   UNL A   1      42.531  25.280  36.505  1.00  0.00     0.001 A 
ATOM     83  C   UNL A   1      42.622  24.038  35.899  1.00  0.00     0.000 A 
ENDBRANCH  64  78
BRANCH  65  84
ATOM     84  C   UNL A   1      41.678  23.166  26.761  1.00  0.00    -0.014 A 
ATOM     85  C   UNL A   1      42.530  22.106  26.399  1.00  0.00     0.009 A 
ATOM     86  C   UNL A   1      40.297  22.916  26.781  1.00  0.00     0.009 A 
ATOM     87  C   UNL A   1      42.021  20.829  26.131  1.00  0.00     0.001 A 
ATOM     88  C   UNL A   1      39.787  21.640  26.509  1.00  0.00     0.001 A 
ATOM     89  C   UNL A   1      40.650  20.593  26.204  1.00  0.00     0.000 A 
ENDBRANCH  65  84
BRANCH  77  90
ATOM     90  C   UNL A   1      46.147  27.230  28.308  1.00  0.00    -0.014 A 
ATOM     91  C   UNL A   1      45.451  28.191  27.556  1.00  0.00     0.009 A 
ATOM     92  C   UNL A   1      47.481  26.956  27.970  1.00  0.00     0.009 A 
ATOM     93  C   UNL A   1      46.067  28.830  26.474  1.00  0.00     0.001 A 
ATOM     94  C   UNL A   1      48.101  27.610  26.907  1.00  0.00     0.001 A 
ATOM     95  C   UNL A   1      47.392  28.541  26.153  1.00  0.00     0.000 A 
ENDBRANCH  77  90
ENDBRANCH  51  52
ENDBRANCH  44  46
ENDBRANCH  43  44
ENDBRANCH  42  43
ENDBRANCH  41  42
ENDBRANCH  40  41
ENDBRANCH  39  40
ENDBRANCH  38  39
ENDBRANCH   1  38
TORSDOF 24
ENDMDL
MODEL 3
REMARK VINA RESULT:     -11.3      3.304      7.126
REMARK SMILES COc1ccc(-c2[nH]nc3nc(-c4ccc(C(F)(F)F)cc4)cc(C(=O)OCCOCCOCCOCCOC(=O)c4ccc(-c5c6nc(c(-c7ccccc7)c7ccc([nH]7)c(-c7ccccc7)c7nc(c(-c8ccccc8)c8ccc5[nH]8)C=C7)C=C6)cc4)c23)cc1
REMARK SMILES IDX 33 1 32 2 31 3 30 4 29 5 28 6 27 7 25 8 26 9 24 10 7 11 8 12
REMARK SMILES IDX 90 13 9 14 10 16 11 17 23 18 12 19 6 20 3 21 4 22 92 23 5 24
REMARK SMILES IDX 91 25 2 26 1 27 13 28 14 29 22 30 15 31 21 32 16 33 17 34
REMARK SMILES IDX 18 35 19 36 20 37 34 38 35 39 36 40 37 41 38 42 39 43 40 44
REMARK SMILES IDX 41 45 42 46 43 47 89 48 44 49 88 50 45 51 46 52 47 53 82 54
REMARK SMILES IDX 48 55 87 56 81 57 83 58 49 59 86 60 80 61 79 62 50 64 72 65
REMARK SMILES IDX 57 66 71 67 58 68 61 69 70 70 84 71 59 72 60 73 69 75 85 76
REMARK SMILES IDX 62 77 51 78 52 79 56 80 53 81 55 82 54 83 73 84 74 85 78 86
REMARK SMILES IDX 75 87 77 88 76 89 63 90 64 91 68 92 65 93 67 94 66 95
REMARK H PARENT 8 15 83 63 61 74
REMARK Flexibility Score: inf
ROOT
ATOM      1  O   UNL A   1      34.525  30.155  26.715  1.00  0.00    -0.377 OA
ENDROOT
BRANCH   1   2
ATOM      2  C   UNL A   1      33.302  29.623  27.219  1.00  0.00     0.188 C 
BRANCH   2   3
ATOM      3  C   UNL A   1      33.016  28.168  26.866  1.00  0.00     0.188 C 
BRANCH   3   4
ATOM      4  O   UNL A   1      33.939  27.565  25.981  1.00  0.00    -0.376 OA
BRANCH   4   5
ATOM      5  C   UNL A   1      33.960  27.921  24.606  1.00  0.00     0.202 C 
BRANCH   5   6
ATOM      6  C   UNL A   1      33.795  26.809  23.560  1.00  0.00     0.261 C 
BRANCH   6   7
ATOM      7  O   UNL A   1      32.774  27.054  22.572  1.00  0.00    -0.460 OA
BRANCH   7   8
ATOM      8  C   UNL A   1      32.074  25.998  22.102  1.00  0.00     0.339 C 
ATOM      9  O   UNL A   1      31.746  25.837  20.938  1.00  0.00    -0.246 OA
BRANCH   8  10
ATOM     10  C   UNL A   1      31.889  25.041  23.219  1.00  0.00     0.075 A 
ATOM     11  C   UNL A   1      30.423  26.329  24.833  1.00  0.00     0.075 A 
ATOM     12  N   UNL A   1      30.063  26.018  26.126  1.00  0.00    -0.275 N 
ATOM     13  C   UNL A   1      31.222  25.269  24.433  1.00  0.00     0.061 A 
ATOM     14  N   UNL A   1      30.385  24.775  26.512  1.00  0.00    -0.154 NA
ATOM     15  H   UNL A   1      29.606  26.658  26.719  1.00  0.00     0.190 HD
ATOM     16  C   UNL A   1      31.055  24.286  25.470  1.00  0.00     0.182 A 
ATOM     17  N   UNL A   1      31.487  23.007  25.349  1.00  0.00    -0.226 NA
ATOM     18  C   UNL A   1      32.289  23.688  23.122  1.00  0.00     0.045 A 
ATOM     19  C   UNL A   1      32.087  22.737  24.159  1.00  0.00     0.074 A 
BRANCH  11  20
ATOM     20  C   UNL A   1      29.816  27.473  24.164  1.00  0.00     0.001 A 
ATOM     21  C   UNL A   1      28.656  29.749  22.972  1.00  0.00     0.118 A 
ATOM     22  C   UNL A   1      28.055  28.492  22.859  1.00  0.00     0.047 A 
ATOM     23  C   UNL A   1      29.865  29.860  23.655  1.00  0.00     0.047 A 
ATOM     24  C   UNL A   1      28.634  27.357  23.437  1.00  0.00     0.014 A 
ATOM     25  C   UNL A   1      30.443  28.727  24.242  1.00  0.00     0.014 A 
BRANCH  21  26
ATOM     26  O   UNL A   1      27.958  30.773  22.396  1.00  0.00    -0.497 OA
ATOM     27  C   UNL A   1      27.947  30.832  20.975  1.00  0.00     0.278 C 
ENDBRANCH  21  26
ENDBRANCH  11  20
BRANCH  19  28
ATOM     28  C   UNL A   1      32.572  21.339  24.009  1.00  0.00     0.000 A 
ATOM     29  C   UNL A   1      32.098  20.486  22.994  1.00  0.00     0.011 A 
ATOM     30  C   UNL A   1      33.506  20.801  24.911  1.00  0.00     0.011 A 
ATOM     31  C   UNL A   1      32.533  19.154  22.894  1.00  0.00     0.014 A 
ATOM     32  C   UNL A   1      33.943  19.476  24.816  1.00  0.00     0.014 A 
ATOM     33  C   UNL A   1      33.459  18.634  23.811  1.00  0.00     0.056 A 
BRANCH  33  34
ATOM     34  C   UNL A   1      33.906  17.195  23.730  1.00  0.00     0.416 C 
ATOM     35  F   UNL A   1      32.918  16.318  24.062  1.00  0.00    -0.166 F 
ATOM     36  F   UNL A   1      34.315  16.842  22.479  1.00  0.00    -0.166 F 
ATOM     37  F   UNL A   1      34.951  16.905  24.555  1.00  0.00    -0.166 F 
ENDBRANCH  33  34
ENDBRANCH  19  28
ENDBRANCH   8  10
ENDBRANCH   7   8
ENDBRANCH   6   7
ENDBRANCH   5   6
ENDBRANCH   4   5
ENDBRANCH   3   4
ENDBRANCH   2   3
ENDBRANCH   1   2
BRANCH   1  38
ATOM     38  C   UNL A   1      35.535  30.440  27.687  1.00  0.00     0.188 C 
BRANCH  38  39
ATOM     39  C   UNL A   1      35.517  31.825  28.393  1.00  0.00     0.188 C 
BRANCH  39  40
ATOM     40  O   UNL A   1      35.531  31.785  29.813  1.00  0.00    -0.376 OA
BRANCH  40  41
ATOM     41  C   UNL A   1      36.180  32.760  30.611  1.00  0.00     0.202 C 
BRANCH  41  42
ATOM     42  C   UNL A   1      37.429  33.517  30.151  1.00  0.00     0.261 C 
BRANCH  42  43
ATOM     43  O   UNL A   1      38.519  33.479  31.039  1.00  0.00    -0.460 OA
BRANCH  43  44
ATOM     44  C   UNL A   1      39.713  33.313  30.453  1.00  0.00     0.338 C 
ATOM     45  O   UNL A   1      40.171  33.947  29.518  1.00  0.00    -0.246 OA
BRANCH  44  46
ATOM     46  C   UNL A   1      40.353  32.141  31.052  1.00  0.00     0.060 A 
ATOM     47  C   UNL A   1      41.695  31.960  30.731  1.00  0.00     0.016 A 
ATOM     48  C   UNL A   1      39.538  31.100  31.522  1.00  0.00     0.016 A 
ATOM     49  C   UNL A   1      42.133  30.671  30.568  1.00  0.00     0.010 A 
ATOM     50  C   UNL A   1      39.966  29.814  31.332  1.00  0.00     0.010 A 
ATOM     51  C   UNL A   1      41.217  29.628  30.756  1.00  0.00    -0.014 A 
BRANCH  51  52
ATOM     52  C   UNL A   1      41.662  28.291  30.453  1.00  0.00     0.031 A 
ATOM     53  C   UNL A   1      42.507  27.767  31.539  1.00  0.00     0.074 A 
ATOM     54  C   UNL A   1      41.287  27.625  29.347  1.00  0.00     0.049 A 
ATOM     55  N   UNL A   1      43.792  27.667  31.533  1.00  0.00    -0.248 NA
ATOM     56  C   UNL A   1      41.886  27.581  32.861  1.00  0.00     0.031 C 
ATOM     57  C   UNL A   1      40.252  27.996  28.376  1.00  0.00     0.029 A 
ATOM     58  N   UNL A   1      41.691  26.403  28.910  1.00  0.00    -0.354 N 
ATOM     59  C   UNL A   1      44.112  27.153  32.781  1.00  0.00     0.074 A 
ATOM     60  C   UNL A   1      42.962  27.366  33.617  1.00  0.00     0.031 C 
ATOM     61  C   UNL A   1      39.946  26.915  27.618  1.00  0.00     0.029 A 
ATOM     62  C   UNL A   1      40.857  25.834  27.955  1.00  0.00     0.049 A 
ATOM     63  H   UNL A   1      42.505  25.960  29.242  1.00  0.00     0.167 HD
ATOM     64  C   UNL A   1      45.127  26.256  32.901  1.00  0.00     0.031 A 
ATOM     65  C   UNL A   1      40.893  24.546  27.533  1.00  0.00     0.031 A 
ATOM     66  C   UNL A   1      45.976  26.277  31.734  1.00  0.00     0.049 A 
ATOM     67  C   UNL A   1      42.224  24.005  27.883  1.00  0.00     0.074 A 
ATOM     68  C   UNL A   1      46.836  27.176  31.142  1.00  0.00     0.029 A 
ATOM     69  N   UNL A   1      45.636  25.352  30.779  1.00  0.00    -0.354 N 
ATOM     70  N   UNL A   1      43.326  24.387  27.306  1.00  0.00    -0.248 NA
ATOM     71  C   UNL A   1      42.393  23.302  29.148  1.00  0.00     0.031 C 
ATOM     72  C   UNL A   1      46.772  26.908  29.741  1.00  0.00     0.029 A 
ATOM     73  C   UNL A   1      45.925  25.818  29.528  1.00  0.00     0.049 A 
ATOM     74  H   UNL A   1      45.236  24.472  30.969  1.00  0.00     0.167 HD
ATOM     75  C   UNL A   1      44.263  24.393  28.326  1.00  0.00     0.074 A 
ATOM     76  C   UNL A   1      43.685  23.557  29.373  1.00  0.00     0.031 C 
ATOM     77  C   UNL A   1      45.260  25.325  28.338  1.00  0.00     0.031 A 
BRANCH  64  78
ATOM     78  C   UNL A   1      44.990  25.001  33.743  1.00  0.00    -0.014 A 
ATOM     79  C   UNL A   1      45.837  24.856  34.854  1.00  0.00     0.009 A 
ATOM     80  C   UNL A   1      44.307  23.841  33.322  1.00  0.00     0.009 A 
ATOM     81  C   UNL A   1      46.046  23.609  35.454  1.00  0.00     0.001 A 
ATOM     82  C   UNL A   1      44.484  22.602  33.939  1.00  0.00     0.001 A 
ATOM     83  C   UNL A   1      45.376  22.481  34.991  1.00  0.00     0.000 A 
ENDBRANCH  64  78
BRANCH  65  84
ATOM     84  C   UNL A   1      39.803  23.654  27.083  1.00  0.00    -0.014 A 
ATOM     85  C   UNL A   1      38.585  24.194  26.635  1.00  0.00     0.009 A 
ATOM     86  C   UNL A   1      40.064  22.304  26.796  1.00  0.00     0.009 A 
ATOM     87  C   UNL A   1      37.691  23.430  25.874  1.00  0.00     0.001 A 
ATOM     88  C   UNL A   1      39.169  21.539  26.039  1.00  0.00     0.001 A 
ATOM     89  C   UNL A   1      37.993  22.107  25.560  1.00  0.00     0.000 A 
ENDBRANCH  65  84
BRANCH  77  90
ATOM     90  C   UNL A   1      45.574  26.016  27.038  1.00  0.00    -0.014 A 
ATOM     91  C   UNL A   1      44.888  27.145  26.559  1.00  0.00     0.009 A 
ATOM     92  C   UNL A   1      46.673  25.543  26.306  1.00  0.00     0.009 A 
ATOM     93  C   UNL A   1      45.274  27.757  25.361  1.00  0.00     0.001 A 
ATOM     94  C   UNL A   1      47.072  26.168  25.125  1.00  0.00     0.001 A 
ATOM     95  C   UNL A   1      46.368  27.269  24.648  1.00  0.00     0.000 A 
ENDBRANCH  77  90
ENDBRANCH  51  52
ENDBRANCH  44  46
ENDBRANCH  43  44
ENDBRANCH  42  43
ENDBRANCH  41  42
ENDBRANCH  40  41
ENDBRANCH  39  40
ENDBRANCH  38  39
ENDBRANCH   1  38
TORSDOF 24
ENDMDL
