MODEL 1
REMARK VINA RESULT:      -9.4      0.000      0.000
REMARK SMILES Cc1cc(C)c2c(OCCCC(=O)OCCOCCOCCOCCOC(=O)c3ccc(-c4c5nc(c(-c6ccccc6)c6ccc([nH]6)c(-c6ccccc6)c6nc(c(-c7ccccc7)c7ccc4[nH]7)C=C6)C=C5)cc3)nsc2n1
REMARK SMILES IDX 19 1 18 2 17 3 16 4 15 5 14 6 12 7 13 8 11 9 10 10 9 11 8 12
REMARK SMILES IDX 7 13 1 14 2 15 3 16 80 17 4 18 79 19 5 20 6 21 78 22 77 23
REMARK SMILES IDX 20 24 21 25 22 26 23 27 24 28 25 29 26 30 27 31 28 32 29 33
REMARK SMILES IDX 30 34 76 35 31 36 75 37 32 38 33 39 34 40 69 41 35 42 74 43
REMARK SMILES IDX 68 44 70 45 36 46 73 47 67 48 66 49 37 51 59 52 44 53 58 54
REMARK SMILES IDX 45 55 48 56 57 57 71 58 46 59 47 60 56 62 72 63 49 64 38 65
REMARK SMILES IDX 39 66 43 67 40 68 42 69 41 70 60 71 61 72 65 73 62 74 64 75
REMARK SMILES IDX 63 76 50 77 51 78 55 79 52 80 54 81 53 82
REMARK H PARENT 70 50 48 61
REMARK Flexibility Score: inf
ROOT
ATOM      1  C   UNL A   1      35.322  33.141  28.067  1.00  0.00     0.188 C 
ENDROOT
BRANCH   1   2
ATOM      2  C   UNL A   1      34.222  32.070  28.280  1.00  0.00     0.188 C 
BRANCH   2   3
ATOM      3  O   UNL A   1      33.821  31.268  27.177  1.00  0.00    -0.376 OA
BRANCH   3   4
ATOM      4  C   UNL A   1      33.681  29.877  27.403  1.00  0.00     0.202 C 
BRANCH   4   5
ATOM      5  C   UNL A   1      34.219  28.952  26.313  1.00  0.00     0.261 C 
BRANCH   5   6
ATOM      6  O   UNL A   1      33.563  27.653  26.174  1.00  0.00    -0.463 OA
BRANCH   6   7
ATOM      7  C   UNL A   1      33.092  27.352  24.939  1.00  0.00     0.305 C 
ATOM      8  O   UNL A   1      33.749  26.721  24.111  1.00  0.00    -0.252 OA
BRANCH   7   9
ATOM      9  C   UNL A   1      31.719  27.897  24.553  1.00  0.00     0.126 C 
BRANCH   9  10
ATOM     10  C   UNL A   1      30.652  27.232  23.673  1.00  0.00     0.053 C 
BRANCH  10  11
ATOM     11  C   UNL A   1      29.927  25.929  24.056  1.00  0.00     0.232 C 
BRANCH  11  12
ATOM     12  O   UNL A   1      30.451  24.654  23.682  1.00  0.00    -0.477 OA
BRANCH  12  13
ATOM     13  C   UNL A   1      31.238  24.032  24.582  1.00  0.00     0.235 A 
ATOM     14  C   UNL A   1      36.653  23.708  25.335  1.00  0.00     0.067 C 
ATOM     15  C   UNL A   1      35.233  23.320  25.028  1.00  0.00     0.039 A 
ATOM     16  C   UNL A   1      34.825  23.186  23.705  1.00  0.00     0.027 A 
ATOM     17  N   UNL A   1      34.384  23.295  26.069  1.00  0.00    -0.240 NA
ATOM     18  C   UNL A   1      33.467  23.300  23.351  1.00  0.00    -0.034 A 
ATOM     19  C   UNL A   1      33.090  23.381  25.714  1.00  0.00     0.147 A 
ATOM     20  C   UNL A   1      33.094  23.303  21.894  1.00  0.00     0.045 C 
ATOM     21  C   UNL A   1      32.574  23.527  24.427  1.00  0.00     0.078 A 
ATOM     22  S   UNL A   1      31.826  23.432  26.855  1.00  0.00    -0.012 S 
ATOM     23  N   UNL A   1      30.663  23.927  25.778  1.00  0.00    -0.153 NA
ENDBRANCH  12  13
ENDBRANCH  11  12
ENDBRANCH  10  11
ENDBRANCH   9  10
ENDBRANCH   7   9
ENDBRANCH   6   7
ENDBRANCH   5   6
ENDBRANCH   4   5
ENDBRANCH   3   4
ENDBRANCH   2   3
ENDBRANCH   1   2
BRANCH   1  24
ATOM     24  O   UNL A   1      35.007  34.469  28.468  1.00  0.00    -0.377 OA
BRANCH  24  25
ATOM     25  C   UNL A   1      33.690  34.653  28.994  1.00  0.00     0.188 C 
BRANCH  25  26
ATOM     26  C   UNL A   1      33.055  36.052  28.828  1.00  0.00     0.188 C 
BRANCH  26  27
ATOM     27  O   UNL A   1      32.423  36.543  30.002  1.00  0.00    -0.376 OA
BRANCH  27  28
ATOM     28  C   UNL A   1      33.140  36.835  31.185  1.00  0.00     0.202 C 
BRANCH  28  29
ATOM     29  C   UNL A   1      32.698  36.124  32.463  1.00  0.00     0.261 C 
BRANCH  29  30
ATOM     30  O   UNL A   1      33.101  34.768  32.553  1.00  0.00    -0.460 OA
BRANCH  30  31
ATOM     31  C   UNL A   1      34.313  34.577  33.089  1.00  0.00     0.338 C 
ATOM     32  O   UNL A   1      34.732  35.010  34.163  1.00  0.00    -0.246 OA
BRANCH  31  33
ATOM     33  C   UNL A   1      35.153  33.875  32.131  1.00  0.00     0.060 A 
ATOM     34  C   UNL A   1      34.853  32.530  31.939  1.00  0.00     0.016 A 
ATOM     35  C   UNL A   1      36.379  34.442  31.738  1.00  0.00     0.016 A 
ATOM     36  C   UNL A   1      35.884  31.697  31.594  1.00  0.00     0.010 A 
ATOM     37  C   UNL A   1      37.410  33.603  31.384  1.00  0.00     0.010 A 
ATOM     38  C   UNL A   1      37.168  32.237  31.415  1.00  0.00    -0.014 A 
BRANCH  38  39
ATOM     39  C   UNL A   1      38.234  31.278  31.247  1.00  0.00     0.031 A 
ATOM     40  C   UNL A   1      39.012  31.052  32.473  1.00  0.00     0.074 A 
ATOM     41  C   UNL A   1      38.557  30.708  30.076  1.00  0.00     0.049 A 
ATOM     42  N   UNL A   1      40.184  31.520  32.735  1.00  0.00    -0.248 NA
ATOM     43  C   UNL A   1      38.349  30.373  33.590  1.00  0.00     0.031 C 
ATOM     44  C   UNL A   1      37.792  30.637  28.832  1.00  0.00     0.029 A 
ATOM     45  N   UNL A   1      39.677  29.989  29.801  1.00  0.00    -0.354 N 
ATOM     46  C   UNL A   1      40.497  31.047  33.999  1.00  0.00     0.074 A 
ATOM     47  C   UNL A   1      39.287  30.469  34.532  1.00  0.00     0.031 C 
ATOM     48  C   UNL A   1      38.371  29.726  28.014  1.00  0.00     0.029 A 
ATOM     49  C   UNL A   1      39.619  29.281  28.616  1.00  0.00     0.049 A 
ATOM     50  H   UNL A   1      40.462  29.973  30.394  1.00  0.00     0.167 HD
ATOM     51  C   UNL A   1      41.789  30.956  34.406  1.00  0.00     0.031 A 
ATOM     52  C   UNL A   1      40.512  28.349  28.211  1.00  0.00     0.031 A 
ATOM     53  C   UNL A   1      42.672  31.769  33.610  1.00  0.00     0.049 A 
ATOM     54  C   UNL A   1      41.791  28.615  28.914  1.00  0.00     0.074 A 
ATOM     55  C   UNL A   1      42.762  33.117  33.320  1.00  0.00     0.029 A 
ATOM     56  N   UNL A   1      43.446  31.129  32.671  1.00  0.00    -0.354 N 
ATOM     57  N   UNL A   1      42.543  29.652  28.673  1.00  0.00    -0.248 NA
ATOM     58  C   UNL A   1      42.052  27.937  30.175  1.00  0.00     0.031 C 
ATOM     59  C   UNL A   1      43.210  33.179  31.969  1.00  0.00     0.029 A 
ATOM     60  C   UNL A   1      43.397  31.870  31.521  1.00  0.00     0.049 A 
ATOM     61  H   UNL A   1      43.945  30.290  32.802  1.00  0.00     0.167 HD
ATOM     62  C   UNL A   1      43.065  30.008  29.908  1.00  0.00     0.074 A 
ATOM     63  C   UNL A   1      42.824  28.853  30.768  1.00  0.00     0.031 C 
ATOM     64  C   UNL A   1      43.390  31.304  30.190  1.00  0.00     0.031 A 
BRANCH  51  65
ATOM     65  C   UNL A   1      42.287  29.787  35.214  1.00  0.00    -0.014 A 
ATOM     66  C   UNL A   1      43.093  30.044  36.334  1.00  0.00     0.009 A 
ATOM     67  C   UNL A   1      42.258  28.461  34.738  1.00  0.00     0.009 A 
ATOM     68  C   UNL A   1      43.902  29.046  36.887  1.00  0.00     0.001 A 
ATOM     69  C   UNL A   1      43.028  27.453  35.316  1.00  0.00     0.001 A 
ATOM     70  C   UNL A   1      43.876  27.754  36.370  1.00  0.00     0.000 A 
ENDBRANCH  51  65
BRANCH  52  71
ATOM     71  C   UNL A   1      40.245  27.087  27.493  1.00  0.00    -0.014 A 
ATOM     72  C   UNL A   1      41.076  26.679  26.439  1.00  0.00     0.009 A 
ATOM     73  C   UNL A   1      39.342  26.144  28.020  1.00  0.00     0.009 A 
ATOM     74  C   UNL A   1      41.040  25.362  25.965  1.00  0.00     0.001 A 
ATOM     75  C   UNL A   1      39.301  24.831  27.541  1.00  0.00     0.001 A 
ATOM     76  C   UNL A   1      40.164  24.437  26.525  1.00  0.00     0.000 A 
ENDBRANCH  52  71
BRANCH  64  77
ATOM     77  C   UNL A   1      43.453  32.291  29.054  1.00  0.00    -0.014 A 
ATOM     78  C   UNL A   1      42.935  33.594  29.151  1.00  0.00     0.009 A 
ATOM     79  C   UNL A   1      44.221  31.958  27.927  1.00  0.00     0.009 A 
ATOM     80  C   UNL A   1      43.170  34.532  28.139  1.00  0.00     0.001 A 
ATOM     81  C   UNL A   1      44.472  32.901  26.929  1.00  0.00     0.001 A 
ATOM     82  C   UNL A   1      43.945  34.186  27.034  1.00  0.00     0.000 A 
ENDBRANCH  64  77
ENDBRANCH  38  39
ENDBRANCH  31  33
ENDBRANCH  30  31
ENDBRANCH  29  30
ENDBRANCH  28  29
ENDBRANCH  27  28
ENDBRANCH  26  27
ENDBRANCH  25  26
ENDBRANCH  24  25
ENDBRANCH   1  24
TORSDOF 24
ENDMDL
MODEL 2
REMARK VINA RESULT:      -9.4      1.570      2.059
REMARK SMILES Cc1cc(C)c2c(OCCCC(=O)OCCOCCOCCOCCOC(=O)c3ccc(-c4c5nc(c(-c6ccccc6)c6ccc([nH]6)c(-c6ccccc6)c6nc(c(-c7ccccc7)c7ccc4[nH]7)C=C6)C=C5)cc3)nsc2n1
REMARK SMILES IDX 19 1 18 2 17 3 16 4 15 5 14 6 12 7 13 8 11 9 10 10 9 11 8 12
REMARK SMILES IDX 7 13 1 14 2 15 3 16 80 17 4 18 79 19 5 20 6 21 78 22 77 23
REMARK SMILES IDX 20 24 21 25 22 26 23 27 24 28 25 29 26 30 27 31 28 32 29 33
REMARK SMILES IDX 30 34 76 35 31 36 75 37 32 38 33 39 34 40 69 41 35 42 74 43
REMARK SMILES IDX 68 44 70 45 36 46 73 47 67 48 66 49 37 51 59 52 44 53 58 54
REMARK SMILES IDX 45 55 48 56 57 57 71 58 46 59 47 60 56 62 72 63 49 64 38 65
REMARK SMILES IDX 39 66 43 67 40 68 42 69 41 70 60 71 61 72 65 73 62 74 64 75
REMARK SMILES IDX 63 76 50 77 51 78 55 79 52 80 54 81 53 82
REMARK H PARENT 70 50 48 61
REMARK Flexibility Score: inf
ROOT
ATOM      1  C   UNL A   1      34.955  32.133  28.058  1.00  0.00     0.188 C 
ENDROOT
BRANCH   1   2
ATOM      2  C   UNL A   1      33.621  31.443  27.679  1.00  0.00     0.188 C 
BRANCH   2   3
ATOM      3  O   UNL A   1      33.652  30.113  27.177  1.00  0.00    -0.376 OA
BRANCH   3   4
ATOM      4  C   UNL A   1      32.420  29.542  26.776  1.00  0.00     0.202 C 
BRANCH   4   5
ATOM      5  C   UNL A   1      31.935  28.337  27.581  1.00  0.00     0.261 C 
BRANCH   5   6
ATOM      6  O   UNL A   1      31.025  27.418  26.900  1.00  0.00    -0.463 OA
BRANCH   6   7
ATOM      7  C   UNL A   1      31.583  26.288  26.400  1.00  0.00     0.305 C 
ATOM      8  O   UNL A   1      31.597  25.223  27.016  1.00  0.00    -0.252 OA
BRANCH   7   9
ATOM      9  C   UNL A   1      32.287  26.385  25.048  1.00  0.00     0.126 C 
BRANCH   9  10
ATOM     10  C   UNL A   1      33.786  26.246  24.751  1.00  0.00     0.053 C 
BRANCH  10  11
ATOM     11  C   UNL A   1      34.612  25.000  25.118  1.00  0.00     0.232 C 
BRANCH  11  12
ATOM     12  O   UNL A   1      34.890  23.987  24.150  1.00  0.00    -0.477 OA
BRANCH  12  13
ATOM     13  C   UNL A   1      35.086  22.737  24.617  1.00  0.00     0.235 A 
ATOM     14  C   UNL A   1      32.837  17.863  23.530  1.00  0.00     0.067 C 
ATOM     15  C   UNL A   1      33.229  19.119  24.258  1.00  0.00     0.039 A 
ATOM     16  C   UNL A   1      32.317  20.163  24.372  1.00  0.00     0.027 A 
ATOM     17  N   UNL A   1      34.521  19.225  24.610  1.00  0.00    -0.240 NA
ATOM     18  C   UNL A   1      32.752  21.482  24.598  1.00  0.00    -0.034 A 
ATOM     19  C   UNL A   1      34.916  20.489  24.846  1.00  0.00     0.147 A 
ATOM     20  C   UNL A   1      31.742  22.597  24.558  1.00  0.00     0.045 C 
ATOM     21  C   UNL A   1      34.153  21.650  24.724  1.00  0.00     0.078 A 
ATOM     22  S   UNL A   1      36.522  20.890  25.247  1.00  0.00    -0.012 S 
ATOM     23  N   UNL A   1      36.346  22.520  24.987  1.00  0.00    -0.153 NA
ENDBRANCH  12  13
ENDBRANCH  11  12
ENDBRANCH  10  11
ENDBRANCH   9  10
ENDBRANCH   7   9
ENDBRANCH   6   7
ENDBRANCH   5   6
ENDBRANCH   4   5
ENDBRANCH   3   4
ENDBRANCH   2   3
ENDBRANCH   1   2
BRANCH   1  24
ATOM     24  O   UNL A   1      34.885  33.509  28.413  1.00  0.00    -0.377 OA
BRANCH  24  25
ATOM     25  C   UNL A   1      33.568  34.012  28.654  1.00  0.00     0.188 C 
BRANCH  25  26
ATOM     26  C   UNL A   1      33.424  35.537  28.860  1.00  0.00     0.188 C 
BRANCH  26  27
ATOM     27  O   UNL A   1      32.470  35.898  29.850  1.00  0.00    -0.376 OA
BRANCH  27  28
ATOM     28  C   UNL A   1      32.824  36.601  31.024  1.00  0.00     0.202 C 
BRANCH  28  29
ATOM     29  C   UNL A   1      32.424  35.974  32.360  1.00  0.00     0.261 C 
BRANCH  29  30
ATOM     30  O   UNL A   1      33.033  34.723  32.630  1.00  0.00    -0.460 OA
BRANCH  30  31
ATOM     31  C   UNL A   1      34.304  34.795  33.043  1.00  0.00     0.338 C 
ATOM     32  O   UNL A   1      34.754  35.478  33.964  1.00  0.00    -0.246 OA
BRANCH  31  33
ATOM     33  C   UNL A   1      35.146  34.034  32.132  1.00  0.00     0.060 A 
ATOM     34  C   UNL A   1      34.839  32.682  32.018  1.00  0.00     0.016 A 
ATOM     35  C   UNL A   1      36.378  34.570  31.715  1.00  0.00     0.016 A 
ATOM     36  C   UNL A   1      35.867  31.825  31.727  1.00  0.00     0.010 A 
ATOM     37  C   UNL A   1      37.405  33.706  31.416  1.00  0.00     0.010 A 
ATOM     38  C   UNL A   1      37.156  32.345  31.525  1.00  0.00    -0.014 A 
BRANCH  38  39
ATOM     39  C   UNL A   1      38.216  31.373  31.419  1.00  0.00     0.031 A 
ATOM     40  C   UNL A   1      38.913  31.131  32.691  1.00  0.00     0.074 A 
ATOM     41  C   UNL A   1      38.604  30.802  30.269  1.00  0.00     0.049 A 
ATOM     42  N   UNL A   1      40.073  31.582  33.028  1.00  0.00    -0.248 NA
ATOM     43  C   UNL A   1      38.172  30.458  33.762  1.00  0.00     0.031 C 
ATOM     44  C   UNL A   1      37.918  30.747  28.979  1.00  0.00     0.029 A 
ATOM     45  N   UNL A   1      39.729  30.069  30.061  1.00  0.00    -0.354 N 
ATOM     46  C   UNL A   1      40.300  31.100  34.306  1.00  0.00     0.074 A 
ATOM     47  C   UNL A   1      39.051  30.537  34.760  1.00  0.00     0.031 C 
ATOM     48  C   UNL A   1      38.534  29.831  28.195  1.00  0.00     0.029 A 
ATOM     49  C   UNL A   1      39.735  29.366  28.871  1.00  0.00     0.049 A 
ATOM     50  H   UNL A   1      40.475  30.040  30.702  1.00  0.00     0.167 HD
ATOM     51  C   UNL A   1      41.562  30.989  34.793  1.00  0.00     0.031 A 
ATOM     52  C   UNL A   1      40.640  28.423  28.519  1.00  0.00     0.031 A 
ATOM     53  C   UNL A   1      42.504  31.793  34.057  1.00  0.00     0.049 A 
ATOM     54  C   UNL A   1      41.875  28.669  29.302  1.00  0.00     0.074 A 
ATOM     55  C   UNL A   1      42.631  33.140  33.780  1.00  0.00     0.029 A 
ATOM     56  N   UNL A   1      43.327  31.145  33.166  1.00  0.00    -0.354 N 
ATOM     57  N   UNL A   1      42.655  29.696  29.113  1.00  0.00    -0.248 NA
ATOM     58  C   UNL A   1      42.047  27.983  30.574  1.00  0.00     0.031 C 
ATOM     59  C   UNL A   1      43.163  33.201  32.460  1.00  0.00     0.029 A 
ATOM     60  C   UNL A   1      43.360  31.891  32.019  1.00  0.00     0.049 A 
ATOM     61  H   UNL A   1      43.805  30.299  33.325  1.00  0.00     0.167 HD
ATOM     62  C   UNL A   1      43.103  30.040  30.380  1.00  0.00     0.074 A 
ATOM     63  C   UNL A   1      42.794  28.885  31.217  1.00  0.00     0.031 C 
ATOM     64  C   UNL A   1      43.428  31.330  30.687  1.00  0.00     0.031 A 
BRANCH  51  65
ATOM     65  C   UNL A   1      41.993  29.811  35.625  1.00  0.00    -0.014 A 
ATOM     66  C   UNL A   1      43.212  29.890  36.316  1.00  0.00     0.009 A 
ATOM     67  C   UNL A   1      41.411  28.533  35.500  1.00  0.00     0.009 A 
ATOM     68  C   UNL A   1      43.861  28.738  36.772  1.00  0.00     0.001 A 
ATOM     69  C   UNL A   1      42.033  27.388  35.994  1.00  0.00     0.001 A 
ATOM     70  C   UNL A   1      43.276  27.487  36.600  1.00  0.00     0.000 A 
ENDBRANCH  51  65
BRANCH  52  71
ATOM     71  C   UNL A   1      40.400  27.167  27.780  1.00  0.00    -0.014 A 
ATOM     72  C   UNL A   1      41.099  26.897  26.594  1.00  0.00     0.009 A 
ATOM     73  C   UNL A   1      39.694  26.109  28.382  1.00  0.00     0.009 A 
ATOM     74  C   UNL A   1      41.129  25.603  26.058  1.00  0.00     0.001 A 
ATOM     75  C   UNL A   1      39.718  24.820  27.842  1.00  0.00     0.001 A 
ATOM     76  C   UNL A   1      40.452  24.564  26.690  1.00  0.00     0.000 A 
ENDBRANCH  52  71
BRANCH  64  77
ATOM     77  C   UNL A   1      43.576  32.320  29.562  1.00  0.00    -0.014 A 
ATOM     78  C   UNL A   1      42.690  33.396  29.375  1.00  0.00     0.009 A 
ATOM     79  C   UNL A   1      44.745  32.275  28.786  1.00  0.00     0.009 A 
ATOM     80  C   UNL A   1      42.963  34.388  28.428  1.00  0.00     0.001 A 
ATOM     81  C   UNL A   1      45.026  33.277  27.856  1.00  0.00     0.001 A 
ATOM     82  C   UNL A   1      44.134  34.332  27.676  1.00  0.00     0.000 A 
ENDBRANCH  64  77
ENDBRANCH  38  39
ENDBRANCH  31  33
ENDBRANCH  30  31
ENDBRANCH  29  30
ENDBRANCH  28  29
ENDBRANCH  27  28
ENDBRANCH  26  27
ENDBRANCH  25  26
ENDBRANCH  24  25
ENDBRANCH   1  24
TORSDOF 24
ENDMDL
MODEL 3
REMARK VINA RESULT:      -8.9      5.465      9.982
REMARK SMILES Cc1cc(C)c2c(OCCCC(=O)OCCOCCOCCOCCOC(=O)c3ccc(-c4c5nc(c(-c6ccccc6)c6ccc([nH]6)c(-c6ccccc6)c6nc(c(-c7ccccc7)c7ccc4[nH]7)C=C6)C=C5)cc3)nsc2n1
REMARK SMILES IDX 19 1 18 2 17 3 16 4 15 5 14 6 12 7 13 8 11 9 10 10 9 11 8 12
REMARK SMILES IDX 7 13 1 14 2 15 3 16 80 17 4 18 79 19 5 20 6 21 78 22 77 23
REMARK SMILES IDX 20 24 21 25 22 26 23 27 24 28 25 29 26 30 27 31 28 32 29 33
REMARK SMILES IDX 30 34 76 35 31 36 75 37 32 38 33 39 34 40 69 41 35 42 74 43
REMARK SMILES IDX 68 44 70 45 36 46 73 47 67 48 66 49 37 51 59 52 44 53 58 54
REMARK SMILES IDX 45 55 48 56 57 57 71 58 46 59 47 60 56 62 72 63 49 64 38 65
REMARK SMILES IDX 39 66 43 67 40 68 42 69 41 70 60 71 61 72 65 73 62 74 64 75
REMARK SMILES IDX 63 76 50 77 51 78 55 79 52 80 54 81 53 82
REMARK H PARENT 70 50 48 61
REMARK Flexibility Score: inf
ROOT
ATOM      1  C   UNL A   1      45.578  26.729  25.059  1.00  0.00     0.188 C 
ENDROOT
BRANCH   1   2
ATOM      2  C   UNL A   1      44.846  25.378  25.255  1.00  0.00     0.188 C 
BRANCH   2   3
ATOM      3  O   UNL A   1      45.348  24.222  24.598  1.00  0.00    -0.376 OA
BRANCH   3   4
ATOM      4  C   UNL A   1      44.522  23.072  24.587  1.00  0.00     0.202 C 
BRANCH   4   5
ATOM      5  C   UNL A   1      45.219  21.734  24.342  1.00  0.00     0.261 C 
BRANCH   5   6
ATOM      6  O   UNL A   1      44.402  20.663  23.776  1.00  0.00    -0.463 OA
BRANCH   6   7
ATOM      7  C   UNL A   1      44.755  19.400  24.116  1.00  0.00     0.305 C 
ATOM      8  O   UNL A   1      45.711  18.815  23.607  1.00  0.00    -0.252 OA
BRANCH   7   9
ATOM      9  C   UNL A   1      43.868  18.663  25.117  1.00  0.00     0.126 C 
BRANCH   9  10
ATOM     10  C   UNL A   1      43.038  19.259  26.263  1.00  0.00     0.053 C 
BRANCH  10  11
ATOM     11  C   UNL A   1      41.983  20.361  26.061  1.00  0.00     0.232 C 
BRANCH  11  12
ATOM     12  O   UNL A   1      40.819  20.430  26.888  1.00  0.00    -0.477 OA
BRANCH  12  13
ATOM     13  C   UNL A   1      40.080  21.554  26.804  1.00  0.00     0.235 A 
ATOM     14  C   UNL A   1      41.272  26.875  26.297  1.00  0.00     0.067 C 
ATOM     15  C   UNL A   1      40.788  25.574  26.874  1.00  0.00     0.039 A 
ATOM     16  C   UNL A   1      41.578  24.890  27.792  1.00  0.00     0.027 A 
ATOM     17  N   UNL A   1      39.677  25.055  26.325  1.00  0.00    -0.240 NA
ATOM     18  C   UNL A   1      41.422  23.506  27.992  1.00  0.00    -0.034 A 
ATOM     19  C   UNL A   1      39.529  23.737  26.544  1.00  0.00     0.147 A 
ATOM     20  C   UNL A   1      42.401  22.785  28.878  1.00  0.00     0.045 C 
ATOM     21  C   UNL A   1      40.405  22.890  27.223  1.00  0.00     0.078 A 
ATOM     22  S   UNL A   1      38.235  22.837  25.899  1.00  0.00    -0.012 S 
ATOM     23  N   UNL A   1      38.905  21.351  26.212  1.00  0.00    -0.153 NA
ENDBRANCH  12  13
ENDBRANCH  11  12
ENDBRANCH  10  11
ENDBRANCH   9  10
ENDBRANCH   7   9
ENDBRANCH   6   7
ENDBRANCH   5   6
ENDBRANCH   4   5
ENDBRANCH   3   4
ENDBRANCH   2   3
ENDBRANCH   1   2
BRANCH   1  24
ATOM     24  O   UNL A   1      46.877  26.675  24.482  1.00  0.00    -0.377 OA
BRANCH  24  25
ATOM     25  C   UNL A   1      47.955  26.541  25.412  1.00  0.00     0.188 C 
BRANCH  25  26
ATOM     26  C   UNL A   1      48.294  27.774  26.279  1.00  0.00     0.188 C 
BRANCH  26  27
ATOM     27  O   UNL A   1      47.841  27.679  27.622  1.00  0.00    -0.376 OA
BRANCH  27  28
ATOM     28  C   UNL A   1      47.775  26.449  28.316  1.00  0.00     0.202 C 
BRANCH  28  29
ATOM     29  C   UNL A   1      47.370  26.499  29.789  1.00  0.00     0.261 C 
BRANCH  29  30
ATOM     30  O   UNL A   1      46.101  25.933  30.071  1.00  0.00    -0.460 OA
BRANCH  30  31
ATOM     31  C   UNL A   1      45.681  26.098  31.331  1.00  0.00     0.338 C 
ATOM     32  O   UNL A   1      46.273  25.783  32.364  1.00  0.00    -0.246 OA
BRANCH  31  33
ATOM     33  C   UNL A   1      44.314  26.595  31.318  1.00  0.00     0.060 A 
ATOM     34  C   UNL A   1      43.658  26.518  30.094  1.00  0.00     0.016 A 
ATOM     35  C   UNL A   1      43.862  27.412  32.370  1.00  0.00     0.016 A 
ATOM     36  C   UNL A   1      42.699  27.461  29.832  1.00  0.00     0.010 A 
ATOM     37  C   UNL A   1      42.895  28.353  32.106  1.00  0.00     0.010 A 
ATOM     38  C   UNL A   1      42.402  28.423  30.810  1.00  0.00    -0.014 A 
BRANCH  38  39
ATOM     39  C   UNL A   1      41.530  29.494  30.392  1.00  0.00     0.031 A 
ATOM     40  C   UNL A   1      42.255  30.682  29.917  1.00  0.00     0.074 A 
ATOM     41  C   UNL A   1      40.193  29.466  30.502  1.00  0.00     0.049 A 
ATOM     42  N   UNL A   1      42.430  31.784  30.564  1.00  0.00    -0.248 NA
ATOM     43  C   UNL A   1      43.002  30.573  28.661  1.00  0.00     0.031 C 
ATOM     44  C   UNL A   1      39.303  28.331  30.736  1.00  0.00     0.029 A 
ATOM     45  N   UNL A   1      39.340  30.512  30.351  1.00  0.00    -0.354 N 
ATOM     46  C   UNL A   1      43.172  32.593  29.720  1.00  0.00     0.074 A 
ATOM     47  C   UNL A   1      43.613  31.757  28.631  1.00  0.00     0.031 C 
ATOM     48  C   UNL A   1      38.028  28.715  30.485  1.00  0.00     0.029 A 
ATOM     49  C   UNL A   1      38.012  30.148  30.233  1.00  0.00     0.049 A 
ATOM     50  H   UNL A   1      39.641  31.449  30.326  1.00  0.00     0.167 HD
ATOM     51  C   UNL A   1      43.160  33.944  29.865  1.00  0.00     0.031 A 
ATOM     52  C   UNL A   1      36.998  30.973  29.885  1.00  0.00     0.031 A 
ATOM     53  C   UNL A   1      42.696  34.349  31.167  1.00  0.00     0.049 A 
ATOM     54  C   UNL A   1      37.414  32.360  30.205  1.00  0.00     0.074 A 
ATOM     55  C   UNL A   1      43.108  34.120  32.465  1.00  0.00     0.029 A 
ATOM     56  N   UNL A   1      41.410  34.829  31.258  1.00  0.00    -0.354 N 
ATOM     57  N   UNL A   1      37.555  32.807  31.421  1.00  0.00    -0.248 NA
ATOM     58  C   UNL A   1      38.064  33.153  29.172  1.00  0.00     0.031 C 
ATOM     59  C   UNL A   1      41.908  34.044  33.230  1.00  0.00     0.029 A 
ATOM     60  C   UNL A   1      40.835  34.261  32.363  1.00  0.00     0.049 A 
ATOM     61  H   UNL A   1      40.982  35.466  30.640  1.00  0.00     0.167 HD
ATOM     62  C   UNL A   1      38.639  33.671  31.360  1.00  0.00     0.074 A 
ATOM     63  C   UNL A   1      38.833  33.933  29.937  1.00  0.00     0.031 C 
ATOM     64  C   UNL A   1      39.445  33.870  32.443  1.00  0.00     0.031 A 
BRANCH  51  65
ATOM     65  C   UNL A   1      43.131  34.870  28.680  1.00  0.00    -0.014 A 
ATOM     66  C   UNL A   1      44.345  35.403  28.217  1.00  0.00     0.009 A 
ATOM     67  C   UNL A   1      41.948  35.477  28.212  1.00  0.00     0.009 A 
ATOM     68  C   UNL A   1      44.372  36.543  27.408  1.00  0.00     0.001 A 
ATOM     69  C   UNL A   1      41.971  36.586  27.368  1.00  0.00     0.001 A 
ATOM     70  C   UNL A   1      43.185  37.140  26.993  1.00  0.00     0.000 A 
ENDBRANCH  51  65
BRANCH  52  71
ATOM     71  C   UNL A   1      35.831  30.667  29.033  1.00  0.00    -0.014 A 
ATOM     72  C   UNL A   1      34.836  31.632  28.819  1.00  0.00     0.009 A 
ATOM     73  C   UNL A   1      35.832  29.529  28.204  1.00  0.00     0.009 A 
ATOM     74  C   UNL A   1      33.906  31.487  27.782  1.00  0.00     0.001 A 
ATOM     75  C   UNL A   1      34.898  29.381  27.174  1.00  0.00     0.001 A 
ATOM     76  C   UNL A   1      33.947  30.369  26.952  1.00  0.00     0.000 A 
ENDBRANCH  52  71
BRANCH  64  77
ATOM     77  C   UNL A   1      38.978  33.372  33.786  1.00  0.00    -0.014 A 
ATOM     78  C   UNL A   1      38.232  34.167  34.674  1.00  0.00     0.009 A 
ATOM     79  C   UNL A   1      39.133  32.008  34.079  1.00  0.00     0.009 A 
ATOM     80  C   UNL A   1      37.670  33.611  35.829  1.00  0.00     0.001 A 
ATOM     81  C   UNL A   1      38.554  31.451  35.220  1.00  0.00     0.001 A 
ATOM     82  C   UNL A   1      37.825  32.253  36.095  1.00  0.00     0.000 A 
ENDBRANCH  64  77
ENDBRANCH  38  39
ENDBRANCH  31  33
ENDBRANCH  30  31
ENDBRANCH  29  30
ENDBRANCH  28  29
ENDBRANCH  27  28
ENDBRANCH  26  27
ENDBRANCH  25  26
ENDBRANCH  24  25
ENDBRANCH   1  24
TORSDOF 24
ENDMDL
