MODEL 1
REMARK VINA RESULT:      -9.5      0.000      0.000
REMARK SMILES CCn1nc(C)c(NS(=O)(=O)c2cc(C(=O)OCCOCCOCCOCCOC(=O)c3ccc(-c4c5nc(c(-c6ccccc6)c6ccc([nH]6)c(-c6ccccc6)c6nc(c(-c7ccccc7)c7ccc4[nH]7)C=C6)C=C5)cc3)cc(F)c2C)c1C
REMARK SMILES IDX 22 1 21 2 20 3 19 4 18 5 17 6 15 7 16 8 14 9 12 10 13 11
REMARK SMILES IDX 83 12 81 13 84 14 80 15 82 16 9 17 10 18 11 19 8 20 7 22
REMARK SMILES IDX 3 23 4 24 85 25 5 26 86 27 6 28 2 29 1 30 23 31 24 32 25 33
REMARK SMILES IDX 26 34 27 35 28 36 29 37 30 38 31 39 32 40 33 41 79 42 34 43
REMARK SMILES IDX 78 44 35 45 36 46 37 47 72 48 38 49 77 50 71 51 73 52 39 53
REMARK SMILES IDX 76 54 70 55 69 56 40 58 62 59 47 60 61 61 48 62 51 63 60 64
REMARK SMILES IDX 74 65 49 66 50 67 59 69 75 70 52 71 41 72 42 73 46 74 43 75
REMARK SMILES IDX 45 76 44 77 63 78 64 79 68 80 65 81 67 82 66 83 53 84 54 85
REMARK SMILES IDX 58 86 55 87 57 88 56 89
REMARK H PARENT 8 21 73 57 51 68
REMARK Flexibility Score: inf
ROOT
ATOM      1  C   UNL A   1      41.483  20.604  26.683  1.00  0.00     0.188 C 
ENDROOT
BRANCH   1   2
ATOM      2  C   UNL A   1      40.142  19.971  26.247  1.00  0.00     0.188 C 
BRANCH   2   3
ATOM      3  O   UNL A   1      39.246  20.844  25.597  1.00  0.00    -0.376 OA
BRANCH   3   4
ATOM      4  C   UNL A   1      38.038  20.400  25.018  1.00  0.00     0.202 C 
BRANCH   4   5
ATOM      5  C   UNL A   1      36.832  21.288  24.661  1.00  0.00     0.261 C 
BRANCH   5   6
ATOM      6  O   UNL A   1      37.021  22.701  24.662  1.00  0.00    -0.460 OA
BRANCH   6   7
ATOM      7  C   UNL A   1      36.757  23.351  25.819  1.00  0.00     0.338 C 
ATOM      8  O   UNL A   1      37.530  23.966  26.522  1.00  0.00    -0.246 OA
BRANCH   7   9
ATOM      9  C   UNL A   1      35.287  23.374  25.970  1.00  0.00     0.064 A 
ATOM     10  C   UNL A   1      33.098  24.043  25.176  1.00  0.00     0.094 A 
ATOM     11  C   UNL A   1      34.500  24.066  25.056  1.00  0.00     0.038 A 
ATOM     12  C   UNL A   1      32.484  23.481  26.308  1.00  0.00     0.005 A 
ATOM     13  C   UNL A   1      33.317  22.842  27.240  1.00  0.00     0.128 A 
ATOM     14  C   UNL A   1      31.006  23.432  26.568  1.00  0.00     0.049 C 
ATOM     15  C   UNL A   1      34.693  22.737  27.059  1.00  0.00     0.055 A 
ATOM     16  F   UNL A   1      32.777  22.264  28.322  1.00  0.00    -0.207 F 
BRANCH  10  17
ATOM     17  S   UNL A   1      32.223  24.674  23.772  1.00  0.00     0.262 S 
ATOM     18  O   UNL A   1      31.543  23.565  23.136  1.00  0.00    -0.201 OA
ATOM     19  O   UNL A   1      33.169  25.472  23.020  1.00  0.00    -0.201 OA
BRANCH  17  20
ATOM     20  N   UNL A   1      31.027  25.724  24.272  1.00  0.00    -0.276 N 
ATOM     21  H   UNL A   1      30.226  25.264  24.614  1.00  0.00     0.180 HD
BRANCH  20  22
ATOM     22  C   UNL A   1      30.922  27.119  24.309  1.00  0.00     0.093 A 
ATOM     23  N   UNL A   1      30.088  29.075  23.736  1.00  0.00    -0.268 N 
ATOM     24  N   UNL A   1      31.232  29.372  24.373  1.00  0.00    -0.176 NA
ATOM     25  C   UNL A   1      29.768  27.749  23.855  1.00  0.00     0.060 A 
ATOM     26  C   UNL A   1      31.715  28.195  24.791  1.00  0.00     0.084 A 
ATOM     27  C   UNL A   1      28.445  27.133  23.577  1.00  0.00     0.069 C 
ATOM     28  C   UNL A   1      32.922  28.254  25.642  1.00  0.00     0.071 C 
BRANCH  23  29
ATOM     29  C   UNL A   1      29.520  30.124  22.905  1.00  0.00     0.141 C 
ATOM     30  C   UNL A   1      28.653  31.172  23.575  1.00  0.00     0.029 C 
ENDBRANCH  23  29
ENDBRANCH  20  22
ENDBRANCH  17  20
ENDBRANCH  10  17
ENDBRANCH   7   9
ENDBRANCH   6   7
ENDBRANCH   5   6
ENDBRANCH   4   5
ENDBRANCH   3   4
ENDBRANCH   2   3
ENDBRANCH   1   2
BRANCH   1  31
ATOM     31  O   UNL A   1      42.252  21.242  25.681  1.00  0.00    -0.377 OA
BRANCH  31  32
ATOM     32  C   UNL A   1      42.348  22.664  25.662  1.00  0.00     0.188 C 
BRANCH  32  33
ATOM     33  C   UNL A   1      42.760  23.526  26.888  1.00  0.00     0.188 C 
BRANCH  33  34
ATOM     34  O   UNL A   1      43.653  24.593  26.633  1.00  0.00    -0.376 OA
BRANCH  34  35
ATOM     35  C   UNL A   1      44.070  25.518  27.612  1.00  0.00     0.202 C 
BRANCH  35  36
ATOM     36  C   UNL A   1      43.452  25.462  29.001  1.00  0.00     0.261 C 
BRANCH  36  37
ATOM     37  O   UNL A   1      44.374  25.200  30.041  1.00  0.00    -0.460 OA
BRANCH  37  38
ATOM     38  C   UNL A   1      44.191  24.009  30.640  1.00  0.00     0.338 C 
ATOM     39  O   UNL A   1      43.745  22.993  30.142  1.00  0.00    -0.246 OA
BRANCH  38  40
ATOM     40  C   UNL A   1      44.454  24.182  32.068  1.00  0.00     0.060 A 
ATOM     41  C   UNL A   1      45.591  24.916  32.392  1.00  0.00     0.016 A 
ATOM     42  C   UNL A   1      43.815  23.332  32.987  1.00  0.00     0.016 A 
ATOM     43  C   UNL A   1      46.245  24.587  33.554  1.00  0.00     0.010 A 
ATOM     44  C   UNL A   1      44.474  22.999  34.143  1.00  0.00     0.010 A 
ATOM     45  C   UNL A   1      45.727  23.557  34.355  1.00  0.00    -0.014 A 
BRANCH  45  46
ATOM     46  C   UNL A   1      46.515  23.147  35.492  1.00  0.00     0.031 A 
ATOM     47  C   UNL A   1      47.058  24.299  36.231  1.00  0.00     0.074 A 
ATOM     48  C   UNL A   1      46.728  21.864  35.835  1.00  0.00     0.049 A 
ATOM     49  N   UNL A   1      48.281  24.706  36.215  1.00  0.00    -0.248 NA
ATOM     50  C   UNL A   1      46.113  25.213  36.887  1.00  0.00     0.031 C 
ATOM     51  C   UNL A   1      46.079  20.651  35.334  1.00  0.00     0.029 A 
ATOM     52  N   UNL A   1      47.555  21.391  36.803  1.00  0.00    -0.354 N 
ATOM     53  C   UNL A   1      48.307  25.834  37.019  1.00  0.00     0.074 A 
ATOM     54  C   UNL A   1      46.933  26.193  37.269  1.00  0.00     0.031 C 
ATOM     55  C   UNL A   1      46.366  19.619  36.166  1.00  0.00     0.029 A 
ATOM     56  C   UNL A   1      47.334  20.068  37.154  1.00  0.00     0.049 A 
ATOM     57  H   UNL A   1      48.255  21.943  37.221  1.00  0.00     0.167 HD
ATOM     58  C   UNL A   1      49.460  26.226  37.621  1.00  0.00     0.031 A 
ATOM     59  C   UNL A   1      47.882  19.424  38.215  1.00  0.00     0.031 A 
ATOM     60  C   UNL A   1      50.612  25.596  37.028  1.00  0.00     0.049 A 
ATOM     61  C   UNL A   1      49.103  20.168  38.602  1.00  0.00     0.074 A 
ATOM     62  C   UNL A   1      51.203  25.618  35.782  1.00  0.00     0.029 A 
ATOM     63  N   UNL A   1      51.096  24.478  37.665  1.00  0.00    -0.354 N 
ATOM     64  N   UNL A   1      50.174  20.209  37.865  1.00  0.00    -0.248 NA
ATOM     65  C   UNL A   1      48.983  21.232  39.587  1.00  0.00     0.031 C 
ATOM     66  C   UNL A   1      51.663  24.286  35.566  1.00  0.00     0.029 A 
ATOM     67  C   UNL A   1      51.389  23.538  36.713  1.00  0.00     0.049 A 
ATOM     68  H   UNL A   1      51.212  24.372  38.637  1.00  0.00     0.167 HD
ATOM     69  C   UNL A   1      50.616  21.521  37.962  1.00  0.00     0.074 A 
ATOM     70  C   UNL A   1      49.913  22.071  39.120  1.00  0.00     0.031 C 
ATOM     71  C   UNL A   1      51.285  22.111  36.928  1.00  0.00     0.031 A 
BRANCH  58  72
ATOM     72  C   UNL A   1      49.488  26.798  39.011  1.00  0.00    -0.014 A 
ATOM     73  C   UNL A   1      49.249  25.935  40.093  1.00  0.00     0.009 A 
ATOM     74  C   UNL A   1      49.437  28.181  39.272  1.00  0.00     0.009 A 
ATOM     75  C   UNL A   1      48.902  26.435  41.352  1.00  0.00     0.001 A 
ATOM     76  C   UNL A   1      49.130  28.683  40.537  1.00  0.00     0.001 A 
ATOM     77  C   UNL A   1      48.834  27.808  41.570  1.00  0.00     0.000 A 
ENDBRANCH  58  72
BRANCH  59  78
ATOM     78  C   UNL A   1      47.285  18.402  39.100  1.00  0.00    -0.014 A 
ATOM     79  C   UNL A   1      47.980  17.940  40.231  1.00  0.00     0.009 A 
ATOM     80  C   UNL A   1      45.913  18.107  39.009  1.00  0.00     0.009 A 
ATOM     81  C   UNL A   1      47.314  17.251  41.254  1.00  0.00     0.001 A 
ATOM     82  C   UNL A   1      45.250  17.418  40.030  1.00  0.00     0.001 A 
ATOM     83  C   UNL A   1      45.947  17.005  41.161  1.00  0.00     0.000 A 
ENDBRANCH  59  78
BRANCH  71  84
ATOM     84  C   UNL A   1      51.755  21.223  35.800  1.00  0.00    -0.014 A 
ATOM     85  C   UNL A   1      51.173  21.221  34.518  1.00  0.00     0.009 A 
ATOM     86  C   UNL A   1      52.912  20.458  36.004  1.00  0.00     0.009 A 
ATOM     87  C   UNL A   1      51.719  20.451  33.485  1.00  0.00     0.001 A 
ATOM     88  C   UNL A   1      53.469  19.707  34.968  1.00  0.00     0.001 A 
ATOM     89  C   UNL A   1      52.869  19.699  33.710  1.00  0.00     0.000 A 
ENDBRANCH  71  84
ENDBRANCH  45  46
ENDBRANCH  38  40
ENDBRANCH  37  38
ENDBRANCH  36  37
ENDBRANCH  35  36
ENDBRANCH  34  35
ENDBRANCH  33  34
ENDBRANCH  32  33
ENDBRANCH  31  32
ENDBRANCH   1  31
TORSDOF 24
ENDMDL
MODEL 2
REMARK VINA RESULT:      -9.4      6.902     10.053
REMARK SMILES CCn1nc(C)c(NS(=O)(=O)c2cc(C(=O)OCCOCCOCCOCCOC(=O)c3ccc(-c4c5nc(c(-c6ccccc6)c6ccc([nH]6)c(-c6ccccc6)c6nc(c(-c7ccccc7)c7ccc4[nH]7)C=C6)C=C5)cc3)cc(F)c2C)c1C
REMARK SMILES IDX 22 1 21 2 20 3 19 4 18 5 17 6 15 7 16 8 14 9 12 10 13 11
REMARK SMILES IDX 83 12 81 13 84 14 80 15 82 16 9 17 10 18 11 19 8 20 7 22
REMARK SMILES IDX 3 23 4 24 85 25 5 26 86 27 6 28 2 29 1 30 23 31 24 32 25 33
REMARK SMILES IDX 26 34 27 35 28 36 29 37 30 38 31 39 32 40 33 41 79 42 34 43
REMARK SMILES IDX 78 44 35 45 36 46 37 47 72 48 38 49 77 50 71 51 73 52 39 53
REMARK SMILES IDX 76 54 70 55 69 56 40 58 62 59 47 60 61 61 48 62 51 63 60 64
REMARK SMILES IDX 74 65 49 66 50 67 59 69 75 70 52 71 41 72 42 73 46 74 43 75
REMARK SMILES IDX 45 76 44 77 63 78 64 79 68 80 65 81 67 82 66 83 53 84 54 85
REMARK SMILES IDX 58 86 55 87 57 88 56 89
REMARK H PARENT 8 21 73 57 51 68
REMARK Flexibility Score: inf
ROOT
ATOM      1  C   UNL A   1      41.346  26.090  28.236  1.00  0.00     0.188 C 
ENDROOT
BRANCH   1   2
ATOM      2  C   UNL A   1      40.327  25.005  27.824  1.00  0.00     0.188 C 
BRANCH   2   3
ATOM      3  O   UNL A   1      40.880  23.749  27.502  1.00  0.00    -0.376 OA
BRANCH   3   4
ATOM      4  C   UNL A   1      40.395  22.955  26.440  1.00  0.00     0.202 C 
BRANCH   4   5
ATOM      5  C   UNL A   1      39.226  21.957  26.524  1.00  0.00     0.261 C 
BRANCH   5   6
ATOM      6  O   UNL A   1      38.313  21.906  25.431  1.00  0.00    -0.460 OA
BRANCH   6   7
ATOM      7  C   UNL A   1      37.348  22.854  25.397  1.00  0.00     0.338 C 
ATOM      8  O   UNL A   1      37.485  24.059  25.401  1.00  0.00    -0.246 OA
BRANCH   7   9
ATOM      9  C   UNL A   1      36.075  22.156  25.119  1.00  0.00     0.064 A 
ATOM     10  C   UNL A   1      33.684  22.210  24.731  1.00  0.00     0.094 A 
ATOM     11  C   UNL A   1      34.886  22.872  25.045  1.00  0.00     0.038 A 
ATOM     12  C   UNL A   1      33.633  20.808  24.668  1.00  0.00     0.005 A 
ATOM     13  C   UNL A   1      34.846  20.114  24.807  1.00  0.00     0.128 A 
ATOM     14  C   UNL A   1      32.408  19.988  24.381  1.00  0.00     0.049 C 
ATOM     15  C   UNL A   1      36.063  20.770  24.977  1.00  0.00     0.055 A 
ATOM     16  F   UNL A   1      34.856  18.777  24.723  1.00  0.00    -0.207 F 
BRANCH  10  17
ATOM     17  S   UNL A   1      32.328  23.279  24.342  1.00  0.00     0.262 S 
ATOM     18  O   UNL A   1      31.598  23.538  25.565  1.00  0.00    -0.201 OA
ATOM     19  O   UNL A   1      31.650  22.690  23.204  1.00  0.00    -0.201 OA
BRANCH  17  20
ATOM     20  N   UNL A   1      32.899  24.758  23.823  1.00  0.00    -0.276 N 
ATOM     21  H   UNL A   1      33.663  24.683  23.207  1.00  0.00     0.180 HD
BRANCH  20  22
ATOM     22  C   UNL A   1      32.521  26.082  24.079  1.00  0.00     0.093 A 
ATOM     23  N   UNL A   1      32.308  27.895  25.310  1.00  0.00    -0.268 N 
ATOM     24  N   UNL A   1      31.512  28.113  24.251  1.00  0.00    -0.176 NA
ATOM     25  C   UNL A   1      33.084  26.779  25.142  1.00  0.00     0.060 A 
ATOM     26  C   UNL A   1      31.686  27.048  23.457  1.00  0.00     0.084 A 
ATOM     27  C   UNL A   1      34.291  26.420  25.930  1.00  0.00     0.069 C 
ATOM     28  C   UNL A   1      31.009  27.098  22.144  1.00  0.00     0.071 C 
BRANCH  23  29
ATOM     29  C   UNL A   1      32.075  28.731  26.475  1.00  0.00     0.141 C 
ATOM     30  C   UNL A   1      31.441  28.092  27.695  1.00  0.00     0.029 C 
ENDBRANCH  23  29
ENDBRANCH  20  22
ENDBRANCH  17  20
ENDBRANCH  10  17
ENDBRANCH   7   9
ENDBRANCH   6   7
ENDBRANCH   5   6
ENDBRANCH   4   5
ENDBRANCH   3   4
ENDBRANCH   2   3
ENDBRANCH   1   2
BRANCH   1  31
ATOM     31  O   UNL A   1      40.857  27.182  28.993  1.00  0.00    -0.377 OA
BRANCH  31  32
ATOM     32  C   UNL A   1      40.694  28.454  28.372  1.00  0.00     0.188 C 
BRANCH  32  33
ATOM     33  C   UNL A   1      39.607  28.770  27.306  1.00  0.00     0.188 C 
BRANCH  33  34
ATOM     34  O   UNL A   1      38.626  29.721  27.674  1.00  0.00    -0.376 OA
BRANCH  34  35
ATOM     35  C   UNL A   1      37.357  29.381  28.185  1.00  0.00     0.202 C 
BRANCH  35  36
ATOM     36  C   UNL A   1      36.141  30.194  27.764  1.00  0.00     0.261 C 
BRANCH  36  37
ATOM     37  O   UNL A   1      36.331  31.594  27.807  1.00  0.00    -0.460 OA
BRANCH  37  38
ATOM     38  C   UNL A   1      35.388  32.247  28.511  1.00  0.00     0.338 C 
ATOM     39  O   UNL A   1      34.329  32.681  28.102  1.00  0.00    -0.246 OA
BRANCH  38  40
ATOM     40  C   UNL A   1      35.932  32.516  29.843  1.00  0.00     0.060 A 
ATOM     41  C   UNL A   1      37.127  33.229  29.878  1.00  0.00     0.016 A 
ATOM     42  C   UNL A   1      35.468  31.761  30.933  1.00  0.00     0.016 A 
ATOM     43  C   UNL A   1      37.989  32.963  30.913  1.00  0.00     0.010 A 
ATOM     44  C   UNL A   1      36.335  31.491  31.962  1.00  0.00     0.010 A 
ATOM     45  C   UNL A   1      37.617  32.015  31.880  1.00  0.00    -0.014 A 
BRANCH  45  46
ATOM     46  C   UNL A   1      38.605  31.662  32.871  1.00  0.00     0.031 A 
ATOM     47  C   UNL A   1      38.519  32.518  34.066  1.00  0.00     0.074 A 
ATOM     48  C   UNL A   1      39.497  30.667  32.719  1.00  0.00     0.049 A 
ATOM     49  N   UNL A   1      39.331  33.468  34.381  1.00  0.00    -0.248 NA
ATOM     50  C   UNL A   1      37.299  32.454  34.881  1.00  0.00     0.031 C 
ATOM     51  C   UNL A   1      39.548  29.614  31.703  1.00  0.00     0.029 A 
ATOM     52  N   UNL A   1      40.536  30.354  33.537  1.00  0.00    -0.354 N 
ATOM     53  C   UNL A   1      38.829  34.011  35.552  1.00  0.00     0.074 A 
ATOM     54  C   UNL A   1      37.504  33.468  35.723  1.00  0.00     0.031 C 
ATOM     55  C   UNL A   1      40.416  28.653  32.105  1.00  0.00     0.029 A 
ATOM     56  C   UNL A   1      41.085  29.100  33.316  1.00  0.00     0.049 A 
ATOM     57  H   UNL A   1      40.871  30.968  34.229  1.00  0.00     0.167 HD
ATOM     58  C   UNL A   1      39.648  34.667  36.415  1.00  0.00     0.031 A 
ATOM     59  C   UNL A   1      41.988  28.476  34.113  1.00  0.00     0.031 A 
ATOM     60  C   UNL A   1      40.897  35.028  35.796  1.00  0.00     0.049 A 
ATOM     61  C   UNL A   1      42.658  29.518  34.926  1.00  0.00     0.074 A 
ATOM     62  C   UNL A   1      41.266  35.850  34.751  1.00  0.00     0.029 A 
ATOM     63  N   UNL A   1      41.958  34.182  36.014  1.00  0.00    -0.354 N 
ATOM     64  N   UNL A   1      43.469  30.401  34.421  1.00  0.00    -0.248 NA
ATOM     65  C   UNL A   1      42.084  29.864  36.217  1.00  0.00     0.031 C 
ATOM     66  C   UNL A   1      42.341  35.171  34.107  1.00  0.00     0.029 A 
ATOM     67  C   UNL A   1      42.615  34.006  34.826  1.00  0.00     0.049 A 
ATOM     68  H   UNL A   1      42.203  33.774  36.876  1.00  0.00     0.167 HD
ATOM     69  C   UNL A   1      43.152  31.582  35.078  1.00  0.00     0.074 A 
ATOM     70  C   UNL A   1      42.377  31.168  36.246  1.00  0.00     0.031 C 
ATOM     71  C   UNL A   1      43.306  32.789  34.457  1.00  0.00     0.031 A 
BRANCH  58  72
ATOM     72  C   UNL A   1      39.497  34.557  37.907  1.00  0.00    -0.014 A 
ATOM     73  C   UNL A   1      39.035  33.345  38.444  1.00  0.00     0.009 A 
ATOM     74  C   UNL A   1      39.501  35.676  38.762  1.00  0.00     0.009 A 
ATOM     75  C   UNL A   1      38.530  33.279  39.747  1.00  0.00     0.001 A 
ATOM     76  C   UNL A   1      39.035  35.604  40.075  1.00  0.00     0.001 A 
ATOM     77  C   UNL A   1      38.522  34.410  40.558  1.00  0.00     0.000 A 
ENDBRANCH  58  72
BRANCH  59  78
ATOM     78  C   UNL A   1      42.112  27.040  34.442  1.00  0.00    -0.014 A 
ATOM     79  C   UNL A   1      43.311  26.350  34.198  1.00  0.00     0.009 A 
ATOM     80  C   UNL A   1      41.160  26.425  35.276  1.00  0.00     0.009 A 
ATOM     81  C   UNL A   1      43.568  25.113  34.806  1.00  0.00     0.001 A 
ATOM     82  C   UNL A   1      41.417  25.190  35.881  1.00  0.00     0.001 A 
ATOM     83  C   UNL A   1      42.628  24.542  35.659  1.00  0.00     0.000 A 
ENDBRANCH  59  78
BRANCH  71  84
ATOM     84  C   UNL A   1      44.067  32.814  33.153  1.00  0.00    -0.014 A 
ATOM     85  C   UNL A   1      45.461  32.993  33.070  1.00  0.00     0.009 A 
ATOM     86  C   UNL A   1      43.366  32.513  31.976  1.00  0.00     0.009 A 
ATOM     87  C   UNL A   1      46.123  32.903  31.840  1.00  0.00     0.001 A 
ATOM     88  C   UNL A   1      44.029  32.402  30.752  1.00  0.00     0.001 A 
ATOM     89  C   UNL A   1      45.407  32.603  30.684  1.00  0.00     0.000 A 
ENDBRANCH  71  84
ENDBRANCH  45  46
ENDBRANCH  38  40
ENDBRANCH  37  38
ENDBRANCH  36  37
ENDBRANCH  35  36
ENDBRANCH  34  35
ENDBRANCH  33  34
ENDBRANCH  32  33
ENDBRANCH  31  32
ENDBRANCH   1  31
TORSDOF 24
ENDMDL
MODEL 3
REMARK VINA RESULT:      -9.1      5.174      8.260
REMARK SMILES CCn1nc(C)c(NS(=O)(=O)c2cc(C(=O)OCCOCCOCCOCCOC(=O)c3ccc(-c4c5nc(c(-c6ccccc6)c6ccc([nH]6)c(-c6ccccc6)c6nc(c(-c7ccccc7)c7ccc4[nH]7)C=C6)C=C5)cc3)cc(F)c2C)c1C
REMARK SMILES IDX 22 1 21 2 20 3 19 4 18 5 17 6 15 7 16 8 14 9 12 10 13 11
REMARK SMILES IDX 83 12 81 13 84 14 80 15 82 16 9 17 10 18 11 19 8 20 7 22
REMARK SMILES IDX 3 23 4 24 85 25 5 26 86 27 6 28 2 29 1 30 23 31 24 32 25 33
REMARK SMILES IDX 26 34 27 35 28 36 29 37 30 38 31 39 32 40 33 41 79 42 34 43
REMARK SMILES IDX 78 44 35 45 36 46 37 47 72 48 38 49 77 50 71 51 73 52 39 53
REMARK SMILES IDX 76 54 70 55 69 56 40 58 62 59 47 60 61 61 48 62 51 63 60 64
REMARK SMILES IDX 74 65 49 66 50 67 59 69 75 70 52 71 41 72 42 73 46 74 43 75
REMARK SMILES IDX 45 76 44 77 63 78 64 79 68 80 65 81 67 82 66 83 53 84 54 85
REMARK SMILES IDX 58 86 55 87 57 88 56 89
REMARK H PARENT 8 21 73 57 51 68
REMARK Flexibility Score: inf
ROOT
ATOM      1  C   UNL A   1      41.806  23.792  27.803  1.00  0.00     0.188 C 
ENDROOT
BRANCH   1   2
ATOM      2  C   UNL A   1      41.275  23.288  26.442  1.00  0.00     0.188 C 
BRANCH   2   3
ATOM      3  O   UNL A   1      40.339  22.236  26.513  1.00  0.00    -0.376 OA
BRANCH   3   4
ATOM      4  C   UNL A   1      38.956  22.436  26.314  1.00  0.00     0.202 C 
BRANCH   4   5
ATOM      5  C   UNL A   1      38.015  21.502  25.531  1.00  0.00     0.261 C 
BRANCH   5   6
ATOM      6  O   UNL A   1      36.611  21.665  25.711  1.00  0.00    -0.460 OA
BRANCH   6   7
ATOM      7  C   UNL A   1      35.809  20.763  25.101  1.00  0.00     0.338 C 
ATOM      8  O   UNL A   1      35.968  19.564  25.008  1.00  0.00    -0.246 OA
BRANCH   7   9
ATOM      9  C   UNL A   1      34.560  21.471  24.751  1.00  0.00     0.064 A 
ATOM     10  C   UNL A   1      32.468  22.502  25.406  1.00  0.00     0.094 A 
ATOM     11  C   UNL A   1      33.631  21.783  25.737  1.00  0.00     0.038 A 
ATOM     12  C   UNL A   1      32.137  22.754  24.064  1.00  0.00     0.005 A 
ATOM     13  C   UNL A   1      33.073  22.371  23.090  1.00  0.00     0.128 A 
ATOM     14  C   UNL A   1      30.910  23.473  23.584  1.00  0.00     0.049 C 
ATOM     15  C   UNL A   1      34.292  21.785  23.419  1.00  0.00     0.055 A 
ATOM     16  F   UNL A   1      32.819  22.617  21.797  1.00  0.00    -0.207 F 
BRANCH  10  17
ATOM     17  S   UNL A   1      31.555  23.117  26.793  1.00  0.00     0.262 S 
ATOM     18  O   UNL A   1      32.144  22.564  27.995  1.00  0.00    -0.201 OA
ATOM     19  O   UNL A   1      30.155  22.888  26.500  1.00  0.00    -0.201 OA
BRANCH  17  20
ATOM     20  N   UNL A   1      31.739  24.770  26.908  1.00  0.00    -0.276 N 
ATOM     21  H   UNL A   1      32.065  25.063  27.789  1.00  0.00     0.180 HD
BRANCH  20  22
ATOM     22  C   UNL A   1      31.528  25.829  26.016  1.00  0.00     0.093 A 
ATOM     23  N   UNL A   1      32.068  27.678  24.948  1.00  0.00    -0.268 N 
ATOM     24  N   UNL A   1      30.745  27.554  24.756  1.00  0.00    -0.176 NA
ATOM     25  C   UNL A   1      32.605  26.558  25.526  1.00  0.00     0.060 A 
ATOM     26  C   UNL A   1      30.414  26.395  25.340  1.00  0.00     0.084 A 
ATOM     27  C   UNL A   1      34.047  26.203  25.582  1.00  0.00     0.069 C 
ATOM     28  C   UNL A   1      29.015  25.953  25.161  1.00  0.00     0.071 C 
BRANCH  23  29
ATOM     29  C   UNL A   1      32.635  28.993  24.702  1.00  0.00     0.141 C 
ATOM     30  C   UNL A   1      32.158  30.147  25.561  1.00  0.00     0.029 C 
ENDBRANCH  23  29
ENDBRANCH  20  22
ENDBRANCH  17  20
ENDBRANCH  10  17
ENDBRANCH   7   9
ENDBRANCH   6   7
ENDBRANCH   5   6
ENDBRANCH   4   5
ENDBRANCH   3   4
ENDBRANCH   2   3
ENDBRANCH   1   2
BRANCH   1  31
ATOM     31  O   UNL A   1      42.256  22.815  28.723  1.00  0.00    -0.377 OA
BRANCH  31  32
ATOM     32  C   UNL A   1      43.564  22.917  29.279  1.00  0.00     0.188 C 
BRANCH  32  33
ATOM     33  C   UNL A   1      44.750  23.647  28.587  1.00  0.00     0.188 C 
BRANCH  33  34
ATOM     34  O   UNL A   1      45.350  22.973  27.498  1.00  0.00    -0.376 OA
BRANCH  34  35
ATOM     35  C   UNL A   1      44.917  23.101  26.162  1.00  0.00     0.202 C 
BRANCH  35  36
ATOM     36  C   UNL A   1      45.945  23.341  25.065  1.00  0.00     0.261 C 
BRANCH  36  37
ATOM     37  O   UNL A   1      47.150  23.930  25.512  1.00  0.00    -0.460 OA
BRANCH  37  38
ATOM     38  C   UNL A   1      47.454  25.082  24.888  1.00  0.00     0.338 C 
ATOM     39  O   UNL A   1      47.898  25.219  23.764  1.00  0.00    -0.246 OA
BRANCH  38  40
ATOM     40  C   UNL A   1      47.330  26.165  25.864  1.00  0.00     0.060 A 
ATOM     41  C   UNL A   1      47.744  25.866  27.158  1.00  0.00     0.016 A 
ATOM     42  C   UNL A   1      46.494  27.256  25.569  1.00  0.00     0.016 A 
ATOM     43  C   UNL A   1      47.098  26.502  28.190  1.00  0.00     0.010 A 
ATOM     44  C   UNL A   1      45.844  27.883  26.602  1.00  0.00     0.010 A 
ATOM     45  C   UNL A   1      46.082  27.423  27.889  1.00  0.00    -0.014 A 
BRANCH  45  46
ATOM     46  C   UNL A   1      45.334  27.964  28.998  1.00  0.00     0.031 A 
ATOM     47  C   UNL A   1      46.153  28.859  29.833  1.00  0.00     0.074 A 
ATOM     48  C   UNL A   1      44.041  27.684  29.239  1.00  0.00     0.049 A 
ATOM     49  N   UNL A   1      46.637  28.584  30.995  1.00  0.00    -0.248 NA
ATOM     50  C   UNL A   1      46.661  30.100  29.232  1.00  0.00     0.031 C 
ATOM     51  C   UNL A   1      43.065  27.006  28.384  1.00  0.00     0.029 A 
ATOM     52  N   UNL A   1      43.302  28.042  30.321  1.00  0.00    -0.354 N 
ATOM     53  C   UNL A   1      47.365  29.701  31.368  1.00  0.00     0.074 A 
ATOM     54  C   UNL A   1      47.483  30.527  30.191  1.00  0.00     0.031 C 
ATOM     55  C   UNL A   1      41.820  27.216  28.880  1.00  0.00     0.029 A 
ATOM     56  C   UNL A   1      41.933  27.902  30.157  1.00  0.00     0.049 A 
ATOM     57  H   UNL A   1      43.708  28.374  31.155  1.00  0.00     0.167 HD
ATOM     58  C   UNL A   1      47.591  29.972  32.679  1.00  0.00     0.031 A 
ATOM     59  C   UNL A   1      40.979  28.370  31.000  1.00  0.00     0.031 A 
ATOM     60  C   UNL A   1      47.338  28.825  33.513  1.00  0.00     0.049 A 
ATOM     61  C   UNL A   1      41.616  28.571  32.323  1.00  0.00     0.074 A 
ATOM     62  C   UNL A   1      47.888  27.566  33.632  1.00  0.00     0.029 A 
ATOM     63  N   UNL A   1      46.106  28.767  34.120  1.00  0.00    -0.354 N 
ATOM     64  N   UNL A   1      42.028  27.589  33.070  1.00  0.00    -0.248 NA
ATOM     65  C   UNL A   1      42.203  29.869  32.618  1.00  0.00     0.031 C 
ATOM     66  C   UNL A   1      46.786  26.704  33.908  1.00  0.00     0.029 A 
ATOM     67  C   UNL A   1      45.634  27.486  34.006  1.00  0.00     0.049 A 
ATOM     68  H   UNL A   1      45.643  29.516  34.561  1.00  0.00     0.167 HD
ATOM     69  C   UNL A   1      43.233  28.032  33.596  1.00  0.00     0.074 A 
ATOM     70  C   UNL A   1      43.233  29.478  33.375  1.00  0.00     0.031 C 
ATOM     71  C   UNL A   1      44.231  27.149  33.897  1.00  0.00     0.031 A 
BRANCH  58  72
ATOM     72  C   UNL A   1      47.583  31.373  33.224  1.00  0.00    -0.014 A 
ATOM     73  C   UNL A   1      48.686  31.801  33.982  1.00  0.00     0.009 A 
ATOM     74  C   UNL A   1      46.422  32.169  33.279  1.00  0.00     0.009 A 
ATOM     75  C   UNL A   1      48.600  32.925  34.811  1.00  0.00     0.001 A 
ATOM     76  C   UNL A   1      46.347  33.313  34.074  1.00  0.00     0.001 A 
ATOM     77  C   UNL A   1      47.428  33.674  34.862  1.00  0.00     0.000 A 
ENDBRANCH  58  72
BRANCH  59  78
ATOM     78  C   UNL A   1      39.648  28.932  30.689  1.00  0.00    -0.014 A 
ATOM     79  C   UNL A   1      39.260  29.159  29.358  1.00  0.00     0.009 A 
ATOM     80  C   UNL A   1      38.647  28.957  31.677  1.00  0.00     0.009 A 
ATOM     81  C   UNL A   1      37.912  29.355  29.023  1.00  0.00     0.001 A 
ATOM     82  C   UNL A   1      37.302  29.154  31.342  1.00  0.00     0.001 A 
ATOM     83  C   UNL A   1      36.934  29.335  30.013  1.00  0.00     0.000 A 
ENDBRANCH  59  78
BRANCH  71  84
ATOM     84  C   UNL A   1      43.889  25.678  33.890  1.00  0.00    -0.014 A 
ATOM     85  C   UNL A   1      44.239  24.804  32.844  1.00  0.00     0.009 A 
ATOM     86  C   UNL A   1      43.309  25.132  35.044  1.00  0.00     0.009 A 
ATOM     87  C   UNL A   1      43.985  23.431  32.942  1.00  0.00     0.001 A 
ATOM     88  C   UNL A   1      43.077  23.759  35.152  1.00  0.00     0.001 A 
ATOM     89  C   UNL A   1      43.409  22.910  34.098  1.00  0.00     0.000 A 
ENDBRANCH  71  84
ENDBRANCH  45  46
ENDBRANCH  38  40
ENDBRANCH  37  38
ENDBRANCH  36  37
ENDBRANCH  35  36
ENDBRANCH  34  35
ENDBRANCH  33  34
ENDBRANCH  32  33
ENDBRANCH  31  32
ENDBRANCH   1  31
TORSDOF 24
ENDMDL
