MODEL 1
REMARK VINA RESULT:      -9.7      0.000      0.000
REMARK SMILES Cc1nn(C(C)C)cc1-c1cnccc1C(=O)OCCOCCOCCOCCOC(=O)c1ccc(-c2c3nc(c(-c4ccccc4)c4ccc([nH]4)c(-c4ccccc4)c4nc(c(-c5ccccc5)c5ccc2[nH]5)C=C4)C=C3)cc1
REMARK SMILES IDX 24 1 23 2 22 3 21 4 20 5 19 6 18 7 16 8 17 9 15 10 10 11
REMARK SMILES IDX 11 12 12 13 14 14 13 15 9 16 1 17 2 18 3 19 4 20 8 21 5 22
REMARK SMILES IDX 6 23 7 24 25 25 26 26 27 27 28 28 29 29 30 30 31 31 32 32
REMARK SMILES IDX 33 33 34 34 80 35 35 36 79 37 36 38 37 39 38 40 73 41 39 42
REMARK SMILES IDX 78 43 72 44 74 45 40 46 77 47 71 48 70 49 41 51 63 52 48 53
REMARK SMILES IDX 62 54 49 55 52 56 61 57 75 58 50 59 51 60 60 62 76 63 53 64
REMARK SMILES IDX 42 65 43 66 47 67 44 68 46 69 45 70 64 71 65 72 69 73 66 74
REMARK SMILES IDX 68 75 67 76 54 77 55 78 59 79 56 80 58 81 57 82
REMARK H PARENT 74 50 52 61
REMARK Flexibility Score: inf
ROOT
ATOM      1  O   UNL A   1      42.208  20.064  26.246  1.00  0.00    -0.377 OA
ENDROOT
BRANCH   1   2
ATOM      2  C   UNL A   1      40.820  20.392  26.243  1.00  0.00     0.188 C 
BRANCH   2   3
ATOM      3  C   UNL A   1      40.260  21.828  26.064  1.00  0.00     0.188 C 
BRANCH   3   4
ATOM      4  O   UNL A   1      38.941  22.010  26.549  1.00  0.00    -0.376 OA
BRANCH   4   5
ATOM      5  C   UNL A   1      37.849  21.928  25.660  1.00  0.00     0.202 C 
BRANCH   5   6
ATOM      6  C   UNL A   1      36.909  23.132  25.643  1.00  0.00     0.261 C 
BRANCH   6   7
ATOM      7  O   UNL A   1      35.535  22.790  25.851  1.00  0.00    -0.460 OA
BRANCH   7   8
ATOM      8  C   UNL A   1      34.666  23.044  24.853  1.00  0.00     0.338 C 
ATOM      9  O   UNL A   1      34.916  23.028  23.661  1.00  0.00    -0.246 OA
BRANCH   8  10
ATOM     10  C   UNL A   1      33.291  23.162  25.405  1.00  0.00     0.071 A 
ATOM     11  C   UNL A   1      32.328  22.137  25.413  1.00  0.00     0.018 A 
ATOM     12  C   UNL A   1      31.091  22.467  25.966  1.00  0.00     0.120 A 
ATOM     13  N   UNL A   1      30.742  23.697  26.420  1.00  0.00    -0.264 NA
ATOM     14  C   UNL A   1      32.953  24.443  25.870  1.00  0.00     0.036 A 
ATOM     15  C   UNL A   1      31.675  24.662  26.345  1.00  0.00     0.112 A 
BRANCH  11  16
ATOM     16  C   UNL A   1      32.489  20.822  24.810  1.00  0.00     0.025 A 
ATOM     17  C   UNL A   1      31.831  21.175  22.284  1.00  0.00     0.069 C 
ATOM     18  C   UNL A   1      32.297  20.395  23.460  1.00  0.00     0.067 A 
ATOM     19  N   UNL A   1      32.615  19.106  23.299  1.00  0.00    -0.177 NA
ATOM     20  N   UNL A   1      33.080  18.729  24.501  1.00  0.00    -0.269 N 
ATOM     21  C   UNL A   1      32.940  19.692  25.461  1.00  0.00     0.118 A 
BRANCH  20  22
ATOM     22  C   UNL A   1      33.679  17.410  24.672  1.00  0.00     0.101 C 
ATOM     23  C   UNL A   1      32.772  16.501  25.494  1.00  0.00     0.033 C 
ATOM     24  C   UNL A   1      34.041  16.771  23.328  1.00  0.00     0.033 C 
ENDBRANCH  20  22
ENDBRANCH  11  16
ENDBRANCH   8  10
ENDBRANCH   7   8
ENDBRANCH   6   7
ENDBRANCH   5   6
ENDBRANCH   4   5
ENDBRANCH   3   4
ENDBRANCH   2   3
ENDBRANCH   1   2
BRANCH   1  25
ATOM     25  C   UNL A   1      42.620  18.769  25.844  1.00  0.00     0.188 C 
BRANCH  25  26
ATOM     26  C   UNL A   1      43.939  18.285  26.481  1.00  0.00     0.188 C 
BRANCH  26  27
ATOM     27  O   UNL A   1      44.974  18.019  25.544  1.00  0.00    -0.376 OA
BRANCH  27  28
ATOM     28  C   UNL A   1      45.247  18.902  24.472  1.00  0.00     0.202 C 
BRANCH  28  29
ATOM     29  C   UNL A   1      46.166  20.107  24.650  1.00  0.00     0.261 C 
BRANCH  29  30
ATOM     30  O   UNL A   1      45.615  21.211  25.341  1.00  0.00    -0.460 OA
BRANCH  30  31
ATOM     31  C   UNL A   1      44.818  22.013  24.618  1.00  0.00     0.338 C 
ATOM     32  O   UNL A   1      44.774  22.144  23.412  1.00  0.00    -0.246 OA
BRANCH  31  33
ATOM     33  C   UNL A   1      44.074  22.840  25.565  1.00  0.00     0.060 A 
ATOM     34  C   UNL A   1      43.100  23.687  25.043  1.00  0.00     0.016 A 
ATOM     35  C   UNL A   1      44.569  22.970  26.873  1.00  0.00     0.016 A 
ATOM     36  C   UNL A   1      42.758  24.798  25.776  1.00  0.00     0.010 A 
ATOM     37  C   UNL A   1      44.246  24.091  27.593  1.00  0.00     0.010 A 
ATOM     38  C   UNL A   1      43.405  25.026  26.998  1.00  0.00    -0.014 A 
BRANCH  38  39
ATOM     39  C   UNL A   1      43.118  26.261  27.684  1.00  0.00     0.031 A 
ATOM     40  C   UNL A   1      44.133  27.309  27.465  1.00  0.00     0.074 A 
ATOM     41  C   UNL A   1      41.988  26.456  28.384  1.00  0.00     0.049 A 
ATOM     42  N   UNL A   1      44.914  27.834  28.345  1.00  0.00    -0.248 NA
ATOM     43  C   UNL A   1      44.406  27.718  26.079  1.00  0.00     0.031 C 
ATOM     44  C   UNL A   1      40.793  25.611  28.435  1.00  0.00     0.029 A 
ATOM     45  N   UNL A   1      41.633  27.544  29.114  1.00  0.00    -0.354 N 
ATOM     46  C   UNL A   1      45.664  28.780  27.660  1.00  0.00     0.074 A 
ATOM     47  C   UNL A   1      45.427  28.555  26.256  1.00  0.00     0.031 C 
ATOM     48  C   UNL A   1      39.772  26.331  28.955  1.00  0.00     0.029 A 
ATOM     49  C   UNL A   1      40.275  27.630  29.376  1.00  0.00     0.049 A 
ATOM     50  H   UNL A   1      42.283  28.214  29.429  1.00  0.00     0.167 HD
ATOM     51  C   UNL A   1      46.222  29.836  28.309  1.00  0.00     0.031 A 
ATOM     52  C   UNL A   1      39.617  28.728  29.820  1.00  0.00     0.031 A 
ATOM     53  C   UNL A   1      46.323  29.600  29.727  1.00  0.00     0.049 A 
ATOM     54  C   UNL A   1      40.622  29.649  30.407  1.00  0.00     0.074 A 
ATOM     55  C   UNL A   1      46.918  28.624  30.505  1.00  0.00     0.029 A 
ATOM     56  N   UNL A   1      45.419  30.235  30.547  1.00  0.00    -0.354 N 
ATOM     57  N   UNL A   1      41.241  29.421  31.529  1.00  0.00    -0.248 NA
ATOM     58  C   UNL A   1      41.258  30.625  29.534  1.00  0.00     0.031 C 
ATOM     59  C   UNL A   1      46.013  28.409  31.584  1.00  0.00     0.029 A 
ATOM     60  C   UNL A   1      44.952  29.303  31.436  1.00  0.00     0.049 A 
ATOM     61  H   UNL A   1      45.157  31.182  30.503  1.00  0.00     0.167 HD
ATOM     62  C   UNL A   1      42.538  29.864  31.313  1.00  0.00     0.074 A 
ATOM     63  C   UNL A   1      42.459  30.695  30.113  1.00  0.00     0.031 C 
ATOM     64  C   UNL A   1      43.600  29.284  31.948  1.00  0.00     0.031 A 
BRANCH  51  65
ATOM     65  C   UNL A   1      46.254  31.221  27.714  1.00  0.00    -0.014 A 
ATOM     66  C   UNL A   1      47.376  32.031  27.966  1.00  0.00     0.009 A 
ATOM     67  C   UNL A   1      45.119  31.863  27.181  1.00  0.00     0.009 A 
ATOM     68  C   UNL A   1      47.324  33.418  27.792  1.00  0.00     0.001 A 
ATOM     69  C   UNL A   1      45.079  33.240  26.962  1.00  0.00     0.001 A 
ATOM     70  C   UNL A   1      46.171  34.023  27.301  1.00  0.00     0.000 A 
ENDBRANCH  51  65
BRANCH  52  71
ATOM     71  C   UNL A   1      38.226  29.151  29.553  1.00  0.00    -0.014 A 
ATOM     72  C   UNL A   1      37.496  29.847  30.531  1.00  0.00     0.009 A 
ATOM     73  C   UNL A   1      37.691  29.106  28.253  1.00  0.00     0.009 A 
ATOM     74  C   UNL A   1      36.304  30.510  30.208  1.00  0.00     0.001 A 
ATOM     75  C   UNL A   1      36.495  29.757  27.932  1.00  0.00     0.001 A 
ATOM     76  C   UNL A   1      35.812  30.475  28.907  1.00  0.00     0.000 A 
ENDBRANCH  52  71
BRANCH  64  77
ATOM     77  C   UNL A   1      43.328  28.328  33.083  1.00  0.00    -0.014 A 
ATOM     78  C   UNL A   1      43.409  26.932  32.947  1.00  0.00     0.009 A 
ATOM     79  C   UNL A   1      43.148  28.861  34.370  1.00  0.00     0.009 A 
ATOM     80  C   UNL A   1      43.282  26.094  34.060  1.00  0.00     0.001 A 
ATOM     81  C   UNL A   1      43.047  28.026  35.483  1.00  0.00     0.001 A 
ATOM     82  C   UNL A   1      43.108  26.644  35.329  1.00  0.00     0.000 A 
ENDBRANCH  64  77
ENDBRANCH  38  39
ENDBRANCH  31  33
ENDBRANCH  30  31
ENDBRANCH  29  30
ENDBRANCH  28  29
ENDBRANCH  27  28
ENDBRANCH  26  27
ENDBRANCH  25  26
ENDBRANCH   1  25
TORSDOF 22
ENDMDL
MODEL 2
REMARK VINA RESULT:      -9.6      3.056      5.366
REMARK SMILES Cc1nn(C(C)C)cc1-c1cnccc1C(=O)OCCOCCOCCOCCOC(=O)c1ccc(-c2c3nc(c(-c4ccccc4)c4ccc([nH]4)c(-c4ccccc4)c4nc(c(-c5ccccc5)c5ccc2[nH]5)C=C4)C=C3)cc1
REMARK SMILES IDX 24 1 23 2 22 3 21 4 20 5 19 6 18 7 16 8 17 9 15 10 10 11
REMARK SMILES IDX 11 12 12 13 14 14 13 15 9 16 1 17 2 18 3 19 4 20 8 21 5 22
REMARK SMILES IDX 6 23 7 24 25 25 26 26 27 27 28 28 29 29 30 30 31 31 32 32
REMARK SMILES IDX 33 33 34 34 80 35 35 36 79 37 36 38 37 39 38 40 73 41 39 42
REMARK SMILES IDX 78 43 72 44 74 45 40 46 77 47 71 48 70 49 41 51 63 52 48 53
REMARK SMILES IDX 62 54 49 55 52 56 61 57 75 58 50 59 51 60 60 62 76 63 53 64
REMARK SMILES IDX 42 65 43 66 47 67 44 68 46 69 45 70 64 71 65 72 69 73 66 74
REMARK SMILES IDX 68 75 67 76 54 77 55 78 59 79 56 80 58 81 57 82
REMARK H PARENT 74 50 52 61
REMARK Flexibility Score: inf
ROOT
ATOM      1  O   UNL A   1      35.543  22.274  24.847  1.00  0.00    -0.377 OA
ENDROOT
BRANCH   1   2
ATOM      2  C   UNL A   1      35.051  21.264  25.726  1.00  0.00     0.188 C 
BRANCH   2   3
ATOM      3  C   UNL A   1      33.788  21.415  26.612  1.00  0.00     0.188 C 
BRANCH   3   4
ATOM      4  O   UNL A   1      33.040  22.596  26.376  1.00  0.00    -0.376 OA
BRANCH   4   5
ATOM      5  C   UNL A   1      31.651  22.514  26.150  1.00  0.00     0.202 C 
BRANCH   5   6
ATOM      6  C   UNL A   1      30.846  23.773  26.466  1.00  0.00     0.261 C 
BRANCH   6   7
ATOM      7  O   UNL A   1      30.813  24.717  25.391  1.00  0.00    -0.460 OA
BRANCH   7   8
ATOM      8  C   UNL A   1      31.626  25.788  25.468  1.00  0.00     0.338 C 
ATOM      9  O   UNL A   1      31.905  26.407  26.480  1.00  0.00    -0.246 OA
BRANCH   8  10
ATOM     10  C   UNL A   1      32.300  26.001  24.161  1.00  0.00     0.071 A 
ATOM     11  C   UNL A   1      32.064  27.082  23.293  1.00  0.00     0.018 A 
ATOM     12  C   UNL A   1      32.794  27.079  22.104  1.00  0.00     0.120 A 
ATOM     13  N   UNL A   1      33.641  26.095  21.710  1.00  0.00    -0.264 NA
ATOM     14  C   UNL A   1      33.173  24.971  23.775  1.00  0.00     0.036 A 
ATOM     15  C   UNL A   1      33.797  25.055  22.547  1.00  0.00     0.112 A 
BRANCH  11  16
ATOM     16  C   UNL A   1      31.065  28.122  23.490  1.00  0.00     0.025 A 
ATOM     17  C   UNL A   1      32.178  29.781  25.208  1.00  0.00     0.069 C 
ATOM     18  C   UNL A   1      31.107  29.301  24.297  1.00  0.00     0.067 A 
ATOM     19  N   UNL A   1      29.999  30.038  24.152  1.00  0.00    -0.177 NA
ATOM     20  N   UNL A   1      29.294  29.391  23.211  1.00  0.00    -0.269 N 
ATOM     21  C   UNL A   1      29.846  28.193  22.849  1.00  0.00     0.118 A 
BRANCH  20  22
ATOM     22  C   UNL A   1      28.081  29.990  22.666  1.00  0.00     0.101 C 
ATOM     23  C   UNL A   1      27.570  31.107  23.573  1.00  0.00     0.033 C 
ATOM     24  C   UNL A   1      28.285  30.484  21.231  1.00  0.00     0.033 C 
ENDBRANCH  20  22
ENDBRANCH  11  16
ENDBRANCH   8  10
ENDBRANCH   7   8
ENDBRANCH   6   7
ENDBRANCH   5   6
ENDBRANCH   4   5
ENDBRANCH   3   4
ENDBRANCH   2   3
ENDBRANCH   1   2
BRANCH   1  25
ATOM     25  C   UNL A   1      36.838  22.141  24.285  1.00  0.00     0.188 C 
BRANCH  25  26
ATOM     26  C   UNL A   1      37.835  21.338  25.146  1.00  0.00     0.188 C 
BRANCH  26  27
ATOM     27  O   UNL A   1      38.626  22.137  26.016  1.00  0.00    -0.376 OA
BRANCH  27  28
ATOM     28  C   UNL A   1      39.772  21.616  26.662  1.00  0.00     0.202 C 
BRANCH  28  29
ATOM     29  C   UNL A   1      41.106  21.490  25.932  1.00  0.00     0.261 C 
BRANCH  29  30
ATOM     30  O   UNL A   1      42.183  22.232  26.472  1.00  0.00    -0.460 OA
BRANCH  30  31
ATOM     31  C   UNL A   1      42.386  23.443  25.930  1.00  0.00     0.338 C 
ATOM     32  O   UNL A   1      43.059  23.731  24.962  1.00  0.00    -0.246 OA
BRANCH  31  33
ATOM     33  C   UNL A   1      41.751  24.417  26.814  1.00  0.00     0.060 A 
ATOM     34  C   UNL A   1      40.904  25.353  26.227  1.00  0.00     0.016 A 
ATOM     35  C   UNL A   1      42.248  24.559  28.120  1.00  0.00     0.016 A 
ATOM     36  C   UNL A   1      40.708  26.543  26.888  1.00  0.00     0.010 A 
ATOM     37  C   UNL A   1      42.071  25.754  28.767  1.00  0.00     0.010 A 
ATOM     38  C   UNL A   1      41.369  26.755  28.104  1.00  0.00    -0.014 A 
BRANCH  38  39
ATOM     39  C   UNL A   1      41.244  28.057  28.712  1.00  0.00     0.031 A 
ATOM     40  C   UNL A   1      42.263  29.022  28.257  1.00  0.00     0.074 A 
ATOM     41  C   UNL A   1      40.240  28.374  29.546  1.00  0.00     0.049 A 
ATOM     42  N   UNL A   1      43.189  29.570  28.965  1.00  0.00    -0.248 NA
ATOM     43  C   UNL A   1      42.346  29.300  26.816  1.00  0.00     0.031 C 
ATOM     44  C   UNL A   1      39.028  27.608  29.843  1.00  0.00     0.029 A 
ATOM     45  N   UNL A   1      40.048  29.537  30.221  1.00  0.00    -0.354 N 
ATOM     46  C   UNL A   1      43.872  30.412  28.098  1.00  0.00     0.074 A 
ATOM     47  C   UNL A   1      43.420  30.088  26.769  1.00  0.00     0.031 C 
ATOM     48  C   UNL A   1      38.130  28.426  30.439  1.00  0.00     0.029 A 
ATOM     49  C   UNL A   1      38.749  29.723  30.665  1.00  0.00     0.049 A 
ATOM     50  H   UNL A   1      40.767  30.191  30.378  1.00  0.00     0.167 HD
ATOM     51  C   UNL A   1      44.568  31.483  28.564  1.00  0.00     0.031 A 
ATOM     52  C   UNL A   1      38.215  30.891  31.101  1.00  0.00     0.031 A 
ATOM     53  C   UNL A   1      44.867  31.357  29.969  1.00  0.00     0.049 A 
ATOM     54  C   UNL A   1      39.338  31.795  31.453  1.00  0.00     0.074 A 
ATOM     55  C   UNL A   1      45.525  30.414  30.737  1.00  0.00     0.029 A 
ATOM     56  N   UNL A   1      44.124  32.108  30.850  1.00  0.00    -0.354 N 
ATOM     57  N   UNL A   1      40.105  31.624  32.490  1.00  0.00    -0.248 NA
ATOM     58  C   UNL A   1      39.881  32.659  30.414  1.00  0.00     0.031 C 
ATOM     59  C   UNL A   1      44.781  30.341  31.949  1.00  0.00     0.029 A 
ATOM     60  C   UNL A   1      43.751  31.281  31.876  1.00  0.00     0.049 A 
ATOM     61  H   UNL A   1      43.902  33.063  30.760  1.00  0.00     0.167 HD
ATOM     62  C   UNL A   1      41.374  31.971  32.051  1.00  0.00     0.074 A 
ATOM     63  C   UNL A   1      41.157  32.705  30.806  1.00  0.00     0.031 C 
ATOM     64  C   UNL A   1      42.491  31.383  32.577  1.00  0.00     0.031 A 
BRANCH  51  65
ATOM     65  C   UNL A   1      44.576  32.811  27.851  1.00  0.00    -0.014 A 
ATOM     66  C   UNL A   1      43.727  33.827  28.323  1.00  0.00     0.009 A 
ATOM     67  C   UNL A   1      45.145  33.004  26.577  1.00  0.00     0.009 A 
ATOM     68  C   UNL A   1      43.387  34.921  27.519  1.00  0.00     0.001 A 
ATOM     69  C   UNL A   1      44.845  34.117  25.791  1.00  0.00     0.001 A 
ATOM     70  C   UNL A   1      43.937  35.058  26.248  1.00  0.00     0.000 A 
ENDBRANCH  51  65
BRANCH  52  71
ATOM     71  C   UNL A   1      36.821  31.371  30.999  1.00  0.00    -0.014 A 
ATOM     72  C   UNL A   1      36.221  32.039  32.080  1.00  0.00     0.009 A 
ATOM     73  C   UNL A   1      36.155  31.410  29.760  1.00  0.00     0.009 A 
ATOM     74  C   UNL A   1      35.028  32.756  31.914  1.00  0.00     0.001 A 
ATOM     75  C   UNL A   1      34.958  32.115  29.596  1.00  0.00     0.001 A 
ATOM     76  C   UNL A   1      34.405  32.803  30.670  1.00  0.00     0.000 A 
ENDBRANCH  52  71
BRANCH  64  77
ATOM     77  C   UNL A   1      42.346  30.540  33.819  1.00  0.00    -0.014 A 
ATOM     78  C   UNL A   1      42.040  29.169  33.786  1.00  0.00     0.009 A 
ATOM     79  C   UNL A   1      42.694  31.113  35.053  1.00  0.00     0.009 A 
ATOM     80  C   UNL A   1      42.052  28.403  34.956  1.00  0.00     0.001 A 
ATOM     81  C   UNL A   1      42.730  30.343  36.217  1.00  0.00     0.001 A 
ATOM     82  C   UNL A   1      42.403  28.990  36.170  1.00  0.00     0.000 A 
ENDBRANCH  64  77
ENDBRANCH  38  39
ENDBRANCH  31  33
ENDBRANCH  30  31
ENDBRANCH  29  30
ENDBRANCH  28  29
ENDBRANCH  27  28
ENDBRANCH  26  27
ENDBRANCH  25  26
ENDBRANCH   1  25
TORSDOF 22
ENDMDL
MODEL 3
REMARK VINA RESULT:      -9.6      4.878      9.981
REMARK SMILES Cc1nn(C(C)C)cc1-c1cnccc1C(=O)OCCOCCOCCOCCOC(=O)c1ccc(-c2c3nc(c(-c4ccccc4)c4ccc([nH]4)c(-c4ccccc4)c4nc(c(-c5ccccc5)c5ccc2[nH]5)C=C4)C=C3)cc1
REMARK SMILES IDX 24 1 23 2 22 3 21 4 20 5 19 6 18 7 16 8 17 9 15 10 10 11
REMARK SMILES IDX 11 12 12 13 14 14 13 15 9 16 1 17 2 18 3 19 4 20 8 21 5 22
REMARK SMILES IDX 6 23 7 24 25 25 26 26 27 27 28 28 29 29 30 30 31 31 32 32
REMARK SMILES IDX 33 33 34 34 80 35 35 36 79 37 36 38 37 39 38 40 73 41 39 42
REMARK SMILES IDX 78 43 72 44 74 45 40 46 77 47 71 48 70 49 41 51 63 52 48 53
REMARK SMILES IDX 62 54 49 55 52 56 61 57 75 58 50 59 51 60 60 62 76 63 53 64
REMARK SMILES IDX 42 65 43 66 47 67 44 68 46 69 45 70 64 71 65 72 69 73 66 74
REMARK SMILES IDX 68 75 67 76 54 77 55 78 59 79 56 80 58 81 57 82
REMARK H PARENT 74 50 52 61
REMARK Flexibility Score: inf
ROOT
ATOM      1  O   UNL A   1      33.710  33.772  29.450  1.00  0.00    -0.377 OA
ENDROOT
BRANCH   1   2
ATOM      2  C   UNL A   1      34.516  32.612  29.249  1.00  0.00     0.188 C 
BRANCH   2   3
ATOM      3  C   UNL A   1      35.119  32.192  27.884  1.00  0.00     0.188 C 
BRANCH   3   4
ATOM      4  O   UNL A   1      34.803  30.870  27.482  1.00  0.00    -0.376 OA
BRANCH   4   5
ATOM      5  C   UNL A   1      33.456  30.462  27.407  1.00  0.00     0.202 C 
BRANCH   5   6
ATOM      6  C   UNL A   1      33.197  29.136  26.695  1.00  0.00     0.261 C 
BRANCH   6   7
ATOM      7  O   UNL A   1      31.828  28.941  26.324  1.00  0.00    -0.460 OA
BRANCH   7   8
ATOM      8  C   UNL A   1      31.412  27.681  26.095  1.00  0.00     0.338 C 
ATOM      9  O   UNL A   1      31.092  26.865  26.941  1.00  0.00    -0.246 OA
BRANCH   8  10
ATOM     10  C   UNL A   1      31.211  27.477  24.637  1.00  0.00     0.071 A 
ATOM     11  C   UNL A   1      31.782  26.442  23.875  1.00  0.00     0.018 A 
ATOM     12  C   UNL A   1      31.476  26.446  22.515  1.00  0.00     0.120 A 
ATOM     13  N   UNL A   1      30.740  27.395  21.883  1.00  0.00    -0.264 NA
ATOM     14  C   UNL A   1      30.446  28.470  24.005  1.00  0.00     0.036 A 
ATOM     15  C   UNL A   1      30.258  28.396  22.640  1.00  0.00     0.112 A 
BRANCH  11  16
ATOM     16  C   UNL A   1      32.728  25.452  24.370  1.00  0.00     0.025 A 
ATOM     17  C   UNL A   1      31.217  23.468  25.217  1.00  0.00     0.069 C 
ATOM     18  C   UNL A   1      32.501  24.159  24.934  1.00  0.00     0.067 A 
ATOM     19  N   UNL A   1      33.650  23.530  25.206  1.00  0.00    -0.177 NA
ATOM     20  N   UNL A   1      34.599  24.366  24.753  1.00  0.00    -0.269 N 
ATOM     21  C   UNL A   1      34.102  25.567  24.327  1.00  0.00     0.118 A 
BRANCH  20  22
ATOM     22  C   UNL A   1      35.995  23.944  24.732  1.00  0.00     0.101 C 
ATOM     23  C   UNL A   1      36.376  23.256  26.040  1.00  0.00     0.033 C 
ATOM     24  C   UNL A   1      36.303  23.056  23.523  1.00  0.00     0.033 C 
ENDBRANCH  20  22
ENDBRANCH  11  16
ENDBRANCH   8  10
ENDBRANCH   7   8
ENDBRANCH   6   7
ENDBRANCH   5   6
ENDBRANCH   4   5
ENDBRANCH   3   4
ENDBRANCH   2   3
ENDBRANCH   1   2
BRANCH   1  25
ATOM     25  C   UNL A   1      34.252  35.054  29.179  1.00  0.00     0.188 C 
BRANCH  25  26
ATOM     26  C   UNL A   1      33.203  36.167  28.972  1.00  0.00     0.188 C 
BRANCH  26  27
ATOM     27  O   UNL A   1      33.162  37.129  30.017  1.00  0.00    -0.376 OA
BRANCH  27  28
ATOM     28  C   UNL A   1      32.854  36.762  31.349  1.00  0.00     0.202 C 
BRANCH  28  29
ATOM     29  C   UNL A   1      33.889  36.876  32.464  1.00  0.00     0.261 C 
BRANCH  29  30
ATOM     30  O   UNL A   1      34.867  35.856  32.511  1.00  0.00    -0.460 OA
BRANCH  30  31
ATOM     31  C   UNL A   1      34.415  34.629  32.814  1.00  0.00     0.338 C 
ATOM     32  O   UNL A   1      33.267  34.267  32.976  1.00  0.00    -0.246 OA
BRANCH  31  33
ATOM     33  C   UNL A   1      35.586  33.793  33.065  1.00  0.00     0.060 A 
ATOM     34  C   UNL A   1      36.825  34.427  33.103  1.00  0.00     0.016 A 
ATOM     35  C   UNL A   1      35.452  32.400  32.947  1.00  0.00     0.016 A 
ATOM     36  C   UNL A   1      37.940  33.672  32.825  1.00  0.00     0.010 A 
ATOM     37  C   UNL A   1      36.561  31.652  32.648  1.00  0.00     0.010 A 
ATOM     38  C   UNL A   1      37.776  32.316  32.515  1.00  0.00    -0.014 A 
BRANCH  38  39
ATOM     39  C   UNL A   1      38.947  31.580  32.107  1.00  0.00     0.031 A 
ATOM     40  C   UNL A   1      39.864  31.267  33.219  1.00  0.00     0.074 A 
ATOM     41  C   UNL A   1      39.131  31.149  30.848  1.00  0.00     0.049 A 
ATOM     42  N   UNL A   1      41.069  31.696  33.380  1.00  0.00    -0.248 NA
ATOM     43  C   UNL A   1      39.329  30.501  34.354  1.00  0.00     0.031 C 
ATOM     44  C   UNL A   1      38.174  31.144  29.740  1.00  0.00     0.029 A 
ATOM     45  N   UNL A   1      40.209  30.502  30.335  1.00  0.00    -0.354 N 
ATOM     46  C   UNL A   1      41.520  31.108  34.554  1.00  0.00     0.074 A 
ATOM     47  C   UNL A   1      40.368  30.519  35.188  1.00  0.00     0.031 C 
ATOM     48  C   UNL A   1      38.630  30.315  28.773  1.00  0.00     0.029 A 
ATOM     49  C   UNL A   1      39.952  29.834  29.148  1.00  0.00     0.049 A 
ATOM     50  H   UNL A   1      41.093  30.505  30.767  1.00  0.00     0.167 HD
ATOM     51  C   UNL A   1      42.848  30.933  34.785  1.00  0.00     0.031 A 
ATOM     52  C   UNL A   1      40.741  28.891  28.578  1.00  0.00     0.031 A 
ATOM     53  C   UNL A   1      43.654  31.788  33.950  1.00  0.00     0.049 A 
ATOM     54  C   UNL A   1      42.097  29.023  29.164  1.00  0.00     0.074 A 
ATOM     55  C   UNL A   1      43.723  33.154  33.746  1.00  0.00     0.029 A 
ATOM     56  N   UNL A   1      44.291  31.215  32.874  1.00  0.00    -0.354 N 
ATOM     57  N   UNL A   1      42.900  30.016  28.911  1.00  0.00    -0.248 NA
ATOM     58  C   UNL A   1      42.405  28.269  30.371  1.00  0.00     0.031 C 
ATOM     59  C   UNL A   1      43.962  33.308  32.350  1.00  0.00     0.029 A 
ATOM     60  C   UNL A   1      44.084  32.033  31.795  1.00  0.00     0.049 A 
ATOM     61  H   UNL A   1      44.801  30.374  32.878  1.00  0.00     0.167 HD
ATOM     62  C   UNL A   1      43.516  30.290  30.122  1.00  0.00     0.074 A 
ATOM     63  C   UNL A   1      43.259  29.116  30.953  1.00  0.00     0.031 C 
ATOM     64  C   UNL A   1      43.924  31.556  30.440  1.00  0.00     0.031 A 
BRANCH  51  65
ATOM     65  C   UNL A   1      43.396  29.688  35.435  1.00  0.00    -0.014 A 
ATOM     66  C   UNL A   1      43.728  29.738  36.800  1.00  0.00     0.009 A 
ATOM     67  C   UNL A   1      43.873  28.579  34.708  1.00  0.00     0.009 A 
ATOM     68  C   UNL A   1      44.578  28.787  37.375  1.00  0.00     0.001 A 
ATOM     69  C   UNL A   1      44.682  27.603  35.290  1.00  0.00     0.001 A 
ATOM     70  C   UNL A   1      45.064  27.727  36.616  1.00  0.00     0.000 A 
ENDBRANCH  51  65
BRANCH  52  71
ATOM     71  C   UNL A   1      40.352  27.727  27.753  1.00  0.00    -0.014 A 
ATOM     72  C   UNL A   1      41.062  27.421  26.580  1.00  0.00     0.009 A 
ATOM     73  C   UNL A   1      39.453  26.761  28.239  1.00  0.00     0.009 A 
ATOM     74  C   UNL A   1      40.912  26.179  25.948  1.00  0.00     0.001 A 
ATOM     75  C   UNL A   1      39.293  25.525  27.603  1.00  0.00     0.001 A 
ATOM     76  C   UNL A   1      40.038  25.228  26.467  1.00  0.00     0.000 A 
ENDBRANCH  52  71
BRANCH  64  77
ATOM     77  C   UNL A   1      43.930  32.605  29.356  1.00  0.00    -0.014 A 
ATOM     78  C   UNL A   1      42.889  33.531  29.176  1.00  0.00     0.009 A 
ATOM     79  C   UNL A   1      45.102  32.769  28.599  1.00  0.00     0.009 A 
ATOM     80  C   UNL A   1      43.004  34.569  28.246  1.00  0.00     0.001 A 
ATOM     81  C   UNL A   1      45.227  33.819  27.689  1.00  0.00     0.001 A 
ATOM     82  C   UNL A   1      44.177  34.716  27.508  1.00  0.00     0.000 A 
ENDBRANCH  64  77
ENDBRANCH  38  39
ENDBRANCH  31  33
ENDBRANCH  30  31
ENDBRANCH  29  30
ENDBRANCH  28  29
ENDBRANCH  27  28
ENDBRANCH  26  27
ENDBRANCH  25  26
ENDBRANCH   1  25
TORSDOF 22
ENDMDL
