MODEL 1
REMARK VINA RESULT:      -8.0      0.000      0.000
REMARK SMILES CC[NH2+][C@@]1(C(=O)OCCOCCOCCOCCOC(=O)c2ccc(-c3c4nc(c(-c5ccccc5)c5ccc([nH]5)c(-c5ccccc5)c5nc(c(-c6ccccc6)c6ccc3[nH]6)C=C5)C=C4)cc2)CCC[C@H]1CC[NH+]1CCCCC1
REMARK SMILES IDX 12 1 11 2 10 3 9 4 8 5 7 6 5 7 6 8 4 9 70 10 73 11 71 12
REMARK SMILES IDX 72 13 3 14 2 17 1 18 74 19 75 20 76 21 77 22 81 23 78 25
REMARK SMILES IDX 80 26 79 27 13 28 14 29 15 30 16 31 17 32 18 33 19 34 20 35
REMARK SMILES IDX 21 36 22 37 23 38 69 39 24 40 68 41 25 42 26 43 27 44 62 45
REMARK SMILES IDX 28 46 67 47 61 48 63 49 29 50 66 51 60 52 59 53 30 55 52 56
REMARK SMILES IDX 37 57 51 58 38 59 41 60 50 61 64 62 39 63 40 64 49 66 65 67
REMARK SMILES IDX 42 68 31 69 32 70 36 71 33 72 35 73 34 74 53 75 54 76 58 77
REMARK SMILES IDX 55 78 57 79 56 80 43 81 44 82 48 83 45 84 47 85 46 86
REMARK H PARENT 3 15 3 16 76 24 63 54 41 65
REMARK Flexibility Score: inf
ROOT
ATOM      1  C   UNL A   1      41.799  20.239  26.092  1.00  0.00     0.188 C 
ENDROOT
BRANCH   1   2
ATOM      2  C   UNL A   1      40.831  20.599  27.207  1.00  0.00     0.188 C 
BRANCH   2   3
ATOM      3  O   UNL A   1      40.976  21.934  27.607  1.00  0.00    -0.376 OA
BRANCH   3   4
ATOM      4  C   UNL A   1      40.447  22.927  26.753  1.00  0.00     0.202 C 
BRANCH   4   5
ATOM      5  C   UNL A   1      39.041  23.548  26.940  1.00  0.00     0.261 C 
BRANCH   5   6
ATOM      6  O   UNL A   1      38.124  23.581  25.821  1.00  0.00    -0.459 OA
BRANCH   6   7
ATOM      7  C   UNL A   1      37.242  22.558  25.728  1.00  0.00     0.368 C 
ATOM      8  O   UNL A   1      37.610  21.385  25.633  1.00  0.00    -0.245 OA
BRANCH   7   9
ATOM      9  C   UNL A   1      35.700  22.953  25.748  1.00  0.00     0.197 C 
ATOM     10  C   UNL A   1      35.075  22.004  24.700  1.00  0.00     0.081 C 
ATOM     11  C   UNL A   1      35.214  24.342  25.186  1.00  0.00     0.068 C 
ATOM     12  C   UNL A   1      35.404  22.683  23.369  1.00  0.00     0.008 C 
ATOM     13  C   UNL A   1      35.414  24.184  23.656  1.00  0.00     0.011 C 
BRANCH   9  14
ATOM     14  N   UNL A   1      35.127  22.791  27.102  1.00  0.00    -0.332 N 
ATOM     15  H   UNL A   1      35.909  22.655  27.744  1.00  0.00     0.347 HD
ATOM     16  H   UNL A   1      34.571  23.635  27.236  1.00  0.00     0.347 HD
BRANCH  14  17
ATOM     17  C   UNL A   1      34.184  21.710  27.344  1.00  0.00     0.257 C 
ATOM     18  C   UNL A   1      32.952  22.298  28.019  1.00  0.00     0.071 C 
ENDBRANCH  14  17
ENDBRANCH   9  14
BRANCH  11  19
ATOM     19  C   UNL A   1      33.697  24.724  25.413  1.00  0.00     0.072 C 
BRANCH  19  20
ATOM     20  C   UNL A   1      33.236  26.038  26.110  1.00  0.00     0.262 C 
BRANCH  20  21
ATOM     21  N   UNL A   1      32.974  27.268  25.351  1.00  0.00    -0.335 N 
ATOM     22  C   UNL A   1      33.204  27.087  23.920  1.00  0.00     0.262 C 
ATOM     23  C   UNL A   1      31.714  27.915  25.704  1.00  0.00     0.262 C 
ATOM     24  H   UNL A   1      33.672  27.952  25.643  1.00  0.00     0.348 HD
ATOM     25  C   UNL A   1      32.853  28.297  23.050  1.00  0.00     0.062 C 
ATOM     26  C   UNL A   1      31.510  29.219  24.934  1.00  0.00     0.062 C 
ATOM     27  C   UNL A   1      31.526  28.922  23.450  1.00  0.00     0.012 C 
ENDBRANCH  20  21
ENDBRANCH  19  20
ENDBRANCH  11  19
ENDBRANCH   7   9
ENDBRANCH   6   7
ENDBRANCH   5   6
ENDBRANCH   4   5
ENDBRANCH   3   4
ENDBRANCH   2   3
ENDBRANCH   1   2
BRANCH   1  28
ATOM     28  O   UNL A   1      42.416  18.966  26.040  1.00  0.00    -0.377 OA
BRANCH  28  29
ATOM     29  C   UNL A   1      43.805  18.812  25.801  1.00  0.00     0.188 C 
BRANCH  29  30
ATOM     30  C   UNL A   1      44.512  19.361  24.545  1.00  0.00     0.188 C 
BRANCH  30  31
ATOM     31  O   UNL A   1      45.294  20.547  24.595  1.00  0.00    -0.376 OA
BRANCH  31  32
ATOM     32  C   UNL A   1      44.641  21.798  24.482  1.00  0.00     0.202 C 
BRANCH  32  33
ATOM     33  C   UNL A   1      44.355  22.570  25.756  1.00  0.00     0.261 C 
BRANCH  33  34
ATOM     34  O   UNL A   1      44.887  23.891  25.629  1.00  0.00    -0.460 OA
BRANCH  34  35
ATOM     35  C   UNL A   1      45.787  24.227  26.570  1.00  0.00     0.338 C 
ATOM     36  O   UNL A   1      46.846  23.675  26.832  1.00  0.00    -0.246 OA
BRANCH  35  37
ATOM     37  C   UNL A   1      45.390  25.524  27.130  1.00  0.00     0.060 A 
ATOM     38  C   UNL A   1      46.396  26.313  27.703  1.00  0.00     0.016 A 
ATOM     39  C   UNL A   1      44.059  25.948  27.105  1.00  0.00     0.016 A 
ATOM     40  C   UNL A   1      46.067  27.505  28.324  1.00  0.00     0.010 A 
ATOM     41  C   UNL A   1      43.720  27.129  27.751  1.00  0.00     0.010 A 
ATOM     42  C   UNL A   1      44.719  27.867  28.410  1.00  0.00    -0.014 A 
BRANCH  42  43
ATOM     43  C   UNL A   1      44.319  28.828  29.446  1.00  0.00     0.031 A 
ATOM     44  C   UNL A   1      44.001  28.273  30.802  1.00  0.00     0.074 A 
ATOM     45  C   UNL A   1      44.245  30.137  29.169  1.00  0.00     0.049 A 
ATOM     46  N   UNL A   1      43.517  28.877  31.852  1.00  0.00    -0.248 NA
ATOM     47  C   UNL A   1      44.247  26.831  30.994  1.00  0.00     0.031 C 
ATOM     48  C   UNL A   1      44.593  30.750  27.888  1.00  0.00     0.029 A 
ATOM     49  N   UNL A   1      43.825  31.177  29.948  1.00  0.00    -0.354 N 
ATOM     50  C   UNL A   1      43.371  27.885  32.814  1.00  0.00     0.074 A 
ATOM     51  C   UNL A   1      43.796  26.639  32.222  1.00  0.00     0.031 C 
ATOM     52  C   UNL A   1      44.340  32.068  27.961  1.00  0.00     0.029 A 
ATOM     53  C   UNL A   1      43.774  32.369  29.273  1.00  0.00     0.049 A 
ATOM     54  H   UNL A   1      43.585  31.081  30.899  1.00  0.00     0.167 HD
ATOM     55  C   UNL A   1      42.910  28.010  34.079  1.00  0.00     0.031 A 
ATOM     56  C   UNL A   1      43.279  33.555  29.669  1.00  0.00     0.031 A 
ATOM     57  C   UNL A   1      42.473  29.264  34.626  1.00  0.00     0.049 A 
ATOM     58  C   UNL A   1      42.714  33.664  31.060  1.00  0.00     0.074 A 
ATOM     59  C   UNL A   1      42.010  29.537  35.897  1.00  0.00     0.029 A 
ATOM     60  N   UNL A   1      42.435  30.456  33.913  1.00  0.00    -0.354 N 
ATOM     61  N   UNL A   1      42.603  32.733  31.980  1.00  0.00    -0.248 NA
ATOM     62  C   UNL A   1      42.216  34.981  31.471  1.00  0.00     0.031 C 
ATOM     63  C   UNL A   1      41.622  30.879  35.931  1.00  0.00     0.029 A 
ATOM     64  C   UNL A   1      41.921  31.462  34.707  1.00  0.00     0.049 A 
ATOM     65  H   UNL A   1      42.731  30.566  32.980  1.00  0.00     0.167 HD
ATOM     66  C   UNL A   1      42.053  33.357  33.091  1.00  0.00     0.074 A 
ATOM     67  C   UNL A   1      41.857  34.748  32.728  1.00  0.00     0.031 C 
ATOM     68  C   UNL A   1      41.745  32.836  34.305  1.00  0.00     0.031 A 
BRANCH  55  69
ATOM     69  C   UNL A   1      42.793  26.758  34.903  1.00  0.00    -0.014 A 
ATOM     70  C   UNL A   1      41.569  26.089  35.070  1.00  0.00     0.009 A 
ATOM     71  C   UNL A   1      43.933  26.246  35.541  1.00  0.00     0.009 A 
ATOM     72  C   UNL A   1      41.482  24.964  35.894  1.00  0.00     0.001 A 
ATOM     73  C   UNL A   1      43.852  25.102  36.336  1.00  0.00     0.001 A 
ATOM     74  C   UNL A   1      42.624  24.470  36.523  1.00  0.00     0.000 A 
ENDBRANCH  55  69
BRANCH  56  75
ATOM     75  C   UNL A   1      43.277  34.699  28.723  1.00  0.00    -0.014 A 
ATOM     76  C   UNL A   1      44.461  35.386  28.424  1.00  0.00     0.009 A 
ATOM     77  C   UNL A   1      42.091  35.077  28.071  1.00  0.00     0.009 A 
ATOM     78  C   UNL A   1      44.456  36.434  27.500  1.00  0.00     0.001 A 
ATOM     79  C   UNL A   1      42.094  36.105  27.126  1.00  0.00     0.001 A 
ATOM     80  C   UNL A   1      43.276  36.787  26.846  1.00  0.00     0.000 A 
ENDBRANCH  56  75
BRANCH  68  81
ATOM     81  C   UNL A   1      41.213  33.778  35.346  1.00  0.00    -0.014 A 
ATOM     82  C   UNL A   1      42.070  34.491  36.195  1.00  0.00     0.009 A 
ATOM     83  C   UNL A   1      39.832  34.023  35.404  1.00  0.00     0.009 A 
ATOM     84  C   UNL A   1      41.550  35.421  37.097  1.00  0.00     0.001 A 
ATOM     85  C   UNL A   1      39.319  34.975  36.282  1.00  0.00     0.001 A 
ATOM     86  C   UNL A   1      40.178  35.670  37.133  1.00  0.00     0.000 A 
ENDBRANCH  68  81
ENDBRANCH  42  43
ENDBRANCH  35  37
ENDBRANCH  34  35
ENDBRANCH  33  34
ENDBRANCH  32  33
ENDBRANCH  31  32
ENDBRANCH  30  31
ENDBRANCH  29  30
ENDBRANCH  28  29
ENDBRANCH   1  28
TORSDOF 25
ENDMDL
MODEL 2
REMARK VINA RESULT:      -7.8      1.643      3.396
REMARK SMILES CC[NH2+][C@@]1(C(=O)OCCOCCOCCOCCOC(=O)c2ccc(-c3c4nc(c(-c5ccccc5)c5ccc([nH]5)c(-c5ccccc5)c5nc(c(-c6ccccc6)c6ccc3[nH]6)C=C5)C=C4)cc2)CCC[C@H]1CC[NH+]1CCCCC1
REMARK SMILES IDX 12 1 11 2 10 3 9 4 8 5 7 6 5 7 6 8 4 9 70 10 73 11 71 12
REMARK SMILES IDX 72 13 3 14 2 17 1 18 74 19 75 20 76 21 77 22 81 23 78 25
REMARK SMILES IDX 80 26 79 27 13 28 14 29 15 30 16 31 17 32 18 33 19 34 20 35
REMARK SMILES IDX 21 36 22 37 23 38 69 39 24 40 68 41 25 42 26 43 27 44 62 45
REMARK SMILES IDX 28 46 67 47 61 48 63 49 29 50 66 51 60 52 59 53 30 55 52 56
REMARK SMILES IDX 37 57 51 58 38 59 41 60 50 61 64 62 39 63 40 64 49 66 65 67
REMARK SMILES IDX 42 68 31 69 32 70 36 71 33 72 35 73 34 74 53 75 54 76 58 77
REMARK SMILES IDX 55 78 57 79 56 80 43 81 44 82 48 83 45 84 47 85 46 86
REMARK H PARENT 3 15 3 16 76 24 63 54 41 65
REMARK Flexibility Score: inf
ROOT
ATOM      1  C   UNL A   1      41.759  20.453  26.137  1.00  0.00     0.188 C 
ENDROOT
BRANCH   1   2
ATOM      2  C   UNL A   1      40.754  20.892  27.189  1.00  0.00     0.188 C 
BRANCH   2   3
ATOM      3  O   UNL A   1      40.803  22.277  27.406  1.00  0.00    -0.376 OA
BRANCH   3   4
ATOM      4  C   UNL A   1      40.103  23.098  26.495  1.00  0.00     0.202 C 
BRANCH   4   5
ATOM      5  C   UNL A   1      38.709  23.703  26.793  1.00  0.00     0.261 C 
BRANCH   5   6
ATOM      6  O   UNL A   1      37.675  23.638  25.784  1.00  0.00    -0.459 OA
BRANCH   6   7
ATOM      7  C   UNL A   1      37.106  22.427  25.574  1.00  0.00     0.368 C 
ATOM      8  O   UNL A   1      37.735  21.377  25.717  1.00  0.00    -0.245 OA
BRANCH   7   9
ATOM      9  C   UNL A   1      35.579  22.433  25.128  1.00  0.00     0.197 C 
ATOM     10  C   UNL A   1      34.972  23.594  25.949  1.00  0.00     0.081 C 
ATOM     11  C   UNL A   1      34.609  21.265  25.546  1.00  0.00     0.068 C 
ATOM     12  C   UNL A   1      34.741  22.969  27.326  1.00  0.00     0.008 C 
ATOM     13  C   UNL A   1      34.428  21.496  27.069  1.00  0.00     0.011 C 
BRANCH   9  14
ATOM     14  N   UNL A   1      35.452  22.620  23.666  1.00  0.00    -0.332 N 
ATOM     15  H   UNL A   1      36.392  22.559  23.274  1.00  0.00     0.347 HD
ATOM     16  H   UNL A   1      34.793  21.895  23.382  1.00  0.00     0.347 HD
BRANCH  14  17
ATOM     17  C   UNL A   1      34.858  23.848  23.160  1.00  0.00     0.257 C 
ATOM     18  C   UNL A   1      33.625  23.479  22.347  1.00  0.00     0.071 C 
ENDBRANCH  14  17
ENDBRANCH   9  14
BRANCH  11  19
ATOM     19  C   UNL A   1      33.162  21.260  24.909  1.00  0.00     0.072 C 
BRANCH  19  20
ATOM     20  C   UNL A   1      32.530  20.015  24.220  1.00  0.00     0.262 C 
BRANCH  20  21
ATOM     21  N   UNL A   1      33.104  18.671  24.369  1.00  0.00    -0.335 N 
ATOM     22  C   UNL A   1      32.757  18.068  25.652  1.00  0.00     0.262 C 
ATOM     23  C   UNL A   1      32.900  17.816  23.203  1.00  0.00     0.262 C 
ATOM     24  H   UNL A   1      34.117  18.781  24.397  1.00  0.00     0.348 HD
ATOM     25  C   UNL A   1      33.233  16.625  25.840  1.00  0.00     0.062 C 
ATOM     26  C   UNL A   1      33.561  16.451  23.378  1.00  0.00     0.062 C 
ATOM     27  C   UNL A   1      32.983  15.777  24.603  1.00  0.00     0.012 C 
ENDBRANCH  20  21
ENDBRANCH  19  20
ENDBRANCH  11  19
ENDBRANCH   7   9
ENDBRANCH   6   7
ENDBRANCH   5   6
ENDBRANCH   4   5
ENDBRANCH   3   4
ENDBRANCH   2   3
ENDBRANCH   1   2
BRANCH   1  28
ATOM     28  O   UNL A   1      42.396  19.192  26.214  1.00  0.00    -0.377 OA
BRANCH  28  29
ATOM     29  C   UNL A   1      43.726  18.991  25.764  1.00  0.00     0.188 C 
BRANCH  29  30
ATOM     30  C   UNL A   1      44.290  19.635  24.482  1.00  0.00     0.188 C 
BRANCH  30  31
ATOM     31  O   UNL A   1      45.348  20.583  24.534  1.00  0.00    -0.376 OA
BRANCH  31  32
ATOM     32  C   UNL A   1      45.054  21.946  24.290  1.00  0.00     0.202 C 
BRANCH  32  33
ATOM     33  C   UNL A   1      44.390  22.741  25.399  1.00  0.00     0.261 C 
BRANCH  33  34
ATOM     34  O   UNL A   1      44.925  24.067  25.404  1.00  0.00    -0.460 OA
BRANCH  34  35
ATOM     35  C   UNL A   1      45.752  24.336  26.430  1.00  0.00     0.338 C 
ATOM     36  O   UNL A   1      46.766  23.736  26.757  1.00  0.00    -0.246 OA
BRANCH  35  37
ATOM     37  C   UNL A   1      45.353  25.625  27.004  1.00  0.00     0.060 A 
ATOM     38  C   UNL A   1      46.365  26.430  27.546  1.00  0.00     0.016 A 
ATOM     39  C   UNL A   1      44.015  26.027  27.024  1.00  0.00     0.016 A 
ATOM     40  C   UNL A   1      46.036  27.615  28.180  1.00  0.00     0.010 A 
ATOM     41  C   UNL A   1      43.678  27.202  27.683  1.00  0.00     0.010 A 
ATOM     42  C   UNL A   1      44.687  27.955  28.310  1.00  0.00    -0.014 A 
BRANCH  42  43
ATOM     43  C   UNL A   1      44.305  28.909  29.361  1.00  0.00     0.031 A 
ATOM     44  C   UNL A   1      43.992  28.341  30.713  1.00  0.00     0.074 A 
ATOM     45  C   UNL A   1      44.244  30.221  29.100  1.00  0.00     0.049 A 
ATOM     46  N   UNL A   1      43.523  28.937  31.774  1.00  0.00    -0.248 NA
ATOM     47  C   UNL A   1      44.223  26.894  30.886  1.00  0.00     0.031 C 
ATOM     48  C   UNL A   1      44.589  30.846  27.824  1.00  0.00     0.029 A 
ATOM     49  N   UNL A   1      43.842  31.257  29.895  1.00  0.00    -0.354 N 
ATOM     50  C   UNL A   1      43.373  27.936  32.725  1.00  0.00     0.074 A 
ATOM     51  C   UNL A   1      43.780  26.692  32.115  1.00  0.00     0.031 C 
ATOM     52  C   UNL A   1      44.352  32.165  27.915  1.00  0.00     0.029 A 
ATOM     53  C   UNL A   1      43.799  32.457  29.234  1.00  0.00     0.049 A 
ATOM     54  H   UNL A   1      43.608  31.152  30.846  1.00  0.00     0.167 HD
ATOM     55  C   UNL A   1      42.924  28.051  33.995  1.00  0.00     0.031 A 
ATOM     56  C   UNL A   1      43.320  33.644  29.649  1.00  0.00     0.031 A 
ATOM     57  C   UNL A   1      42.505  29.303  34.560  1.00  0.00     0.049 A 
ATOM     58  C   UNL A   1      42.767  33.742  31.045  1.00  0.00     0.074 A 
ATOM     59  C   UNL A   1      42.055  29.566  35.838  1.00  0.00     0.029 A 
ATOM     60  N   UNL A   1      42.475  30.503  33.862  1.00  0.00    -0.354 N 
ATOM     61  N   UNL A   1      42.653  32.802  31.954  1.00  0.00    -0.248 NA
ATOM     62  C   UNL A   1      42.287  35.060  31.476  1.00  0.00     0.031 C 
ATOM     63  C   UNL A   1      41.682  30.912  35.891  1.00  0.00     0.029 A 
ATOM     64  C   UNL A   1      41.978  31.506  34.672  1.00  0.00     0.049 A 
ATOM     65  H   UNL A   1      42.765  30.622  32.928  1.00  0.00     0.167 HD
ATOM     66  C   UNL A   1      42.119  33.419  33.077  1.00  0.00     0.074 A 
ATOM     67  C   UNL A   1      41.936  34.816  32.732  1.00  0.00     0.031 C 
ATOM     68  C   UNL A   1      41.815  32.887  34.287  1.00  0.00     0.031 A 
BRANCH  55  69
ATOM     69  C   UNL A   1      42.799  26.791  34.805  1.00  0.00    -0.014 A 
ATOM     70  C   UNL A   1      41.577  26.110  34.940  1.00  0.00     0.009 A 
ATOM     71  C   UNL A   1      43.930  26.281  35.463  1.00  0.00     0.009 A 
ATOM     72  C   UNL A   1      41.482  24.977  35.752  1.00  0.00     0.001 A 
ATOM     73  C   UNL A   1      43.840  25.129  36.244  1.00  0.00     0.001 A 
ATOM     74  C   UNL A   1      42.614  24.486  36.400  1.00  0.00     0.000 A 
ENDBRANCH  55  69
BRANCH  56  75
ATOM     75  C   UNL A   1      43.324  34.799  28.716  1.00  0.00    -0.014 A 
ATOM     76  C   UNL A   1      44.490  35.546  28.502  1.00  0.00     0.009 A 
ATOM     77  C   UNL A   1      42.166  35.128  27.991  1.00  0.00     0.009 A 
ATOM     78  C   UNL A   1      44.494  36.605  27.590  1.00  0.00     0.001 A 
ATOM     79  C   UNL A   1      42.180  36.167  27.059  1.00  0.00     0.001 A 
ATOM     80  C   UNL A   1      43.342  36.910  26.864  1.00  0.00     0.000 A 
ENDBRANCH  56  75
BRANCH  68  81
ATOM     81  C   UNL A   1      41.302  33.822  35.343  1.00  0.00    -0.014 A 
ATOM     82  C   UNL A   1      42.119  34.259  36.395  1.00  0.00     0.009 A 
ATOM     83  C   UNL A   1      40.005  34.346  35.220  1.00  0.00     0.009 A 
ATOM     84  C   UNL A   1      41.638  35.192  37.315  1.00  0.00     0.001 A 
ATOM     85  C   UNL A   1      39.540  35.302  36.121  1.00  0.00     0.001 A 
ATOM     86  C   UNL A   1      40.355  35.720  37.172  1.00  0.00     0.000 A 
ENDBRANCH  68  81
ENDBRANCH  42  43
ENDBRANCH  35  37
ENDBRANCH  34  35
ENDBRANCH  33  34
ENDBRANCH  32  33
ENDBRANCH  31  32
ENDBRANCH  30  31
ENDBRANCH  29  30
ENDBRANCH  28  29
ENDBRANCH   1  28
TORSDOF 25
ENDMDL
MODEL 3
REMARK VINA RESULT:      -7.4      1.772      2.199
REMARK SMILES CC[NH2+][C@@]1(C(=O)OCCOCCOCCOCCOC(=O)c2ccc(-c3c4nc(c(-c5ccccc5)c5ccc([nH]5)c(-c5ccccc5)c5nc(c(-c6ccccc6)c6ccc3[nH]6)C=C5)C=C4)cc2)CCC[C@H]1CC[NH+]1CCCCC1
REMARK SMILES IDX 12 1 11 2 10 3 9 4 8 5 7 6 5 7 6 8 4 9 70 10 73 11 71 12
REMARK SMILES IDX 72 13 3 14 2 17 1 18 74 19 75 20 76 21 77 22 81 23 78 25
REMARK SMILES IDX 80 26 79 27 13 28 14 29 15 30 16 31 17 32 18 33 19 34 20 35
REMARK SMILES IDX 21 36 22 37 23 38 69 39 24 40 68 41 25 42 26 43 27 44 62 45
REMARK SMILES IDX 28 46 67 47 61 48 63 49 29 50 66 51 60 52 59 53 30 55 52 56
REMARK SMILES IDX 37 57 51 58 38 59 41 60 50 61 64 62 39 63 40 64 49 66 65 67
REMARK SMILES IDX 42 68 31 69 32 70 36 71 33 72 35 73 34 74 53 75 54 76 58 77
REMARK SMILES IDX 55 78 57 79 56 80 43 81 44 82 48 83 45 84 47 85 46 86
REMARK H PARENT 3 15 3 16 76 24 63 54 41 65
REMARK Flexibility Score: inf
ROOT
ATOM      1  C   UNL A   1      42.342  18.592  25.891  1.00  0.00     0.188 C 
ENDROOT
BRANCH   1   2
ATOM      2  C   UNL A   1      42.553  19.280  27.229  1.00  0.00     0.188 C 
BRANCH   2   3
ATOM      3  O   UNL A   1      41.512  20.172  27.523  1.00  0.00    -0.376 OA
BRANCH   3   4
ATOM      4  C   UNL A   1      40.805  20.722  26.432  1.00  0.00     0.202 C 
BRANCH   4   5
ATOM      5  C   UNL A   1      39.637  21.726  26.594  1.00  0.00     0.261 C 
BRANCH   5   6
ATOM      6  O   UNL A   1      38.627  21.813  25.562  1.00  0.00    -0.459 OA
BRANCH   6   7
ATOM      7  C   UNL A   1      37.570  22.622  25.812  1.00  0.00     0.368 C 
ATOM      8  O   UNL A   1      37.701  23.712  26.372  1.00  0.00    -0.245 OA
BRANCH   7   9
ATOM      9  C   UNL A   1      36.147  22.087  25.344  1.00  0.00     0.197 C 
ATOM     10  C   UNL A   1      36.197  22.234  23.806  1.00  0.00     0.081 C 
ATOM     11  C   UNL A   1      34.834  22.900  25.655  1.00  0.00     0.068 C 
ATOM     12  C   UNL A   1      35.899  23.717  23.583  1.00  0.00     0.008 C 
ATOM     13  C   UNL A   1      34.961  24.130  24.717  1.00  0.00     0.011 C 
BRANCH   9  14
ATOM     14  N   UNL A   1      35.928  20.695  25.794  1.00  0.00    -0.332 N 
ATOM     15  H   UNL A   1      36.536  20.542  26.600  1.00  0.00     0.347 HD
ATOM     16  H   UNL A   1      34.924  20.647  25.966  1.00  0.00     0.347 HD
BRANCH  14  17
ATOM     17  C   UNL A   1      36.175  19.605  24.862  1.00  0.00     0.257 C 
ATOM     18  C   UNL A   1      34.868  18.850  24.659  1.00  0.00     0.071 C 
ENDBRANCH  14  17
ENDBRANCH   9  14
BRANCH  11  19
ATOM     19  C   UNL A   1      33.454  22.207  25.316  1.00  0.00     0.072 C 
BRANCH  19  20
ATOM     20  C   UNL A   1      32.072  22.814  25.693  1.00  0.00     0.262 C 
BRANCH  20  21
ATOM     21  N   UNL A   1      31.642  24.131  25.202  1.00  0.00    -0.335 N 
ATOM     22  C   UNL A   1      30.851  24.026  23.979  1.00  0.00     0.262 C 
ATOM     23  C   UNL A   1      31.075  24.986  26.241  1.00  0.00     0.262 C 
ATOM     24  H   UNL A   1      32.484  24.635  24.925  1.00  0.00     0.348 HD
ATOM     25  C   UNL A   1      30.279  25.349  23.462  1.00  0.00     0.062 C 
ATOM     26  C   UNL A   1      30.696  26.362  25.698  1.00  0.00     0.062 C 
ATOM     27  C   UNL A   1      29.689  26.191  24.581  1.00  0.00     0.012 C 
ENDBRANCH  20  21
ENDBRANCH  19  20
ENDBRANCH  11  19
ENDBRANCH   7   9
ENDBRANCH   6   7
ENDBRANCH   5   6
ENDBRANCH   4   5
ENDBRANCH   3   4
ENDBRANCH   2   3
ENDBRANCH   1   2
BRANCH   1  28
ATOM     28  O   UNL A   1      43.437  18.249  25.062  1.00  0.00    -0.377 OA
BRANCH  28  29
ATOM     29  C   UNL A   1      44.725  18.814  25.246  1.00  0.00     0.188 C 
BRANCH  29  30
ATOM     30  C   UNL A   1      45.170  20.135  24.587  1.00  0.00     0.188 C 
BRANCH  30  31
ATOM     31  O   UNL A   1      44.869  21.393  25.176  1.00  0.00    -0.376 OA
BRANCH  31  32
ATOM     32  C   UNL A   1      45.078  22.569  24.415  1.00  0.00     0.202 C 
BRANCH  32  33
ATOM     33  C   UNL A   1      46.152  23.535  24.879  1.00  0.00     0.261 C 
BRANCH  33  34
ATOM     34  O   UNL A   1      45.669  24.872  24.730  1.00  0.00    -0.460 OA
BRANCH  34  35
ATOM     35  C   UNL A   1      46.622  25.821  24.759  1.00  0.00     0.338 C 
ATOM     36  O   UNL A   1      47.621  25.906  24.059  1.00  0.00    -0.246 OA
BRANCH  35  37
ATOM     37  C   UNL A   1      46.168  26.889  25.655  1.00  0.00     0.060 A 
ATOM     38  C   UNL A   1      47.152  27.638  26.315  1.00  0.00     0.016 A 
ATOM     39  C   UNL A   1      44.808  27.139  25.854  1.00  0.00     0.016 A 
ATOM     40  C   UNL A   1      46.781  28.599  27.239  1.00  0.00     0.010 A 
ATOM     41  C   UNL A   1      44.432  28.083  26.800  1.00  0.00     0.010 A 
ATOM     42  C   UNL A   1      45.423  28.762  27.531  1.00  0.00    -0.014 A 
BRANCH  42  43
ATOM     43  C   UNL A   1      45.054  29.394  28.804  1.00  0.00     0.031 A 
ATOM     44  C   UNL A   1      45.039  28.516  30.020  1.00  0.00     0.074 A 
ATOM     45  C   UNL A   1      44.744  30.696  28.854  1.00  0.00     0.049 A 
ATOM     46  N   UNL A   1      44.643  28.786  31.233  1.00  0.00    -0.248 NA
ATOM     47  C   UNL A   1      45.522  27.135  29.837  1.00  0.00     0.031 C 
ATOM     48  C   UNL A   1      44.792  31.619  27.721  1.00  0.00     0.029 A 
ATOM     49  N   UNL A   1      44.303  31.455  29.900  1.00  0.00    -0.354 N 
ATOM     50  C   UNL A   1      44.798  27.604  31.945  1.00  0.00     0.074 A 
ATOM     51  C   UNL A   1      45.304  26.608  31.030  1.00  0.00     0.031 C 
ATOM     52  C   UNL A   1      44.362  32.824  28.132  1.00  0.00     0.029 A 
ATOM     53  C   UNL A   1      43.971  32.734  29.535  1.00  0.00     0.049 A 
ATOM     54  H   UNL A   1      44.232  31.118  30.823  1.00  0.00     0.167 HD
ATOM     55  C   UNL A   1      44.529  27.373  33.249  1.00  0.00     0.031 A 
ATOM     56  C   UNL A   1      43.374  33.701  30.256  1.00  0.00     0.031 A 
ATOM     57  C   UNL A   1      44.002  28.383  34.124  1.00  0.00     0.049 A 
ATOM     58  C   UNL A   1      43.025  33.409  31.691  1.00  0.00     0.074 A 
ATOM     59  C   UNL A   1      43.710  28.293  35.470  1.00  0.00     0.029 A 
ATOM     60  N   UNL A   1      43.677  29.672  33.722  1.00  0.00    -0.354 N 
ATOM     61  N   UNL A   1      43.200  32.300  32.372  1.00  0.00    -0.248 NA
ATOM     62  C   UNL A   1      42.409  34.497  32.457  1.00  0.00     0.031 C 
ATOM     63  C   UNL A   1      43.138  29.505  35.865  1.00  0.00     0.029 A 
ATOM     64  C   UNL A   1      43.151  30.378  34.786  1.00  0.00     0.049 A 
ATOM     65  H   UNL A   1      43.803  30.029  32.812  1.00  0.00     0.167 HD
ATOM     66  C   UNL A   1      42.745  32.565  33.657  1.00  0.00     0.074 A 
ATOM     67  C   UNL A   1      42.291  33.942  33.657  1.00  0.00     0.031 C 
ATOM     68  C   UNL A   1      42.713  31.752  34.742  1.00  0.00     0.031 A 
BRANCH  55  69
ATOM     69  C   UNL A   1      44.729  25.975  33.764  1.00  0.00    -0.014 A 
ATOM     70  C   UNL A   1      45.980  25.518  34.212  1.00  0.00     0.009 A 
ATOM     71  C   UNL A   1      43.641  25.088  33.786  1.00  0.00     0.009 A 
ATOM     72  C   UNL A   1      46.146  24.194  34.625  1.00  0.00     0.001 A 
ATOM     73  C   UNL A   1      43.801  23.776  34.232  1.00  0.00     0.001 A 
ATOM     74  C   UNL A   1      45.055  23.325  34.638  1.00  0.00     0.000 A 
ENDBRANCH  55  69
BRANCH  56  75
ATOM     75  C   UNL A   1      43.054  35.000  29.613  1.00  0.00    -0.014 A 
ATOM     76  C   UNL A   1      43.934  36.085  29.710  1.00  0.00     0.009 A 
ATOM     77  C   UNL A   1      41.883  35.142  28.849  1.00  0.00     0.009 A 
ATOM     78  C   UNL A   1      43.644  37.291  29.065  1.00  0.00     0.001 A 
ATOM     79  C   UNL A   1      41.610  36.338  28.181  1.00  0.00     0.001 A 
ATOM     80  C   UNL A   1      42.487  37.413  28.295  1.00  0.00     0.000 A 
ENDBRANCH  56  75
BRANCH  68  81
ATOM     81  C   UNL A   1      42.218  32.340  36.031  1.00  0.00    -0.014 A 
ATOM     82  C   UNL A   1      43.064  33.074  36.874  1.00  0.00     0.009 A 
ATOM     83  C   UNL A   1      40.854  32.237  36.351  1.00  0.00     0.009 A 
ATOM     84  C   UNL A   1      42.555  33.678  38.026  1.00  0.00     0.001 A 
ATOM     85  C   UNL A   1      40.344  32.869  37.483  1.00  0.00     0.001 A 
ATOM     86  C   UNL A   1      41.196  33.584  38.323  1.00  0.00     0.000 A 
ENDBRANCH  68  81
ENDBRANCH  42  43
ENDBRANCH  35  37
ENDBRANCH  34  35
ENDBRANCH  33  34
ENDBRANCH  32  33
ENDBRANCH  31  32
ENDBRANCH  30  31
ENDBRANCH  29  30
ENDBRANCH  28  29
ENDBRANCH   1  28
TORSDOF 25
ENDMDL
