MODEL 1
REMARK VINA RESULT:      -8.2      0.000      0.000
REMARK SMILES C[C@@]1(CN2C(=O)c3ccc(C(=O)OCCOCCOCCOCCOC(=O)c4ccc(-c5c6nc(c(-c7ccccc7)c7ccc([nH]7)c(-c7ccccc7)c7nc(c(-c8ccccc8)c8ccc5[nH]8)C=C7)C=C6)cc4)cc3C2=O)CCCO1
REMARK SMILES IDX 19 1 18 2 17 3 16 4 15 5 14 6 13 7 11 8 12 9 10 10 4 11 5 12
REMARK SMILES IDX 78 13 6 14 7 15 77 16 79 17 8 18 76 19 9 20 3 21 2 22 1 23
REMARK SMILES IDX 80 24 83 25 81 26 82 27 20 28 21 29 22 30 23 31 24 32 25 33
REMARK SMILES IDX 26 34 27 35 28 36 29 37 75 38 30 39 74 40 31 41 32 42 33 43
REMARK SMILES IDX 68 44 34 45 73 46 67 47 69 48 35 49 72 50 66 51 65 52 36 54
REMARK SMILES IDX 58 55 43 56 57 57 44 58 47 59 56 60 70 61 45 62 46 63 55 65
REMARK SMILES IDX 71 66 48 67 37 68 38 69 42 70 39 71 41 72 40 73 59 74 60 75
REMARK SMILES IDX 64 76 61 77 63 78 62 79 49 80 50 81 54 82 51 83 53 84 52 85
REMARK H PARENT 69 53 47 64
REMARK Flexibility Score: inf
ROOT
ATOM      1  O   UNL A   1      34.540  34.511  33.030  1.00  0.00    -0.377 OA
ENDROOT
BRANCH   1   2
ATOM      2  C   UNL A   1      35.017  33.423  33.808  1.00  0.00     0.188 C 
BRANCH   2   3
ATOM      3  C   UNL A   1      36.537  33.352  34.057  1.00  0.00     0.188 C 
BRANCH   3   4
ATOM      4  O   UNL A   1      37.079  32.063  33.823  1.00  0.00    -0.376 OA
BRANCH   4   5
ATOM      5  C   UNL A   1      38.355  31.740  34.339  1.00  0.00     0.202 C 
BRANCH   5   6
ATOM      6  C   UNL A   1      38.768  30.268  34.511  1.00  0.00     0.261 C 
BRANCH   6   7
ATOM      7  O   UNL A   1      40.165  30.013  34.689  1.00  0.00    -0.460 OA
BRANCH   7   8
ATOM      8  C   UNL A   1      40.743  29.121  33.857  1.00  0.00     0.338 C 
ATOM      9  O   UNL A   1      40.551  29.008  32.660  1.00  0.00    -0.246 OA
BRANCH   8  10
ATOM     10  C   UNL A   1      41.825  28.432  34.608  1.00  0.00     0.060 A 
ATOM     11  N   UNL A   1      44.402  24.939  36.085  1.00  0.00    -0.271 N 
ATOM     12  C   UNL A   1      44.814  26.179  36.500  1.00  0.00     0.261 C 
ATOM     13  C   UNL A   1      43.380  25.021  35.181  1.00  0.00     0.261 C 
ATOM     14  O   UNL A   1      45.740  26.482  37.215  1.00  0.00    -0.269 OA
ATOM     15  C   UNL A   1      43.883  27.139  35.907  1.00  0.00     0.053 A 
ATOM     16  C   UNL A   1      42.999  26.431  35.112  1.00  0.00     0.054 A 
ATOM     17  O   UNL A   1      42.870  24.148  34.499  1.00  0.00    -0.269 OA
ATOM     18  C   UNL A   1      43.785  28.507  36.074  1.00  0.00     0.015 A 
ATOM     19  C   UNL A   1      41.958  27.045  34.444  1.00  0.00     0.030 A 
ATOM     20  C   UNL A   1      42.739  29.159  35.410  1.00  0.00     0.016 A 
BRANCH  11  21
ATOM     21  C   UNL A   1      44.960  23.687  36.571  1.00  0.00     0.164 C 
BRANCH  21  22
ATOM     22  C   UNL A   1      46.020  23.076  35.606  1.00  0.00     0.084 C 
ATOM     23  C   UNL A   1      46.614  24.116  34.654  1.00  0.00     0.044 C 
ATOM     24  C   UNL A   1      45.432  21.901  34.817  1.00  0.00     0.039 C 
ATOM     25  O   UNL A   1      47.103  22.519  36.384  1.00  0.00    -0.373 OA
ATOM     26  C   UNL A   1      45.718  20.717  35.706  1.00  0.00     0.031 C 
ATOM     27  C   UNL A   1      47.048  21.088  36.321  1.00  0.00     0.161 C 
ENDBRANCH  21  22
ENDBRANCH  11  21
ENDBRANCH   8  10
ENDBRANCH   7   8
ENDBRANCH   6   7
ENDBRANCH   5   6
ENDBRANCH   4   5
ENDBRANCH   3   4
ENDBRANCH   2   3
ENDBRANCH   1   2
BRANCH   1  28
ATOM     28  C   UNL A   1      34.302  35.774  33.653  1.00  0.00     0.188 C 
BRANCH  28  29
ATOM     29  C   UNL A   1      34.029  37.073  32.853  1.00  0.00     0.188 C 
BRANCH  29  30
ATOM     30  O   UNL A   1      32.997  36.974  31.885  1.00  0.00    -0.376 OA
BRANCH  30  31
ATOM     31  C   UNL A   1      33.309  37.316  30.547  1.00  0.00     0.202 C 
BRANCH  31  32
ATOM     32  C   UNL A   1      32.701  36.420  29.461  1.00  0.00     0.261 C 
BRANCH  32  33
ATOM     33  O   UNL A   1      32.719  35.009  29.733  1.00  0.00    -0.460 OA
BRANCH  33  34
ATOM     34  C   UNL A   1      32.960  34.186  28.688  1.00  0.00     0.338 C 
ATOM     35  O   UNL A   1      32.315  34.087  27.661  1.00  0.00    -0.246 OA
BRANCH  34  36
ATOM     36  C   UNL A   1      34.269  33.539  28.920  1.00  0.00     0.060 A 
ATOM     37  C   UNL A   1      34.415  32.672  30.011  1.00  0.00     0.016 A 
ATOM     38  C   UNL A   1      35.342  33.782  28.060  1.00  0.00     0.016 A 
ATOM     39  C   UNL A   1      35.648  32.070  30.262  1.00  0.00     0.010 A 
ATOM     40  C   UNL A   1      36.582  33.194  28.325  1.00  0.00     0.010 A 
ATOM     41  C   UNL A   1      36.750  32.361  29.444  1.00  0.00    -0.014 A 
BRANCH  41  42
ATOM     42  C   UNL A   1      38.108  31.933  29.860  1.00  0.00     0.031 A 
ATOM     43  C   UNL A   1      38.633  30.615  29.351  1.00  0.00     0.074 A 
ATOM     44  C   UNL A   1      38.875  32.705  30.652  1.00  0.00     0.049 A 
ATOM     45  N   UNL A   1      39.775  30.027  29.597  1.00  0.00    -0.248 NA
ATOM     46  C   UNL A   1      37.751  29.863  28.443  1.00  0.00     0.031 C 
ATOM     47  C   UNL A   1      38.504  34.019  31.174  1.00  0.00     0.029 A 
ATOM     48  N   UNL A   1      40.132  32.484  31.159  1.00  0.00    -0.354 N 
ATOM     49  C   UNL A   1      39.742  28.832  28.889  1.00  0.00     0.074 A 
ATOM     50  C   UNL A   1      38.461  28.767  28.221  1.00  0.00     0.031 C 
ATOM     51  C   UNL A   1      39.512  34.488  31.929  1.00  0.00     0.029 A 
ATOM     52  C   UNL A   1      40.582  33.492  31.976  1.00  0.00     0.049 A 
ATOM     53  H   UNL A   1      40.661  31.679  30.955  1.00  0.00     0.167 HD
ATOM     54  C   UNL A   1      40.693  27.873  28.802  1.00  0.00     0.031 A 
ATOM     55  C   UNL A   1      41.717  33.587  32.697  1.00  0.00     0.031 A 
ATOM     56  C   UNL A   1      41.967  27.934  29.468  1.00  0.00     0.049 A 
ATOM     57  C   UNL A   1      42.722  32.463  32.644  1.00  0.00     0.074 A 
ATOM     58  C   UNL A   1      43.011  27.026  29.411  1.00  0.00     0.029 A 
ATOM     59  N   UNL A   1      42.365  28.950  30.320  1.00  0.00    -0.354 N 
ATOM     60  N   UNL A   1      42.701  31.363  31.931  1.00  0.00    -0.248 NA
ATOM     61  C   UNL A   1      43.915  32.602  33.493  1.00  0.00     0.031 C 
ATOM     62  C   UNL A   1      44.011  27.456  30.286  1.00  0.00     0.029 A 
ATOM     63  C   UNL A   1      43.623  28.671  30.828  1.00  0.00     0.049 A 
ATOM     64  H   UNL A   1      41.834  29.751  30.533  1.00  0.00     0.167 HD
ATOM     65  C   UNL A   1      43.890  30.701  32.218  1.00  0.00     0.074 A 
ATOM     66  C   UNL A   1      44.618  31.533  33.151  1.00  0.00     0.031 C 
ATOM     67  C   UNL A   1      44.339  29.511  31.750  1.00  0.00     0.031 A 
BRANCH  54  68
ATOM     68  C   UNL A   1      40.385  26.647  27.989  1.00  0.00    -0.014 A 
ATOM     69  C   UNL A   1      40.849  26.502  26.672  1.00  0.00     0.009 A 
ATOM     70  C   UNL A   1      39.676  25.589  28.581  1.00  0.00     0.009 A 
ATOM     71  C   UNL A   1      40.593  25.328  25.960  1.00  0.00     0.001 A 
ATOM     72  C   UNL A   1      39.448  24.406  27.876  1.00  0.00     0.001 A 
ATOM     73  C   UNL A   1      39.901  24.279  26.565  1.00  0.00     0.000 A 
ENDBRANCH  54  68
BRANCH  55  74
ATOM     74  C   UNL A   1      41.970  34.770  33.567  1.00  0.00    -0.014 A 
ATOM     75  C   UNL A   1      41.321  34.903  34.806  1.00  0.00     0.009 A 
ATOM     76  C   UNL A   1      42.806  35.809  33.130  1.00  0.00     0.009 A 
ATOM     77  C   UNL A   1      41.465  36.069  35.562  1.00  0.00     0.001 A 
ATOM     78  C   UNL A   1      42.978  36.957  33.905  1.00  0.00     0.001 A 
ATOM     79  C   UNL A   1      42.295  37.094  35.112  1.00  0.00     0.000 A 
ENDBRANCH  55  74
BRANCH  67  80
ATOM     80  C   UNL A   1      45.703  29.060  32.202  1.00  0.00    -0.014 A 
ATOM     81  C   UNL A   1      46.877  29.617  31.669  1.00  0.00     0.009 A 
ATOM     82  C   UNL A   1      45.812  28.084  33.207  1.00  0.00     0.009 A 
ATOM     83  C   UNL A   1      48.128  29.172  32.100  1.00  0.00     0.001 A 
ATOM     84  C   UNL A   1      47.063  27.669  33.662  1.00  0.00     0.001 A 
ATOM     85  C   UNL A   1      48.221  28.204  33.099  1.00  0.00     0.000 A 
ENDBRANCH  67  80
ENDBRANCH  41  42
ENDBRANCH  34  36
ENDBRANCH  33  34
ENDBRANCH  32  33
ENDBRANCH  31  32
ENDBRANCH  30  31
ENDBRANCH  29  30
ENDBRANCH  28  29
ENDBRANCH   1  28
TORSDOF 22
ENDMDL
MODEL 2
REMARK VINA RESULT:      -7.7      4.633     10.224
REMARK SMILES C[C@@]1(CN2C(=O)c3ccc(C(=O)OCCOCCOCCOCCOC(=O)c4ccc(-c5c6nc(c(-c7ccccc7)c7ccc([nH]7)c(-c7ccccc7)c7nc(c(-c8ccccc8)c8ccc5[nH]8)C=C7)C=C6)cc4)cc3C2=O)CCCO1
REMARK SMILES IDX 19 1 18 2 17 3 16 4 15 5 14 6 13 7 11 8 12 9 10 10 4 11 5 12
REMARK SMILES IDX 78 13 6 14 7 15 77 16 79 17 8 18 76 19 9 20 3 21 2 22 1 23
REMARK SMILES IDX 80 24 83 25 81 26 82 27 20 28 21 29 22 30 23 31 24 32 25 33
REMARK SMILES IDX 26 34 27 35 28 36 29 37 75 38 30 39 74 40 31 41 32 42 33 43
REMARK SMILES IDX 68 44 34 45 73 46 67 47 69 48 35 49 72 50 66 51 65 52 36 54
REMARK SMILES IDX 58 55 43 56 57 57 44 58 47 59 56 60 70 61 45 62 46 63 55 65
REMARK SMILES IDX 71 66 48 67 37 68 38 69 42 70 39 71 41 72 40 73 59 74 60 75
REMARK SMILES IDX 64 76 61 77 63 78 62 79 49 80 50 81 54 82 51 83 53 84 52 85
REMARK H PARENT 69 53 47 64
REMARK Flexibility Score: inf
ROOT
ATOM      1  O   UNL A   1      35.453  30.810  27.567  1.00  0.00    -0.377 OA
ENDROOT
BRANCH   1   2
ATOM      2  C   UNL A   1      34.910  29.563  27.976  1.00  0.00     0.188 C 
BRANCH   2   3
ATOM      3  C   UNL A   1      33.682  29.044  27.202  1.00  0.00     0.188 C 
BRANCH   3   4
ATOM      4  O   UNL A   1      33.627  29.514  25.866  1.00  0.00    -0.376 OA
BRANCH   4   5
ATOM      5  C   UNL A   1      32.876  28.798  24.906  1.00  0.00     0.202 C 
BRANCH   5   6
ATOM      6  C   UNL A   1      31.574  29.394  24.343  1.00  0.00     0.261 C 
BRANCH   6   7
ATOM      7  O   UNL A   1      30.445  28.519  24.280  1.00  0.00    -0.460 OA
BRANCH   7   8
ATOM      8  C   UNL A   1      30.232  27.863  23.119  1.00  0.00     0.338 C 
ATOM      9  O   UNL A   1      29.471  28.187  22.226  1.00  0.00    -0.246 OA
BRANCH   8  10
ATOM     10  C   UNL A   1      31.247  26.783  23.014  1.00  0.00     0.060 A 
ATOM     11  N   UNL A   1      33.468  22.926  24.117  1.00  0.00    -0.271 N 
ATOM     12  C   UNL A   1      33.895  23.530  22.963  1.00  0.00     0.261 C 
ATOM     13  C   UNL A   1      32.352  23.532  24.623  1.00  0.00     0.261 C 
ATOM     14  O   UNL A   1      34.784  23.209  22.210  1.00  0.00    -0.269 OA
ATOM     15  C   UNL A   1      33.052  24.713  22.784  1.00  0.00     0.053 A 
ATOM     16  C   UNL A   1      32.119  24.721  23.806  1.00  0.00     0.054 A 
ATOM     17  O   UNL A   1      31.623  23.184  25.536  1.00  0.00    -0.269 OA
ATOM     18  C   UNL A   1      33.115  25.719  21.840  1.00  0.00     0.015 A 
ATOM     19  C   UNL A   1      31.197  25.740  23.950  1.00  0.00     0.030 A 
ATOM     20  C   UNL A   1      32.195  26.767  21.959  1.00  0.00     0.016 A 
BRANCH  11  21
ATOM     21  C   UNL A   1      34.139  21.799  24.746  1.00  0.00     0.164 C 
BRANCH  21  22
ATOM     22  C   UNL A   1      35.026  22.217  25.957  1.00  0.00     0.084 C 
ATOM     23  C   UNL A   1      34.300  22.066  27.295  1.00  0.00     0.044 C 
ATOM     24  C   UNL A   1      35.548  23.648  25.788  1.00  0.00     0.039 C 
ATOM     25  O   UNL A   1      36.201  21.376  25.995  1.00  0.00    -0.373 OA
ATOM     26  C   UNL A   1      36.846  23.451  25.045  1.00  0.00     0.031 C 
ATOM     27  C   UNL A   1      37.349  22.145  25.613  1.00  0.00     0.161 C 
ENDBRANCH  21  22
ENDBRANCH  11  21
ENDBRANCH   8  10
ENDBRANCH   7   8
ENDBRANCH   6   7
ENDBRANCH   5   6
ENDBRANCH   4   5
ENDBRANCH   3   4
ENDBRANCH   2   3
ENDBRANCH   1   2
BRANCH   1  28
ATOM     28  C   UNL A   1      34.766  32.020  27.891  1.00  0.00     0.188 C 
BRANCH  28  29
ATOM     29  C   UNL A   1      35.466  33.401  27.942  1.00  0.00     0.188 C 
BRANCH  29  30
ATOM     30  O   UNL A   1      34.592  34.511  28.064  1.00  0.00    -0.376 OA
BRANCH  30  31
ATOM     31  C   UNL A   1      33.347  34.306  28.706  1.00  0.00     0.202 C 
BRANCH  31  32
ATOM     32  C   UNL A   1      33.018  35.257  29.864  1.00  0.00     0.261 C 
BRANCH  32  33
ATOM     33  O   UNL A   1      34.069  35.461  30.822  1.00  0.00    -0.460 OA
BRANCH  33  34
ATOM     34  C   UNL A   1      34.062  34.670  31.919  1.00  0.00     0.338 C 
ATOM     35  O   UNL A   1      33.191  34.589  32.765  1.00  0.00    -0.246 OA
BRANCH  34  36
ATOM     36  C   UNL A   1      35.226  33.764  31.825  1.00  0.00     0.060 A 
ATOM     37  C   UNL A   1      35.147  32.492  32.408  1.00  0.00     0.016 A 
ATOM     38  C   UNL A   1      36.385  34.167  31.158  1.00  0.00     0.016 A 
ATOM     39  C   UNL A   1      36.243  31.631  32.352  1.00  0.00     0.010 A 
ATOM     40  C   UNL A   1      37.489  33.310  31.121  1.00  0.00     0.010 A 
ATOM     41  C   UNL A   1      37.434  32.052  31.745  1.00  0.00    -0.014 A 
BRANCH  41  42
ATOM     42  C   UNL A   1      38.670  31.247  31.913  1.00  0.00     0.031 A 
ATOM     43  C   UNL A   1      39.587  31.573  33.064  1.00  0.00     0.074 A 
ATOM     44  C   UNL A   1      38.965  30.233  31.081  1.00  0.00     0.049 A 
ATOM     45  N   UNL A   1      40.728  31.026  33.396  1.00  0.00    -0.248 NA
ATOM     46  C   UNL A   1      39.158  32.660  33.960  1.00  0.00     0.031 C 
ATOM     47  C   UNL A   1      38.141  29.787  29.958  1.00  0.00     0.029 A 
ATOM     48  N   UNL A   1      40.052  29.394  31.054  1.00  0.00    -0.354 N 
ATOM     49  C   UNL A   1      41.158  31.711  34.526  1.00  0.00     0.074 A 
ATOM     50  C   UNL A   1      40.169  32.726  34.812  1.00  0.00     0.031 C 
ATOM     51  C   UNL A   1      38.754  28.756  29.351  1.00  0.00     0.029 A 
ATOM     52  C   UNL A   1      40.029  28.494  30.016  1.00  0.00     0.049 A 
ATOM     53  H   UNL A   1      40.780  29.434  31.717  1.00  0.00     0.167 HD
ATOM     54  C   UNL A   1      42.277  31.512  35.261  1.00  0.00     0.031 A 
ATOM     55  C   UNL A   1      40.945  27.581  29.636  1.00  0.00     0.031 A 
ATOM     56  C   UNL A   1      43.264  30.504  34.976  1.00  0.00     0.049 A 
ATOM     57  C   UNL A   1      42.221  27.439  30.427  1.00  0.00     0.074 A 
ATOM     58  C   UNL A   1      44.414  30.203  35.686  1.00  0.00     0.029 A 
ATOM     59  N   UNL A   1      43.224  29.643  33.893  1.00  0.00    -0.354 N 
ATOM     60  N   UNL A   1      42.592  28.058  31.522  1.00  0.00    -0.248 NA
ATOM     61  C   UNL A   1      43.202  26.464  29.930  1.00  0.00     0.031 C 
ATOM     62  C   UNL A   1      45.108  29.210  34.990  1.00  0.00     0.029 A 
ATOM     63  C   UNL A   1      44.351  28.839  33.891  1.00  0.00     0.049 A 
ATOM     64  H   UNL A   1      42.503  29.609  33.223  1.00  0.00     0.167 HD
ATOM     65  C   UNL A   1      43.828  27.520  31.863  1.00  0.00     0.074 A 
ATOM     66  C   UNL A   1      44.133  26.510  30.872  1.00  0.00     0.031 C 
ATOM     67  C   UNL A   1      44.639  27.833  32.903  1.00  0.00     0.031 A 
BRANCH  54  68
ATOM     68  C   UNL A   1      42.526  32.428  36.426  1.00  0.00    -0.014 A 
ATOM     69  C   UNL A   1      43.206  33.646  36.271  1.00  0.00     0.009 A 
ATOM     70  C   UNL A   1      42.006  32.095  37.687  1.00  0.00     0.009 A 
ATOM     71  C   UNL A   1      43.375  34.503  37.361  1.00  0.00     0.001 A 
ATOM     72  C   UNL A   1      42.151  32.967  38.767  1.00  0.00     0.001 A 
ATOM     73  C   UNL A   1      42.840  34.167  38.605  1.00  0.00     0.000 A 
ENDBRANCH  54  68
BRANCH  55  74
ATOM     74  C   UNL A   1      40.724  26.739  28.426  1.00  0.00    -0.014 A 
ATOM     75  C   UNL A   1      41.234  27.129  27.176  1.00  0.00     0.009 A 
ATOM     76  C   UNL A   1      39.936  25.580  28.501  1.00  0.00     0.009 A 
ATOM     77  C   UNL A   1      40.921  26.403  26.024  1.00  0.00     0.001 A 
ATOM     78  C   UNL A   1      39.657  24.835  27.353  1.00  0.00     0.001 A 
ATOM     79  C   UNL A   1      40.134  25.256  26.114  1.00  0.00     0.000 A 
ENDBRANCH  55  74
BRANCH  67  80
ATOM     80  C   UNL A   1      45.911  27.041  33.052  1.00  0.00    -0.014 A 
ATOM     81  C   UNL A   1      45.937  25.808  33.722  1.00  0.00     0.009 A 
ATOM     82  C   UNL A   1      47.098  27.525  32.477  1.00  0.00     0.009 A 
ATOM     83  C   UNL A   1      47.133  25.100  33.853  1.00  0.00     0.001 A 
ATOM     84  C   UNL A   1      48.284  26.798  32.578  1.00  0.00     0.001 A 
ATOM     85  C   UNL A   1      48.304  25.592  33.277  1.00  0.00     0.000 A 
ENDBRANCH  67  80
ENDBRANCH  41  42
ENDBRANCH  34  36
ENDBRANCH  33  34
ENDBRANCH  32  33
ENDBRANCH  31  32
ENDBRANCH  30  31
ENDBRANCH  29  30
ENDBRANCH  28  29
ENDBRANCH   1  28
TORSDOF 22
ENDMDL
MODEL 3
REMARK VINA RESULT:      -7.6      4.739     10.192
REMARK SMILES C[C@@]1(CN2C(=O)c3ccc(C(=O)OCCOCCOCCOCCOC(=O)c4ccc(-c5c6nc(c(-c7ccccc7)c7ccc([nH]7)c(-c7ccccc7)c7nc(c(-c8ccccc8)c8ccc5[nH]8)C=C7)C=C6)cc4)cc3C2=O)CCCO1
REMARK SMILES IDX 19 1 18 2 17 3 16 4 15 5 14 6 13 7 11 8 12 9 10 10 4 11 5 12
REMARK SMILES IDX 78 13 6 14 7 15 77 16 79 17 8 18 76 19 9 20 3 21 2 22 1 23
REMARK SMILES IDX 80 24 83 25 81 26 82 27 20 28 21 29 22 30 23 31 24 32 25 33
REMARK SMILES IDX 26 34 27 35 28 36 29 37 75 38 30 39 74 40 31 41 32 42 33 43
REMARK SMILES IDX 68 44 34 45 73 46 67 47 69 48 35 49 72 50 66 51 65 52 36 54
REMARK SMILES IDX 58 55 43 56 57 57 44 58 47 59 56 60 70 61 45 62 46 63 55 65
REMARK SMILES IDX 71 66 48 67 37 68 38 69 42 70 39 71 41 72 40 73 59 74 60 75
REMARK SMILES IDX 64 76 61 77 63 78 62 79 49 80 50 81 54 82 51 83 53 84 52 85
REMARK H PARENT 69 53 47 64
REMARK Flexibility Score: inf
ROOT
ATOM      1  O   UNL A   1      35.164  30.764  28.290  1.00  0.00    -0.377 OA
ENDROOT
BRANCH   1   2
ATOM      2  C   UNL A   1      34.439  29.812  27.525  1.00  0.00     0.188 C 
BRANCH   2   3
ATOM      3  C   UNL A   1      33.009  30.197  27.097  1.00  0.00     0.188 C 
BRANCH   3   4
ATOM      4  O   UNL A   1      32.804  30.107  25.698  1.00  0.00    -0.376 OA
BRANCH   4   5
ATOM      5  C   UNL A   1      32.417  28.871  25.128  1.00  0.00     0.202 C 
BRANCH   5   6
ATOM      6  C   UNL A   1      31.073  28.747  24.392  1.00  0.00     0.261 C 
BRANCH   6   7
ATOM      7  O   UNL A   1      30.897  27.588  23.572  1.00  0.00    -0.460 OA
BRANCH   7   8
ATOM      8  C   UNL A   1      30.102  26.606  24.048  1.00  0.00     0.338 C 
ATOM      9  O   UNL A   1      28.909  26.678  24.274  1.00  0.00    -0.246 OA
BRANCH   8  10
ATOM     10  C   UNL A   1      30.888  25.344  24.050  1.00  0.00     0.060 A 
ATOM     11  N   UNL A   1      34.199  22.411  25.255  1.00  0.00    -0.271 N 
ATOM     12  C   UNL A   1      33.269  21.907  24.384  1.00  0.00     0.261 C 
ATOM     13  C   UNL A   1      33.853  23.655  25.703  1.00  0.00     0.261 C 
ATOM     14  O   UNL A   1      33.207  20.815  23.871  1.00  0.00    -0.269 OA
ATOM     15  C   UNL A   1      32.303  22.982  24.151  1.00  0.00     0.053 A 
ATOM     16  C   UNL A   1      32.668  24.054  24.947  1.00  0.00     0.054 A 
ATOM     17  O   UNL A   1      34.355  24.335  26.582  1.00  0.00    -0.269 OA
ATOM     18  C   UNL A   1      31.223  23.039  23.292  1.00  0.00     0.015 A 
ATOM     19  C   UNL A   1      31.980  25.252  24.925  1.00  0.00     0.030 A 
ATOM     20  C   UNL A   1      30.506  24.241  23.246  1.00  0.00     0.016 A 
BRANCH  11  21
ATOM     21  C   UNL A   1      35.424  21.722  25.631  1.00  0.00     0.164 C 
BRANCH  21  22
ATOM     22  C   UNL A   1      36.665  22.196  24.817  1.00  0.00     0.084 C 
ATOM     23  C   UNL A   1      36.282  22.799  23.464  1.00  0.00     0.044 C 
ATOM     24  C   UNL A   1      37.669  21.054  24.630  1.00  0.00     0.039 C 
ATOM     25  O   UNL A   1      37.366  23.211  25.570  1.00  0.00    -0.373 OA
ATOM     26  C   UNL A   1      38.555  21.177  25.844  1.00  0.00     0.031 C 
ATOM     27  C   UNL A   1      38.601  22.672  26.061  1.00  0.00     0.161 C 
ENDBRANCH  21  22
ENDBRANCH  11  21
ENDBRANCH   8  10
ENDBRANCH   7   8
ENDBRANCH   6   7
ENDBRANCH   5   6
ENDBRANCH   4   5
ENDBRANCH   3   4
ENDBRANCH   2   3
ENDBRANCH   1   2
BRANCH   1  28
ATOM     28  C   UNL A   1      34.663  32.096  28.418  1.00  0.00     0.188 C 
BRANCH  28  29
ATOM     29  C   UNL A   1      35.417  33.211  29.187  1.00  0.00     0.188 C 
BRANCH  29  30
ATOM     30  O   UNL A   1      34.922  34.523  28.976  1.00  0.00    -0.376 OA
BRANCH  30  31
ATOM     31  C   UNL A   1      33.546  34.671  28.673  1.00  0.00     0.202 C 
BRANCH  31  32
ATOM     32  C   UNL A   1      32.751  35.615  29.583  1.00  0.00     0.261 C 
BRANCH  32  33
ATOM     33  O   UNL A   1      33.435  36.071  30.761  1.00  0.00    -0.460 OA
BRANCH  33  34
ATOM     34  C   UNL A   1      33.093  35.491  31.934  1.00  0.00     0.338 C 
ATOM     35  O   UNL A   1      31.984  35.426  32.429  1.00  0.00    -0.246 OA
BRANCH  34  36
ATOM     36  C   UNL A   1      34.282  34.772  32.441  1.00  0.00     0.060 A 
ATOM     37  C   UNL A   1      35.539  35.382  32.343  1.00  0.00     0.016 A 
ATOM     38  C   UNL A   1      34.150  33.506  33.016  1.00  0.00     0.016 A 
ATOM     39  C   UNL A   1      36.675  34.710  32.793  1.00  0.00     0.010 A 
ATOM     40  C   UNL A   1      35.294  32.827  33.448  1.00  0.00     0.010 A 
ATOM     41  C   UNL A   1      36.564  33.412  33.309  1.00  0.00    -0.014 A 
BRANCH  41  42
ATOM     42  C   UNL A   1      37.788  32.605  33.542  1.00  0.00     0.031 A 
ATOM     43  C   UNL A   1      38.575  32.843  34.805  1.00  0.00     0.074 A 
ATOM     44  C   UNL A   1      38.182  31.662  32.668  1.00  0.00     0.049 A 
ATOM     45  N   UNL A   1      39.683  32.278  35.210  1.00  0.00    -0.248 NA
ATOM     46  C   UNL A   1      38.039  33.852  35.733  1.00  0.00     0.031 C 
ATOM     47  C   UNL A   1      37.486  31.302  31.434  1.00  0.00     0.029 A 
ATOM     48  N   UNL A   1      39.278  30.834  32.689  1.00  0.00    -0.354 N 
ATOM     49  C   UNL A   1      39.984  32.873  36.429  1.00  0.00     0.074 A 
ATOM     50  C   UNL A   1      38.956  33.856  36.689  1.00  0.00     0.031 C 
ATOM     51  C   UNL A   1      38.172  30.327  30.814  1.00  0.00     0.029 A 
ATOM     52  C   UNL A   1      39.376  30.020  31.586  1.00  0.00     0.049 A 
ATOM     53  H   UNL A   1      39.933  30.826  33.425  1.00  0.00     0.167 HD
ATOM     54  C   UNL A   1      41.023  32.623  37.259  1.00  0.00     0.031 A 
ATOM     55  C   UNL A   1      40.339  29.146  31.232  1.00  0.00     0.031 A 
ATOM     56  C   UNL A   1      42.049  31.647  37.000  1.00  0.00     0.049 A 
ATOM     57  C   UNL A   1      41.529  28.950  32.140  1.00  0.00     0.074 A 
ATOM     58  C   UNL A   1      43.124  31.298  37.800  1.00  0.00     0.029 A 
ATOM     59  N   UNL A   1      42.135  30.876  35.854  1.00  0.00    -0.354 N 
ATOM     60  N   UNL A   1      41.775  29.481  33.313  1.00  0.00    -0.248 NA
ATOM     61  C   UNL A   1      42.570  28.024  31.673  1.00  0.00     0.031 C 
ATOM     62  C   UNL A   1      43.900  30.368  37.105  1.00  0.00     0.029 A 
ATOM     63  C   UNL A   1      43.268  30.081  35.906  1.00  0.00     0.049 A 
ATOM     64  H   UNL A   1      41.488  30.891  35.112  1.00  0.00     0.167 HD
ATOM     65  C   UNL A   1      42.977  28.926  33.737  1.00  0.00     0.074 A 
ATOM     66  C   UNL A   1      43.398  28.000  32.707  1.00  0.00     0.031 C 
ATOM     67  C   UNL A   1      43.671  29.160  34.878  1.00  0.00     0.031 A 
BRANCH  54  68
ATOM     68  C   UNL A   1      41.137  33.445  38.512  1.00  0.00    -0.014 A 
ATOM     69  C   UNL A   1      40.543  33.035  39.716  1.00  0.00     0.009 A 
ATOM     70  C   UNL A   1      41.914  34.614  38.501  1.00  0.00     0.009 A 
ATOM     71  C   UNL A   1      40.711  33.791  40.878  1.00  0.00     0.001 A 
ATOM     72  C   UNL A   1      42.104  35.351  39.671  1.00  0.00     0.001 A 
ATOM     73  C   UNL A   1      41.498  34.942  40.856  1.00  0.00     0.000 A 
ENDBRANCH  54  68
BRANCH  55  74
ATOM     74  C   UNL A   1      40.257  28.403  29.944  1.00  0.00    -0.014 A 
ATOM     75  C   UNL A   1      40.761  28.962  28.758  1.00  0.00     0.009 A 
ATOM     76  C   UNL A   1      39.606  27.162  29.879  1.00  0.00     0.009 A 
ATOM     77  C   UNL A   1      40.573  28.318  27.533  1.00  0.00     0.001 A 
ATOM     78  C   UNL A   1      39.452  26.501  28.658  1.00  0.00     0.001 A 
ATOM     79  C   UNL A   1      39.920  27.087  27.484  1.00  0.00     0.000 A 
ENDBRANCH  55  74
BRANCH  67  80
ATOM     80  C   UNL A   1      44.932  28.366  35.096  1.00  0.00    -0.014 A 
ATOM     81  C   UNL A   1      46.189  28.862  34.714  1.00  0.00     0.009 A 
ATOM     82  C   UNL A   1      44.861  27.114  35.729  1.00  0.00     0.009 A 
ATOM     83  C   UNL A   1      47.340  28.099  34.920  1.00  0.00     0.001 A 
ATOM     84  C   UNL A   1      46.017  26.372  35.967  1.00  0.00     0.001 A 
ATOM     85  C   UNL A   1      47.255  26.859  35.551  1.00  0.00     0.000 A 
ENDBRANCH  67  80
ENDBRANCH  41  42
ENDBRANCH  34  36
ENDBRANCH  33  34
ENDBRANCH  32  33
ENDBRANCH  31  32
ENDBRANCH  30  31
ENDBRANCH  29  30
ENDBRANCH  28  29
ENDBRANCH   1  28
TORSDOF 22
ENDMDL
