MODEL 1
REMARK VINA RESULT:     -10.0      0.000      0.000
REMARK SMILES CN1C(=O)C[C@H](C(=O)OCCOCCOCCOCCOC(=O)c2ccc(-c3c4nc(c(-c5ccccc5)c5ccc([nH]5)c(-c5ccccc5)c5nc(c(-c6ccccc6)c6ccc3[nH]6)C=C5)C=C4)cc2)C12CC[NH+](Cc1ccc(Cl)c(F)c1)CC2
REMARK SMILES IDX 15 1 14 2 13 3 12 4 11 5 10 6 9 7 7 8 8 9 6 10 1 11 2 12
REMARK SMILES IDX 3 13 72 14 4 15 5 16 73 17 86 18 74 19 85 20 75 21 76 23
REMARK SMILES IDX 77 24 78 25 84 26 79 27 82 28 80 29 83 30 81 31 16 32 17 33
REMARK SMILES IDX 18 34 19 35 20 36 21 37 22 38 23 39 24 40 25 41 71 42 26 43
REMARK SMILES IDX 70 44 27 45 28 46 29 47 64 48 30 49 69 50 63 51 65 52 31 53
REMARK SMILES IDX 68 54 62 55 61 56 32 58 54 59 39 60 53 61 40 62 43 63 52 64
REMARK SMILES IDX 66 65 41 66 42 67 51 69 67 70 44 71 33 72 34 73 38 74 35 75
REMARK SMILES IDX 37 76 36 77 55 78 56 79 60 80 57 81 59 82 58 83 45 84 46 85
REMARK SMILES IDX 50 86 47 87 49 88 48 89
REMARK H PARENT 75 22 65 57 43 68
REMARK Flexibility Score: inf
ROOT
ATOM      1  O   UNL A   1      36.902  22.661  24.613  1.00  0.00    -0.377 OA
ENDROOT
BRANCH   1   2
ATOM      2  C   UNL A   1      35.575  22.186  24.717  1.00  0.00     0.188 C 
BRANCH   2   3
ATOM      3  C   UNL A   1      35.235  20.811  25.325  1.00  0.00     0.188 C 
BRANCH   3   4
ATOM      4  O   UNL A   1      34.122  20.748  26.187  1.00  0.00    -0.376 OA
BRANCH   4   5
ATOM      5  C   UNL A   1      33.980  21.473  27.391  1.00  0.00     0.202 C 
BRANCH   5   6
ATOM      6  C   UNL A   1      33.534  22.932  27.512  1.00  0.00     0.261 C 
BRANCH   6   7
ATOM      7  O   UNL A   1      32.142  23.164  27.727  1.00  0.00    -0.463 OA
BRANCH   7   8
ATOM      8  C   UNL A   1      31.434  23.628  26.678  1.00  0.00     0.311 C 
ATOM      9  O   UNL A   1      30.306  24.097  26.767  1.00  0.00    -0.252 OA
BRANCH   8  10
ATOM     10  C   UNL A   1      32.180  23.596  25.365  1.00  0.00     0.134 C 
ATOM     11  C   UNL A   1      32.942  24.805  21.892  1.00  0.00     0.147 C 
ATOM     12  N   UNL A   1      32.589  24.138  23.135  1.00  0.00    -0.339 N 
ATOM     13  C   UNL A   1      32.193  22.809  23.118  1.00  0.00     0.223 C 
ATOM     14  C   UNL A   1      32.323  24.835  24.427  1.00  0.00     0.067 C 
ATOM     15  O   UNL A   1      32.168  22.064  22.152  1.00  0.00    -0.275 OA
ATOM     16  C   UNL A   1      31.745  22.423  24.492  1.00  0.00     0.118 C 
ATOM     17  C   UNL A   1      33.548  25.663  24.881  1.00  0.00     0.091 C 
ATOM     18  C   UNL A   1      31.140  25.811  24.213  1.00  0.00     0.091 C 
ATOM     19  C   UNL A   1      33.222  26.621  26.028  1.00  0.00     0.265 C 
ATOM     20  C   UNL A   1      30.917  26.890  25.279  1.00  0.00     0.265 C 
ATOM     21  N   UNL A   1      32.127  27.541  25.755  1.00  0.00    -0.331 N 
ATOM     22  H   UNL A   1      31.878  27.877  26.684  1.00  0.00     0.348 HD
BRANCH  21  23
ATOM     23  C   UNL A   1      32.465  28.826  25.132  1.00  0.00     0.299 C 
BRANCH  23  24
ATOM     24  C   UNL A   1      31.472  29.364  24.124  1.00  0.00     0.009 A 
ATOM     25  C   UNL A   1      31.491  28.923  22.793  1.00  0.00     0.011 A 
ATOM     26  C   UNL A   1      30.458  30.251  24.526  1.00  0.00     0.050 A 
ATOM     27  C   UNL A   1      30.458  29.270  21.915  1.00  0.00     0.024 A 
ATOM     28  C   UNL A   1      29.418  30.567  23.657  1.00  0.00     0.142 A 
ATOM     29  C   UNL A   1      29.403  30.065  22.362  1.00  0.00     0.076 A 
ATOM     30  F   UNL A   1      28.401  31.309  24.122  1.00  0.00    -0.205 F 
ATOM     31  Cl  UNL A   1      28.068  30.364  21.319  1.00  0.00    -0.081 Cl
ENDBRANCH  23  24
ENDBRANCH  21  23
ENDBRANCH   8  10
ENDBRANCH   7   8
ENDBRANCH   6   7
ENDBRANCH   5   6
ENDBRANCH   4   5
ENDBRANCH   3   4
ENDBRANCH   2   3
ENDBRANCH   1   2
BRANCH   1  32
ATOM     32  C   UNL A   1      37.559  22.941  25.828  1.00  0.00     0.188 C 
BRANCH  32  33
ATOM     33  C   UNL A   1      39.035  22.513  25.821  1.00  0.00     0.188 C 
BRANCH  33  34
ATOM     34  O   UNL A   1      39.490  21.413  26.593  1.00  0.00    -0.376 OA
BRANCH  34  35
ATOM     35  C   UNL A   1      40.214  20.335  26.022  1.00  0.00     0.202 C 
BRANCH  35  36
ATOM     36  C   UNL A   1      41.752  20.250  26.012  1.00  0.00     0.261 C 
BRANCH  36  37
ATOM     37  O   UNL A   1      42.480  21.291  26.662  1.00  0.00    -0.460 OA
BRANCH  37  38
ATOM     38  C   UNL A   1      42.681  22.404  25.921  1.00  0.00     0.338 C 
ATOM     39  O   UNL A   1      42.729  22.500  24.713  1.00  0.00    -0.246 OA
BRANCH  38  40
ATOM     40  C   UNL A   1      42.691  23.555  26.843  1.00  0.00     0.060 A 
ATOM     41  C   UNL A   1      42.294  23.355  28.170  1.00  0.00     0.016 A 
ATOM     42  C   UNL A   1      43.059  24.823  26.390  1.00  0.00     0.016 A 
ATOM     43  C   UNL A   1      42.250  24.427  29.053  1.00  0.00     0.010 A 
ATOM     44  C   UNL A   1      42.976  25.907  27.265  1.00  0.00     0.010 A 
ATOM     45  C   UNL A   1      42.542  25.714  28.588  1.00  0.00    -0.014 A 
BRANCH  45  46
ATOM     46  C   UNL A   1      42.190  26.876  29.429  1.00  0.00     0.031 A 
ATOM     47  C   UNL A   1      43.107  27.233  30.565  1.00  0.00     0.074 A 
ATOM     48  C   UNL A   1      41.102  27.616  29.166  1.00  0.00     0.049 A 
ATOM     49  N   UNL A   1      42.985  28.175  31.463  1.00  0.00    -0.248 NA
ATOM     50  C   UNL A   1      44.325  26.417  30.704  1.00  0.00     0.031 C 
ATOM     51  C   UNL A   1      40.182  27.404  28.049  1.00  0.00     0.029 A 
ATOM     52  N   UNL A   1      40.588  28.699  29.830  1.00  0.00    -0.354 N 
ATOM     53  C   UNL A   1      44.103  28.058  32.280  1.00  0.00     0.074 A 
ATOM     54  C   UNL A   1      44.877  26.940  31.788  1.00  0.00     0.031 C 
ATOM     55  C   UNL A   1      39.205  28.326  28.113  1.00  0.00     0.029 A 
ATOM     56  C   UNL A   1      39.412  29.161  29.295  1.00  0.00     0.049 A 
ATOM     57  H   UNL A   1      41.021  29.107  30.615  1.00  0.00     0.167 HD
ATOM     58  C   UNL A   1      44.454  28.817  33.343  1.00  0.00     0.031 A 
ATOM     59  C   UNL A   1      38.586  30.130  29.731  1.00  0.00     0.031 A 
ATOM     60  C   UNL A   1      43.666  29.913  33.840  1.00  0.00     0.049 A 
ATOM     61  C   UNL A   1      38.944  30.892  30.981  1.00  0.00     0.074 A 
ATOM     62  C   UNL A   1      43.930  30.749  34.910  1.00  0.00     0.029 A 
ATOM     63  N   UNL A   1      42.451  30.315  33.306  1.00  0.00    -0.354 N 
ATOM     64  N   UNL A   1      40.010  30.788  31.739  1.00  0.00    -0.248 NA
ATOM     65  C   UNL A   1      37.984  31.909  31.433  1.00  0.00     0.031 C 
ATOM     66  C   UNL A   1      42.842  31.613  35.065  1.00  0.00     0.029 A 
ATOM     67  C   UNL A   1      41.936  31.366  34.045  1.00  0.00     0.049 A 
ATOM     68  H   UNL A   1      42.019  29.913  32.518  1.00  0.00     0.167 HD
ATOM     69  C   UNL A   1      39.864  31.745  32.736  1.00  0.00     0.074 A 
ATOM     70  C   UNL A   1      38.615  32.430  32.476  1.00  0.00     0.031 C 
ATOM     71  C   UNL A   1      40.689  32.033  33.772  1.00  0.00     0.031 A 
BRANCH  58  72
ATOM     72  C   UNL A   1      45.720  28.454  34.066  1.00  0.00    -0.014 A 
ATOM     73  C   UNL A   1      46.952  29.039  33.730  1.00  0.00     0.009 A 
ATOM     74  C   UNL A   1      45.675  27.525  35.117  1.00  0.00     0.009 A 
ATOM     75  C   UNL A   1      48.116  28.674  34.411  1.00  0.00     0.001 A 
ATOM     76  C   UNL A   1      46.835  27.187  35.816  1.00  0.00     0.001 A 
ATOM     77  C   UNL A   1      48.056  27.754  35.456  1.00  0.00     0.000 A 
ENDBRANCH  58  72
BRANCH  59  78
ATOM     78  C   UNL A   1      37.323  30.419  29.002  1.00  0.00    -0.014 A 
ATOM     79  C   UNL A   1      37.098  31.680  28.430  1.00  0.00     0.009 A 
ATOM     80  C   UNL A   1      36.321  29.441  28.897  1.00  0.00     0.009 A 
ATOM     81  C   UNL A   1      35.887  31.963  27.793  1.00  0.00     0.001 A 
ATOM     82  C   UNL A   1      35.125  29.715  28.232  1.00  0.00     0.001 A 
ATOM     83  C   UNL A   1      34.904  30.980  27.690  1.00  0.00     0.000 A 
ENDBRANCH  59  78
BRANCH  71  84
ATOM     84  C   UNL A   1      40.289  33.165  34.680  1.00  0.00    -0.014 A 
ATOM     85  C   UNL A   1      39.784  32.929  35.968  1.00  0.00     0.009 A 
ATOM     86  C   UNL A   1      40.468  34.491  34.253  1.00  0.00     0.009 A 
ATOM     87  C   UNL A   1      39.433  33.998  36.796  1.00  0.00     0.001 A 
ATOM     88  C   UNL A   1      40.149  35.557  35.096  1.00  0.00     0.001 A 
ATOM     89  C   UNL A   1      39.622  35.309  36.361  1.00  0.00     0.000 A 
ENDBRANCH  71  84
ENDBRANCH  45  46
ENDBRANCH  38  40
ENDBRANCH  37  38
ENDBRANCH  36  37
ENDBRANCH  35  36
ENDBRANCH  34  35
ENDBRANCH  33  34
ENDBRANCH  32  33
ENDBRANCH   1  32
TORSDOF 22
ENDMDL
MODEL 2
REMARK VINA RESULT:      -9.9      3.794      8.740
REMARK SMILES CN1C(=O)C[C@H](C(=O)OCCOCCOCCOCCOC(=O)c2ccc(-c3c4nc(c(-c5ccccc5)c5ccc([nH]5)c(-c5ccccc5)c5nc(c(-c6ccccc6)c6ccc3[nH]6)C=C5)C=C4)cc2)C12CC[NH+](Cc1ccc(Cl)c(F)c1)CC2
REMARK SMILES IDX 15 1 14 2 13 3 12 4 11 5 10 6 9 7 7 8 8 9 6 10 1 11 2 12
REMARK SMILES IDX 3 13 72 14 4 15 5 16 73 17 86 18 74 19 85 20 75 21 76 23
REMARK SMILES IDX 77 24 78 25 84 26 79 27 82 28 80 29 83 30 81 31 16 32 17 33
REMARK SMILES IDX 18 34 19 35 20 36 21 37 22 38 23 39 24 40 25 41 71 42 26 43
REMARK SMILES IDX 70 44 27 45 28 46 29 47 64 48 30 49 69 50 63 51 65 52 31 53
REMARK SMILES IDX 68 54 62 55 61 56 32 58 54 59 39 60 53 61 40 62 43 63 52 64
REMARK SMILES IDX 66 65 41 66 42 67 51 69 67 70 44 71 33 72 34 73 38 74 35 75
REMARK SMILES IDX 37 76 36 77 55 78 56 79 60 80 57 81 59 82 58 83 45 84 46 85
REMARK SMILES IDX 50 86 47 87 49 88 48 89
REMARK H PARENT 75 22 65 57 43 68
REMARK Flexibility Score: inf
ROOT
ATOM      1  O   UNL A   1      33.434  27.674  25.951  1.00  0.00    -0.377 OA
ENDROOT
BRANCH   1   2
ATOM      2  C   UNL A   1      33.352  28.351  24.713  1.00  0.00     0.188 C 
BRANCH   2   3
ATOM      3  C   UNL A   1      32.040  28.974  24.197  1.00  0.00     0.188 C 
BRANCH   3   4
ATOM      4  O   UNL A   1      31.021  28.085  23.801  1.00  0.00    -0.376 OA
BRANCH   4   5
ATOM      5  C   UNL A   1      30.278  27.255  24.669  1.00  0.00     0.202 C 
BRANCH   5   6
ATOM      6  C   UNL A   1      30.473  25.748  24.852  1.00  0.00     0.261 C 
BRANCH   6   7
ATOM      7  O   UNL A   1      31.730  25.207  24.446  1.00  0.00    -0.463 OA
BRANCH   7   8
ATOM      8  C   UNL A   1      32.479  24.626  25.405  1.00  0.00     0.311 C 
ATOM      9  O   UNL A   1      32.076  24.384  26.536  1.00  0.00    -0.252 OA
BRANCH   8  10
ATOM     10  C   UNL A   1      33.860  24.215  24.949  1.00  0.00     0.134 C 
ATOM     11  C   UNL A   1      36.654  21.754  24.459  1.00  0.00     0.147 C 
ATOM     12  N   UNL A   1      35.720  22.821  24.784  1.00  0.00    -0.339 N 
ATOM     13  C   UNL A   1      36.131  23.880  25.580  1.00  0.00     0.223 C 
ATOM     14  C   UNL A   1      34.243  22.747  24.584  1.00  0.00     0.067 C 
ATOM     15  O   UNL A   1      37.255  24.082  26.008  1.00  0.00    -0.275 OA
ATOM     16  C   UNL A   1      34.946  24.743  25.880  1.00  0.00     0.118 C 
ATOM     17  C   UNL A   1      33.889  22.495  23.100  1.00  0.00     0.091 C 
ATOM     18  C   UNL A   1      33.704  21.556  25.413  1.00  0.00     0.091 C 
ATOM     19  C   UNL A   1      32.421  22.117  22.899  1.00  0.00     0.265 C 
ATOM     20  C   UNL A   1      32.291  21.058  25.091  1.00  0.00     0.265 C 
ATOM     21  N   UNL A   1      31.981  20.965  23.673  1.00  0.00    -0.331 N 
ATOM     22  H   UNL A   1      30.966  21.044  23.636  1.00  0.00     0.348 HD
BRANCH  21  23
ATOM     23  C   UNL A   1      32.130  19.641  23.057  1.00  0.00     0.299 C 
BRANCH  23  24
ATOM     24  C   UNL A   1      32.984  18.645  23.811  1.00  0.00     0.009 A 
ATOM     25  C   UNL A   1      32.503  17.358  24.094  1.00  0.00     0.011 A 
ATOM     26  C   UNL A   1      34.306  18.963  24.165  1.00  0.00     0.050 A 
ATOM     27  C   UNL A   1      33.357  16.379  24.614  1.00  0.00     0.024 A 
ATOM     28  C   UNL A   1      35.158  17.977  24.654  1.00  0.00     0.142 A 
ATOM     29  C   UNL A   1      34.695  16.683  24.861  1.00  0.00     0.076 A 
ATOM     30  F   UNL A   1      36.448  18.289  24.853  1.00  0.00    -0.205 F 
ATOM     31  Cl  UNL A   1      35.769  15.436  25.361  1.00  0.00    -0.081 Cl
ENDBRANCH  23  24
ENDBRANCH  21  23
ENDBRANCH   8  10
ENDBRANCH   7   8
ENDBRANCH   6   7
ENDBRANCH   5   6
ENDBRANCH   4   5
ENDBRANCH   3   4
ENDBRANCH   2   3
ENDBRANCH   1   2
BRANCH   1  32
ATOM     32  C   UNL A   1      33.174  28.446  27.100  1.00  0.00     0.188 C 
BRANCH  32  33
ATOM     33  C   UNL A   1      34.262  29.496  27.373  1.00  0.00     0.188 C 
BRANCH  33  34
ATOM     34  O   UNL A   1      34.049  30.872  27.096  1.00  0.00    -0.376 OA
BRANCH  34  35
ATOM     35  C   UNL A   1      32.843  31.536  27.436  1.00  0.00     0.202 C 
BRANCH  35  36
ATOM     36  C   UNL A   1      32.629  33.053  27.276  1.00  0.00     0.261 C 
BRANCH  36  37
ATOM     37  O   UNL A   1      32.412  33.824  28.458  1.00  0.00    -0.460 OA
BRANCH  37  38
ATOM     38  C   UNL A   1      33.309  34.810  28.678  1.00  0.00     0.338 C 
ATOM     39  O   UNL A   1      33.201  35.990  28.420  1.00  0.00    -0.246 OA
BRANCH  38  40
ATOM     40  C   UNL A   1      34.428  34.230  29.443  1.00  0.00     0.060 A 
ATOM     41  C   UNL A   1      35.737  34.513  29.035  1.00  0.00     0.016 A 
ATOM     42  C   UNL A   1      34.184  33.393  30.533  1.00  0.00     0.016 A 
ATOM     43  C   UNL A   1      36.814  33.947  29.708  1.00  0.00     0.010 A 
ATOM     44  C   UNL A   1      35.263  32.792  31.183  1.00  0.00     0.010 A 
ATOM     45  C   UNL A   1      36.577  33.046  30.751  1.00  0.00    -0.014 A 
BRANCH  45  46
ATOM     46  C   UNL A   1      37.693  32.214  31.245  1.00  0.00     0.031 A 
ATOM     47  C   UNL A   1      38.227  32.490  32.622  1.00  0.00     0.074 A 
ATOM     48  C   UNL A   1      38.192  31.215  30.502  1.00  0.00     0.049 A 
ATOM     49  N   UNL A   1      39.226  31.927  33.252  1.00  0.00    -0.248 NA
ATOM     50  C   UNL A   1      37.541  33.541  33.392  1.00  0.00     0.031 C 
ATOM     51  C   UNL A   1      37.705  30.813  29.184  1.00  0.00     0.029 A 
ATOM     52  N   UNL A   1      39.230  30.356  30.757  1.00  0.00    -0.354 N 
ATOM     53  C   UNL A   1      39.295  32.563  34.484  1.00  0.00     0.074 A 
ATOM     54  C   UNL A   1      38.258  33.571  34.506  1.00  0.00     0.031 C 
ATOM     55  C   UNL A   1      38.454  29.789  28.739  1.00  0.00     0.029 A 
ATOM     56  C   UNL A   1      39.494  29.495  29.723  1.00  0.00     0.049 A 
ATOM     57  H   UNL A   1      39.737  30.358  31.601  1.00  0.00     0.167 HD
ATOM     58  C   UNL A   1      40.147  32.327  35.508  1.00  0.00     0.031 A 
ATOM     59  C   UNL A   1      40.483  28.593  29.580  1.00  0.00     0.031 A 
ATOM     60  C   UNL A   1      41.192  31.340  35.471  1.00  0.00     0.049 A 
ATOM     61  C   UNL A   1      41.486  28.422  30.692  1.00  0.00     0.074 A 
ATOM     62  C   UNL A   1      42.109  31.017  36.454  1.00  0.00     0.029 A 
ATOM     63  N   UNL A   1      41.465  30.525  34.382  1.00  0.00    -0.354 N 
ATOM     64  N   UNL A   1      41.536  29.014  31.861  1.00  0.00    -0.248 NA
ATOM     65  C   UNL A   1      42.568  27.453  30.463  1.00  0.00     0.031 C 
ATOM     66  C   UNL A   1      42.981  30.055  35.936  1.00  0.00     0.029 A 
ATOM     67  C   UNL A   1      42.559  29.722  34.657  1.00  0.00     0.049 A 
ATOM     68  H   UNL A   1      40.956  30.517  33.540  1.00  0.00     0.167 HD
ATOM     69  C   UNL A   1      42.632  28.469  32.519  1.00  0.00     0.074 A 
ATOM     70  C   UNL A   1      43.208  27.486  31.624  1.00  0.00     0.031 C 
ATOM     71  C   UNL A   1      43.118  28.752  33.752  1.00  0.00     0.031 A 
BRANCH  58  72
ATOM     72  C   UNL A   1      40.011  33.186  36.734  1.00  0.00    -0.014 A 
ATOM     73  C   UNL A   1      39.240  32.779  37.835  1.00  0.00     0.009 A 
ATOM     74  C   UNL A   1      40.685  34.415  36.796  1.00  0.00     0.009 A 
ATOM     75  C   UNL A   1      39.122  33.601  38.958  1.00  0.00     0.001 A 
ATOM     76  C   UNL A   1      40.591  35.220  37.933  1.00  0.00     0.001 A 
ATOM     77  C   UNL A   1      39.801  34.817  39.008  1.00  0.00     0.000 A 
ENDBRANCH  58  72
BRANCH  59  78
ATOM     78  C   UNL A   1      40.597  27.800  28.328  1.00  0.00    -0.014 A 
ATOM     79  C   UNL A   1      40.020  26.525  28.231  1.00  0.00     0.009 A 
ATOM     80  C   UNL A   1      41.309  28.306  27.227  1.00  0.00     0.009 A 
ATOM     81  C   UNL A   1      40.176  25.763  27.071  1.00  0.00     0.001 A 
ATOM     82  C   UNL A   1      41.436  27.556  26.057  1.00  0.00     0.001 A 
ATOM     83  C   UNL A   1      40.879  26.280  25.983  1.00  0.00     0.000 A 
ENDBRANCH  59  78
BRANCH  71  84
ATOM     84  C   UNL A   1      44.309  27.961  34.224  1.00  0.00    -0.014 A 
ATOM     85  C   UNL A   1      45.619  28.433  34.051  1.00  0.00     0.009 A 
ATOM     86  C   UNL A   1      44.108  26.745  34.899  1.00  0.00     0.009 A 
ATOM     87  C   UNL A   1      46.706  27.685  34.511  1.00  0.00     0.001 A 
ATOM     88  C   UNL A   1      45.194  26.018  35.388  1.00  0.00     0.001 A 
ATOM     89  C   UNL A   1      46.491  26.482  35.184  1.00  0.00     0.000 A 
ENDBRANCH  71  84
ENDBRANCH  45  46
ENDBRANCH  38  40
ENDBRANCH  37  38
ENDBRANCH  36  37
ENDBRANCH  35  36
ENDBRANCH  34  35
ENDBRANCH  33  34
ENDBRANCH  32  33
ENDBRANCH   1  32
TORSDOF 22
ENDMDL
MODEL 3
REMARK VINA RESULT:      -9.7      2.302      6.001
REMARK SMILES CN1C(=O)C[C@H](C(=O)OCCOCCOCCOCCOC(=O)c2ccc(-c3c4nc(c(-c5ccccc5)c5ccc([nH]5)c(-c5ccccc5)c5nc(c(-c6ccccc6)c6ccc3[nH]6)C=C5)C=C4)cc2)C12CC[NH+](Cc1ccc(Cl)c(F)c1)CC2
REMARK SMILES IDX 15 1 14 2 13 3 12 4 11 5 10 6 9 7 7 8 8 9 6 10 1 11 2 12
REMARK SMILES IDX 3 13 72 14 4 15 5 16 73 17 86 18 74 19 85 20 75 21 76 23
REMARK SMILES IDX 77 24 78 25 84 26 79 27 82 28 80 29 83 30 81 31 16 32 17 33
REMARK SMILES IDX 18 34 19 35 20 36 21 37 22 38 23 39 24 40 25 41 71 42 26 43
REMARK SMILES IDX 70 44 27 45 28 46 29 47 64 48 30 49 69 50 63 51 65 52 31 53
REMARK SMILES IDX 68 54 62 55 61 56 32 58 54 59 39 60 53 61 40 62 43 63 52 64
REMARK SMILES IDX 66 65 41 66 42 67 51 69 67 70 44 71 33 72 34 73 38 74 35 75
REMARK SMILES IDX 37 76 36 77 55 78 56 79 60 80 57 81 59 82 58 83 45 84 46 85
REMARK SMILES IDX 50 86 47 87 49 88 48 89
REMARK H PARENT 75 22 65 57 43 68
REMARK Flexibility Score: inf
ROOT
ATOM      1  O   UNL A   1      37.365  23.209  25.044  1.00  0.00    -0.377 OA
ENDROOT
BRANCH   1   2
ATOM      2  C   UNL A   1      36.039  22.760  25.243  1.00  0.00     0.188 C 
BRANCH   2   3
ATOM      3  C   UNL A   1      35.692  21.271  25.437  1.00  0.00     0.188 C 
BRANCH   3   4
ATOM      4  O   UNL A   1      34.609  20.971  26.287  1.00  0.00    -0.376 OA
BRANCH   4   5
ATOM      5  C   UNL A   1      34.327  21.618  27.510  1.00  0.00     0.202 C 
BRANCH   5   6
ATOM      6  C   UNL A   1      33.602  22.957  27.671  1.00  0.00     0.261 C 
BRANCH   6   7
ATOM      7  O   UNL A   1      32.181  22.908  27.798  1.00  0.00    -0.463 OA
BRANCH   7   8
ATOM      8  C   UNL A   1      31.462  23.329  26.737  1.00  0.00     0.311 C 
ATOM      9  O   UNL A   1      30.344  23.822  26.821  1.00  0.00    -0.252 OA
BRANCH   8  10
ATOM     10  C   UNL A   1      32.184  23.216  25.415  1.00  0.00     0.134 C 
ATOM     11  C   UNL A   1      32.855  24.181  21.848  1.00  0.00     0.147 C 
ATOM     12  N   UNL A   1      32.539  23.600  23.144  1.00  0.00    -0.339 N 
ATOM     13  C   UNL A   1      32.171  22.266  23.232  1.00  0.00     0.223 C 
ATOM     14  C   UNL A   1      32.284  24.385  24.387  1.00  0.00     0.067 C 
ATOM     15  O   UNL A   1      32.144  21.452  22.324  1.00  0.00    -0.275 OA
ATOM     16  C   UNL A   1      31.758  21.973  24.640  1.00  0.00     0.118 C 
ATOM     17  C   UNL A   1      33.499  25.268  24.754  1.00  0.00     0.091 C 
ATOM     18  C   UNL A   1      31.076  25.319  24.127  1.00  0.00     0.091 C 
ATOM     19  C   UNL A   1      33.174  26.301  25.834  1.00  0.00     0.265 C 
ATOM     20  C   UNL A   1      30.850  26.469  25.115  1.00  0.00     0.265 C 
ATOM     21  N   UNL A   1      32.055  27.177  25.517  1.00  0.00    -0.331 N 
ATOM     22  H   UNL A   1      31.817  27.575  26.425  1.00  0.00     0.348 HD
BRANCH  21  23
ATOM     23  C   UNL A   1      32.354  28.419  24.796  1.00  0.00     0.299 C 
BRANCH  23  24
ATOM     24  C   UNL A   1      31.170  29.299  24.458  1.00  0.00     0.009 A 
ATOM     25  C   UNL A   1      30.927  30.480  25.174  1.00  0.00     0.011 A 
ATOM     26  C   UNL A   1      30.341  28.991  23.366  1.00  0.00     0.050 A 
ATOM     27  C   UNL A   1      29.954  31.386  24.740  1.00  0.00     0.024 A 
ATOM     28  C   UNL A   1      29.396  29.910  22.921  1.00  0.00     0.142 A 
ATOM     29  C   UNL A   1      29.213  31.114  23.591  1.00  0.00     0.076 A 
ATOM     30  F   UNL A   1      28.718  29.637  21.796  1.00  0.00    -0.205 F 
ATOM     31  Cl  UNL A   1      28.124  32.300  22.984  1.00  0.00    -0.081 Cl
ENDBRANCH  23  24
ENDBRANCH  21  23
ENDBRANCH   8  10
ENDBRANCH   7   8
ENDBRANCH   6   7
ENDBRANCH   5   6
ENDBRANCH   4   5
ENDBRANCH   3   4
ENDBRANCH   2   3
ENDBRANCH   1   2
BRANCH   1  32
ATOM     32  C   UNL A   1      38.205  23.190  26.175  1.00  0.00     0.188 C 
BRANCH  32  33
ATOM     33  C   UNL A   1      39.436  22.289  25.990  1.00  0.00     0.188 C 
BRANCH  33  34
ATOM     34  O   UNL A   1      39.518  21.012  26.604  1.00  0.00    -0.376 OA
BRANCH  34  35
ATOM     35  C   UNL A   1      39.843  19.839  25.875  1.00  0.00     0.202 C 
BRANCH  35  36
ATOM     36  C   UNL A   1      41.226  19.163  25.919  1.00  0.00     0.261 C 
BRANCH  36  37
ATOM     37  O   UNL A   1      42.238  19.770  26.722  1.00  0.00    -0.460 OA
BRANCH  37  38
ATOM     38  C   UNL A   1      43.082  20.594  26.062  1.00  0.00     0.338 C 
ATOM     39  O   UNL A   1      43.759  20.347  25.087  1.00  0.00    -0.246 OA
BRANCH  38  40
ATOM     40  C   UNL A   1      42.936  21.940  26.648  1.00  0.00     0.060 A 
ATOM     41  C   UNL A   1      43.186  23.054  25.838  1.00  0.00     0.016 A 
ATOM     42  C   UNL A   1      42.585  22.095  27.989  1.00  0.00     0.016 A 
ATOM     43  C   UNL A   1      43.101  24.335  26.370  1.00  0.00     0.010 A 
ATOM     44  C   UNL A   1      42.539  23.379  28.535  1.00  0.00     0.010 A 
ATOM     45  C   UNL A   1      42.826  24.497  27.732  1.00  0.00    -0.014 A 
BRANCH  45  46
ATOM     46  C   UNL A   1      43.048  25.818  28.354  1.00  0.00     0.031 A 
ATOM     47  C   UNL A   1      41.869  26.736  28.510  1.00  0.00     0.074 A 
ATOM     48  C   UNL A   1      44.262  26.176  28.803  1.00  0.00     0.049 A 
ATOM     49  N   UNL A   1      41.825  27.955  28.981  1.00  0.00    -0.248 NA
ATOM     50  C   UNL A   1      40.566  26.206  28.076  1.00  0.00     0.031 C 
ATOM     51  C   UNL A   1      45.460  25.339  28.769  1.00  0.00     0.029 A 
ATOM     52  N   UNL A   1      44.682  27.348  29.376  1.00  0.00    -0.354 N 
ATOM     53  C   UNL A   1      40.494  28.342  28.889  1.00  0.00     0.074 A 
ATOM     54  C   UNL A   1      39.768  27.241  28.295  1.00  0.00     0.031 C 
ATOM     55  C   UNL A   1      46.488  26.032  29.290  1.00  0.00     0.029 A 
ATOM     56  C   UNL A   1      46.026  27.370  29.653  1.00  0.00     0.049 A 
ATOM     57  H   UNL A   1      44.079  28.102  29.569  1.00  0.00     0.167 HD
ATOM     58  C   UNL A   1      39.927  29.509  29.269  1.00  0.00     0.031 A 
ATOM     59  C   UNL A   1      46.795  28.371  30.120  1.00  0.00     0.031 A 
ATOM     60  C   UNL A   1      40.659  30.609  29.837  1.00  0.00     0.049 A 
ATOM     61  C   UNL A   1      46.159  29.700  30.436  1.00  0.00     0.074 A 
ATOM     62  C   UNL A   1      40.182  31.837  30.258  1.00  0.00     0.029 A 
ATOM     63  N   UNL A   1      42.029  30.616  30.050  1.00  0.00    -0.354 N 
ATOM     64  N   UNL A   1      44.898  30.053  30.363  1.00  0.00    -0.248 NA
ATOM     65  C   UNL A   1      47.055  30.768  30.903  1.00  0.00     0.031 C 
ATOM     66  C   UNL A   1      41.273  32.612  30.663  1.00  0.00     0.029 A 
ATOM     67  C   UNL A   1      42.421  31.839  30.565  1.00  0.00     0.049 A 
ATOM     68  H   UNL A   1      42.634  29.862  29.862  1.00  0.00     0.167 HD
ATOM     69  C   UNL A   1      44.844  31.371  30.804  1.00  0.00     0.074 A 
ATOM     70  C   UNL A   1      46.197  31.746  31.158  1.00  0.00     0.031 C 
ATOM     71  C   UNL A   1      43.773  32.195  30.909  1.00  0.00     0.031 A 
BRANCH  58  72
ATOM     72  C   UNL A   1      38.451  29.671  29.035  1.00  0.00    -0.014 A 
ATOM     73  C   UNL A   1      37.931  29.895  27.750  1.00  0.00     0.009 A 
ATOM     74  C   UNL A   1      37.564  29.574  30.118  1.00  0.00     0.009 A 
ATOM     75  C   UNL A   1      36.555  30.053  27.561  1.00  0.00     0.001 A 
ATOM     76  C   UNL A   1      36.187  29.700  29.922  1.00  0.00     0.001 A 
ATOM     77  C   UNL A   1      35.685  29.949  28.646  1.00  0.00     0.000 A 
ENDBRANCH  58  72
BRANCH  59  78
ATOM     78  C   UNL A   1      48.258  28.171  30.292  1.00  0.00    -0.014 A 
ATOM     79  C   UNL A   1      48.777  27.657  31.490  1.00  0.00     0.009 A 
ATOM     80  C   UNL A   1      49.150  28.520  29.264  1.00  0.00     0.009 A 
ATOM     81  C   UNL A   1      50.156  27.522  31.665  1.00  0.00     0.001 A 
ATOM     82  C   UNL A   1      50.526  28.353  29.429  1.00  0.00     0.001 A 
ATOM     83  C   UNL A   1      51.029  27.865  30.634  1.00  0.00     0.000 A 
ENDBRANCH  59  78
BRANCH  71  84
ATOM     84  C   UNL A   1      44.013  33.572  31.466  1.00  0.00    -0.014 A 
ATOM     85  C   UNL A   1      44.048  33.809  32.849  1.00  0.00     0.009 A 
ATOM     86  C   UNL A   1      44.256  34.641  30.588  1.00  0.00     0.009 A 
ATOM     87  C   UNL A   1      44.286  35.095  33.340  1.00  0.00     0.001 A 
ATOM     88  C   UNL A   1      44.529  35.917  31.082  1.00  0.00     0.001 A 
ATOM     89  C   UNL A   1      44.532  36.145  32.456  1.00  0.00     0.000 A 
ENDBRANCH  71  84
ENDBRANCH  45  46
ENDBRANCH  38  40
ENDBRANCH  37  38
ENDBRANCH  36  37
ENDBRANCH  35  36
ENDBRANCH  34  35
ENDBRANCH  33  34
ENDBRANCH  32  33
ENDBRANCH   1  32
TORSDOF 22
ENDMDL
