MODEL 1
REMARK VINA RESULT:      -9.6      0.000      0.000
REMARK SMILES C[C@@H]1CCC[C@@]1(C(=O)OCCOCCOCCOCCOC(=O)c1ccc(-c2c3nc(c(-c4ccccc4)c4ccc([nH]4)c(-c4ccccc4)c4nc(c(-c5ccccc5)c5ccc2[nH]5)C=C4)C=C3)cc1)c1ccc(Cl)cc1Cl
REMARK SMILES IDX 16 1 15 2 14 3 13 4 12 5 11 6 10 7 9 8 7 9 8 10 6 11 1 12
REMARK SMILES IDX 2 13 3 14 4 15 5 16 72 17 73 18 78 19 74 20 77 21 79 22
REMARK SMILES IDX 75 23 76 24 17 25 18 26 19 27 20 28 21 29 22 30 23 31 24 32
REMARK SMILES IDX 25 33 71 34 26 35 70 36 27 37 28 38 29 39 64 40 30 41 69 42
REMARK SMILES IDX 63 43 65 44 31 45 68 46 62 47 61 48 32 50 54 51 39 52 53 53
REMARK SMILES IDX 40 54 43 55 52 56 66 57 41 58 42 59 51 61 67 62 44 63 33 64
REMARK SMILES IDX 34 65 38 66 35 67 37 68 36 69 55 70 56 71 60 72 57 73 59 74
REMARK SMILES IDX 58 75 45 76 46 77 50 78 47 79 49 80 48 81
REMARK H PARENT 65 49 43 60
REMARK Flexibility Score: inf
ROOT
ATOM      1  C   UNL A   1      35.082  22.450  25.805  1.00  0.00     0.188 C 
ENDROOT
BRANCH   1   2
ATOM      2  O   UNL A   1      35.050  21.023  25.726  1.00  0.00    -0.377 OA
BRANCH   2   3
ATOM      3  C   UNL A   1      34.055  20.406  24.926  1.00  0.00     0.188 C 
BRANCH   3   4
ATOM      4  C   UNL A   1      32.890  21.317  24.551  1.00  0.00     0.188 C 
BRANCH   4   5
ATOM      5  O   UNL A   1      31.720  20.993  25.280  1.00  0.00    -0.376 OA
BRANCH   5   6
ATOM      6  C   UNL A   1      30.995  22.056  25.897  1.00  0.00     0.202 C 
BRANCH   6   7
ATOM      7  C   UNL A   1      31.563  23.473  26.082  1.00  0.00     0.261 C 
BRANCH   7   8
ATOM      8  O   UNL A   1      31.373  24.474  25.039  1.00  0.00    -0.463 OA
BRANCH   8   9
ATOM      9  C   UNL A   1      30.828  25.654  25.472  1.00  0.00     0.316 C 
ATOM     10  O   UNL A   1      30.092  25.707  26.461  1.00  0.00    -0.251 OA
BRANCH   9  11
ATOM     11  C   UNL A   1      31.044  26.926  24.579  1.00  0.00     0.097 C 
ATOM     12  C   UNL A   1      28.525  26.831  23.717  1.00  0.00     0.009 C 
ATOM     13  C   UNL A   1      29.814  27.616  23.864  1.00  0.00     0.008 C 
ATOM     14  C   UNL A   1      30.261  27.969  22.427  1.00  0.00     0.005 C 
ATOM     15  C   UNL A   1      31.337  26.971  22.057  1.00  0.00     0.002 C 
ATOM     16  C   UNL A   1      31.847  26.352  23.350  1.00  0.00     0.024 C 
BRANCH  11  17
ATOM     17  C   UNL A   1      31.908  28.050  25.297  1.00  0.00    -0.012 A 
ATOM     18  C   UNL A   1      31.368  29.363  25.360  1.00  0.00     0.008 A 
ATOM     19  C   UNL A   1      33.155  27.900  25.948  1.00  0.00     0.046 A 
ATOM     20  C   UNL A   1      31.953  30.409  26.086  1.00  0.00     0.021 A 
ATOM     21  C   UNL A   1      33.751  28.957  26.667  1.00  0.00     0.041 A 
ATOM     22  Cl  UNL A   1      34.158  26.507  25.938  1.00  0.00    -0.084 Cl
ATOM     23  C   UNL A   1      33.141  30.195  26.753  1.00  0.00     0.042 A 
ATOM     24  Cl  UNL A   1      33.872  31.457  27.657  1.00  0.00    -0.084 Cl
ENDBRANCH  11  17
ENDBRANCH   9  11
ENDBRANCH   8   9
ENDBRANCH   7   8
ENDBRANCH   6   7
ENDBRANCH   5   6
ENDBRANCH   4   5
ENDBRANCH   3   4
ENDBRANCH   2   3
ENDBRANCH   1   2
BRANCH   1  25
ATOM     25  C   UNL A   1      36.390  23.136  25.426  1.00  0.00     0.188 C 
BRANCH  25  26
ATOM     26  O   UNL A   1      37.423  22.311  24.887  1.00  0.00    -0.376 OA
BRANCH  26  27
ATOM     27  C   UNL A   1      38.521  21.953  25.722  1.00  0.00     0.202 C 
BRANCH  27  28
ATOM     28  C   UNL A   1      39.076  20.547  25.500  1.00  0.00     0.261 C 
BRANCH  28  29
ATOM     29  O   UNL A   1      39.942  20.130  26.571  1.00  0.00    -0.460 OA
BRANCH  29  30
ATOM     30  C   UNL A   1      41.230  19.933  26.211  1.00  0.00     0.338 C 
ATOM     31  O   UNL A   1      41.685  19.003  25.569  1.00  0.00    -0.246 OA
BRANCH  30  32
ATOM     32  C   UNL A   1      42.065  21.072  26.636  1.00  0.00     0.060 A 
ATOM     33  C   UNL A   1      42.201  21.296  28.011  1.00  0.00     0.016 A 
ATOM     34  C   UNL A   1      42.560  21.996  25.711  1.00  0.00     0.016 A 
ATOM     35  C   UNL A   1      42.746  22.491  28.470  1.00  0.00     0.010 A 
ATOM     36  C   UNL A   1      43.104  23.199  26.172  1.00  0.00     0.010 A 
ATOM     37  C   UNL A   1      43.137  23.474  27.551  1.00  0.00    -0.014 A 
BRANCH  37  38
ATOM     38  C   UNL A   1      43.340  24.861  28.033  1.00  0.00     0.031 A 
ATOM     39  C   UNL A   1      44.750  25.344  28.249  1.00  0.00     0.074 A 
ATOM     40  C   UNL A   1      42.302  25.695  28.212  1.00  0.00     0.049 A 
ATOM     41  N   UNL A   1      45.175  26.518  28.640  1.00  0.00    -0.248 NA
ATOM     42  C   UNL A   1      45.825  24.371  27.985  1.00  0.00     0.031 C 
ATOM     43  C   UNL A   1      40.898  25.361  27.986  1.00  0.00     0.029 A 
ATOM     44  N   UNL A   1      42.280  27.003  28.620  1.00  0.00    -0.354 N 
ATOM     45  C   UNL A   1      46.562  26.423  28.672  1.00  0.00     0.074 A 
ATOM     46  C   UNL A   1      46.906  25.071  28.293  1.00  0.00     0.031 C 
ATOM     47  C   UNL A   1      40.146  26.443  28.259  1.00  0.00     0.029 A 
ATOM     48  C   UNL A   1      41.015  27.532  28.700  1.00  0.00     0.049 A 
ATOM     49  H   UNL A   1      43.092  27.516  28.835  1.00  0.00     0.167 HD
ATOM     50  C   UNL A   1      47.472  27.377  28.981  1.00  0.00     0.031 A 
ATOM     51  C   UNL A   1      40.610  28.754  29.092  1.00  0.00     0.031 A 
ATOM     52  C   UNL A   1      47.133  28.718  29.371  1.00  0.00     0.049 A 
ATOM     53  C   UNL A   1      41.636  29.780  29.492  1.00  0.00     0.074 A 
ATOM     54  C   UNL A   1      47.980  29.759  29.711  1.00  0.00     0.029 A 
ATOM     55  N   UNL A   1      45.839  29.202  29.473  1.00  0.00    -0.354 N 
ATOM     56  N   UNL A   1      42.944  29.681  29.508  1.00  0.00    -0.248 NA
ATOM     57  C   UNL A   1      41.127  31.093  29.913  1.00  0.00     0.031 C 
ATOM     58  C   UNL A   1      47.193  30.863  30.062  1.00  0.00     0.029 A 
ATOM     59  C   UNL A   1      45.861  30.522  29.886  1.00  0.00     0.049 A 
ATOM     60  H   UNL A   1      45.024  28.683  29.281  1.00  0.00     0.167 HD
ATOM     61  C   UNL A   1      43.414  30.927  29.906  1.00  0.00     0.074 A 
ATOM     62  C   UNL A   1      42.253  31.767  30.113  1.00  0.00     0.031 C 
ATOM     63  C   UNL A   1      44.693  31.342  30.079  1.00  0.00     0.031 A 
BRANCH  50  64
ATOM     64  C   UNL A   1      48.922  26.982  28.940  1.00  0.00    -0.014 A 
ATOM     65  C   UNL A   1      49.689  27.140  27.775  1.00  0.00     0.009 A 
ATOM     66  C   UNL A   1      49.530  26.451  30.088  1.00  0.00     0.009 A 
ATOM     67  C   UNL A   1      51.027  26.740  27.750  1.00  0.00     0.001 A 
ATOM     68  C   UNL A   1      50.875  26.077  30.068  1.00  0.00     0.001 A 
ATOM     69  C   UNL A   1      51.619  26.212  28.897  1.00  0.00     0.000 A 
ENDBRANCH  50  64
BRANCH  51  70
ATOM     70  C   UNL A   1      39.161  29.081  29.131  1.00  0.00    -0.014 A 
ATOM     71  C   UNL A   1      38.411  28.877  30.299  1.00  0.00     0.009 A 
ATOM     72  C   UNL A   1      38.516  29.579  27.989  1.00  0.00     0.009 A 
ATOM     73  C   UNL A   1      37.040  29.141  30.314  1.00  0.00     0.001 A 
ATOM     74  C   UNL A   1      37.150  29.868  28.014  1.00  0.00     0.001 A 
ATOM     75  C   UNL A   1      36.411  29.639  29.174  1.00  0.00     0.000 A 
ENDBRANCH  51  70
BRANCH  63  76
ATOM     76  C   UNL A   1      44.902  32.780  30.463  1.00  0.00    -0.014 A 
ATOM     77  C   UNL A   1      44.940  33.182  31.807  1.00  0.00     0.009 A 
ATOM     78  C   UNL A   1      45.097  33.741  29.459  1.00  0.00     0.009 A 
ATOM     79  C   UNL A   1      45.131  34.526  32.135  1.00  0.00     0.001 A 
ATOM     80  C   UNL A   1      45.316  35.079  29.790  1.00  0.00     0.001 A 
ATOM     81  C   UNL A   1      45.322  35.471  31.127  1.00  0.00     0.000 A 
ENDBRANCH  63  76
ENDBRANCH  37  38
ENDBRANCH  30  32
ENDBRANCH  29  30
ENDBRANCH  28  29
ENDBRANCH  27  28
ENDBRANCH  26  27
ENDBRANCH  25  26
ENDBRANCH   1  25
TORSDOF 21
ENDMDL
MODEL 2
REMARK VINA RESULT:      -9.4      0.423      5.791
REMARK SMILES C[C@@H]1CCC[C@@]1(C(=O)OCCOCCOCCOCCOC(=O)c1ccc(-c2c3nc(c(-c4ccccc4)c4ccc([nH]4)c(-c4ccccc4)c4nc(c(-c5ccccc5)c5ccc2[nH]5)C=C4)C=C3)cc1)c1ccc(Cl)cc1Cl
REMARK SMILES IDX 16 1 15 2 14 3 13 4 12 5 11 6 10 7 9 8 7 9 8 10 6 11 1 12
REMARK SMILES IDX 2 13 3 14 4 15 5 16 72 17 73 18 78 19 74 20 77 21 79 22
REMARK SMILES IDX 75 23 76 24 17 25 18 26 19 27 20 28 21 29 22 30 23 31 24 32
REMARK SMILES IDX 25 33 71 34 26 35 70 36 27 37 28 38 29 39 64 40 30 41 69 42
REMARK SMILES IDX 63 43 65 44 31 45 68 46 62 47 61 48 32 50 54 51 39 52 53 53
REMARK SMILES IDX 40 54 43 55 52 56 66 57 41 58 42 59 51 61 67 62 44 63 33 64
REMARK SMILES IDX 34 65 38 66 35 67 37 68 36 69 55 70 56 71 60 72 57 73 59 74
REMARK SMILES IDX 58 75 45 76 46 77 50 78 47 79 49 80 48 81
REMARK H PARENT 65 49 43 60
REMARK Flexibility Score: inf
ROOT
ATOM      1  C   UNL A   1      34.660  22.062  26.414  1.00  0.00     0.188 C 
ENDROOT
BRANCH   1   2
ATOM      2  O   UNL A   1      34.764  20.790  25.771  1.00  0.00    -0.377 OA
BRANCH   2   3
ATOM      3  C   UNL A   1      33.721  20.376  24.903  1.00  0.00     0.188 C 
BRANCH   3   4
ATOM      4  C   UNL A   1      32.653  21.435  24.649  1.00  0.00     0.188 C 
BRANCH   4   5
ATOM      5  O   UNL A   1      31.429  21.102  25.278  1.00  0.00    -0.376 OA
BRANCH   5   6
ATOM      6  C   UNL A   1      30.767  22.110  26.040  1.00  0.00     0.202 C 
BRANCH   6   7
ATOM      7  C   UNL A   1      31.315  23.536  26.215  1.00  0.00     0.261 C 
BRANCH   7   8
ATOM      8  O   UNL A   1      31.188  24.502  25.131  1.00  0.00    -0.463 OA
BRANCH   8   9
ATOM      9  C   UNL A   1      30.706  25.727  25.510  1.00  0.00     0.316 C 
ATOM     10  O   UNL A   1      29.960  25.860  26.485  1.00  0.00    -0.251 OA
BRANCH   9  11
ATOM     11  C   UNL A   1      31.006  26.949  24.574  1.00  0.00     0.097 C 
ATOM     12  C   UNL A   1      28.489  26.987  23.703  1.00  0.00     0.009 C 
ATOM     13  C   UNL A   1      29.825  27.691  23.828  1.00  0.00     0.008 C 
ATOM     14  C   UNL A   1      30.299  27.963  22.382  1.00  0.00     0.005 C 
ATOM     15  C   UNL A   1      31.308  26.884  22.052  1.00  0.00     0.002 C 
ATOM     16  C   UNL A   1      31.773  26.280  23.369  1.00  0.00     0.024 C 
BRANCH  11  17
ATOM     17  C   UNL A   1      31.940  28.040  25.255  1.00  0.00    -0.012 A 
ATOM     18  C   UNL A   1      31.419  29.351  25.418  1.00  0.00     0.008 A 
ATOM     19  C   UNL A   1      33.240  27.858  25.784  1.00  0.00     0.046 A 
ATOM     20  C   UNL A   1      32.075  30.364  26.130  1.00  0.00     0.021 A 
ATOM     21  C   UNL A   1      33.906  28.883  26.488  1.00  0.00     0.041 A 
ATOM     22  Cl  UNL A   1      34.227  26.462  25.628  1.00  0.00    -0.084 Cl
ATOM     23  C   UNL A   1      33.316  30.118  26.677  1.00  0.00     0.042 A 
ATOM     24  Cl  UNL A   1      34.136  31.340  27.561  1.00  0.00    -0.084 Cl
ENDBRANCH  11  17
ENDBRANCH   9  11
ENDBRANCH   8   9
ENDBRANCH   7   8
ENDBRANCH   6   7
ENDBRANCH   5   6
ENDBRANCH   4   5
ENDBRANCH   3   4
ENDBRANCH   2   3
ENDBRANCH   1   2
BRANCH   1  25
ATOM     25  C   UNL A   1      35.693  23.117  26.034  1.00  0.00     0.188 C 
BRANCH  25  26
ATOM     26  O   UNL A   1      36.751  22.707  25.169  1.00  0.00    -0.376 OA
BRANCH  26  27
ATOM     27  C   UNL A   1      38.058  22.544  25.714  1.00  0.00     0.202 C 
BRANCH  27  28
ATOM     28  C   UNL A   1      38.710  21.188  25.449  1.00  0.00     0.261 C 
BRANCH  28  29
ATOM     29  O   UNL A   1      39.436  20.702  26.592  1.00  0.00    -0.460 OA
BRANCH  29  30
ATOM     30  C   UNL A   1      40.684  20.258  26.322  1.00  0.00     0.338 C 
ATOM     31  O   UNL A   1      40.997  19.210  25.786  1.00  0.00    -0.246 OA
BRANCH  30  32
ATOM     32  C   UNL A   1      41.686  21.274  26.695  1.00  0.00     0.060 A 
ATOM     33  C   UNL A   1      41.853  21.546  28.058  1.00  0.00     0.016 A 
ATOM     34  C   UNL A   1      42.320  22.060  25.728  1.00  0.00     0.016 A 
ATOM     35  C   UNL A   1      42.577  22.664  28.459  1.00  0.00     0.010 A 
ATOM     36  C   UNL A   1      43.044  23.186  26.132  1.00  0.00     0.010 A 
ATOM     37  C   UNL A   1      43.118  23.524  27.495  1.00  0.00    -0.014 A 
BRANCH  37  38
ATOM     38  C   UNL A   1      43.534  24.886  27.907  1.00  0.00     0.031 A 
ATOM     39  C   UNL A   1      42.463  25.902  28.205  1.00  0.00     0.074 A 
ATOM     40  C   UNL A   1      44.830  25.197  28.077  1.00  0.00     0.049 A 
ATOM     41  N   UNL A   1      42.582  27.143  28.603  1.00  0.00    -0.248 NA
ATOM     42  C   UNL A   1      41.069  25.457  28.030  1.00  0.00     0.031 C 
ATOM     43  C   UNL A   1      45.954  24.286  27.872  1.00  0.00     0.029 A 
ATOM     44  N   UNL A   1      45.412  26.373  28.473  1.00  0.00    -0.354 N 
ATOM     45  C   UNL A   1      41.283  27.624  28.723  1.00  0.00     0.074 A 
ATOM     46  C   UNL A   1      40.394  26.556  28.326  1.00  0.00     0.031 C 
ATOM     47  C   UNL A   1      47.097  24.941  28.146  1.00  0.00     0.029 A 
ATOM     48  C   UNL A   1      46.783  26.318  28.521  1.00  0.00     0.049 A 
ATOM     49  H   UNL A   1      44.898  27.180  28.702  1.00  0.00     0.167 HD
ATOM     50  C   UNL A   1      40.864  28.843  29.137  1.00  0.00     0.031 A 
ATOM     51  C   UNL A   1      47.679  27.276  28.826  1.00  0.00     0.031 A 
ATOM     52  C   UNL A   1      41.746  29.912  29.520  1.00  0.00     0.049 A 
ATOM     53  C   UNL A   1      47.192  28.644  29.221  1.00  0.00     0.074 A 
ATOM     54  C   UNL A   1      41.423  31.188  29.947  1.00  0.00     0.029 A 
ATOM     55  N   UNL A   1      43.129  29.826  29.521  1.00  0.00    -0.354 N 
ATOM     56  N   UNL A   1      45.962  29.083  29.342  1.00  0.00    -0.248 NA
ATOM     57  C   UNL A   1      48.222  29.644  29.539  1.00  0.00     0.031 C 
ATOM     58  C   UNL A   1      42.615  31.889  30.164  1.00  0.00     0.029 A 
ATOM     59  C   UNL A   1      43.676  31.030  29.925  1.00  0.00     0.049 A 
ATOM     60  H   UNL A   1      43.646  29.026  29.269  1.00  0.00     0.167 HD
ATOM     61  C   UNL A   1      46.070  30.396  29.782  1.00  0.00     0.074 A 
ATOM     62  C   UNL A   1      47.484  30.679  29.915  1.00  0.00     0.031 C 
ATOM     63  C   UNL A   1      45.086  31.288  30.057  1.00  0.00     0.031 A 
BRANCH  50  64
ATOM     64  C   UNL A   1      39.381  29.089  29.158  1.00  0.00    -0.014 A 
ATOM     65  C   UNL A   1      38.700  29.537  28.015  1.00  0.00     0.009 A 
ATOM     66  C   UNL A   1      38.656  28.862  30.337  1.00  0.00     0.009 A 
ATOM     67  C   UNL A   1      37.326  29.787  28.064  1.00  0.00     0.001 A 
ATOM     68  C   UNL A   1      37.278  29.087  30.376  1.00  0.00     0.001 A 
ATOM     69  C   UNL A   1      36.617  29.559  29.243  1.00  0.00     0.000 A 
ENDBRANCH  50  64
BRANCH  51  70
ATOM     70  C   UNL A   1      49.134  26.979  28.768  1.00  0.00    -0.014 A 
ATOM     71  C   UNL A   1      49.829  27.033  27.550  1.00  0.00     0.009 A 
ATOM     72  C   UNL A   1      49.830  26.618  29.931  1.00  0.00     0.009 A 
ATOM     73  C   UNL A   1      51.186  26.707  27.496  1.00  0.00     0.001 A 
ATOM     74  C   UNL A   1      51.194  26.318  29.878  1.00  0.00     0.001 A 
ATOM     75  C   UNL A   1      51.868  26.353  28.659  1.00  0.00     0.000 A 
ENDBRANCH  51  70
BRANCH  63  76
ATOM     76  C   UNL A   1      45.506  32.634  30.578  1.00  0.00    -0.014 A 
ATOM     77  C   UNL A   1      45.734  33.717  29.715  1.00  0.00     0.009 A 
ATOM     78  C   UNL A   1      45.643  32.826  31.962  1.00  0.00     0.009 A 
ATOM     79  C   UNL A   1      46.129  34.955  30.226  1.00  0.00     0.001 A 
ATOM     80  C   UNL A   1      46.009  34.072  32.472  1.00  0.00     0.001 A 
ATOM     81  C   UNL A   1      46.262  35.132  31.603  1.00  0.00     0.000 A 
ENDBRANCH  63  76
ENDBRANCH  37  38
ENDBRANCH  30  32
ENDBRANCH  29  30
ENDBRANCH  28  29
ENDBRANCH  27  28
ENDBRANCH  26  27
ENDBRANCH  25  26
ENDBRANCH   1  25
TORSDOF 21
ENDMDL
MODEL 3
REMARK VINA RESULT:      -9.4      3.951      6.677
REMARK SMILES C[C@@H]1CCC[C@@]1(C(=O)OCCOCCOCCOCCOC(=O)c1ccc(-c2c3nc(c(-c4ccccc4)c4ccc([nH]4)c(-c4ccccc4)c4nc(c(-c5ccccc5)c5ccc2[nH]5)C=C4)C=C3)cc1)c1ccc(Cl)cc1Cl
REMARK SMILES IDX 16 1 15 2 14 3 13 4 12 5 11 6 10 7 9 8 7 9 8 10 6 11 1 12
REMARK SMILES IDX 2 13 3 14 4 15 5 16 72 17 73 18 78 19 74 20 77 21 79 22
REMARK SMILES IDX 75 23 76 24 17 25 18 26 19 27 20 28 21 29 22 30 23 31 24 32
REMARK SMILES IDX 25 33 71 34 26 35 70 36 27 37 28 38 29 39 64 40 30 41 69 42
REMARK SMILES IDX 63 43 65 44 31 45 68 46 62 47 61 48 32 50 54 51 39 52 53 53
REMARK SMILES IDX 40 54 43 55 52 56 66 57 41 58 42 59 51 61 67 62 44 63 33 64
REMARK SMILES IDX 34 65 38 66 35 67 37 68 36 69 55 70 56 71 60 72 57 73 59 74
REMARK SMILES IDX 58 75 45 76 46 77 50 78 47 79 49 80 48 81
REMARK H PARENT 65 49 43 60
REMARK Flexibility Score: inf
ROOT
ATOM      1  C   UNL A   1      43.144  20.000  25.776  1.00  0.00     0.188 C 
ENDROOT
BRANCH   1   2
ATOM      2  O   UNL A   1      41.923  19.313  25.493  1.00  0.00    -0.377 OA
BRANCH   2   3
ATOM      3  C   UNL A   1      40.727  19.768  26.104  1.00  0.00     0.188 C 
BRANCH   3   4
ATOM      4  C   UNL A   1      40.633  21.282  26.260  1.00  0.00     0.188 C 
BRANCH   4   5
ATOM      5  O   UNL A   1      39.288  21.725  26.238  1.00  0.00    -0.376 OA
BRANCH   5   6
ATOM      6  C   UNL A   1      39.028  23.103  26.505  1.00  0.00     0.202 C 
BRANCH   6   7
ATOM      7  C   UNL A   1      37.752  23.828  26.046  1.00  0.00     0.261 C 
BRANCH   7   8
ATOM      8  O   UNL A   1      36.444  23.286  26.395  1.00  0.00    -0.463 OA
BRANCH   8   9
ATOM      9  C   UNL A   1      35.578  23.161  25.340  1.00  0.00     0.316 C 
ATOM     10  O   UNL A   1      35.885  23.517  24.199  1.00  0.00    -0.251 OA
BRANCH   9  11
ATOM     11  C   UNL A   1      34.115  22.687  25.652  1.00  0.00     0.097 C 
ATOM     12  C   UNL A   1      33.311  25.198  26.030  1.00  0.00     0.009 C 
ATOM     13  C   UNL A   1      32.949  23.745  25.797  1.00  0.00     0.008 C 
ATOM     14  C   UNL A   1      32.096  23.319  27.014  1.00  0.00     0.005 C 
ATOM     15  C   UNL A   1      33.022  22.563  27.942  1.00  0.00     0.002 C 
ATOM     16  C   UNL A   1      34.237  22.143  27.127  1.00  0.00     0.024 C 
BRANCH  11  17
ATOM     17  C   UNL A   1      33.623  21.517  24.696  1.00  0.00    -0.012 A 
ATOM     18  C   UNL A   1      34.071  20.199  24.975  1.00  0.00     0.008 A 
ATOM     19  C   UNL A   1      32.728  21.610  23.603  1.00  0.00     0.046 A 
ATOM     20  C   UNL A   1      33.601  19.061  24.306  1.00  0.00     0.021 A 
ATOM     21  C   UNL A   1      32.266  20.466  22.921  1.00  0.00     0.041 A 
ATOM     22  Cl  UNL A   1      32.116  23.051  22.897  1.00  0.00    -0.084 Cl
ATOM     23  C   UNL A   1      32.684  19.200  23.286  1.00  0.00     0.042 A 
ATOM     24  Cl  UNL A   1      32.086  17.821  22.458  1.00  0.00    -0.084 Cl
ENDBRANCH  11  17
ENDBRANCH   9  11
ENDBRANCH   8   9
ENDBRANCH   7   8
ENDBRANCH   6   7
ENDBRANCH   5   6
ENDBRANCH   4   5
ENDBRANCH   3   4
ENDBRANCH   2   3
ENDBRANCH   1   2
BRANCH   1  25
ATOM     25  C   UNL A   1      44.387  19.547  25.017  1.00  0.00     0.188 C 
BRANCH  25  26
ATOM     26  O   UNL A   1      45.312  20.560  24.626  1.00  0.00    -0.376 OA
BRANCH  26  27
ATOM     27  C   UNL A   1      44.980  21.406  23.528  1.00  0.00     0.202 C 
BRANCH  27  28
ATOM     28  C   UNL A   1      44.688  22.860  23.891  1.00  0.00     0.261 C 
BRANCH  28  29
ATOM     29  O   UNL A   1      44.735  23.086  25.312  1.00  0.00    -0.460 OA
BRANCH  29  30
ATOM     30  C   UNL A   1      45.203  24.301  25.676  1.00  0.00     0.338 C 
ATOM     31  O   UNL A   1      46.314  24.757  25.474  1.00  0.00    -0.246 OA
BRANCH  30  32
ATOM     32  C   UNL A   1      44.135  25.095  26.312  1.00  0.00     0.060 A 
ATOM     33  C   UNL A   1      44.294  26.486  26.338  1.00  0.00     0.016 A 
ATOM     34  C   UNL A   1      43.093  24.483  27.015  1.00  0.00     0.016 A 
ATOM     35  C   UNL A   1      43.469  27.263  27.145  1.00  0.00     0.010 A 
ATOM     36  C   UNL A   1      42.267  25.264  27.829  1.00  0.00     0.010 A 
ATOM     37  C   UNL A   1      42.497  26.647  27.944  1.00  0.00    -0.014 A 
BRANCH  37  38
ATOM     38  C   UNL A   1      41.906  27.413  29.067  1.00  0.00     0.031 A 
ATOM     39  C   UNL A   1      42.625  27.413  30.390  1.00  0.00     0.074 A 
ATOM     40  C   UNL A   1      40.792  28.146  28.900  1.00  0.00     0.049 A 
ATOM     41  N   UNL A   1      42.316  28.025  31.505  1.00  0.00    -0.248 NA
ATOM     42  C   UNL A   1      43.861  26.614  30.465  1.00  0.00     0.031 C 
ATOM     43  C   UNL A   1      40.037  28.269  27.656  1.00  0.00     0.029 A 
ATOM     44  N   UNL A   1      40.112  28.935  29.791  1.00  0.00    -0.354 N 
ATOM     45  C   UNL A   1      43.314  27.684  32.409  1.00  0.00     0.074 A 
ATOM     46  C   UNL A   1      44.220  26.787  31.728  1.00  0.00     0.031 C 
ATOM     47  C   UNL A   1      38.992  29.090  27.863  1.00  0.00     0.029 A 
ATOM     48  C   UNL A   1      38.995  29.528  29.257  1.00  0.00     0.049 A 
ATOM     49  H   UNL A   1      40.396  29.065  30.725  1.00  0.00     0.167 HD
ATOM     50  C   UNL A   1      43.472  28.087  33.693  1.00  0.00     0.031 A 
ATOM     51  C   UNL A   1      38.078  30.326  29.835  1.00  0.00     0.031 A 
ATOM     52  C   UNL A   1      42.566  28.969  34.378  1.00  0.00     0.049 A 
ATOM     53  C   UNL A   1      38.238  30.710  31.281  1.00  0.00     0.074 A 
ATOM     54  C   UNL A   1      42.631  29.433  35.680  1.00  0.00     0.029 A 
ATOM     55  N   UNL A   1      41.428  29.519  33.811  1.00  0.00    -0.354 N 
ATOM     56  N   UNL A   1      39.191  30.390  32.122  1.00  0.00    -0.248 NA
ATOM     57  C   UNL A   1      37.200  31.582  31.851  1.00  0.00     0.031 C 
ATOM     58  C   UNL A   1      41.505  30.231  35.914  1.00  0.00     0.029 A 
ATOM     59  C   UNL A   1      40.771  30.306  34.740  1.00  0.00     0.049 A 
ATOM     60  H   UNL A   1      41.129  29.371  32.884  1.00  0.00     0.167 HD
ATOM     61  C   UNL A   1      38.888  31.048  33.308  1.00  0.00     0.074 A 
ATOM     62  C   UNL A   1      37.667  31.791  33.075  1.00  0.00     0.031 C 
ATOM     63  C   UNL A   1      39.561  31.042  34.485  1.00  0.00     0.031 A 
BRANCH  50  64
ATOM     64  C   UNL A   1      44.655  27.543  34.444  1.00  0.00    -0.014 A 
ATOM     65  C   UNL A   1      45.893  28.204  34.433  1.00  0.00     0.009 A 
ATOM     66  C   UNL A   1      44.524  26.355  35.179  1.00  0.00     0.009 A 
ATOM     67  C   UNL A   1      46.987  27.666  35.114  1.00  0.00     0.001 A 
ATOM     68  C   UNL A   1      45.613  25.833  35.881  1.00  0.00     0.001 A 
ATOM     69  C   UNL A   1      46.845  26.484  35.839  1.00  0.00     0.000 A 
ENDBRANCH  50  64
BRANCH  51  70
ATOM     70  C   UNL A   1      36.918  30.818  29.046  1.00  0.00    -0.014 A 
ATOM     71  C   UNL A   1      36.855  32.153  28.619  1.00  0.00     0.009 A 
ATOM     72  C   UNL A   1      35.855  29.955  28.736  1.00  0.00     0.009 A 
ATOM     73  C   UNL A   1      35.740  32.618  27.919  1.00  0.00     0.001 A 
ATOM     74  C   UNL A   1      34.754  30.417  28.013  1.00  0.00     0.001 A 
ATOM     75  C   UNL A   1      34.692  31.751  27.613  1.00  0.00     0.000 A 
ENDBRANCH  51  70
BRANCH  63  76
ATOM     76  C   UNL A   1      39.020  31.905  35.590  1.00  0.00    -0.014 A 
ATOM     77  C   UNL A   1      39.289  33.281  35.646  1.00  0.00     0.009 A 
ATOM     78  C   UNL A   1      38.199  31.331  36.574  1.00  0.00     0.009 A 
ATOM     79  C   UNL A   1      38.778  34.058  36.687  1.00  0.00     0.001 A 
ATOM     80  C   UNL A   1      37.666  32.116  37.598  1.00  0.00     0.001 A 
ATOM     81  C   UNL A   1      37.964  33.475  37.659  1.00  0.00     0.000 A 
ENDBRANCH  63  76
ENDBRANCH  37  38
ENDBRANCH  30  32
ENDBRANCH  29  30
ENDBRANCH  28  29
ENDBRANCH  27  28
ENDBRANCH  26  27
ENDBRANCH  25  26
ENDBRANCH   1  25
TORSDOF 21
ENDMDL
