MODEL 1
REMARK VINA RESULT:     -10.2      0.000      0.000
REMARK SMILES COC(=O)c1c(NC(=O)[C@@H]2[C@H]3CC[C@H](CC3)[C@H]2C(=O)OCCOCCOCCOCCOC(=O)c2ccc(-c3c4nc(c(-c5ccccc5)c5ccc([nH]5)c(-c5ccccc5)c5nc(c(-c6ccccc6)c6ccc3[nH]6)C=C5)C=C4)cc2)sc(C)c1-c1ccc(C)cc1
REMARK SMILES IDX 25 1 24 2 23 3 22 4 21 5 20 6 18 7 19 8 17 9 10 10 11 11
REMARK SMILES IDX 12 12 16 13 14 14 13 15 15 16 8 17 7 18 9 20 6 21 5 22 86 23
REMARK SMILES IDX 83 24 84 25 85 26 3 27 4 28 2 29 1 30 87 31 88 32 93 33
REMARK SMILES IDX 89 34 92 35 90 36 91 37 26 38 27 39 28 40 29 41 30 42 31 43
REMARK SMILES IDX 32 44 33 45 34 46 35 47 36 48 82 49 37 50 81 51 38 52 39 53
REMARK SMILES IDX 40 54 75 55 41 56 80 57 74 58 76 59 42 60 79 61 73 62 72 63
REMARK SMILES IDX 43 65 65 66 50 67 64 68 51 69 54 70 63 71 77 72 52 73 53 74
REMARK SMILES IDX 62 76 78 77 55 78 44 79 45 80 49 81 46 82 48 83 47 84 66 85
REMARK SMILES IDX 67 86 71 87 68 88 70 89 69 90 56 91 57 92 61 93 58 94 60 95
REMARK SMILES IDX 59 96
REMARK H PARENT 7 19 76 64 54 75
REMARK Flexibility Score: inf
ROOT
ATOM      1  C   UNL A   1      32.279  29.309  24.569  1.00  0.00     0.188 C 
ENDROOT
BRANCH   1   2
ATOM      2  C   UNL A   1      31.772  27.872  24.500  1.00  0.00     0.188 C 
BRANCH   2   3
ATOM      3  O   UNL A   1      31.215  27.543  23.242  1.00  0.00    -0.376 OA
BRANCH   3   4
ATOM      4  C   UNL A   1      31.702  26.424  22.501  1.00  0.00     0.202 C 
BRANCH   4   5
ATOM      5  C   UNL A   1      33.184  26.113  22.097  1.00  0.00     0.261 C 
BRANCH   5   6
ATOM      6  O   UNL A   1      33.842  24.858  22.406  1.00  0.00    -0.463 OA
BRANCH   6   7
ATOM      7  C   UNL A   1      34.327  24.749  23.670  1.00  0.00     0.310 C 
ATOM      8  O   UNL A   1      34.467  25.734  24.400  1.00  0.00    -0.252 OA
BRANCH   7   9
ATOM      9  C   UNL A   1      34.822  23.368  24.161  1.00  0.00     0.115 C 
ATOM     10  C   UNL A   1      35.978  23.087  25.232  1.00  0.00     0.096 C 
ATOM     11  C   UNL A   1      35.365  22.118  26.307  1.00  0.00     0.002 C 
ATOM     12  C   UNL A   1      34.203  22.853  26.998  1.00  0.00     0.005 C 
ATOM     13  C   UNL A   1      34.766  20.827  25.677  1.00  0.00     0.005 C 
ATOM     14  C   UNL A   1      33.500  22.667  24.581  1.00  0.00     0.004 C 
ATOM     15  C   UNL A   1      33.085  23.134  25.989  1.00  0.00     0.005 C 
ATOM     16  C   UNL A   1      33.745  21.162  24.590  1.00  0.00     0.005 C 
BRANCH  10  17
ATOM     17  C   UNL A   1      37.271  22.370  24.670  1.00  0.00     0.229 C 
ATOM     18  N   UNL A   1      38.506  22.128  25.252  1.00  0.00    -0.317 N 
ATOM     19  H   UNL A   1      38.965  21.359  24.842  1.00  0.00     0.170 HD
ATOM     20  O   UNL A   1      37.179  21.869  23.532  1.00  0.00    -0.274 OA
BRANCH  18  21
ATOM     21  C   UNL A   1      39.266  22.711  26.285  1.00  0.00     0.111 A 
ATOM     22  C   UNL A   1      41.025  22.702  26.510  1.00  0.00     0.102 A 
ATOM     23  C   UNL A   1      41.690  24.341  27.320  1.00  0.00     0.012 A 
ATOM     24  S   UNL A   1      38.280  24.487  27.313  1.00  0.00    -0.122 S 
ATOM     25  C   UNL A   1      40.341  25.448  27.747  1.00  0.00     0.012 A 
ATOM     26  C   UNL A   1      40.117  26.851  28.220  1.00  0.00     0.057 C 
BRANCH  22  27
ATOM     27  C   UNL A   1      41.933  21.678  26.013  1.00  0.00     0.341 C 
ATOM     28  O   UNL A   1      41.989  20.550  26.479  1.00  0.00    -0.246 OA
BRANCH  27  29
ATOM     29  O   UNL A   1      42.720  22.179  25.030  1.00  0.00    -0.465 OA
ATOM     30  C   UNL A   1      44.129  22.018  25.174  1.00  0.00     0.282 C 
ENDBRANCH  27  29
ENDBRANCH  22  27
BRANCH  23  31
ATOM     31  C   UNL A   1      43.085  24.538  27.729  1.00  0.00    -0.016 A 
ATOM     32  C   UNL A   1      43.669  23.933  28.834  1.00  0.00     0.009 A 
ATOM     33  C   UNL A   1      43.859  25.428  26.981  1.00  0.00     0.009 A 
ATOM     34  C   UNL A   1      45.051  24.088  29.060  1.00  0.00     0.004 A 
ATOM     35  C   UNL A   1      45.238  25.482  27.116  1.00  0.00     0.004 A 
ATOM     36  C   UNL A   1      45.855  24.783  28.143  1.00  0.00    -0.051 A 
ATOM     37  C   UNL A   1      47.348  24.837  28.247  1.00  0.00     0.044 C 
ENDBRANCH  23  31
ENDBRANCH  18  21
ENDBRANCH  10  17
ENDBRANCH   7   9
ENDBRANCH   6   7
ENDBRANCH   5   6
ENDBRANCH   4   5
ENDBRANCH   3   4
ENDBRANCH   2   3
ENDBRANCH   1   2
BRANCH   1  38
ATOM     38  O   UNL A   1      31.543  30.119  25.469  1.00  0.00    -0.377 OA
BRANCH  38  39
ATOM     39  C   UNL A   1      32.042  30.276  26.794  1.00  0.00     0.188 C 
BRANCH  39  40
ATOM     40  C   UNL A   1      33.540  30.503  26.857  1.00  0.00     0.188 C 
BRANCH  40  41
ATOM     41  O   UNL A   1      34.024  31.213  28.004  1.00  0.00    -0.376 OA
BRANCH  41  42
ATOM     42  C   UNL A   1      34.179  32.787  27.931  1.00  0.00     0.202 C 
BRANCH  42  43
ATOM     43  C   UNL A   1      34.129  34.286  29.565  1.00  0.00     0.261 C 
BRANCH  43  44
ATOM     44  O   UNL A   1      34.906  34.216  31.051  1.00  0.00    -0.460 OA
BRANCH  44  45
ATOM     45  C   UNL A   1      35.130  33.163  31.892  1.00  0.00     0.338 C 
ATOM     46  O   UNL A   1      34.384  32.397  32.467  1.00  0.00    -0.246 OA
BRANCH  45  47
ATOM     47  C   UNL A   1      36.511  32.740  31.737  1.00  0.00     0.060 A 
ATOM     48  C   UNL A   1      37.424  33.094  32.759  1.00  0.00     0.016 A 
ATOM     49  C   UNL A   1      36.848  31.909  30.684  1.00  0.00     0.016 A 
ATOM     50  C   UNL A   1      38.641  32.471  32.821  1.00  0.00     0.010 A 
ATOM     51  C   UNL A   1      38.130  31.415  30.650  1.00  0.00     0.010 A 
ATOM     52  C   UNL A   1      39.005  31.719  31.708  1.00  0.00    -0.014 A 
BRANCH  52  53
ATOM     53  C   UNL A   1      40.434  31.654  31.460  1.00  0.00     0.031 A 
ATOM     54  C   UNL A   1      41.010  32.838  30.754  1.00  0.00     0.074 A 
ATOM     55  C   UNL A   1      41.124  30.611  31.922  1.00  0.00     0.049 A 
ATOM     56  N   UNL A   1      42.219  33.024  30.319  1.00  0.00    -0.248 NA
ATOM     57  C   UNL A   1      40.096  33.975  30.502  1.00  0.00     0.031 C 
ATOM     58  C   UNL A   1      40.580  29.514  32.726  1.00  0.00     0.029 A 
ATOM     59  N   UNL A   1      42.440  30.313  31.770  1.00  0.00    -0.354 N 
ATOM     60  C   UNL A   1      42.202  34.282  29.731  1.00  0.00     0.074 A 
ATOM     61  C   UNL A   1      40.872  34.817  29.847  1.00  0.00     0.031 C 
ATOM     62  C   UNL A   1      41.568  28.637  32.976  1.00  0.00     0.029 A 
ATOM     63  C   UNL A   1      42.775  29.098  32.301  1.00  0.00     0.049 A 
ATOM     64  H   UNL A   1      43.085  30.909  31.326  1.00  0.00     0.167 HD
ATOM     65  C   UNL A   1      43.227  34.917  29.131  1.00  0.00     0.031 A 
ATOM     66  C   UNL A   1      43.938  28.438  32.188  1.00  0.00     0.031 A 
ATOM     67  C   UNL A   1      44.515  34.302  29.001  1.00  0.00     0.049 A 
ATOM     68  C   UNL A   1      45.030  29.118  31.409  1.00  0.00     0.074 A 
ATOM     69  C   UNL A   1      45.648  34.785  28.383  1.00  0.00     0.029 A 
ATOM     70  N   UNL A   1      44.822  33.040  29.501  1.00  0.00    -0.354 N 
ATOM     71  N   UNL A   1      45.021  30.292  30.817  1.00  0.00    -0.248 NA
ATOM     72  C   UNL A   1      46.294  28.390  31.290  1.00  0.00     0.031 C 
ATOM     73  C   UNL A   1      46.620  33.783  28.447  1.00  0.00     0.029 A 
ATOM     74  C   UNL A   1      46.123  32.713  29.184  1.00  0.00     0.049 A 
ATOM     75  H   UNL A   1      44.202  32.466  30.005  1.00  0.00     0.167 HD
ATOM     76  C   UNL A   1      46.289  30.464  30.286  1.00  0.00     0.074 A 
ATOM     77  C   UNL A   1      47.042  29.275  30.647  1.00  0.00     0.031 C 
ATOM     78  C   UNL A   1      46.802  31.500  29.571  1.00  0.00     0.031 A 
BRANCH  65  79
ATOM     79  C   UNL A   1      42.945  36.256  28.515  1.00  0.00    -0.014 A 
ATOM     80  C   UNL A   1      42.467  36.383  27.199  1.00  0.00     0.009 A 
ATOM     81  C   UNL A   1      43.205  37.419  29.253  1.00  0.00     0.009 A 
ATOM     82  C   UNL A   1      42.284  37.645  26.629  1.00  0.00     0.001 A 
ATOM     83  C   UNL A   1      42.987  38.679  28.694  1.00  0.00     0.001 A 
ATOM     84  C   UNL A   1      42.536  38.792  27.381  1.00  0.00     0.000 A 
ENDBRANCH  65  79
BRANCH  66  85
ATOM     85  C   UNL A   1      44.092  27.091  32.784  1.00  0.00    -0.014 A 
ATOM     86  C   UNL A   1      44.235  26.933  34.170  1.00  0.00     0.009 A 
ATOM     87  C   UNL A   1      44.078  25.945  31.971  1.00  0.00     0.009 A 
ATOM     88  C   UNL A   1      44.394  25.661  34.724  1.00  0.00     0.001 A 
ATOM     89  C   UNL A   1      44.204  24.672  32.531  1.00  0.00     0.001 A 
ATOM     90  C   UNL A   1      44.375  24.532  33.905  1.00  0.00     0.000 A 
ENDBRANCH  66  85
BRANCH  78  91
ATOM     91  C   UNL A   1      48.251  31.392  29.197  1.00  0.00    -0.014 A 
ATOM     92  C   UNL A   1      48.659  30.813  27.988  1.00  0.00     0.009 A 
ATOM     93  C   UNL A   1      49.219  31.912  30.072  1.00  0.00     0.009 A 
ATOM     94  C   UNL A   1      50.015  30.698  27.690  1.00  0.00     0.001 A 
ATOM     95  C   UNL A   1      50.570  31.842  29.747  1.00  0.00     0.001 A 
ATOM     96  C   UNL A   1      50.968  31.218  28.566  1.00  0.00     0.000 A 
ENDBRANCH  78  91
ENDBRANCH  52  53
ENDBRANCH  45  47
ENDBRANCH  44  45
ENDBRANCH  43  44
ENDBRANCH  42  43
ENDBRANCH  41  42
ENDBRANCH  40  41
ENDBRANCH  39  40
ENDBRANCH  38  39
ENDBRANCH   1  38
TORSDOF 25
ENDMDL
MODEL 2
REMARK VINA RESULT:     -10.0      1.687      2.640
REMARK SMILES COC(=O)c1c(NC(=O)[C@@H]2[C@H]3CC[C@H](CC3)[C@H]2C(=O)OCCOCCOCCOCCOC(=O)c2ccc(-c3c4nc(c(-c5ccccc5)c5ccc([nH]5)c(-c5ccccc5)c5nc(c(-c6ccccc6)c6ccc3[nH]6)C=C5)C=C4)cc2)sc(C)c1-c1ccc(C)cc1
REMARK SMILES IDX 25 1 24 2 23 3 22 4 21 5 20 6 18 7 19 8 17 9 10 10 11 11
REMARK SMILES IDX 12 12 16 13 14 14 13 15 15 16 8 17 7 18 9 20 6 21 5 22 86 23
REMARK SMILES IDX 83 24 84 25 85 26 3 27 4 28 2 29 1 30 87 31 88 32 93 33
REMARK SMILES IDX 89 34 92 35 90 36 91 37 26 38 27 39 28 40 29 41 30 42 31 43
REMARK SMILES IDX 32 44 33 45 34 46 35 47 36 48 82 49 37 50 81 51 38 52 39 53
REMARK SMILES IDX 40 54 75 55 41 56 80 57 74 58 76 59 42 60 79 61 73 62 72 63
REMARK SMILES IDX 43 65 65 66 50 67 64 68 51 69 54 70 63 71 77 72 52 73 53 74
REMARK SMILES IDX 62 76 78 77 55 78 44 79 45 80 49 81 46 82 48 83 47 84 66 85
REMARK SMILES IDX 67 86 71 87 68 88 70 89 69 90 56 91 57 92 61 93 58 94 60 95
REMARK SMILES IDX 59 96
REMARK H PARENT 7 19 76 64 54 75
REMARK Flexibility Score: inf
ROOT
ATOM      1  C   UNL A   1      32.198  29.203  24.761  1.00  0.00     0.188 C 
ENDROOT
BRANCH   1   2
ATOM      2  C   UNL A   1      31.970  27.735  24.414  1.00  0.00     0.188 C 
BRANCH   2   3
ATOM      3  O   UNL A   1      31.361  27.554  23.150  1.00  0.00    -0.376 OA
BRANCH   3   4
ATOM      4  C   UNL A   1      31.787  26.504  22.281  1.00  0.00     0.202 C 
BRANCH   4   5
ATOM      5  C   UNL A   1      33.244  25.971  22.063  1.00  0.00     0.261 C 
BRANCH   5   6
ATOM      6  O   UNL A   1      33.668  24.642  22.461  1.00  0.00    -0.463 OA
BRANCH   6   7
ATOM      7  C   UNL A   1      34.327  24.571  23.647  1.00  0.00     0.310 C 
ATOM      8  O   UNL A   1      34.626  25.581  24.287  1.00  0.00    -0.252 OA
BRANCH   7   9
ATOM      9  C   UNL A   1      34.814  23.189  24.146  1.00  0.00     0.115 C 
ATOM     10  C   UNL A   1      35.932  22.907  25.255  1.00  0.00     0.096 C 
ATOM     11  C   UNL A   1      35.288  21.926  26.300  1.00  0.00     0.002 C 
ATOM     12  C   UNL A   1      34.096  22.648  26.954  1.00  0.00     0.005 C 
ATOM     13  C   UNL A   1      34.721  20.636  25.639  1.00  0.00     0.005 C 
ATOM     14  C   UNL A   1      33.482  22.476  24.513  1.00  0.00     0.004 C 
ATOM     15  C   UNL A   1      33.014  22.929  25.908  1.00  0.00     0.005 C 
ATOM     16  C   UNL A   1      33.737  20.972  24.519  1.00  0.00     0.005 C 
BRANCH  10  17
ATOM     17  C   UNL A   1      37.249  22.203  24.735  1.00  0.00     0.229 C 
ATOM     18  N   UNL A   1      38.493  22.044  25.326  1.00  0.00    -0.317 N 
ATOM     19  H   UNL A   1      38.979  21.268  24.964  1.00  0.00     0.170 HD
ATOM     20  O   UNL A   1      37.173  21.626  23.632  1.00  0.00    -0.274 OA
BRANCH  18  21
ATOM     21  C   UNL A   1      39.234  22.720  26.316  1.00  0.00     0.111 A 
ATOM     22  C   UNL A   1      40.993  22.812  26.517  1.00  0.00     0.102 A 
ATOM     23  C   UNL A   1      41.583  24.524  27.229  1.00  0.00     0.012 A 
ATOM     24  S   UNL A   1      38.171  24.499  27.258  1.00  0.00    -0.122 S 
ATOM     25  C   UNL A   1      40.185  25.584  27.613  1.00  0.00     0.012 A 
ATOM     26  C   UNL A   1      39.895  26.997  28.012  1.00  0.00     0.057 C 
BRANCH  22  27
ATOM     27  C   UNL A   1      41.947  21.808  26.065  1.00  0.00     0.341 C 
ATOM     28  O   UNL A   1      42.721  21.990  25.138  1.00  0.00    -0.246 OA
BRANCH  27  29
ATOM     29  O   UNL A   1      41.798  20.661  26.771  1.00  0.00    -0.465 OA
ATOM     30  C   UNL A   1      41.128  19.579  26.130  1.00  0.00     0.282 C 
ENDBRANCH  27  29
ENDBRANCH  22  27
BRANCH  23  31
ATOM     31  C   UNL A   1      42.971  24.812  27.608  1.00  0.00    -0.016 A 
ATOM     32  C   UNL A   1      43.416  24.924  28.919  1.00  0.00     0.009 A 
ATOM     33  C   UNL A   1      43.890  25.032  26.580  1.00  0.00     0.009 A 
ATOM     34  C   UNL A   1      44.794  25.073  29.173  1.00  0.00     0.004 A 
ATOM     35  C   UNL A   1      45.255  25.046  26.817  1.00  0.00     0.004 A 
ATOM     36  C   UNL A   1      45.725  25.034  28.123  1.00  0.00    -0.051 A 
ATOM     37  C   UNL A   1      47.206  25.021  28.348  1.00  0.00     0.044 C 
ENDBRANCH  23  31
ENDBRANCH  18  21
ENDBRANCH  10  17
ENDBRANCH   7   9
ENDBRANCH   6   7
ENDBRANCH   5   6
ENDBRANCH   4   5
ENDBRANCH   3   4
ENDBRANCH   2   3
ENDBRANCH   1   2
BRANCH   1  38
ATOM     38  O   UNL A   1      31.732  29.551  26.054  1.00  0.00    -0.377 OA
BRANCH  38  39
ATOM     39  C   UNL A   1      32.604  29.342  27.160  1.00  0.00     0.188 C 
BRANCH  39  40
ATOM     40  C   UNL A   1      34.071  29.538  26.825  1.00  0.00     0.188 C 
BRANCH  40  41
ATOM     41  O   UNL A   1      34.928  29.886  27.918  1.00  0.00    -0.376 OA
BRANCH  41  42
ATOM     42  C   UNL A   1      35.131  31.412  28.289  1.00  0.00     0.202 C 
BRANCH  42  43
ATOM     43  C   UNL A   1      35.391  32.359  30.277  1.00  0.00     0.261 C 
BRANCH  43  44
ATOM     44  O   UNL A   1      36.457  31.919  31.496  1.00  0.00    -0.460 OA
BRANCH  44  45
ATOM     45  C   UNL A   1      36.879  30.688  31.911  1.00  0.00     0.338 C 
ATOM     46  O   UNL A   1      36.293  29.646  32.121  1.00  0.00    -0.246 OA
BRANCH  45  47
ATOM     47  C   UNL A   1      38.313  30.602  31.700  1.00  0.00     0.060 A 
ATOM     48  C   UNL A   1      38.776  29.735  30.682  1.00  0.00     0.016 A 
ATOM     49  C   UNL A   1      39.150  31.453  32.399  1.00  0.00     0.016 A 
ATOM     50  C   UNL A   1      40.065  29.844  30.238  1.00  0.00     0.010 A 
ATOM     51  C   UNL A   1      40.485  31.441  32.071  1.00  0.00     0.010 A 
ATOM     52  C   UNL A   1      40.919  30.627  31.010  1.00  0.00    -0.014 A 
BRANCH  52  53
ATOM     53  C   UNL A   1      42.311  30.218  30.982  1.00  0.00     0.031 A 
ATOM     54  C   UNL A   1      43.220  31.113  30.203  1.00  0.00     0.074 A 
ATOM     55  C   UNL A   1      42.685  29.148  31.684  1.00  0.00     0.049 A 
ATOM     56  N   UNL A   1      44.479  30.961  29.925  1.00  0.00    -0.248 NA
ATOM     57  C   UNL A   1      42.628  32.357  29.662  1.00  0.00     0.031 C 
ATOM     58  C   UNL A   1      41.817  28.347  32.550  1.00  0.00     0.029 A 
ATOM     59  N   UNL A   1      43.904  28.556  31.768  1.00  0.00    -0.354 N 
ATOM     60  C   UNL A   1      44.819  32.073  29.167  1.00  0.00     0.074 A 
ATOM     61  C   UNL A   1      43.646  32.889  29.012  1.00  0.00     0.031 C 
ATOM     62  C   UNL A   1      42.541  27.337  33.063  1.00  0.00     0.029 A 
ATOM     63  C   UNL A   1      43.888  27.407  32.511  1.00  0.00     0.049 A 
ATOM     64  H   UNL A   1      44.714  28.916  31.340  1.00  0.00     0.167 HD
ATOM     65  C   UNL A   1      46.022  32.362  28.636  1.00  0.00     0.031 A 
ATOM     66  C   UNL A   1      44.871  26.507  32.662  1.00  0.00     0.031 A 
ATOM     67  C   UNL A   1      47.138  31.475  28.783  1.00  0.00     0.049 A 
ATOM     68  C   UNL A   1      46.169  26.794  31.959  1.00  0.00     0.074 A 
ATOM     69  C   UNL A   1      48.412  31.592  28.272  1.00  0.00     0.029 A 
ATOM     70  N   UNL A   1      47.087  30.282  29.498  1.00  0.00    -0.354 N 
ATOM     71  N   UNL A   1      46.497  27.824  31.210  1.00  0.00    -0.248 NA
ATOM     72  C   UNL A   1      47.234  25.805  32.130  1.00  0.00     0.031 C 
ATOM     73  C   UNL A   1      49.112  30.433  28.619  1.00  0.00     0.029 A 
ATOM     74  C   UNL A   1      48.302  29.637  29.423  1.00  0.00     0.049 A 
ATOM     75  H   UNL A   1      46.300  29.948  29.985  1.00  0.00     0.167 HD
ATOM     76  C   UNL A   1      47.821  27.629  30.848  1.00  0.00     0.074 A 
ATOM     77  C   UNL A   1      48.232  26.387  31.481  1.00  0.00     0.031 C 
ATOM     78  C   UNL A   1      48.635  28.392  30.073  1.00  0.00     0.031 A 
BRANCH  65  79
ATOM     79  C   UNL A   1      46.128  33.604  27.800  1.00  0.00    -0.014 A 
ATOM     80  C   UNL A   1      46.545  34.832  28.342  1.00  0.00     0.009 A 
ATOM     81  C   UNL A   1      45.758  33.554  26.448  1.00  0.00     0.009 A 
ATOM     82  C   UNL A   1      46.563  35.986  27.555  1.00  0.00     0.001 A 
ATOM     83  C   UNL A   1      45.810  34.701  25.654  1.00  0.00     0.001 A 
ATOM     84  C   UNL A   1      46.203  35.917  26.210  1.00  0.00     0.000 A 
ENDBRANCH  65  79
BRANCH  66  85
ATOM     85  C   UNL A   1      44.641  25.280  33.462  1.00  0.00    -0.014 A 
ATOM     86  C   UNL A   1      44.911  25.262  34.837  1.00  0.00     0.009 A 
ATOM     87  C   UNL A   1      44.130  24.119  32.857  1.00  0.00     0.009 A 
ATOM     88  C   UNL A   1      44.707  24.099  35.582  1.00  0.00     0.001 A 
ATOM     89  C   UNL A   1      43.895  22.968  33.610  1.00  0.00     0.001 A 
ATOM     90  C   UNL A   1      44.196  22.955  34.969  1.00  0.00     0.000 A 
ENDBRANCH  66  85
BRANCH  78  91
ATOM     91  C   UNL A   1      50.051  27.917  29.932  1.00  0.00    -0.014 A 
ATOM     92  C   UNL A   1      50.451  27.104  28.863  1.00  0.00     0.009 A 
ATOM     93  C   UNL A   1      51.002  28.322  30.882  1.00  0.00     0.009 A 
ATOM     94  C   UNL A   1      51.767  26.653  28.783  1.00  0.00     0.001 A 
ATOM     95  C   UNL A   1      52.327  27.911  30.771  1.00  0.00     0.001 A 
ATOM     96  C   UNL A   1      52.704  27.062  29.733  1.00  0.00     0.000 A 
ENDBRANCH  78  91
ENDBRANCH  52  53
ENDBRANCH  45  47
ENDBRANCH  44  45
ENDBRANCH  43  44
ENDBRANCH  42  43
ENDBRANCH  41  42
ENDBRANCH  40  41
ENDBRANCH  39  40
ENDBRANCH  38  39
ENDBRANCH   1  38
TORSDOF 25
ENDMDL
MODEL 3
REMARK VINA RESULT:      -9.8      2.388      3.912
REMARK SMILES COC(=O)c1c(NC(=O)[C@@H]2[C@H]3CC[C@H](CC3)[C@H]2C(=O)OCCOCCOCCOCCOC(=O)c2ccc(-c3c4nc(c(-c5ccccc5)c5ccc([nH]5)c(-c5ccccc5)c5nc(c(-c6ccccc6)c6ccc3[nH]6)C=C5)C=C4)cc2)sc(C)c1-c1ccc(C)cc1
REMARK SMILES IDX 25 1 24 2 23 3 22 4 21 5 20 6 18 7 19 8 17 9 10 10 11 11
REMARK SMILES IDX 12 12 16 13 14 14 13 15 15 16 8 17 7 18 9 20 6 21 5 22 86 23
REMARK SMILES IDX 83 24 84 25 85 26 3 27 4 28 2 29 1 30 87 31 88 32 93 33
REMARK SMILES IDX 89 34 92 35 90 36 91 37 26 38 27 39 28 40 29 41 30 42 31 43
REMARK SMILES IDX 32 44 33 45 34 46 35 47 36 48 82 49 37 50 81 51 38 52 39 53
REMARK SMILES IDX 40 54 75 55 41 56 80 57 74 58 76 59 42 60 79 61 73 62 72 63
REMARK SMILES IDX 43 65 65 66 50 67 64 68 51 69 54 70 63 71 77 72 52 73 53 74
REMARK SMILES IDX 62 76 78 77 55 78 44 79 45 80 49 81 46 82 48 83 47 84 66 85
REMARK SMILES IDX 67 86 71 87 68 88 70 89 69 90 56 91 57 92 61 93 58 94 60 95
REMARK SMILES IDX 59 96
REMARK H PARENT 7 19 76 64 54 75
REMARK Flexibility Score: inf
ROOT
ATOM      1  C   UNL A   1      31.815  28.593  26.201  1.00  0.00     0.188 C 
ENDROOT
BRANCH   1   2
ATOM      2  C   UNL A   1      31.367  27.182  26.569  1.00  0.00     0.188 C 
BRANCH   2   3
ATOM      3  O   UNL A   1      30.813  26.477  25.474  1.00  0.00    -0.376 OA
BRANCH   3   4
ATOM      4  C   UNL A   1      31.164  26.820  24.134  1.00  0.00     0.202 C 
BRANCH   4   5
ATOM      5  C   UNL A   1      32.385  26.302  23.299  1.00  0.00     0.261 C 
BRANCH   5   6
ATOM      6  O   UNL A   1      32.898  24.950  23.405  1.00  0.00    -0.463 OA
BRANCH   6   7
ATOM      7  C   UNL A   1      33.893  24.773  24.314  1.00  0.00     0.310 C 
ATOM      8  O   UNL A   1      34.363  25.716  24.955  1.00  0.00    -0.252 OA
BRANCH   7   9
ATOM      9  C   UNL A   1      34.527  23.369  24.460  1.00  0.00     0.115 C 
ATOM     10  C   UNL A   1      35.738  22.957  25.422  1.00  0.00     0.096 C 
ATOM     11  C   UNL A   1      35.252  21.710  26.244  1.00  0.00     0.002 C 
ATOM     12  C   UNL A   1      34.051  22.148  27.102  1.00  0.00     0.005 C 
ATOM     13  C   UNL A   1      34.751  20.551  25.334  1.00  0.00     0.005 C 
ATOM     14  C   UNL A   1      33.288  22.466  24.717  1.00  0.00     0.004 C 
ATOM     15  C   UNL A   1      32.880  22.549  26.200  1.00  0.00     0.005 C 
ATOM     16  C   UNL A   1      33.669  21.031  24.368  1.00  0.00     0.005 C 
BRANCH  10  17
ATOM     17  C   UNL A   1      37.071  22.518  24.692  1.00  0.00     0.229 C 
ATOM     18  N   UNL A   1      38.359  22.342  25.174  1.00  0.00    -0.317 N 
ATOM     19  H   UNL A   1      38.881  21.719  24.617  1.00  0.00     0.170 HD
ATOM     20  O   UNL A   1      36.971  22.210  23.488  1.00  0.00    -0.274 OA
BRANCH  18  21
ATOM     21  C   UNL A   1      39.106  22.833  26.263  1.00  0.00     0.111 A 
ATOM     22  C   UNL A   1      40.861  22.806  26.508  1.00  0.00     0.102 A 
ATOM     23  C   UNL A   1      41.514  24.369  27.466  1.00  0.00     0.012 A 
ATOM     24  S   UNL A   1      38.104  24.514  27.428  1.00  0.00    -0.122 S 
ATOM     25  C   UNL A   1      40.158  25.434  27.970  1.00  0.00     0.012 A 
ATOM     26  C   UNL A   1      39.926  26.791  28.559  1.00  0.00     0.057 C 
BRANCH  22  27
ATOM     27  C   UNL A   1      41.777  21.829  25.937  1.00  0.00     0.341 C 
ATOM     28  O   UNL A   1      42.755  22.136  25.272  1.00  0.00    -0.246 OA
BRANCH  27  29
ATOM     29  O   UNL A   1      41.351  20.569  26.199  1.00  0.00    -0.465 OA
ATOM     30  C   UNL A   1      42.272  19.506  25.971  1.00  0.00     0.282 C 
ENDBRANCH  27  29
ENDBRANCH  22  27
BRANCH  23  31
ATOM     31  C   UNL A   1      42.903  24.531  27.908  1.00  0.00    -0.016 A 
ATOM     32  C   UNL A   1      43.893  25.161  27.164  1.00  0.00     0.009 A 
ATOM     33  C   UNL A   1      43.260  23.972  29.137  1.00  0.00     0.009 A 
ATOM     34  C   UNL A   1      45.161  25.377  27.739  1.00  0.00     0.004 A 
ATOM     35  C   UNL A   1      44.456  24.293  29.761  1.00  0.00     0.004 A 
ATOM     36  C   UNL A   1      45.411  25.030  29.076  1.00  0.00    -0.051 A 
ATOM     37  C   UNL A   1      46.681  25.385  29.785  1.00  0.00     0.044 C 
ENDBRANCH  23  31
ENDBRANCH  18  21
ENDBRANCH  10  17
ENDBRANCH   7   9
ENDBRANCH   6   7
ENDBRANCH   5   6
ENDBRANCH   4   5
ENDBRANCH   3   4
ENDBRANCH   2   3
ENDBRANCH   1   2
BRANCH   1  38
ATOM     38  O   UNL A   1      32.578  29.219  27.219  1.00  0.00    -0.377 OA
BRANCH  38  39
ATOM     39  C   UNL A   1      33.586  30.146  26.828  1.00  0.00     0.188 C 
BRANCH  39  40
ATOM     40  C   UNL A   1      34.359  30.733  27.994  1.00  0.00     0.188 C 
BRANCH  40  41
ATOM     41  O   UNL A   1      35.557  31.445  27.664  1.00  0.00    -0.376 OA
BRANCH  41  42
ATOM     42  C   UNL A   1      36.930  30.992  28.311  1.00  0.00     0.202 C 
BRANCH  42  43
ATOM     43  C   UNL A   1      37.323  29.437  29.842  1.00  0.00     0.261 C 
BRANCH  43  44
ATOM     44  O   UNL A   1      38.172  29.600  31.281  1.00  0.00    -0.460 OA
BRANCH  44  45
ATOM     45  C   UNL A   1      39.387  29.106  31.661  1.00  0.00     0.338 C 
ATOM     46  O   UNL A   1      39.747  28.011  32.040  1.00  0.00    -0.246 OA
BRANCH  45  47
ATOM     47  C   UNL A   1      40.419  29.999  31.163  1.00  0.00     0.060 A 
ATOM     48  C   UNL A   1      40.708  29.960  29.779  1.00  0.00     0.016 A 
ATOM     49  C   UNL A   1      40.977  30.930  32.021  1.00  0.00     0.016 A 
ATOM     50  C   UNL A   1      41.433  30.973  29.212  1.00  0.00     0.010 A 
ATOM     51  C   UNL A   1      41.845  31.849  31.481  1.00  0.00     0.010 A 
ATOM     52  C   UNL A   1      42.068  31.842  30.093  1.00  0.00    -0.014 A 
BRANCH  52  53
ATOM     53  C   UNL A   1      43.302  32.421  29.592  1.00  0.00     0.031 A 
ATOM     54  C   UNL A   1      43.215  33.862  29.204  1.00  0.00     0.074 A 
ATOM     55  C   UNL A   1      44.407  31.675  29.577  1.00  0.00     0.049 A 
ATOM     56  N   UNL A   1      44.114  34.615  28.647  1.00  0.00    -0.248 NA
ATOM     57  C   UNL A   1      41.937  34.553  29.484  1.00  0.00     0.031 C 
ATOM     58  C   UNL A   1      44.520  30.303  30.079  1.00  0.00     0.029 A 
ATOM     59  N   UNL A   1      45.646  31.980  29.114  1.00  0.00    -0.354 N 
ATOM     60  C   UNL A   1      43.504  35.853  28.495  1.00  0.00     0.074 A 
ATOM     61  C   UNL A   1      42.162  35.760  29.001  1.00  0.00     0.031 C 
ATOM     62  C   UNL A   1      45.775  29.873  29.867  1.00  0.00     0.029 A 
ATOM     63  C   UNL A   1      46.511  30.922  29.171  1.00  0.00     0.049 A 
ATOM     64  H   UNL A   1      45.896  32.869  28.774  1.00  0.00     0.167 HD
ATOM     65  C   UNL A   1      44.038  36.965  27.955  1.00  0.00     0.031 A 
ATOM     66  C   UNL A   1      47.747  30.836  28.657  1.00  0.00     0.031 A 
ATOM     67  C   UNL A   1      45.366  36.973  27.417  1.00  0.00     0.049 A 
ATOM     68  C   UNL A   1      48.276  32.055  27.953  1.00  0.00     0.074 A 
ATOM     69  C   UNL A   1      46.044  37.999  26.795  1.00  0.00     0.029 A 
ATOM     70  N   UNL A   1      46.213  35.869  27.436  1.00  0.00    -0.354 N 
ATOM     71  N   UNL A   1      47.700  33.223  27.770  1.00  0.00    -0.248 NA
ATOM     72  C   UNL A   1      49.625  31.950  27.395  1.00  0.00     0.031 C 
ATOM     73  C   UNL A   1      47.276  37.492  26.373  1.00  0.00     0.029 A 
ATOM     74  C   UNL A   1      47.403  36.179  26.812  1.00  0.00     0.049 A 
ATOM     75  H   UNL A   1      45.995  34.996  27.835  1.00  0.00     0.167 HD
ATOM     76  C   UNL A   1      48.629  34.010  27.108  1.00  0.00     0.074 A 
ATOM     77  C   UNL A   1      49.812  33.182  26.942  1.00  0.00     0.031 C 
ATOM     78  C   UNL A   1      48.535  35.294  26.675  1.00  0.00     0.031 A 
BRANCH  65  79
ATOM     79  C   UNL A   1      43.154  38.174  27.848  1.00  0.00    -0.014 A 
ATOM     80  C   UNL A   1      43.085  39.137  28.870  1.00  0.00     0.009 A 
ATOM     81  C   UNL A   1      42.338  38.329  26.718  1.00  0.00     0.009 A 
ATOM     82  C   UNL A   1      42.199  40.212  28.773  1.00  0.00     0.001 A 
ATOM     83  C   UNL A   1      41.478  39.423  26.607  1.00  0.00     0.001 A 
ATOM     84  C   UNL A   1      41.403  40.358  27.638  1.00  0.00     0.000 A 
ENDBRANCH  65  79
BRANCH  66  85
ATOM     85  C   UNL A   1      48.513  29.572  28.765  1.00  0.00    -0.014 A 
ATOM     86  C   UNL A   1      49.389  29.355  29.838  1.00  0.00     0.009 A 
ATOM     87  C   UNL A   1      48.359  28.560  27.803  1.00  0.00     0.009 A 
ATOM     88  C   UNL A   1      50.119  28.168  29.926  1.00  0.00     0.001 A 
ATOM     89  C   UNL A   1      49.064  27.360  27.911  1.00  0.00     0.001 A 
ATOM     90  C   UNL A   1      49.954  27.171  28.965  1.00  0.00     0.000 A 
ENDBRANCH  66  85
BRANCH  78  91
ATOM     91  C   UNL A   1      49.766  35.871  26.042  1.00  0.00    -0.014 A 
ATOM     92  C   UNL A   1      49.994  35.783  24.661  1.00  0.00     0.009 A 
ATOM     93  C   UNL A   1      50.698  36.541  26.851  1.00  0.00     0.009 A 
ATOM     94  C   UNL A   1      51.165  36.300  24.112  1.00  0.00     0.001 A 
ATOM     95  C   UNL A   1      51.842  37.101  26.292  1.00  0.00     0.001 A 
ATOM     96  C   UNL A   1      52.084  36.963  24.926  1.00  0.00     0.000 A 
ENDBRANCH  78  91
ENDBRANCH  52  53
ENDBRANCH  45  47
ENDBRANCH  44  45
ENDBRANCH  43  44
ENDBRANCH  42  43
ENDBRANCH  41  42
ENDBRANCH  40  41
ENDBRANCH  39  40
ENDBRANCH  38  39
ENDBRANCH   1  38
TORSDOF 25
ENDMDL
