MODEL 1
REMARK VINA RESULT:      -9.7      0.000      0.000
REMARK SMILES Cc1c(Br)c(C)c2c(c1Br)O[C@H](C(F)(F)F)C(C(=O)OCCOCCOCCOCCOC(=O)c1ccc(-c3c4nc(c(-c5ccccc5)c5ccc([nH]5)c(-c5ccccc5)c5nc(c(-c6ccccc6)c6ccc3[nH]6)C=C5)C=C4)cc1)=C2
REMARK SMILES IDX 27 1 26 2 25 3 24 4 23 5 22 6 21 7 20 8 18 9 19 10 17 11
REMARK SMILES IDX 1 12 2 13 3 14 9 15 4 16 5 17 8 18 10 19 6 20 7 21 11 22
REMARK SMILES IDX 83 23 12 24 13 25 14 26 15 27 16 28 28 29 29 30 30 31 31 32
REMARK SMILES IDX 32 33 33 34 34 35 35 36 36 37 82 38 37 39 81 40 38 41 39 42
REMARK SMILES IDX 40 43 75 44 41 45 80 46 74 47 76 48 42 49 79 50 73 51 72 52
REMARK SMILES IDX 43 54 65 55 50 56 64 57 51 58 54 59 63 60 77 61 52 62 53 63
REMARK SMILES IDX 62 65 78 66 55 67 44 68 45 69 49 70 46 71 48 72 47 73 66 74
REMARK SMILES IDX 67 75 71 76 68 77 70 78 69 79 56 80 57 81 61 82 58 83 60 84
REMARK SMILES IDX 59 85
REMARK H PARENT 76 53 54 64
REMARK Flexibility Score: inf
ROOT
ATOM      1  C   UNL A   1      35.622  21.805  25.553  1.00  0.00     0.188 C 
ENDROOT
BRANCH   1   2
ATOM      2  O   UNL A   1      34.839  20.842  24.844  1.00  0.00    -0.377 OA
BRANCH   2   3
ATOM      3  C   UNL A   1      33.595  20.460  25.409  1.00  0.00     0.188 C 
BRANCH   3   4
ATOM      4  C   UNL A   1      32.382  20.992  24.620  1.00  0.00     0.188 C 
BRANCH   4   5
ATOM      5  O   UNL A   1      32.593  21.073  23.223  1.00  0.00    -0.376 OA
BRANCH   5   6
ATOM      6  C   UNL A   1      32.795  22.308  22.557  1.00  0.00     0.202 C 
BRANCH   6   7
ATOM      7  C   UNL A   1      32.091  23.637  22.891  1.00  0.00     0.261 C 
BRANCH   7   8
ATOM      8  O   UNL A   1      32.727  24.514  23.819  1.00  0.00    -0.460 OA
BRANCH   8   9
ATOM      9  C   UNL A   1      32.057  24.815  24.945  1.00  0.00     0.338 C 
ATOM     10  O   UNL A   1      31.800  24.064  25.868  1.00  0.00    -0.246 OA
BRANCH   9  11
ATOM     11  C   UNL A   1      31.841  26.279  24.955  1.00  0.00     0.087 C 
ATOM     12  C   UNL A   1      31.314  32.595  26.412  1.00  0.00     0.047 C 
ATOM     13  C   UNL A   1      31.788  31.181  26.165  1.00  0.00    -0.019 A 
ATOM     14  C   UNL A   1      32.914  30.627  26.820  1.00  0.00     0.025 A 
ATOM     15  C   UNL A   1      31.093  30.373  25.241  1.00  0.00     0.064 A 
ATOM     16  Br  UNL A   1      33.959  31.733  27.991  1.00  0.00    -0.050 Br
ATOM     17  C   UNL A   1      33.277  29.267  26.636  1.00  0.00    -0.026 A 
ATOM     18  C   UNL A   1      31.421  29.018  25.068  1.00  0.00     0.142 A 
ATOM     19  Br  UNL A   1      29.648  31.097  24.206  1.00  0.00    -0.046 Br
ATOM     20  C   UNL A   1      34.510  28.660  27.275  1.00  0.00     0.046 C 
ATOM     21  C   UNL A   1      32.467  28.451  25.807  1.00  0.00     0.022 A 
ATOM     22  O   UNL A   1      30.676  28.313  24.161  1.00  0.00    -0.474 OA
ATOM     23  C   UNL A   1      32.646  27.002  25.741  1.00  0.00     0.027 C 
ATOM     24  C   UNL A   1      30.813  26.879  24.043  1.00  0.00     0.316 C 
BRANCH  24  25
ATOM     25  C   UNL A   1      29.428  26.245  24.227  1.00  0.00     0.430 C 
ATOM     26  F   UNL A   1      28.443  27.088  23.837  1.00  0.00    -0.167 F 
ATOM     27  F   UNL A   1      29.285  25.117  23.494  1.00  0.00    -0.167 F 
ATOM     28  F   UNL A   1      29.197  25.917  25.519  1.00  0.00    -0.167 F 
ENDBRANCH  24  25
ENDBRANCH   9  11
ENDBRANCH   8   9
ENDBRANCH   7   8
ENDBRANCH   6   7
ENDBRANCH   5   6
ENDBRANCH   4   5
ENDBRANCH   3   4
ENDBRANCH   2   3
ENDBRANCH   1   2
BRANCH   1  29
ATOM     29  C   UNL A   1      37.160  21.668  25.681  1.00  0.00     0.188 C 
BRANCH  29  30
ATOM     30  O   UNL A   1      37.762  20.883  24.662  1.00  0.00    -0.376 OA
BRANCH  30  31
ATOM     31  C   UNL A   1      38.286  19.611  24.999  1.00  0.00     0.202 C 
BRANCH  31  32
ATOM     32  C   UNL A   1      39.487  19.600  25.954  1.00  0.00     0.261 C 
BRANCH  32  33
ATOM     33  O   UNL A   1      40.737  19.196  25.380  1.00  0.00    -0.460 OA
BRANCH  33  34
ATOM     34  C   UNL A   1      41.822  19.217  26.181  1.00  0.00     0.338 C 
ATOM     35  O   UNL A   1      42.578  18.291  26.427  1.00  0.00    -0.246 OA
BRANCH  34  36
ATOM     36  C   UNL A   1      42.057  20.620  26.572  1.00  0.00     0.060 A 
ATOM     37  C   UNL A   1      42.235  21.588  25.574  1.00  0.00     0.016 A 
ATOM     38  C   UNL A   1      42.089  20.976  27.921  1.00  0.00     0.016 A 
ATOM     39  C   UNL A   1      42.481  22.914  25.928  1.00  0.00     0.010 A 
ATOM     40  C   UNL A   1      42.358  22.299  28.275  1.00  0.00     0.010 A 
ATOM     41  C   UNL A   1      42.589  23.265  27.280  1.00  0.00    -0.014 A 
BRANCH  41  42
ATOM     42  C   UNL A   1      43.141  24.586  27.658  1.00  0.00     0.031 A 
ATOM     43  C   UNL A   1      42.180  25.658  28.094  1.00  0.00     0.074 A 
ATOM     44  C   UNL A   1      44.462  24.828  27.633  1.00  0.00     0.049 A 
ATOM     45  N   UNL A   1      42.416  26.903  28.416  1.00  0.00    -0.248 NA
ATOM     46  C   UNL A   1      40.761  25.271  28.180  1.00  0.00     0.031 C 
ATOM     47  C   UNL A   1      45.496  23.853  27.293  1.00  0.00     0.029 A 
ATOM     48  N   UNL A   1      45.157  25.981  27.903  1.00  0.00    -0.354 N 
ATOM     49  C   UNL A   1      41.180  27.446  28.740  1.00  0.00     0.074 A 
ATOM     50  C   UNL A   1      40.191  26.410  28.545  1.00  0.00     0.031 C 
ATOM     51  C   UNL A   1      46.698  24.451  27.372  1.00  0.00     0.029 A 
ATOM     52  C   UNL A   1      46.514  25.858  27.729  1.00  0.00     0.049 A 
ATOM     53  H   UNL A   1      44.724  26.816  28.192  1.00  0.00     0.167 HD
ATOM     54  C   UNL A   1      40.894  28.697  29.171  1.00  0.00     0.031 A 
ATOM     55  C   UNL A   1      47.490  26.780  27.829  1.00  0.00     0.031 A 
ATOM     56  C   UNL A   1      41.875  29.733  29.343  1.00  0.00     0.049 A 
ATOM     57  C   UNL A   1      47.135  28.196  28.206  1.00  0.00     0.074 A 
ATOM     58  C   UNL A   1      41.683  31.038  29.764  1.00  0.00     0.029 A 
ATOM     59  N   UNL A   1      43.231  29.584  29.097  1.00  0.00    -0.354 N 
ATOM     60  N   UNL A   1      45.963  28.701  28.509  1.00  0.00    -0.248 NA
ATOM     61  C   UNL A   1      48.238  29.166  28.260  1.00  0.00     0.031 C 
ATOM     62  C   UNL A   1      42.914  31.696  29.714  1.00  0.00     0.029 A 
ATOM     63  C   UNL A   1      43.885  30.781  29.336  1.00  0.00     0.049 A 
ATOM     64  H   UNL A   1      43.664  28.753  28.799  1.00  0.00     0.167 HD
ATOM     65  C   UNL A   1      46.192  30.035  28.823  1.00  0.00     0.074 A 
ATOM     66  C   UNL A   1      47.616  30.259  28.683  1.00  0.00     0.031 C 
ATOM     67  C   UNL A   1      45.304  30.989  29.198  1.00  0.00     0.031 A 
BRANCH  54  68
ATOM     68  C   UNL A   1      39.455  29.023  29.461  1.00  0.00    -0.014 A 
ATOM     69  C   UNL A   1      38.889  28.755  30.716  1.00  0.00     0.009 A 
ATOM     70  C   UNL A   1      38.675  29.659  28.484  1.00  0.00     0.009 A 
ATOM     71  C   UNL A   1      37.561  29.101  30.981  1.00  0.00     0.001 A 
ATOM     72  C   UNL A   1      37.358  30.031  28.761  1.00  0.00     0.001 A 
ATOM     73  C   UNL A   1      36.801  29.747  30.007  1.00  0.00     0.000 A 
ENDBRANCH  54  68
BRANCH  55  74
ATOM     74  C   UNL A   1      48.903  26.396  27.569  1.00  0.00    -0.014 A 
ATOM     75  C   UNL A   1      49.731  25.969  28.618  1.00  0.00     0.009 A 
ATOM     76  C   UNL A   1      49.431  26.448  26.269  1.00  0.00     0.009 A 
ATOM     77  C   UNL A   1      51.061  25.616  28.373  1.00  0.00     0.001 A 
ATOM     78  C   UNL A   1      50.752  26.065  26.022  1.00  0.00     0.001 A 
ATOM     79  C   UNL A   1      51.567  25.656  27.075  1.00  0.00     0.000 A 
ENDBRANCH  55  74
BRANCH  67  80
ATOM     80  C   UNL A   1      45.838  32.356  29.530  1.00  0.00    -0.014 A 
ATOM     81  C   UNL A   1      45.947  33.358  28.554  1.00  0.00     0.009 A 
ATOM     82  C   UNL A   1      46.163  32.666  30.862  1.00  0.00     0.009 A 
ATOM     83  C   UNL A   1      46.396  34.634  28.901  1.00  0.00     0.001 A 
ATOM     84  C   UNL A   1      46.577  33.951  31.211  1.00  0.00     0.001 A 
ATOM     85  C   UNL A   1      46.702  34.932  30.228  1.00  0.00     0.000 A 
ENDBRANCH  67  80
ENDBRANCH  41  42
ENDBRANCH  34  36
ENDBRANCH  33  34
ENDBRANCH  32  33
ENDBRANCH  31  32
ENDBRANCH  30  31
ENDBRANCH  29  30
ENDBRANCH   1  29
TORSDOF 21
ENDMDL
MODEL 2
REMARK VINA RESULT:      -9.6      1.825      6.226
REMARK SMILES Cc1c(Br)c(C)c2c(c1Br)O[C@H](C(F)(F)F)C(C(=O)OCCOCCOCCOCCOC(=O)c1ccc(-c3c4nc(c(-c5ccccc5)c5ccc([nH]5)c(-c5ccccc5)c5nc(c(-c6ccccc6)c6ccc3[nH]6)C=C5)C=C4)cc1)=C2
REMARK SMILES IDX 27 1 26 2 25 3 24 4 23 5 22 6 21 7 20 8 18 9 19 10 17 11
REMARK SMILES IDX 1 12 2 13 3 14 9 15 4 16 5 17 8 18 10 19 6 20 7 21 11 22
REMARK SMILES IDX 83 23 12 24 13 25 14 26 15 27 16 28 28 29 29 30 30 31 31 32
REMARK SMILES IDX 32 33 33 34 34 35 35 36 36 37 82 38 37 39 81 40 38 41 39 42
REMARK SMILES IDX 40 43 75 44 41 45 80 46 74 47 76 48 42 49 79 50 73 51 72 52
REMARK SMILES IDX 43 54 65 55 50 56 64 57 51 58 54 59 63 60 77 61 52 62 53 63
REMARK SMILES IDX 62 65 78 66 55 67 44 68 45 69 49 70 46 71 48 72 47 73 66 74
REMARK SMILES IDX 67 75 71 76 68 77 70 78 69 79 56 80 57 81 61 82 58 83 60 84
REMARK SMILES IDX 59 85
REMARK H PARENT 76 53 54 64
REMARK Flexibility Score: inf
ROOT
ATOM      1  C   UNL A   1      40.930  22.067  26.696  1.00  0.00     0.188 C 
ENDROOT
BRANCH   1   2
ATOM      2  O   UNL A   1      39.527  21.839  26.844  1.00  0.00    -0.377 OA
BRANCH   2   3
ATOM      3  C   UNL A   1      38.775  21.573  25.670  1.00  0.00     0.188 C 
BRANCH   3   4
ATOM      4  C   UNL A   1      37.391  22.252  25.671  1.00  0.00     0.188 C 
BRANCH   4   5
ATOM      5  O   UNL A   1      36.406  21.556  24.930  1.00  0.00    -0.376 OA
BRANCH   5   6
ATOM      6  C   UNL A   1      35.068  21.431  25.380  1.00  0.00     0.202 C 
BRANCH   6   7
ATOM      7  C   UNL A   1      34.071  22.589  25.577  1.00  0.00     0.261 C 
BRANCH   7   8
ATOM      8  O   UNL A   1      34.557  23.921  25.422  1.00  0.00    -0.460 OA
BRANCH   8   9
ATOM      9  C   UNL A   1      34.554  24.440  24.182  1.00  0.00     0.338 C 
ATOM     10  O   UNL A   1      34.945  23.903  23.162  1.00  0.00    -0.246 OA
BRANCH   9  11
ATOM     11  C   UNL A   1      33.817  25.722  24.240  1.00  0.00     0.087 C 
ATOM     12  C   UNL A   1      30.928  31.299  25.927  1.00  0.00     0.047 C 
ATOM     13  C   UNL A   1      31.901  30.174  25.657  1.00  0.00    -0.019 A 
ATOM     14  C   UNL A   1      33.110  30.020  26.376  1.00  0.00     0.025 A 
ATOM     15  C   UNL A   1      31.606  29.237  24.645  1.00  0.00     0.064 A 
ATOM     16  Br  UNL A   1      33.606  31.343  27.675  1.00  0.00    -0.050 Br
ATOM     17  C   UNL A   1      33.956  28.901  26.162  1.00  0.00    -0.026 A 
ATOM     18  C   UNL A   1      32.417  28.108  24.439  1.00  0.00     0.142 A 
ATOM     19  Br  UNL A   1      30.060  29.459  23.529  1.00  0.00    -0.046 Br
ATOM     20  C   UNL A   1      35.285  28.738  26.871  1.00  0.00     0.046 C 
ATOM     21  C   UNL A   1      33.552  27.908  25.234  1.00  0.00     0.022 A 
ATOM     22  O   UNL A   1      32.037  27.247  23.445  1.00  0.00    -0.474 OA
ATOM     23  C   UNL A   1      34.253  26.630  25.119  1.00  0.00     0.027 C 
ATOM     24  C   UNL A   1      32.697  25.972  23.275  1.00  0.00     0.316 C 
BRANCH  24  25
ATOM     25  C   UNL A   1      31.632  24.868  23.317  1.00  0.00     0.430 C 
ATOM     26  F   UNL A   1      30.452  25.300  22.812  1.00  0.00    -0.167 F 
ATOM     27  F   UNL A   1      31.992  23.786  22.590  1.00  0.00    -0.167 F 
ATOM     28  F   UNL A   1      31.403  24.445  24.582  1.00  0.00    -0.167 F 
ENDBRANCH  24  25
ENDBRANCH   9  11
ENDBRANCH   8   9
ENDBRANCH   7   8
ENDBRANCH   6   7
ENDBRANCH   5   6
ENDBRANCH   4   5
ENDBRANCH   3   4
ENDBRANCH   2   3
ENDBRANCH   1   2
BRANCH   1  29
ATOM     29  C   UNL A   1      41.979  21.138  27.357  1.00  0.00     0.188 C 
BRANCH  29  30
ATOM     30  O   UNL A   1      41.800  19.759  27.071  1.00  0.00    -0.376 OA
BRANCH  30  31
ATOM     31  C   UNL A   1      42.028  19.300  25.750  1.00  0.00     0.202 C 
BRANCH  31  32
ATOM     32  C   UNL A   1      43.446  18.806  25.436  1.00  0.00     0.261 C 
BRANCH  32  33
ATOM     33  O   UNL A   1      43.989  19.231  24.179  1.00  0.00    -0.460 OA
BRANCH  33  34
ATOM     34  C   UNL A   1      45.215  19.794  24.193  1.00  0.00     0.338 C 
ATOM     35  O   UNL A   1      46.240  19.348  23.703  1.00  0.00    -0.246 OA
BRANCH  34  36
ATOM     36  C   UNL A   1      45.072  21.153  24.749  1.00  0.00     0.060 A 
ATOM     37  C   UNL A   1      44.584  22.179  23.930  1.00  0.00     0.016 A 
ATOM     38  C   UNL A   1      45.408  21.405  26.080  1.00  0.00     0.016 A 
ATOM     39  C   UNL A   1      44.465  23.474  24.434  1.00  0.00     0.010 A 
ATOM     40  C   UNL A   1      45.310  22.705  26.578  1.00  0.00     0.010 A 
ATOM     41  C   UNL A   1      44.871  23.750  25.746  1.00  0.00    -0.014 A 
BRANCH  41  42
ATOM     42  C   UNL A   1      45.032  25.154  26.189  1.00  0.00     0.031 A 
ATOM     43  C   UNL A   1      46.400  25.772  26.103  1.00  0.00     0.074 A 
ATOM     44  C   UNL A   1      43.990  25.870  26.643  1.00  0.00     0.049 A 
ATOM     45  N   UNL A   1      46.799  26.958  26.482  1.00  0.00    -0.248 NA
ATOM     46  C   UNL A   1      47.459  24.941  25.506  1.00  0.00     0.031 C 
ATOM     47  C   UNL A   1      42.607  25.404  26.712  1.00  0.00     0.029 A 
ATOM     48  N   UNL A   1      43.941  27.153  27.131  1.00  0.00    -0.354 N 
ATOM     49  C   UNL A   1      48.152  27.014  26.171  1.00  0.00     0.074 A 
ATOM     50  C   UNL A   1      48.515  25.735  25.604  1.00  0.00     0.031 C 
ATOM     51  C   UNL A   1      41.843  26.389  27.218  1.00  0.00     0.029 A 
ATOM     52  C   UNL A   1      42.689  27.537  27.544  1.00  0.00     0.049 A 
ATOM     53  H   UNL A   1      44.729  27.740  27.182  1.00  0.00     0.167 HD
ATOM     54  C   UNL A   1      49.014  28.044  26.336  1.00  0.00     0.031 A 
ATOM     55  C   UNL A   1      42.280  28.676  28.134  1.00  0.00     0.031 A 
ATOM     56  C   UNL A   1      48.657  29.308  26.920  1.00  0.00     0.049 A 
ATOM     57  C   UNL A   1      43.282  29.769  28.407  1.00  0.00     0.074 A 
ATOM     58  C   UNL A   1      49.463  30.411  27.141  1.00  0.00     0.029 A 
ATOM     59  N   UNL A   1      47.392  29.634  27.381  1.00  0.00    -0.354 N 
ATOM     60  N   UNL A   1      44.559  29.812  28.111  1.00  0.00    -0.248 NA
ATOM     61  C   UNL A   1      42.783  30.973  29.088  1.00  0.00     0.031 C 
ATOM     62  C   UNL A   1      48.699  31.383  27.792  1.00  0.00     0.029 A 
ATOM     63  C   UNL A   1      47.400  30.914  27.908  1.00  0.00     0.049 A 
ATOM     64  H   UNL A   1      46.605  29.044  27.340  1.00  0.00     0.167 HD
ATOM     65  C   UNL A   1      45.007  31.057  28.538  1.00  0.00     0.074 A 
ATOM     66  C   UNL A   1      43.863  31.742  29.103  1.00  0.00     0.031 C 
ATOM     67  C   UNL A   1      46.253  31.587  28.463  1.00  0.00     0.031 A 
BRANCH  54  68
ATOM     68  C   UNL A   1      50.438  27.837  25.902  1.00  0.00    -0.014 A 
ATOM     69  C   UNL A   1      51.375  27.225  26.749  1.00  0.00     0.009 A 
ATOM     70  C   UNL A   1      50.833  28.206  24.606  1.00  0.00     0.009 A 
ATOM     71  C   UNL A   1      52.684  27.004  26.314  1.00  0.00     0.001 A 
ATOM     72  C   UNL A   1      52.133  27.957  24.163  1.00  0.00     0.001 A 
ATOM     73  C   UNL A   1      53.058  27.361  25.019  1.00  0.00     0.000 A 
ENDBRANCH  54  68
BRANCH  55  74
ATOM     74  C   UNL A   1      40.851  28.845  28.509  1.00  0.00    -0.014 A 
ATOM     75  C   UNL A   1      39.940  29.420  27.609  1.00  0.00     0.009 A 
ATOM     76  C   UNL A   1      40.386  28.427  29.766  1.00  0.00     0.009 A 
ATOM     77  C   UNL A   1      38.599  29.586  27.966  1.00  0.00     0.001 A 
ATOM     78  C   UNL A   1      39.039  28.567  30.108  1.00  0.00     0.001 A 
ATOM     79  C   UNL A   1      38.149  29.151  29.211  1.00  0.00     0.000 A 
ENDBRANCH  55  74
BRANCH  67  80
ATOM     80  C   UNL A   1      46.450  32.992  28.963  1.00  0.00    -0.014 A 
ATOM     81  C   UNL A   1      46.791  33.255  30.298  1.00  0.00     0.009 A 
ATOM     82  C   UNL A   1      46.370  34.065  28.058  1.00  0.00     0.009 A 
ATOM     83  C   UNL A   1      47.021  34.566  30.722  1.00  0.00     0.001 A 
ATOM     84  C   UNL A   1      46.634  35.369  28.477  1.00  0.00     0.001 A 
ATOM     85  C   UNL A   1      46.951  35.619  29.812  1.00  0.00     0.000 A 
ENDBRANCH  67  80
ENDBRANCH  41  42
ENDBRANCH  34  36
ENDBRANCH  33  34
ENDBRANCH  32  33
ENDBRANCH  31  32
ENDBRANCH  30  31
ENDBRANCH  29  30
ENDBRANCH   1  29
TORSDOF 21
ENDMDL
MODEL 3
REMARK VINA RESULT:      -9.1      2.953      8.297
REMARK SMILES Cc1c(Br)c(C)c2c(c1Br)O[C@H](C(F)(F)F)C(C(=O)OCCOCCOCCOCCOC(=O)c1ccc(-c3c4nc(c(-c5ccccc5)c5ccc([nH]5)c(-c5ccccc5)c5nc(c(-c6ccccc6)c6ccc3[nH]6)C=C5)C=C4)cc1)=C2
REMARK SMILES IDX 27 1 26 2 25 3 24 4 23 5 22 6 21 7 20 8 18 9 19 10 17 11
REMARK SMILES IDX 1 12 2 13 3 14 9 15 4 16 5 17 8 18 10 19 6 20 7 21 11 22
REMARK SMILES IDX 83 23 12 24 13 25 14 26 15 27 16 28 28 29 29 30 30 31 31 32
REMARK SMILES IDX 32 33 33 34 34 35 35 36 36 37 82 38 37 39 81 40 38 41 39 42
REMARK SMILES IDX 40 43 75 44 41 45 80 46 74 47 76 48 42 49 79 50 73 51 72 52
REMARK SMILES IDX 43 54 65 55 50 56 64 57 51 58 54 59 63 60 77 61 52 62 53 63
REMARK SMILES IDX 62 65 78 66 55 67 44 68 45 69 49 70 46 71 48 72 47 73 66 74
REMARK SMILES IDX 67 75 71 76 68 77 70 78 69 79 56 80 57 81 61 82 58 83 60 84
REMARK SMILES IDX 59 85
REMARK H PARENT 76 53 54 64
REMARK Flexibility Score: inf
ROOT
ATOM      1  C   UNL A   1      34.947  31.638  27.806  1.00  0.00     0.188 C 
ENDROOT
BRANCH   1   2
ATOM      2  O   UNL A   1      34.312  30.658  26.985  1.00  0.00    -0.377 OA
BRANCH   2   3
ATOM      3  C   UNL A   1      33.013  30.226  27.359  1.00  0.00     0.188 C 
BRANCH   3   4
ATOM      4  C   UNL A   1      31.922  30.644  26.355  1.00  0.00     0.188 C 
BRANCH   4   5
ATOM      5  O   UNL A   1      31.593  29.644  25.409  1.00  0.00    -0.376 OA
BRANCH   5   6
ATOM      6  C   UNL A   1      32.545  29.118  24.500  1.00  0.00     0.202 C 
BRANCH   6   7
ATOM      7  C   UNL A   1      32.232  28.505  23.121  1.00  0.00     0.261 C 
BRANCH   7   8
ATOM      8  O   UNL A   1      32.538  27.126  22.920  1.00  0.00    -0.460 OA
BRANCH   8   9
ATOM      9  C   UNL A   1      31.526  26.247  23.011  1.00  0.00     0.338 C 
ATOM     10  O   UNL A   1      30.428  26.338  22.493  1.00  0.00    -0.246 OA
BRANCH   9  11
ATOM     11  C   UNL A   1      32.041  25.048  23.708  1.00  0.00     0.087 C 
ATOM     12  C   UNL A   1      33.189  19.101  26.076  1.00  0.00     0.047 C 
ATOM     13  C   UNL A   1      32.979  20.317  25.203  1.00  0.00    -0.019 A 
ATOM     14  C   UNL A   1      32.558  20.227  23.854  1.00  0.00     0.025 A 
ATOM     15  C   UNL A   1      33.216  21.599  25.740  1.00  0.00     0.064 A 
ATOM     16  Br  UNL A   1      32.343  18.496  23.051  1.00  0.00    -0.050 Br
ATOM     17  C   UNL A   1      32.281  21.390  23.090  1.00  0.00    -0.026 A 
ATOM     18  C   UNL A   1      32.921  22.761  25.008  1.00  0.00     0.142 A 
ATOM     19  Br  UNL A   1      33.928  21.799  27.511  1.00  0.00    -0.046 Br
ATOM     20  C   UNL A   1      31.887  21.329  21.629  1.00  0.00     0.046 C 
ATOM     21  C   UNL A   1      32.397  22.658  23.714  1.00  0.00     0.022 A 
ATOM     22  O   UNL A   1      33.169  23.959  25.623  1.00  0.00    -0.474 OA
ATOM     23  C   UNL A   1      31.923  23.881  23.066  1.00  0.00     0.027 C 
ATOM     24  C   UNL A   1      32.732  25.203  25.030  1.00  0.00     0.316 C 
BRANCH  24  25
ATOM     25  C   UNL A   1      31.870  25.950  26.055  1.00  0.00     0.430 C 
ATOM     26  F   UNL A   1      31.319  25.099  26.953  1.00  0.00    -0.167 F 
ATOM     27  F   UNL A   1      32.590  26.849  26.766  1.00  0.00    -0.167 F 
ATOM     28  F   UNL A   1      30.860  26.625  25.460  1.00  0.00    -0.167 F 
ENDBRANCH  24  25
ENDBRANCH   9  11
ENDBRANCH   8   9
ENDBRANCH   7   8
ENDBRANCH   6   7
ENDBRANCH   5   6
ENDBRANCH   4   5
ENDBRANCH   3   4
ENDBRANCH   2   3
ENDBRANCH   1   2
BRANCH   1  29
ATOM     29  C   UNL A   1      34.146  32.785  28.472  1.00  0.00     0.188 C 
BRANCH  29  30
ATOM     30  O   UNL A   1      34.830  33.431  29.537  1.00  0.00    -0.376 OA
BRANCH  30  31
ATOM     31  C   UNL A   1      34.478  33.108  30.871  1.00  0.00     0.202 C 
BRANCH  31  32
ATOM     32  C   UNL A   1      35.351  32.058  31.570  1.00  0.00     0.261 C 
BRANCH  32  33
ATOM     33  O   UNL A   1      36.483  31.592  30.825  1.00  0.00    -0.460 OA
BRANCH  33  34
ATOM     34  C   UNL A   1      36.906  30.333  31.063  1.00  0.00     0.338 C 
ATOM     35  O   UNL A   1      36.255  29.408  31.521  1.00  0.00    -0.246 OA
BRANCH  34  36
ATOM     36  C   UNL A   1      38.261  30.206  30.494  1.00  0.00     0.060 A 
ATOM     37  C   UNL A   1      38.407  29.968  29.121  1.00  0.00     0.016 A 
ATOM     38  C   UNL A   1      39.382  30.335  31.316  1.00  0.00     0.016 A 
ATOM     39  C   UNL A   1      39.681  29.822  28.572  1.00  0.00     0.010 A 
ATOM     40  C   UNL A   1      40.655  30.166  30.771  1.00  0.00     0.010 A 
ATOM     41  C   UNL A   1      40.807  29.875  29.404  1.00  0.00    -0.014 A 
BRANCH  41  42
ATOM     42  C   UNL A   1      42.123  29.428  28.893  1.00  0.00     0.031 A 
ATOM     43  C   UNL A   1      42.278  27.985  28.500  1.00  0.00     0.074 A 
ATOM     44  C   UNL A   1      43.153  30.282  28.766  1.00  0.00     0.049 A 
ATOM     45  N   UNL A   1      43.342  27.349  28.083  1.00  0.00    -0.248 NA
ATOM     46  C   UNL A   1      41.069  27.148  28.586  1.00  0.00     0.031 C 
ATOM     47  C   UNL A   1      43.107  31.714  29.051  1.00  0.00     0.029 A 
ATOM     48  N   UNL A   1      44.444  30.058  28.357  1.00  0.00    -0.354 N 
ATOM     49  C   UNL A   1      42.931  26.041  27.859  1.00  0.00     0.074 A 
ATOM     50  C   UNL A   1      41.533  25.963  28.217  1.00  0.00     0.031 C 
ATOM     51  C   UNL A   1      44.321  32.242  28.811  1.00  0.00     0.029 A 
ATOM     52  C   UNL A   1      45.235  31.180  28.394  1.00  0.00     0.049 A 
ATOM     53  H   UNL A   1      44.773  29.176  28.067  1.00  0.00     0.167 HD
ATOM     54  C   UNL A   1      43.654  24.998  27.389  1.00  0.00     0.031 A 
ATOM     55  C   UNL A   1      46.549  31.325  28.138  1.00  0.00     0.031 A 
ATOM     56  C   UNL A   1      45.050  25.071  27.055  1.00  0.00     0.049 A 
ATOM     57  C   UNL A   1      47.359  30.125  27.720  1.00  0.00     0.074 A 
ATOM     58  C   UNL A   1      45.874  24.065  26.581  1.00  0.00     0.029 A 
ATOM     59  N   UNL A   1      45.828  26.212  27.164  1.00  0.00    -0.354 N 
ATOM     60  N   UNL A   1      46.963  28.892  27.513  1.00  0.00    -0.248 NA
ATOM     61  C   UNL A   1      48.796  30.339  27.493  1.00  0.00     0.031 C 
ATOM     62  C   UNL A   1      47.166  24.583  26.462  1.00  0.00     0.029 A 
ATOM     63  C   UNL A   1      47.131  25.930  26.789  1.00  0.00     0.049 A 
ATOM     64  H   UNL A   1      45.504  27.092  27.464  1.00  0.00     0.167 HD
ATOM     65  C   UNL A   1      48.091  28.193  27.099  1.00  0.00     0.074 A 
ATOM     66  C   UNL A   1      49.185  29.142  27.075  1.00  0.00     0.031 C 
ATOM     67  C   UNL A   1      48.209  26.884  26.765  1.00  0.00     0.031 A 
BRANCH  54  68
ATOM     68  C   UNL A   1      42.952  23.678  27.233  1.00  0.00    -0.014 A 
ATOM     69  C   UNL A   1      42.445  23.266  25.992  1.00  0.00     0.009 A 
ATOM     70  C   UNL A   1      42.850  22.809  28.331  1.00  0.00     0.009 A 
ATOM     71  C   UNL A   1      41.831  22.019  25.857  1.00  0.00     0.001 A 
ATOM     72  C   UNL A   1      42.264  21.551  28.187  1.00  0.00     0.001 A 
ATOM     73  C   UNL A   1      41.750  21.159  26.951  1.00  0.00     0.000 A 
ENDBRANCH  54  68
BRANCH  55  74
ATOM     74  C   UNL A   1      47.187  32.663  28.271  1.00  0.00    -0.014 A 
ATOM     75  C   UNL A   1      47.728  33.077  29.497  1.00  0.00     0.009 A 
ATOM     76  C   UNL A   1      47.265  33.531  27.170  1.00  0.00     0.009 A 
ATOM     77  C   UNL A   1      48.320  34.337  29.623  1.00  0.00     0.001 A 
ATOM     78  C   UNL A   1      47.884  34.777  27.290  1.00  0.00     0.001 A 
ATOM     79  C   UNL A   1      48.405  35.181  28.517  1.00  0.00     0.000 A 
ENDBRANCH  55  74
BRANCH  67  80
ATOM     80  C   UNL A   1      49.554  26.397  26.299  1.00  0.00    -0.014 A 
ATOM     81  C   UNL A   1      49.999  26.615  24.987  1.00  0.00     0.009 A 
ATOM     82  C   UNL A   1      50.421  25.777  27.217  1.00  0.00     0.009 A 
ATOM     83  C   UNL A   1      51.275  26.199  24.596  1.00  0.00     0.001 A 
ATOM     84  C   UNL A   1      51.706  25.394  26.833  1.00  0.00     0.001 A 
ATOM     85  C   UNL A   1      52.128  25.597  25.520  1.00  0.00     0.000 A 
ENDBRANCH  67  80
ENDBRANCH  41  42
ENDBRANCH  34  36
ENDBRANCH  33  34
ENDBRANCH  32  33
ENDBRANCH  31  32
ENDBRANCH  30  31
ENDBRANCH  29  30
ENDBRANCH   1  29
TORSDOF 21
ENDMDL
