MODEL 1
REMARK VINA RESULT:     -10.5      0.000      0.000
REMARK SMILES O=C(COc1ccccc1/C=C1\C(=O)Nc2ccccc21)OCCOCCOCCOCCOC(=O)c1ccc(-c2c3nc(c(-c4ccccc4)c4ccc([nH]4)c(-c4ccccc4)c4nc(c(-c5ccccc5)c5ccc2[nH]5)C=C4)C=C3)cc1
REMARK SMILES IDX 27 1 26 2 25 3 24 4 23 5 22 6 2 7 1 8 3 9 4 10 5 11 6 12
REMARK SMILES IDX 10 13 7 14 9 15 8 16 11 17 12 18 13 19 21 20 14 21 15 22
REMARK SMILES IDX 16 23 20 24 17 26 19 27 18 28 28 29 29 30 30 31 31 32 32 33
REMARK SMILES IDX 33 34 34 35 35 36 36 37 37 38 38 39 84 40 39 41 83 42 40 43
REMARK SMILES IDX 41 44 42 45 77 46 43 47 82 48 76 49 78 50 44 51 81 52 75 53
REMARK SMILES IDX 74 54 45 56 67 57 52 58 66 59 53 60 56 61 65 62 79 63 54 64
REMARK SMILES IDX 55 65 64 67 80 68 57 69 46 70 47 71 51 72 48 73 50 74 49 75
REMARK SMILES IDX 68 76 69 77 73 78 70 79 72 80 71 81 58 82 59 83 63 84 60 85
REMARK SMILES IDX 62 86 61 87
REMARK H PARENT 15 25 78 55 56 66
REMARK Flexibility Score: inf
ROOT
ATOM      1  C   UNL A   1      33.345  35.208  30.226  1.00  0.00     0.188 C 
ENDROOT
BRANCH   1   2
ATOM      2  C   UNL A   1      33.258  34.741  28.758  1.00  0.00     0.188 C 
BRANCH   2   3
ATOM      3  O   UNL A   1      34.483  34.459  28.102  1.00  0.00    -0.376 OA
BRANCH   3   4
ATOM      4  C   UNL A   1      35.201  33.246  28.183  1.00  0.00     0.202 C 
BRANCH   4   5
ATOM      5  C   UNL A   1      34.535  31.968  28.703  1.00  0.00     0.261 C 
BRANCH   5   6
ATOM      6  O   UNL A   1      33.635  31.272  27.816  1.00  0.00    -0.461 OA
BRANCH   6   7
ATOM      7  C   UNL A   1      33.915  30.211  27.021  1.00  0.00     0.344 C 
ATOM      8  O   UNL A   1      34.914  29.530  27.243  1.00  0.00    -0.248 OA
BRANCH   7   9
ATOM      9  C   UNL A   1      33.021  29.941  25.837  1.00  0.00     0.351 C 
BRANCH   9  10
ATOM     10  O   UNL A   1      33.039  28.561  25.519  1.00  0.00    -0.481 OA
BRANCH  10  11
ATOM     11  C   UNL A   1      32.130  28.288  24.549  1.00  0.00     0.127 A 
ATOM     12  C   UNL A   1      31.129  29.258  24.427  1.00  0.00     0.047 A 
ATOM     13  C   UNL A   1      32.185  27.134  23.748  1.00  0.00     0.017 A 
ATOM     14  C   UNL A   1      30.151  29.107  23.463  1.00  0.00     0.004 A 
ATOM     15  C   UNL A   1      31.120  26.961  22.860  1.00  0.00     0.012 A 
ATOM     16  C   UNL A   1      30.140  27.951  22.691  1.00  0.00     0.001 A 
BRANCH  13  17
ATOM     17  C   UNL A   1      33.289  26.130  23.788  1.00  0.00     0.026 C 
ATOM     18  C   UNL A   1      33.373  25.071  24.623  1.00  0.00     0.050 C 
ATOM     19  C   UNL A   1      32.355  24.748  25.702  1.00  0.00     0.256 C 
ATOM     20  C   UNL A   1      34.454  24.062  24.775  1.00  0.00     0.011 A 
ATOM     21  O   UNL A   1      31.238  25.184  25.860  1.00  0.00    -0.269 OA
ATOM     22  N   UNL A   1      32.964  23.802  26.502  1.00  0.00    -0.321 N 
ATOM     23  C   UNL A   1      34.164  23.372  25.962  1.00  0.00     0.049 A 
ATOM     24  C   UNL A   1      35.544  23.654  24.023  1.00  0.00     0.011 A 
ATOM     25  H   UNL A   1      32.589  23.473  27.353  1.00  0.00     0.170 HD
ATOM     26  C   UNL A   1      34.937  22.344  26.471  1.00  0.00     0.027 A 
ATOM     27  C   UNL A   1      36.331  22.584  24.502  1.00  0.00     0.001 A 
ATOM     28  C   UNL A   1      36.038  21.946  25.722  1.00  0.00     0.002 A 
ENDBRANCH  13  17
ENDBRANCH  10  11
ENDBRANCH   9  10
ENDBRANCH   7   9
ENDBRANCH   6   7
ENDBRANCH   5   6
ENDBRANCH   4   5
ENDBRANCH   3   4
ENDBRANCH   2   3
ENDBRANCH   1   2
BRANCH   1  29
ATOM     29  O   UNL A   1      32.466  36.226  30.681  1.00  0.00    -0.377 OA
BRANCH  29  30
ATOM     30  C   UNL A   1      32.589  36.616  32.036  1.00  0.00     0.188 C 
BRANCH  30  31
ATOM     31  C   UNL A   1      34.042  36.883  32.465  1.00  0.00     0.188 C 
BRANCH  31  32
ATOM     32  O   UNL A   1      34.486  36.271  33.657  1.00  0.00    -0.376 OA
BRANCH  32  33
ATOM     33  C   UNL A   1      35.200  35.046  33.687  1.00  0.00     0.202 C 
BRANCH  33  34
ATOM     34  C   UNL A   1      34.630  33.613  33.645  1.00  0.00     0.261 C 
BRANCH  34  35
ATOM     35  O   UNL A   1      35.388  32.575  33.036  1.00  0.00    -0.460 OA
BRANCH  35  36
ATOM     36  C   UNL A   1      36.538  32.228  33.637  1.00  0.00     0.338 C 
ATOM     37  O   UNL A   1      36.865  32.434  34.791  1.00  0.00    -0.246 OA
BRANCH  36  38
ATOM     38  C   UNL A   1      37.260  31.342  32.701  1.00  0.00     0.060 A 
ATOM     39  C   UNL A   1      38.274  30.523  33.217  1.00  0.00     0.016 A 
ATOM     40  C   UNL A   1      36.932  31.306  31.342  1.00  0.00     0.016 A 
ATOM     41  C   UNL A   1      39.017  29.720  32.365  1.00  0.00     0.010 A 
ATOM     42  C   UNL A   1      37.709  30.534  30.477  1.00  0.00     0.010 A 
ATOM     43  C   UNL A   1      38.794  29.797  30.987  1.00  0.00    -0.014 A 
BRANCH  43  44
ATOM     44  C   UNL A   1      39.908  29.406  30.099  1.00  0.00     0.031 A 
ATOM     45  C   UNL A   1      40.986  30.429  29.863  1.00  0.00     0.074 A 
ATOM     46  C   UNL A   1      40.015  28.162  29.609  1.00  0.00     0.049 A 
ATOM     47  N   UNL A   1      42.092  30.330  29.173  1.00  0.00    -0.248 NA
ATOM     48  C   UNL A   1      40.790  31.747  30.497  1.00  0.00     0.031 C 
ATOM     49  C   UNL A   1      39.071  27.071  29.841  1.00  0.00     0.029 A 
ATOM     50  N   UNL A   1      40.989  27.610  28.820  1.00  0.00    -0.354 N 
ATOM     51  C   UNL A   1      42.709  31.570  29.280  1.00  0.00     0.074 A 
ATOM     52  C   UNL A   1      41.846  32.417  30.069  1.00  0.00     0.031 C 
ATOM     53  C   UNL A   1      39.518  25.971  29.208  1.00  0.00     0.029 A 
ATOM     54  C   UNL A   1      40.759  26.295  28.506  1.00  0.00     0.049 A 
ATOM     55  H   UNL A   1      41.778  28.109  28.509  1.00  0.00     0.167 HD
ATOM     56  C   UNL A   1      43.895  31.971  28.768  1.00  0.00     0.031 A 
ATOM     57  C   UNL A   1      41.471  25.459  27.728  1.00  0.00     0.031 A 
ATOM     58  C   UNL A   1      44.743  31.129  27.972  1.00  0.00     0.049 A 
ATOM     59  C   UNL A   1      42.746  25.956  27.096  1.00  0.00     0.074 A 
ATOM     60  C   UNL A   1      45.969  31.427  27.407  1.00  0.00     0.029 A 
ATOM     61  N   UNL A   1      44.442  29.821  27.619  1.00  0.00    -0.354 N 
ATOM     62  N   UNL A   1      43.332  27.124  27.212  1.00  0.00    -0.248 NA
ATOM     63  C   UNL A   1      43.467  25.005  26.239  1.00  0.00     0.031 C 
ATOM     64  C   UNL A   1      46.377  30.322  26.652  1.00  0.00     0.029 A 
ATOM     65  C   UNL A   1      45.447  29.308  26.819  1.00  0.00     0.049 A 
ATOM     66  H   UNL A   1      43.635  29.332  27.897  1.00  0.00     0.167 HD
ATOM     67  C   UNL A   1      44.512  27.033  26.483  1.00  0.00     0.074 A 
ATOM     68  C   UNL A   1      44.559  25.692  25.937  1.00  0.00     0.031 C 
ATOM     69  C   UNL A   1      45.476  27.968  26.289  1.00  0.00     0.031 A 
BRANCH  56  70
ATOM     70  C   UNL A   1      44.303  33.398  29.007  1.00  0.00    -0.014 A 
ATOM     71  C   UNL A   1      44.134  34.392  28.029  1.00  0.00     0.009 A 
ATOM     72  C   UNL A   1      44.873  33.752  30.240  1.00  0.00     0.009 A 
ATOM     73  C   UNL A   1      44.562  35.699  28.268  1.00  0.00     0.001 A 
ATOM     74  C   UNL A   1      45.269  35.067  30.489  1.00  0.00     0.001 A 
ATOM     75  C   UNL A   1      45.124  36.037  29.499  1.00  0.00     0.000 A 
ENDBRANCH  56  70
BRANCH  57  76
ATOM     76  C   UNL A   1      41.002  24.067  27.498  1.00  0.00    -0.014 A 
ATOM     77  C   UNL A   1      41.557  22.996  28.214  1.00  0.00     0.009 A 
ATOM     78  C   UNL A   1      40.016  23.799  26.535  1.00  0.00     0.009 A 
ATOM     79  C   UNL A   1      41.158  21.684  27.948  1.00  0.00     0.001 A 
ATOM     80  C   UNL A   1      39.595  22.490  26.295  1.00  0.00     0.001 A 
ATOM     81  C   UNL A   1      40.176  21.432  26.992  1.00  0.00     0.000 A 
ENDBRANCH  57  76
BRANCH  69  82
ATOM     82  C   UNL A   1      46.697  27.550  25.513  1.00  0.00    -0.014 A 
ATOM     83  C   UNL A   1      46.853  27.857  24.153  1.00  0.00     0.009 A 
ATOM     84  C   UNL A   1      47.724  26.857  26.174  1.00  0.00     0.009 A 
ATOM     85  C   UNL A   1      47.989  27.431  23.460  1.00  0.00     0.001 A 
ATOM     86  C   UNL A   1      48.875  26.469  25.490  1.00  0.00     0.001 A 
ATOM     87  C   UNL A   1      49.000  26.742  24.130  1.00  0.00     0.000 A 
ENDBRANCH  69  82
ENDBRANCH  43  44
ENDBRANCH  36  38
ENDBRANCH  35  36
ENDBRANCH  34  35
ENDBRANCH  33  34
ENDBRANCH  32  33
ENDBRANCH  31  32
ENDBRANCH  30  31
ENDBRANCH  29  30
ENDBRANCH   1  29
TORSDOF 23
ENDMDL
MODEL 2
REMARK VINA RESULT:     -10.3      1.319      3.347
REMARK SMILES O=C(COc1ccccc1/C=C1\C(=O)Nc2ccccc21)OCCOCCOCCOCCOC(=O)c1ccc(-c2c3nc(c(-c4ccccc4)c4ccc([nH]4)c(-c4ccccc4)c4nc(c(-c5ccccc5)c5ccc2[nH]5)C=C4)C=C3)cc1
REMARK SMILES IDX 27 1 26 2 25 3 24 4 23 5 22 6 2 7 1 8 3 9 4 10 5 11 6 12
REMARK SMILES IDX 10 13 7 14 9 15 8 16 11 17 12 18 13 19 21 20 14 21 15 22
REMARK SMILES IDX 16 23 20 24 17 26 19 27 18 28 28 29 29 30 30 31 31 32 32 33
REMARK SMILES IDX 33 34 34 35 35 36 36 37 37 38 38 39 84 40 39 41 83 42 40 43
REMARK SMILES IDX 41 44 42 45 77 46 43 47 82 48 76 49 78 50 44 51 81 52 75 53
REMARK SMILES IDX 74 54 45 56 67 57 52 58 66 59 53 60 56 61 65 62 79 63 54 64
REMARK SMILES IDX 55 65 64 67 80 68 57 69 46 70 47 71 51 72 48 73 50 74 49 75
REMARK SMILES IDX 68 76 69 77 73 78 70 79 72 80 71 81 58 82 59 83 63 84 60 85
REMARK SMILES IDX 62 86 61 87
REMARK H PARENT 15 25 78 55 56 66
REMARK Flexibility Score: inf
ROOT
ATOM      1  C   UNL A   1      34.733  33.668  29.209  1.00  0.00     0.188 C 
ENDROOT
BRANCH   1   2
ATOM      2  C   UNL A   1      34.308  32.782  28.020  1.00  0.00     0.188 C 
BRANCH   2   3
ATOM      3  O   UNL A   1      35.200  31.748  27.640  1.00  0.00    -0.376 OA
BRANCH   3   4
ATOM      4  C   UNL A   1      35.277  30.468  28.232  1.00  0.00     0.202 C 
BRANCH   4   5
ATOM      5  C   UNL A   1      34.673  29.241  27.540  1.00  0.00     0.261 C 
BRANCH   5   6
ATOM      6  O   UNL A   1      33.875  29.463  26.359  1.00  0.00    -0.461 OA
BRANCH   6   7
ATOM      7  C   UNL A   1      33.085  28.570  25.716  1.00  0.00     0.344 C 
ATOM      8  O   UNL A   1      31.972  28.913  25.320  1.00  0.00    -0.248 OA
BRANCH   7   9
ATOM      9  C   UNL A   1      33.572  27.151  25.567  1.00  0.00     0.351 C 
BRANCH   9  10
ATOM     10  O   UNL A   1      32.636  26.253  26.135  1.00  0.00    -0.481 OA
BRANCH  10  11
ATOM     11  C   UNL A   1      32.532  25.134  25.373  1.00  0.00     0.127 A 
ATOM     12  C   UNL A   1      33.542  24.195  25.611  1.00  0.00     0.047 A 
ATOM     13  C   UNL A   1      31.510  24.942  24.427  1.00  0.00     0.017 A 
ATOM     14  C   UNL A   1      33.540  23.004  24.913  1.00  0.00     0.004 A 
ATOM     15  C   UNL A   1      31.603  23.775  23.663  1.00  0.00     0.012 A 
ATOM     16  C   UNL A   1      32.578  22.802  23.929  1.00  0.00     0.001 A 
BRANCH  13  17
ATOM     17  C   UNL A   1      30.367  25.879  24.216  1.00  0.00     0.026 C 
ATOM     18  C   UNL A   1      30.343  26.927  23.364  1.00  0.00     0.050 C 
ATOM     19  C   UNL A   1      31.514  27.351  22.495  1.00  0.00     0.256 C 
ATOM     20  C   UNL A   1      29.282  27.942  23.133  1.00  0.00     0.011 A 
ATOM     21  O   UNL A   1      32.527  26.750  22.224  1.00  0.00    -0.269 OA
ATOM     22  N   UNL A   1      31.183  28.609  22.032  1.00  0.00    -0.321 N 
ATOM     23  C   UNL A   1      29.883  28.951  22.366  1.00  0.00     0.049 A 
ATOM     24  C   UNL A   1      27.932  28.052  23.429  1.00  0.00     0.011 A 
ATOM     25  H   UNL A   1      31.797  29.191  21.526  1.00  0.00     0.170 HD
ATOM     26  C   UNL A   1      29.231  30.092  21.936  1.00  0.00     0.027 A 
ATOM     27  C   UNL A   1      27.233  29.191  22.973  1.00  0.00     0.001 A 
ATOM     28  C   UNL A   1      27.881  30.207  22.246  1.00  0.00     0.002 A 
ENDBRANCH  13  17
ENDBRANCH  10  11
ENDBRANCH   9  10
ENDBRANCH   7   9
ENDBRANCH   6   7
ENDBRANCH   5   6
ENDBRANCH   4   5
ENDBRANCH   3   4
ENDBRANCH   2   3
ENDBRANCH   1   2
BRANCH   1  29
ATOM     29  O   UNL A   1      33.760  34.051  30.169  1.00  0.00    -0.377 OA
BRANCH  29  30
ATOM     30  C   UNL A   1      33.534  35.439  30.329  1.00  0.00     0.188 C 
BRANCH  30  31
ATOM     31  C   UNL A   1      32.796  35.792  31.632  1.00  0.00     0.188 C 
BRANCH  31  32
ATOM     32  O   UNL A   1      33.588  36.106  32.757  1.00  0.00    -0.376 OA
BRANCH  32  33
ATOM     33  C   UNL A   1      34.856  35.521  33.008  1.00  0.00     0.202 C 
BRANCH  33  34
ATOM     34  C   UNL A   1      35.169  34.244  33.815  1.00  0.00     0.261 C 
BRANCH  34  35
ATOM     35  O   UNL A   1      35.777  33.134  33.164  1.00  0.00    -0.460 OA
BRANCH  35  36
ATOM     36  C   UNL A   1      36.752  32.497  33.832  1.00  0.00     0.338 C 
ATOM     37  O   UNL A   1      36.947  32.489  35.033  1.00  0.00    -0.246 OA
BRANCH  36  38
ATOM     38  C   UNL A   1      37.427  31.611  32.862  1.00  0.00     0.060 A 
ATOM     39  C   UNL A   1      38.402  30.727  33.344  1.00  0.00     0.016 A 
ATOM     40  C   UNL A   1      37.092  31.637  31.505  1.00  0.00     0.016 A 
ATOM     41  C   UNL A   1      39.102  29.919  32.461  1.00  0.00     0.010 A 
ATOM     42  C   UNL A   1      37.828  30.860  30.610  1.00  0.00     0.010 A 
ATOM     43  C   UNL A   1      38.878  30.054  31.087  1.00  0.00    -0.014 A 
BRANCH  43  44
ATOM     44  C   UNL A   1      39.968  29.641  30.180  1.00  0.00     0.031 A 
ATOM     45  C   UNL A   1      41.069  30.639  29.935  1.00  0.00     0.074 A 
ATOM     46  C   UNL A   1      40.036  28.399  29.679  1.00  0.00     0.049 A 
ATOM     47  N   UNL A   1      42.161  30.516  29.228  1.00  0.00    -0.248 NA
ATOM     48  C   UNL A   1      40.917  31.956  30.582  1.00  0.00     0.031 C 
ATOM     49  C   UNL A   1      39.067  27.331  29.916  1.00  0.00     0.029 A 
ATOM     50  N   UNL A   1      40.984  27.829  28.871  1.00  0.00    -0.354 N 
ATOM     51  C   UNL A   1      42.812  31.739  29.335  1.00  0.00     0.074 A 
ATOM     52  C   UNL A   1      41.983  32.602  30.144  1.00  0.00     0.031 C 
ATOM     53  C   UNL A   1      39.476  26.226  29.268  1.00  0.00     0.029 A 
ATOM     54  C   UNL A   1      40.714  26.523  28.550  1.00  0.00     0.049 A 
ATOM     55  H   UNL A   1      41.781  28.310  28.552  1.00  0.00     0.167 HD
ATOM     56  C   UNL A   1      44.001  32.113  28.810  1.00  0.00     0.031 A 
ATOM     57  C   UNL A   1      41.393  25.675  27.756  1.00  0.00     0.031 A 
ATOM     58  C   UNL A   1      44.815  31.256  27.994  1.00  0.00     0.049 A 
ATOM     59  C   UNL A   1      42.672  26.143  27.109  1.00  0.00     0.074 A 
ATOM     60  C   UNL A   1      46.040  31.526  27.413  1.00  0.00     0.029 A 
ATOM     61  N   UNL A   1      44.475  29.959  27.636  1.00  0.00    -0.354 N 
ATOM     62  N   UNL A   1      43.289  27.295  27.225  1.00  0.00    -0.248 NA
ATOM     63  C   UNL A   1      43.355  25.181  26.233  1.00  0.00     0.031 C 
ATOM     64  C   UNL A   1      46.408  30.418  26.644  1.00  0.00     0.029 A 
ATOM     65  C   UNL A   1      45.455  29.426  26.817  1.00  0.00     0.049 A 
ATOM     66  H   UNL A   1      43.659  29.489  27.922  1.00  0.00     0.167 HD
ATOM     67  C   UNL A   1      44.455  27.179  26.477  1.00  0.00     0.074 A 
ATOM     68  C   UNL A   1      44.460  25.842  25.921  1.00  0.00     0.031 C 
ATOM     69  C   UNL A   1      45.440  28.090  26.277  1.00  0.00     0.031 A 
BRANCH  56  70
ATOM     70  C   UNL A   1      44.450  33.527  29.053  1.00  0.00    -0.014 A 
ATOM     71  C   UNL A   1      44.095  34.577  28.190  1.00  0.00     0.009 A 
ATOM     72  C   UNL A   1      45.248  33.811  30.172  1.00  0.00     0.009 A 
ATOM     73  C   UNL A   1      44.564  35.872  28.422  1.00  0.00     0.001 A 
ATOM     74  C   UNL A   1      45.686  35.113  30.421  1.00  0.00     0.001 A 
ATOM     75  C   UNL A   1      45.354  36.140  29.540  1.00  0.00     0.000 A 
ENDBRANCH  56  70
BRANCH  57  76
ATOM     76  C   UNL A   1      40.885  24.298  27.522  1.00  0.00    -0.014 A 
ATOM     77  C   UNL A   1      41.517  23.190  28.108  1.00  0.00     0.009 A 
ATOM     78  C   UNL A   1      39.779  24.080  26.683  1.00  0.00     0.009 A 
ATOM     79  C   UNL A   1      41.075  21.894  27.832  1.00  0.00     0.001 A 
ATOM     80  C   UNL A   1      39.319  22.786  26.437  1.00  0.00     0.001 A 
ATOM     81  C   UNL A   1      39.974  21.693  27.002  1.00  0.00     0.000 A 
ENDBRANCH  57  76
BRANCH  69  82
ATOM     82  C   UNL A   1      46.638  27.647  25.480  1.00  0.00    -0.014 A 
ATOM     83  C   UNL A   1      47.670  26.885  26.051  1.00  0.00     0.009 A 
ATOM     84  C   UNL A   1      46.715  27.980  24.117  1.00  0.00     0.009 A 
ATOM     85  C   UNL A   1      48.778  26.514  25.285  1.00  0.00     0.001 A 
ATOM     86  C   UNL A   1      47.803  27.572  23.346  1.00  0.00     0.001 A 
ATOM     87  C   UNL A   1      48.841  26.853  23.934  1.00  0.00     0.000 A 
ENDBRANCH  69  82
ENDBRANCH  43  44
ENDBRANCH  36  38
ENDBRANCH  35  36
ENDBRANCH  34  35
ENDBRANCH  33  34
ENDBRANCH  32  33
ENDBRANCH  31  32
ENDBRANCH  30  31
ENDBRANCH  29  30
ENDBRANCH   1  29
TORSDOF 23
ENDMDL
MODEL 3
REMARK VINA RESULT:      -9.7      2.324      7.131
REMARK SMILES O=C(COc1ccccc1/C=C1\C(=O)Nc2ccccc21)OCCOCCOCCOCCOC(=O)c1ccc(-c2c3nc(c(-c4ccccc4)c4ccc([nH]4)c(-c4ccccc4)c4nc(c(-c5ccccc5)c5ccc2[nH]5)C=C4)C=C3)cc1
REMARK SMILES IDX 27 1 26 2 25 3 24 4 23 5 22 6 2 7 1 8 3 9 4 10 5 11 6 12
REMARK SMILES IDX 10 13 7 14 9 15 8 16 11 17 12 18 13 19 21 20 14 21 15 22
REMARK SMILES IDX 16 23 20 24 17 26 19 27 18 28 28 29 29 30 30 31 31 32 32 33
REMARK SMILES IDX 33 34 34 35 35 36 36 37 37 38 38 39 84 40 39 41 83 42 40 43
REMARK SMILES IDX 41 44 42 45 77 46 43 47 82 48 76 49 78 50 44 51 81 52 75 53
REMARK SMILES IDX 74 54 45 56 67 57 52 58 66 59 53 60 56 61 65 62 79 63 54 64
REMARK SMILES IDX 55 65 64 67 80 68 57 69 46 70 47 71 51 72 48 73 50 74 49 75
REMARK SMILES IDX 68 76 69 77 73 78 70 79 72 80 71 81 58 82 59 83 63 84 60 85
REMARK SMILES IDX 62 86 61 87
REMARK H PARENT 15 25 78 55 56 66
REMARK Flexibility Score: inf
ROOT
ATOM      1  C   UNL A   1      31.371  30.269  25.350  1.00  0.00     0.188 C 
ENDROOT
BRANCH   1   2
ATOM      2  C   UNL A   1      31.760  28.801  25.075  1.00  0.00     0.188 C 
BRANCH   2   3
ATOM      3  O   UNL A   1      30.849  28.030  24.309  1.00  0.00    -0.376 OA
BRANCH   3   4
ATOM      4  C   UNL A   1      30.603  26.649  24.467  1.00  0.00     0.202 C 
BRANCH   4   5
ATOM      5  C   UNL A   1      30.598  25.706  23.259  1.00  0.00     0.261 C 
BRANCH   5   6
ATOM      6  O   UNL A   1      31.728  25.755  22.364  1.00  0.00    -0.461 OA
BRANCH   6   7
ATOM      7  C   UNL A   1      32.606  24.762  22.085  1.00  0.00     0.344 C 
ATOM      8  O   UNL A   1      33.235  24.784  21.029  1.00  0.00    -0.248 OA
BRANCH   7   9
ATOM      9  C   UNL A   1      32.730  23.614  23.055  1.00  0.00     0.351 C 
BRANCH   9  10
ATOM     10  O   UNL A   1      33.972  22.959  22.877  1.00  0.00    -0.481 OA
BRANCH  10  11
ATOM     11  C   UNL A   1      34.749  23.112  23.980  1.00  0.00     0.127 A 
ATOM     12  C   UNL A   1      34.891  24.443  24.388  1.00  0.00     0.047 A 
ATOM     13  C   UNL A   1      35.361  22.034  24.643  1.00  0.00     0.017 A 
ATOM     14  C   UNL A   1      35.643  24.732  25.509  1.00  0.00     0.004 A 
ATOM     15  C   UNL A   1      36.202  22.375  25.706  1.00  0.00     0.012 A 
ATOM     16  C   UNL A   1      36.310  23.699  26.158  1.00  0.00     0.001 A 
BRANCH  13  17
ATOM     17  C   UNL A   1      35.153  20.598  24.292  1.00  0.00     0.026 C 
ATOM     18  C   UNL A   1      34.241  19.767  24.843  1.00  0.00     0.050 C 
ATOM     19  C   UNL A   1      33.288  20.160  25.958  1.00  0.00     0.256 C 
ATOM     20  C   UNL A   1      34.004  18.320  24.602  1.00  0.00     0.011 A 
ATOM     21  O   UNL A   1      33.002  21.259  26.373  1.00  0.00    -0.269 OA
ATOM     22  N   UNL A   1      32.767  18.969  26.424  1.00  0.00    -0.321 N 
ATOM     23  C   UNL A   1      33.146  17.900  25.630  1.00  0.00     0.049 A 
ATOM     24  C   UNL A   1      34.362  17.404  23.625  1.00  0.00     0.011 A 
ATOM     25  H   UNL A   1      32.195  18.891  27.223  1.00  0.00     0.170 HD
ATOM     26  C   UNL A   1      32.682  16.605  25.774  1.00  0.00     0.027 A 
ATOM     27  C   UNL A   1      33.875  16.083  23.729  1.00  0.00     0.001 A 
ATOM     28  C   UNL A   1      33.055  15.685  24.801  1.00  0.00     0.002 A 
ENDBRANCH  13  17
ENDBRANCH  10  11
ENDBRANCH   9  10
ENDBRANCH   7   9
ENDBRANCH   6   7
ENDBRANCH   5   6
ENDBRANCH   4   5
ENDBRANCH   3   4
ENDBRANCH   2   3
ENDBRANCH   1   2
BRANCH   1  29
ATOM     29  O   UNL A   1      31.984  30.956  26.431  1.00  0.00    -0.377 OA
BRANCH  29  30
ATOM     30  C   UNL A   1      33.217  30.440  26.897  1.00  0.00     0.188 C 
BRANCH  30  31
ATOM     31  C   UNL A   1      33.842  31.278  28.025  1.00  0.00     0.188 C 
BRANCH  31  32
ATOM     32  O   UNL A   1      34.450  32.499  27.662  1.00  0.00    -0.376 OA
BRANCH  32  33
ATOM     33  C   UNL A   1      34.650  33.572  28.567  1.00  0.00     0.202 C 
BRANCH  33  34
ATOM     34  C   UNL A   1      34.840  33.501  30.097  1.00  0.00     0.261 C 
BRANCH  34  35
ATOM     35  O   UNL A   1      36.092  33.082  30.629  1.00  0.00    -0.460 OA
BRANCH  35  36
ATOM     36  C   UNL A   1      36.088  31.980  31.397  1.00  0.00     0.338 C 
ATOM     37  O   UNL A   1      35.284  31.679  32.260  1.00  0.00    -0.246 OA
BRANCH  36  38
ATOM     38  C   UNL A   1      37.121  31.076  30.853  1.00  0.00     0.060 A 
ATOM     39  C   UNL A   1      37.939  30.388  31.760  1.00  0.00     0.016 A 
ATOM     40  C   UNL A   1      37.268  30.893  29.474  1.00  0.00     0.016 A 
ATOM     41  C   UNL A   1      38.960  29.574  31.292  1.00  0.00     0.010 A 
ATOM     42  C   UNL A   1      38.324  30.113  29.003  1.00  0.00     0.010 A 
ATOM     43  C   UNL A   1      39.207  29.511  29.918  1.00  0.00    -0.014 A 
BRANCH  43  44
ATOM     44  C   UNL A   1      40.571  29.133  29.493  1.00  0.00     0.031 A 
ATOM     45  C   UNL A   1      40.761  27.733  28.974  1.00  0.00     0.074 A 
ATOM     46  C   UNL A   1      41.574  30.022  29.470  1.00  0.00     0.049 A 
ATOM     47  N   UNL A   1      41.834  27.162  28.493  1.00  0.00    -0.248 NA
ATOM     48  C   UNL A   1      39.574  26.857  28.995  1.00  0.00     0.031 C 
ATOM     49  C   UNL A   1      41.480  31.423  29.875  1.00  0.00     0.029 A 
ATOM     50  N   UNL A   1      42.875  29.868  29.068  1.00  0.00    -0.354 N 
ATOM     51  C   UNL A   1      41.453  25.864  28.172  1.00  0.00     0.074 A 
ATOM     52  C   UNL A   1      40.065  25.717  28.541  1.00  0.00     0.031 C 
ATOM     53  C   UNL A   1      42.680  32.006  29.695  1.00  0.00     0.029 A 
ATOM     54  C   UNL A   1      43.624  31.010  29.193  1.00  0.00     0.049 A 
ATOM     55  H   UNL A   1      43.236  29.020  28.723  1.00  0.00     0.167 HD
ATOM     56  C   UNL A   1      42.193  24.879  27.615  1.00  0.00     0.031 A 
ATOM     57  C   UNL A   1      44.930  31.213  28.938  1.00  0.00     0.031 A 
ATOM     58  C   UNL A   1      43.578  25.026  27.263  1.00  0.00     0.049 A 
ATOM     59  C   UNL A   1      45.757  30.074  28.399  1.00  0.00     0.074 A 
ATOM     60  C   UNL A   1      44.425  24.098  26.687  1.00  0.00     0.029 A 
ATOM     61  N   UNL A   1      44.321  26.180  27.467  1.00  0.00    -0.354 N 
ATOM     62  N   UNL A   1      45.388  28.854  28.084  1.00  0.00    -0.248 NA
ATOM     63  C   UNL A   1      47.180  30.350  28.164  1.00  0.00     0.031 C 
ATOM     64  C   UNL A   1      45.700  24.666  26.608  1.00  0.00     0.029 A 
ATOM     65  C   UNL A   1      45.626  25.977  27.055  1.00  0.00     0.049 A 
ATOM     66  H   UNL A   1      43.971  27.017  27.849  1.00  0.00     0.167 HD
ATOM     67  C   UNL A   1      46.521  28.234  27.571  1.00  0.00     0.074 A 
ATOM     68  C   UNL A   1      47.585  29.216  27.609  1.00  0.00     0.031 C 
ATOM     69  C   UNL A   1      46.668  26.971  27.099  1.00  0.00     0.031 A 
BRANCH  56  70
ATOM     70  C   UNL A   1      41.529  23.545  27.415  1.00  0.00    -0.014 A 
ATOM     71  C   UNL A   1      41.819  22.442  28.235  1.00  0.00     0.009 A 
ATOM     72  C   UNL A   1      40.593  23.392  26.380  1.00  0.00     0.009 A 
ATOM     73  C   UNL A   1      41.215  21.205  27.996  1.00  0.00     0.001 A 
ATOM     74  C   UNL A   1      39.965  22.164  26.165  1.00  0.00     0.001 A 
ATOM     75  C   UNL A   1      40.285  21.069  26.965  1.00  0.00     0.000 A 
ENDBRANCH  56  70
BRANCH  57  76
ATOM     76  C   UNL A   1      45.544  32.544  29.187  1.00  0.00    -0.014 A 
ATOM     77  C   UNL A   1      46.234  32.804  30.381  1.00  0.00     0.009 A 
ATOM     78  C   UNL A   1      45.415  33.575  28.242  1.00  0.00     0.009 A 
ATOM     79  C   UNL A   1      46.752  34.075  30.638  1.00  0.00     0.001 A 
ATOM     80  C   UNL A   1      45.964  34.835  28.487  1.00  0.00     0.001 A 
ATOM     81  C   UNL A   1      46.621  35.088  29.689  1.00  0.00     0.000 A 
ENDBRANCH  57  76
BRANCH  69  82
ATOM     82  C   UNL A   1      48.009  26.602  26.520  1.00  0.00    -0.014 A 
ATOM     83  C   UNL A   1      49.031  26.051  27.307  1.00  0.00     0.009 A 
ATOM     84  C   UNL A   1      48.235  26.787  25.146  1.00  0.00     0.009 A 
ATOM     85  C   UNL A   1      50.270  25.745  26.739  1.00  0.00     0.001 A 
ATOM     86  C   UNL A   1      49.459  26.442  24.574  1.00  0.00     0.001 A 
ATOM     87  C   UNL A   1      50.481  25.936  25.374  1.00  0.00     0.000 A 
ENDBRANCH  69  82
ENDBRANCH  43  44
ENDBRANCH  36  38
ENDBRANCH  35  36
ENDBRANCH  34  35
ENDBRANCH  33  34
ENDBRANCH  32  33
ENDBRANCH  31  32
ENDBRANCH  30  31
ENDBRANCH  29  30
ENDBRANCH   1  29
TORSDOF 23
ENDMDL
