MODEL 1
REMARK VINA RESULT:      -9.7      0.000      0.000
REMARK SMILES Cc1nsc(N[C@@H](C)C2CCCC2)c1C(=O)OCCOCCOCCOCCOC(=O)c1ccc(-c2c3nc(c(-c4ccccc4)c4ccc([nH]4)c(-c4ccccc4)c4nc(c(-c5ccccc5)c5ccc2[nH]5)C=C4)C=C3)cc1
REMARK SMILES IDX 22 1 21 2 20 3 19 4 18 5 17 6 15 7 16 8 14 9 1 10 2 11 3 12
REMARK SMILES IDX 4 13 5 14 6 15 7 17 8 18 9 19 10 20 13 21 11 22 12 23 23 24
REMARK SMILES IDX 24 25 25 26 26 27 27 28 28 29 29 30 30 31 31 32 32 33 33 34
REMARK SMILES IDX 79 35 34 36 78 37 35 38 36 39 37 40 72 41 38 42 77 43 71 44
REMARK SMILES IDX 73 45 39 46 76 47 70 48 69 49 40 51 62 52 47 53 61 54 48 55
REMARK SMILES IDX 51 56 60 57 74 58 49 59 50 60 59 62 75 63 52 64 41 65 42 66
REMARK SMILES IDX 46 67 43 68 45 69 44 70 63 71 64 72 68 73 65 74 67 75 66 76
REMARK SMILES IDX 53 77 54 78 58 79 55 80 57 81 56 82
REMARK H PARENT 6 16 73 50 51 61
REMARK Flexibility Score: inf
ROOT
ATOM      1  C   UNL A   1      34.903  20.729  25.030  1.00  0.00     0.188 C 
ENDROOT
BRANCH   1   2
ATOM      2  C   UNL A   1      34.021  21.896  24.535  1.00  0.00     0.188 C 
BRANCH   2   3
ATOM      3  O   UNL A   1      33.116  21.528  23.514  1.00  0.00    -0.376 OA
BRANCH   3   4
ATOM      4  C   UNL A   1      32.684  22.474  22.567  1.00  0.00     0.202 C 
BRANCH   4   5
ATOM      5  C   UNL A   1      33.397  23.830  22.457  1.00  0.00     0.261 C 
BRANCH   5   6
ATOM      6  O   UNL A   1      32.608  24.933  21.999  1.00  0.00    -0.460 OA
BRANCH   6   7
ATOM      7  C   UNL A   1      31.671  25.442  22.840  1.00  0.00     0.343 C 
ATOM      8  O   UNL A   1      30.603  24.885  23.084  1.00  0.00    -0.246 OA
BRANCH   7   9
ATOM      9  C   UNL A   1      32.166  26.606  23.569  1.00  0.00     0.117 A 
ATOM     10  C   UNL A   1      32.981  25.470  25.819  1.00  0.00     0.069 C 
ATOM     11  C   UNL A   1      32.786  26.616  24.880  1.00  0.00     0.068 A 
ATOM     12  N   UNL A   1      33.202  27.806  25.311  1.00  0.00    -0.195 NA
ATOM     13  S   UNL A   1      32.742  28.966  24.238  1.00  0.00    -0.018 S 
ATOM     14  C   UNL A   1      31.923  27.919  23.145  1.00  0.00     0.124 A 
BRANCH  14  15
ATOM     15  N   UNL A   1      31.123  28.315  22.108  1.00  0.00    -0.372 N 
ATOM     16  H   UNL A   1      31.535  28.354  21.214  1.00  0.00     0.161 HD
BRANCH  15  17
ATOM     17  C   UNL A   1      29.710  28.685  22.205  1.00  0.00     0.080 C 
ATOM     18  C   UNL A   1      29.161  27.963  23.439  1.00  0.00     0.031 C 
BRANCH  17  19
ATOM     19  C   UNL A   1      29.523  30.226  22.228  1.00  0.00     0.011 C 
ATOM     20  C   UNL A   1      28.333  30.718  21.393  1.00  0.00     0.006 C 
ATOM     21  C   UNL A   1      29.252  30.879  23.588  1.00  0.00     0.006 C 
ATOM     22  C   UNL A   1      28.123  32.160  21.827  1.00  0.00     0.000 C 
ATOM     23  C   UNL A   1      28.576  32.219  23.282  1.00  0.00     0.000 C 
ENDBRANCH  17  19
ENDBRANCH  15  17
ENDBRANCH  14  15
ENDBRANCH   7   9
ENDBRANCH   6   7
ENDBRANCH   5   6
ENDBRANCH   4   5
ENDBRANCH   3   4
ENDBRANCH   2   3
ENDBRANCH   1   2
BRANCH   1  24
ATOM     24  O   UNL A   1      36.090  21.003  25.761  1.00  0.00    -0.377 OA
BRANCH  24  25
ATOM     25  C   UNL A   1      37.300  21.291  25.067  1.00  0.00     0.188 C 
BRANCH  25  26
ATOM     26  C   UNL A   1      38.609  21.719  25.795  1.00  0.00     0.188 C 
BRANCH  26  27
ATOM     27  O   UNL A   1      39.630  20.743  25.895  1.00  0.00    -0.376 OA
BRANCH  27  28
ATOM     28  C   UNL A   1      40.815  20.875  26.651  1.00  0.00     0.202 C 
BRANCH  28  29
ATOM     29  C   UNL A   1      42.013  21.634  26.095  1.00  0.00     0.261 C 
BRANCH  29  30
ATOM     30  O   UNL A   1      43.234  20.953  26.258  1.00  0.00    -0.460 OA
BRANCH  30  31
ATOM     31  C   UNL A   1      44.041  21.036  25.191  1.00  0.00     0.338 C 
ATOM     32  O   UNL A   1      44.284  20.155  24.374  1.00  0.00    -0.246 OA
BRANCH  31  33
ATOM     33  C   UNL A   1      44.694  22.344  25.221  1.00  0.00     0.060 A 
ATOM     34  C   UNL A   1      45.381  22.604  26.401  1.00  0.00     0.016 A 
ATOM     35  C   UNL A   1      44.152  23.354  24.408  1.00  0.00     0.016 A 
ATOM     36  C   UNL A   1      45.166  23.827  26.970  1.00  0.00     0.010 A 
ATOM     37  C   UNL A   1      43.926  24.572  24.984  1.00  0.00     0.010 A 
ATOM     38  C   UNL A   1      44.332  24.735  26.302  1.00  0.00    -0.014 A 
BRANCH  38  39
ATOM     39  C   UNL A   1      43.980  25.931  27.017  1.00  0.00     0.031 A 
ATOM     40  C   UNL A   1      44.955  26.999  26.758  1.00  0.00     0.074 A 
ATOM     41  C   UNL A   1      42.887  26.026  27.793  1.00  0.00     0.049 A 
ATOM     42  N   UNL A   1      45.885  27.408  27.552  1.00  0.00    -0.248 NA
ATOM     43  C   UNL A   1      45.069  27.480  25.372  1.00  0.00     0.031 C 
ATOM     44  C   UNL A   1      41.743  25.115  27.880  1.00  0.00     0.029 A 
ATOM     45  N   UNL A   1      42.531  27.048  28.609  1.00  0.00    -0.354 N 
ATOM     46  C   UNL A   1      46.568  28.372  26.828  1.00  0.00     0.074 A 
ATOM     47  C   UNL A   1      46.182  28.205  25.450  1.00  0.00     0.031 C 
ATOM     48  C   UNL A   1      40.722  25.752  28.502  1.00  0.00     0.029 A 
ATOM     49  C   UNL A   1      41.195  27.041  28.979  1.00  0.00     0.049 A 
ATOM     50  H   UNL A   1      43.166  27.735  28.914  1.00  0.00     0.167 HD
ATOM     51  C   UNL A   1      47.121  29.439  27.460  1.00  0.00     0.031 A 
ATOM     52  C   UNL A   1      40.529  28.073  29.552  1.00  0.00     0.031 A 
ATOM     53  C   UNL A   1      47.279  29.193  28.872  1.00  0.00     0.049 A 
ATOM     54  C   UNL A   1      41.543  28.987  30.133  1.00  0.00     0.074 A 
ATOM     55  C   UNL A   1      48.000  28.302  29.639  1.00  0.00     0.029 A 
ATOM     56  N   UNL A   1      46.290  29.697  29.683  1.00  0.00    -0.354 N 
ATOM     57  N   UNL A   1      42.309  28.666  31.138  1.00  0.00    -0.248 NA
ATOM     58  C   UNL A   1      42.021  30.094  29.319  1.00  0.00     0.031 C 
ATOM     59  C   UNL A   1      47.169  28.016  30.761  1.00  0.00     0.029 A 
ATOM     60  C   UNL A   1      46.004  28.782  30.658  1.00  0.00     0.049 A 
ATOM     61  H   UNL A   1      45.856  30.574  29.577  1.00  0.00     0.167 HD
ATOM     62  C   UNL A   1      43.546  29.218  30.834  1.00  0.00     0.074 A 
ATOM     63  C   UNL A   1      43.277  30.180  29.768  1.00  0.00     0.031 C 
ATOM     64  C   UNL A   1      44.700  28.636  31.276  1.00  0.00     0.031 A 
BRANCH  51  65
ATOM     65  C   UNL A   1      47.005  30.835  26.898  1.00  0.00    -0.014 A 
ATOM     66  C   UNL A   1      48.119  31.684  26.992  1.00  0.00     0.009 A 
ATOM     67  C   UNL A   1      45.775  31.440  26.564  1.00  0.00     0.009 A 
ATOM     68  C   UNL A   1      47.989  33.068  26.838  1.00  0.00     0.001 A 
ATOM     69  C   UNL A   1      45.649  32.815  26.369  1.00  0.00     0.001 A 
ATOM     70  C   UNL A   1      46.753  33.634  26.535  1.00  0.00     0.000 A 
ENDBRANCH  51  65
BRANCH  52  71
ATOM     71  C   UNL A   1      39.134  28.496  29.292  1.00  0.00    -0.014 A 
ATOM     72  C   UNL A   1      38.212  28.634  30.341  1.00  0.00     0.009 A 
ATOM     73  C   UNL A   1      38.781  29.029  28.038  1.00  0.00     0.009 A 
ATOM     74  C   UNL A   1      36.995  29.303  30.147  1.00  0.00     0.001 A 
ATOM     75  C   UNL A   1      37.567  29.696  27.844  1.00  0.00     0.001 A 
ATOM     76  C   UNL A   1      36.678  29.844  28.903  1.00  0.00     0.000 A 
ENDBRANCH  52  71
BRANCH  64  77
ATOM     77  C   UNL A   1      44.592  27.585  32.352  1.00  0.00    -0.014 A 
ATOM     78  C   UNL A   1      44.508  27.881  33.724  1.00  0.00     0.009 A 
ATOM     79  C   UNL A   1      44.407  26.255  31.945  1.00  0.00     0.009 A 
ATOM     80  C   UNL A   1      44.259  26.868  34.658  1.00  0.00     0.001 A 
ATOM     81  C   UNL A   1      44.139  25.249  32.874  1.00  0.00     0.001 A 
ATOM     82  C   UNL A   1      44.068  25.554  34.231  1.00  0.00     0.000 A 
ENDBRANCH  64  77
ENDBRANCH  38  39
ENDBRANCH  31  33
ENDBRANCH  30  31
ENDBRANCH  29  30
ENDBRANCH  28  29
ENDBRANCH  27  28
ENDBRANCH  26  27
ENDBRANCH  25  26
ENDBRANCH  24  25
ENDBRANCH   1  24
TORSDOF 23
ENDMDL
MODEL 2
REMARK VINA RESULT:      -9.6      4.848      9.350
REMARK SMILES Cc1nsc(N[C@@H](C)C2CCCC2)c1C(=O)OCCOCCOCCOCCOC(=O)c1ccc(-c2c3nc(c(-c4ccccc4)c4ccc([nH]4)c(-c4ccccc4)c4nc(c(-c5ccccc5)c5ccc2[nH]5)C=C4)C=C3)cc1
REMARK SMILES IDX 22 1 21 2 20 3 19 4 18 5 17 6 15 7 16 8 14 9 1 10 2 11 3 12
REMARK SMILES IDX 4 13 5 14 6 15 7 17 8 18 9 19 10 20 13 21 11 22 12 23 23 24
REMARK SMILES IDX 24 25 25 26 26 27 27 28 28 29 29 30 30 31 31 32 32 33 33 34
REMARK SMILES IDX 79 35 34 36 78 37 35 38 36 39 37 40 72 41 38 42 77 43 71 44
REMARK SMILES IDX 73 45 39 46 76 47 70 48 69 49 40 51 62 52 47 53 61 54 48 55
REMARK SMILES IDX 51 56 60 57 74 58 49 59 50 60 59 62 75 63 52 64 41 65 42 66
REMARK SMILES IDX 46 67 43 68 45 69 44 70 63 71 64 72 68 73 65 74 67 75 66 76
REMARK SMILES IDX 53 77 54 78 58 79 55 80 57 81 56 82
REMARK H PARENT 6 16 73 50 51 61
REMARK Flexibility Score: inf
ROOT
ATOM      1  C   UNL A   1      35.078  32.844  28.025  1.00  0.00     0.188 C 
ENDROOT
BRANCH   1   2
ATOM      2  C   UNL A   1      33.945  31.796  27.946  1.00  0.00     0.188 C 
BRANCH   2   3
ATOM      3  O   UNL A   1      34.377  30.530  27.491  1.00  0.00    -0.376 OA
BRANCH   3   4
ATOM      4  C   UNL A   1      33.658  29.846  26.494  1.00  0.00     0.202 C 
BRANCH   4   5
ATOM      5  C   UNL A   1      33.556  28.315  26.534  1.00  0.00     0.261 C 
BRANCH   5   6
ATOM      6  O   UNL A   1      32.271  27.751  26.257  1.00  0.00    -0.460 OA
BRANCH   6   7
ATOM      7  C   UNL A   1      32.205  26.430  25.947  1.00  0.00     0.343 C 
ATOM      8  O   UNL A   1      31.615  25.600  26.634  1.00  0.00    -0.246 OA
BRANCH   7   9
ATOM      9  C   UNL A   1      32.731  26.156  24.612  1.00  0.00     0.117 A 
ATOM     10  C   UNL A   1      34.784  24.588  25.203  1.00  0.00     0.069 C 
ATOM     11  C   UNL A   1      33.856  25.304  24.276  1.00  0.00     0.068 A 
ATOM     12  N   UNL A   1      34.110  25.174  22.974  1.00  0.00    -0.195 NA
ATOM     13  S   UNL A   1      33.114  26.170  22.123  1.00  0.00    -0.018 S 
ATOM     14  C   UNL A   1      32.305  26.857  23.476  1.00  0.00     0.124 A 
BRANCH  14  15
ATOM     15  N   UNL A   1      31.466  27.938  23.442  1.00  0.00    -0.372 N 
ATOM     16  H   UNL A   1      31.786  28.766  23.869  1.00  0.00     0.161 HD
BRANCH  15  17
ATOM     17  C   UNL A   1      30.139  27.976  22.828  1.00  0.00     0.080 C 
ATOM     18  C   UNL A   1      29.231  27.118  23.712  1.00  0.00     0.031 C 
BRANCH  17  19
ATOM     19  C   UNL A   1      29.645  29.434  22.626  1.00  0.00     0.011 C 
ATOM     20  C   UNL A   1      28.174  29.536  22.199  1.00  0.00     0.006 C 
ATOM     21  C   UNL A   1      29.691  30.365  23.843  1.00  0.00     0.006 C 
ATOM     22  C   UNL A   1      27.811  31.000  22.400  1.00  0.00     0.000 C 
ATOM     23  C   UNL A   1      28.683  31.482  23.554  1.00  0.00     0.000 C 
ENDBRANCH  17  19
ENDBRANCH  15  17
ENDBRANCH  14  15
ENDBRANCH   7   9
ENDBRANCH   6   7
ENDBRANCH   5   6
ENDBRANCH   4   5
ENDBRANCH   3   4
ENDBRANCH   2   3
ENDBRANCH   1   2
BRANCH   1  24
ATOM     24  O   UNL A   1      34.782  34.218  27.821  1.00  0.00    -0.377 OA
BRANCH  24  25
ATOM     25  C   UNL A   1      33.607  34.784  28.394  1.00  0.00     0.188 C 
BRANCH  25  26
ATOM     26  C   UNL A   1      33.539  36.257  28.895  1.00  0.00     0.188 C 
BRANCH  26  27
ATOM     27  O   UNL A   1      32.511  36.569  29.817  1.00  0.00    -0.376 OA
BRANCH  27  28
ATOM     28  C   UNL A   1      32.452  36.126  31.157  1.00  0.00     0.202 C 
BRANCH  28  29
ATOM     29  C   UNL A   1      33.627  36.343  32.101  1.00  0.00     0.261 C 
BRANCH  29  30
ATOM     30  O   UNL A   1      33.827  35.280  33.002  1.00  0.00    -0.460 OA
BRANCH  30  31
ATOM     31  C   UNL A   1      34.390  34.201  32.440  1.00  0.00     0.338 C 
ATOM     32  O   UNL A   1      33.920  33.494  31.556  1.00  0.00    -0.246 OA
BRANCH  31  33
ATOM     33  C   UNL A   1      35.638  33.922  33.150  1.00  0.00     0.060 A 
ATOM     34  C   UNL A   1      36.678  34.785  32.823  1.00  0.00     0.016 A 
ATOM     35  C   UNL A   1      35.843  32.607  33.600  1.00  0.00     0.016 A 
ATOM     36  C   UNL A   1      37.884  34.205  32.553  1.00  0.00     0.010 A 
ATOM     37  C   UNL A   1      37.046  32.026  33.317  1.00  0.00     0.010 A 
ATOM     38  C   UNL A   1      37.999  32.814  32.683  1.00  0.00    -0.014 A 
BRANCH  38  39
ATOM     39  C   UNL A   1      39.220  32.222  32.212  1.00  0.00     0.031 A 
ATOM     40  C   UNL A   1      40.275  32.323  33.231  1.00  0.00     0.074 A 
ATOM     41  C   UNL A   1      39.338  31.647  31.004  1.00  0.00     0.049 A 
ATOM     42  N   UNL A   1      41.270  33.141  33.237  1.00  0.00    -0.248 NA
ATOM     43  C   UNL A   1      40.048  31.615  34.501  1.00  0.00     0.031 C 
ATOM     44  C   UNL A   1      38.281  31.269  30.062  1.00  0.00     0.029 A 
ATOM     45  N   UNL A   1      40.463  31.181  30.409  1.00  0.00    -0.354 N 
ATOM     46  C   UNL A   1      41.929  32.887  34.429  1.00  0.00     0.074 A 
ATOM     47  C   UNL A   1      41.021  32.128  35.250  1.00  0.00     0.031 C 
ATOM     48  C   UNL A   1      38.795  30.414  29.146  1.00  0.00     0.029 A 
ATOM     49  C   UNL A   1      40.230  30.310  29.356  1.00  0.00     0.049 A 
ATOM     50  H   UNL A   1      41.367  31.438  30.698  1.00  0.00     0.167 HD
ATOM     51  C   UNL A   1      43.279  33.019  34.508  1.00  0.00     0.031 A 
ATOM     52  C   UNL A   1      41.154  29.505  28.777  1.00  0.00     0.031 A 
ATOM     53  C   UNL A   1      43.794  33.826  33.429  1.00  0.00     0.049 A 
ATOM     54  C   UNL A   1      42.491  30.047  29.121  1.00  0.00     0.074 A 
ATOM     55  C   UNL A   1      43.639  35.134  33.021  1.00  0.00     0.029 A 
ATOM     56  N   UNL A   1      44.297  33.136  32.351  1.00  0.00    -0.354 N 
ATOM     57  N   UNL A   1      42.935  31.195  28.691  1.00  0.00    -0.248 NA
ATOM     58  C   UNL A   1      43.164  29.527  30.301  1.00  0.00     0.031 C 
ATOM     59  C   UNL A   1      43.685  35.090  31.597  1.00  0.00     0.029 A 
ATOM     60  C   UNL A   1      43.918  33.770  31.201  1.00  0.00     0.049 A 
ATOM     61  H   UNL A   1      44.841  32.318  32.400  1.00  0.00     0.167 HD
ATOM     62  C   UNL A   1      43.620  31.740  29.769  1.00  0.00     0.074 A 
ATOM     63  C   UNL A   1      43.828  30.622  30.685  1.00  0.00     0.031 C 
ATOM     64  C   UNL A   1      43.697  33.093  29.937  1.00  0.00     0.031 A 
BRANCH  51  65
ATOM     65  C   UNL A   1      44.130  31.998  35.222  1.00  0.00    -0.014 A 
ATOM     66  C   UNL A   1      45.070  32.456  36.159  1.00  0.00     0.009 A 
ATOM     67  C   UNL A   1      44.260  30.660  34.798  1.00  0.00     0.009 A 
ATOM     68  C   UNL A   1      46.125  31.640  36.584  1.00  0.00     0.001 A 
ATOM     69  C   UNL A   1      45.285  29.830  35.251  1.00  0.00     0.001 A 
ATOM     70  C   UNL A   1      46.237  30.331  36.123  1.00  0.00     0.000 A 
ENDBRANCH  51  65
BRANCH  52  71
ATOM     71  C   UNL A   1      40.960  28.121  28.289  1.00  0.00    -0.014 A 
ATOM     72  C   UNL A   1      40.282  27.168  29.065  1.00  0.00     0.009 A 
ATOM     73  C   UNL A   1      41.204  27.809  26.938  1.00  0.00     0.009 A 
ATOM     74  C   UNL A   1      39.844  25.960  28.502  1.00  0.00     0.001 A 
ATOM     75  C   UNL A   1      40.768  26.604  26.376  1.00  0.00     0.001 A 
ATOM     76  C   UNL A   1      40.076  25.684  27.156  1.00  0.00     0.000 A 
ENDBRANCH  52  71
BRANCH  64  77
ATOM     77  C   UNL A   1      43.307  33.972  28.775  1.00  0.00    -0.014 A 
ATOM     78  C   UNL A   1      42.151  34.772  28.759  1.00  0.00     0.009 A 
ATOM     79  C   UNL A   1      44.229  34.112  27.727  1.00  0.00     0.009 A 
ATOM     80  C   UNL A   1      41.924  35.676  27.714  1.00  0.00     0.001 A 
ATOM     81  C   UNL A   1      44.013  35.026  26.696  1.00  0.00     0.001 A 
ATOM     82  C   UNL A   1      42.859  35.807  26.687  1.00  0.00     0.000 A 
ENDBRANCH  64  77
ENDBRANCH  38  39
ENDBRANCH  31  33
ENDBRANCH  30  31
ENDBRANCH  29  30
ENDBRANCH  28  29
ENDBRANCH  27  28
ENDBRANCH  26  27
ENDBRANCH  25  26
ENDBRANCH  24  25
ENDBRANCH   1  24
TORSDOF 23
ENDMDL
MODEL 3
REMARK VINA RESULT:      -9.6      5.170     11.027
REMARK SMILES Cc1nsc(N[C@@H](C)C2CCCC2)c1C(=O)OCCOCCOCCOCCOC(=O)c1ccc(-c2c3nc(c(-c4ccccc4)c4ccc([nH]4)c(-c4ccccc4)c4nc(c(-c5ccccc5)c5ccc2[nH]5)C=C4)C=C3)cc1
REMARK SMILES IDX 22 1 21 2 20 3 19 4 18 5 17 6 15 7 16 8 14 9 1 10 2 11 3 12
REMARK SMILES IDX 4 13 5 14 6 15 7 17 8 18 9 19 10 20 13 21 11 22 12 23 23 24
REMARK SMILES IDX 24 25 25 26 26 27 27 28 28 29 29 30 30 31 31 32 32 33 33 34
REMARK SMILES IDX 79 35 34 36 78 37 35 38 36 39 37 40 72 41 38 42 77 43 71 44
REMARK SMILES IDX 73 45 39 46 76 47 70 48 69 49 40 51 62 52 47 53 61 54 48 55
REMARK SMILES IDX 51 56 60 57 74 58 49 59 50 60 59 62 75 63 52 64 41 65 42 66
REMARK SMILES IDX 46 67 43 68 45 69 44 70 63 71 64 72 68 73 65 74 67 75 66 76
REMARK SMILES IDX 53 77 54 78 58 79 55 80 57 81 56 82
REMARK H PARENT 6 16 73 50 51 61
REMARK Flexibility Score: inf
ROOT
ATOM      1  C   UNL A   1      45.299  27.655  25.255  1.00  0.00     0.188 C 
ENDROOT
BRANCH   1   2
ATOM      2  C   UNL A   1      45.908  26.269  25.564  1.00  0.00     0.188 C 
BRANCH   2   3
ATOM      3  O   UNL A   1      46.358  25.580  24.415  1.00  0.00    -0.376 OA
BRANCH   3   4
ATOM      4  C   UNL A   1      47.251  24.500  24.534  1.00  0.00     0.202 C 
BRANCH   4   5
ATOM      5  C   UNL A   1      46.812  23.090  24.111  1.00  0.00     0.261 C 
BRANCH   5   6
ATOM      6  O   UNL A   1      45.466  22.718  24.424  1.00  0.00    -0.460 OA
BRANCH   6   7
ATOM      7  C   UNL A   1      45.220  22.179  25.647  1.00  0.00     0.343 C 
ATOM      8  O   UNL A   1      45.299  22.811  26.696  1.00  0.00    -0.246 OA
BRANCH   7   9
ATOM      9  C   UNL A   1      44.654  20.836  25.547  1.00  0.00     0.117 A 
ATOM     10  C   UNL A   1      46.768  19.469  24.722  1.00  0.00     0.069 C 
ATOM     11  C   UNL A   1      45.352  19.621  25.173  1.00  0.00     0.068 A 
ATOM     12  N   UNL A   1      44.622  18.505  25.205  1.00  0.00    -0.195 NA
ATOM     13  S   UNL A   1      43.057  18.888  25.540  1.00  0.00    -0.018 S 
ATOM     14  C   UNL A   1      43.277  20.592  25.627  1.00  0.00     0.124 A 
BRANCH  14  15
ATOM     15  N   UNL A   1      42.277  21.524  25.684  1.00  0.00    -0.372 N 
ATOM     16  H   UNL A   1      42.120  22.062  24.873  1.00  0.00     0.161 HD
BRANCH  15  17
ATOM     17  C   UNL A   1      41.418  21.793  26.837  1.00  0.00     0.080 C 
ATOM     18  C   UNL A   1      42.305  21.649  28.077  1.00  0.00     0.031 C 
BRANCH  17  19
ATOM     19  C   UNL A   1      40.709  23.169  26.713  1.00  0.00     0.011 C 
ATOM     20  C   UNL A   1      39.183  23.070  26.583  1.00  0.00     0.006 C 
ATOM     21  C   UNL A   1      40.868  24.148  27.883  1.00  0.00     0.006 C 
ATOM     22  C   UNL A   1      38.680  24.485  26.828  1.00  0.00     0.000 C 
ATOM     23  C   UNL A   1      39.688  25.119  27.780  1.00  0.00     0.000 C 
ENDBRANCH  17  19
ENDBRANCH  15  17
ENDBRANCH  14  15
ENDBRANCH   7   9
ENDBRANCH   6   7
ENDBRANCH   5   6
ENDBRANCH   4   5
ENDBRANCH   3   4
ENDBRANCH   2   3
ENDBRANCH   1   2
BRANCH   1  24
ATOM     24  O   UNL A   1      46.154  28.755  24.981  1.00  0.00    -0.377 OA
BRANCH  24  25
ATOM     25  C   UNL A   1      46.488  29.670  26.020  1.00  0.00     0.188 C 
BRANCH  25  26
ATOM     26  C   UNL A   1      45.413  30.376  26.899  1.00  0.00     0.188 C 
BRANCH  26  27
ATOM     27  O   UNL A   1      44.649  31.393  26.277  1.00  0.00    -0.376 OA
BRANCH  27  28
ATOM     28  C   UNL A   1      44.300  32.628  26.865  1.00  0.00     0.202 C 
BRANCH  28  29
ATOM     29  C   UNL A   1      45.141  33.873  26.620  1.00  0.00     0.261 C 
BRANCH  29  30
ATOM     30  O   UNL A   1      45.385  34.624  27.786  1.00  0.00    -0.460 OA
BRANCH  30  31
ATOM     31  C   UNL A   1      44.859  35.856  27.750  1.00  0.00     0.338 C 
ATOM     32  O   UNL A   1      45.288  36.829  27.141  1.00  0.00    -0.246 OA
BRANCH  31  33
ATOM     33  C   UNL A   1      43.724  35.889  28.671  1.00  0.00     0.060 A 
ATOM     34  C   UNL A   1      44.048  35.544  29.978  1.00  0.00     0.016 A 
ATOM     35  C   UNL A   1      42.443  35.705  28.123  1.00  0.00     0.016 A 
ATOM     36  C   UNL A   1      43.220  34.648  30.591  1.00  0.00     0.010 A 
ATOM     37  C   UNL A   1      41.622  34.799  28.731  1.00  0.00     0.010 A 
ATOM     38  C   UNL A   1      42.091  34.197  29.893  1.00  0.00    -0.014 A 
BRANCH  38  39
ATOM     39  C   UNL A   1      41.352  33.120  30.490  1.00  0.00     0.031 A 
ATOM     40  C   UNL A   1      41.986  31.827  30.197  1.00  0.00     0.074 A 
ATOM     41  C   UNL A   1      40.244  33.310  31.227  1.00  0.00     0.049 A 
ATOM     42  N   UNL A   1      41.593  30.947  29.342  1.00  0.00    -0.248 NA
ATOM     43  C   UNL A   1      43.343  31.613  30.726  1.00  0.00     0.031 C 
ATOM     44  C   UNL A   1      39.717  34.559  31.783  1.00  0.00     0.029 A 
ATOM     45  N   UNL A   1      39.401  32.371  31.722  1.00  0.00    -0.354 N 
ATOM     46  C   UNL A   1      42.554  29.950  29.393  1.00  0.00     0.074 A 
ATOM     47  C   UNL A   1      43.697  30.512  30.066  1.00  0.00     0.031 C 
ATOM     48  C   UNL A   1      38.803  34.262  32.737  1.00  0.00     0.029 A 
ATOM     49  C   UNL A   1      38.583  32.825  32.744  1.00  0.00     0.049 A 
ATOM     50  H   UNL A   1      39.373  31.447  31.385  1.00  0.00     0.167 HD
ATOM     51  C   UNL A   1      42.208  28.653  29.191  1.00  0.00     0.031 A 
ATOM     52  C   UNL A   1      37.858  32.044  33.582  1.00  0.00     0.031 A 
ATOM     53  C   UNL A   1      40.933  28.545  28.524  1.00  0.00     0.049 A 
ATOM     54  C   UNL A   1      37.715  30.716  32.936  1.00  0.00     0.074 A 
ATOM     55  C   UNL A   1      40.432  28.923  27.296  1.00  0.00     0.029 A 
ATOM     56  N   UNL A   1      39.848  28.320  29.338  1.00  0.00    -0.354 N 
ATOM     57  N   UNL A   1      37.033  30.517  31.843  1.00  0.00    -0.248 NA
ATOM     58  C   UNL A   1      38.694  29.687  33.251  1.00  0.00     0.031 C 
ATOM     59  C   UNL A   1      39.076  29.290  27.542  1.00  0.00     0.029 A 
ATOM     60  C   UNL A   1      38.795  29.071  28.893  1.00  0.00     0.049 A 
ATOM     61  H   UNL A   1      39.832  27.717  30.116  1.00  0.00     0.167 HD
ATOM     62  C   UNL A   1      37.780  29.597  31.119  1.00  0.00     0.074 A 
ATOM     63  C   UNL A   1      38.723  29.037  32.084  1.00  0.00     0.031 C 
ATOM     64  C   UNL A   1      37.749  29.590  29.754  1.00  0.00     0.031 A 
BRANCH  51  65
ATOM     65  C   UNL A   1      42.754  27.546  30.059  1.00  0.00    -0.014 A 
ATOM     66  C   UNL A   1      42.874  27.782  31.438  1.00  0.00     0.009 A 
ATOM     67  C   UNL A   1      43.428  26.418  29.549  1.00  0.00     0.009 A 
ATOM     68  C   UNL A   1      43.689  26.976  32.241  1.00  0.00     0.001 A 
ATOM     69  C   UNL A   1      44.208  25.587  30.354  1.00  0.00     0.001 A 
ATOM     70  C   UNL A   1      44.362  25.885  31.697  1.00  0.00     0.000 A 
ENDBRANCH  51  65
BRANCH  52  71
ATOM     71  C   UNL A   1      37.626  32.253  35.029  1.00  0.00    -0.014 A 
ATOM     72  C   UNL A   1      38.539  31.783  35.984  1.00  0.00     0.009 A 
ATOM     73  C   UNL A   1      36.636  33.157  35.461  1.00  0.00     0.009 A 
ATOM     74  C   UNL A   1      38.479  32.221  37.315  1.00  0.00     0.001 A 
ATOM     75  C   UNL A   1      36.576  33.594  36.788  1.00  0.00     0.001 A 
ATOM     76  C   UNL A   1      37.506  33.135  37.714  1.00  0.00     0.000 A 
ENDBRANCH  52  71
BRANCH  64  77
ATOM     77  C   UNL A   1      36.658  30.376  29.069  1.00  0.00    -0.014 A 
ATOM     78  C   UNL A   1      36.688  31.772  28.910  1.00  0.00     0.009 A 
ATOM     79  C   UNL A   1      35.644  29.653  28.423  1.00  0.00     0.009 A 
ATOM     80  C   UNL A   1      35.720  32.423  28.136  1.00  0.00     0.001 A 
ATOM     81  C   UNL A   1      34.691  30.299  27.635  1.00  0.00     0.001 A 
ATOM     82  C   UNL A   1      34.726  31.684  27.494  1.00  0.00     0.000 A 
ENDBRANCH  64  77
ENDBRANCH  38  39
ENDBRANCH  31  33
ENDBRANCH  30  31
ENDBRANCH  29  30
ENDBRANCH  28  29
ENDBRANCH  27  28
ENDBRANCH  26  27
ENDBRANCH  25  26
ENDBRANCH  24  25
ENDBRANCH   1  24
TORSDOF 23
ENDMDL
