MODEL 1
REMARK VINA RESULT:      -9.0      0.000      0.000
REMARK SMILES [NH3+][C@@H](CCCCC(=O)OCCOCCOCCOCCOC(=O)c1ccc(-c2c3nc(c(-c4ccccc4)c4ccc([nH]4)c(-c4ccccc4)c4nc(c(-c5ccccc5)c5ccc2[nH]5)C=C4)C=C3)cc1)c1ccc2[nH]c(=O)[nH]c2c1
REMARK SMILES IDX 13 1 12 2 11 3 10 4 9 5 7 6 8 7 6 8 5 9 4 10 3 11 2 12 1 13
REMARK SMILES IDX 72 17 73 18 81 19 74 20 80 21 75 22 79 23 76 24 77 25 78 28
REMARK SMILES IDX 14 29 15 30 16 31 17 32 18 33 19 34 20 35 21 36 22 37 23 38
REMARK SMILES IDX 24 39 25 40 71 41 26 42 70 43 27 44 28 45 29 46 64 47 30 48
REMARK SMILES IDX 69 49 63 50 65 51 31 52 68 53 62 54 61 55 32 57 54 58 39 59
REMARK SMILES IDX 53 60 40 61 43 62 52 63 66 64 41 65 42 66 51 68 67 69 44 70
REMARK SMILES IDX 33 71 34 72 38 73 35 74 37 75 36 76 55 77 56 78 60 79 57 80
REMARK SMILES IDX 59 81 58 82 45 83 46 84 50 85 47 86 49 87 48 88
REMARK H PARENT 1 14 1 15 1 16 79 26 76 27 65 56 43 67
REMARK Flexibility Score: inf
ROOT
ATOM      1  C   UNL A   1      31.770  24.245  26.786  1.00  0.00     0.188 C 
ENDROOT
BRANCH   1   2
ATOM      2  O   UNL A   1      30.537  24.191  26.103  1.00  0.00    -0.376 OA
BRANCH   2   3
ATOM      3  C   UNL A   1      30.152  25.197  25.179  1.00  0.00     0.202 C 
BRANCH   3   4
ATOM      4  C   UNL A   1      30.612  25.256  23.711  1.00  0.00     0.261 C 
BRANCH   4   5
ATOM      5  O   UNL A   1      31.640  24.334  23.353  1.00  0.00    -0.463 OA
BRANCH   5   6
ATOM      6  C   UNL A   1      32.877  24.868  23.273  1.00  0.00     0.305 C 
ATOM      7  O   UNL A   1      33.825  24.362  22.680  1.00  0.00    -0.252 OA
BRANCH   6   8
ATOM      8  C   UNL A   1      32.964  26.274  23.799  1.00  0.00     0.123 C 
BRANCH   8   9
ATOM      9  C   UNL A   1      34.029  26.714  24.808  1.00  0.00     0.012 C 
BRANCH   9  10
ATOM     10  C   UNL A   1      33.815  28.020  25.559  1.00  0.00     0.007 C 
BRANCH  10  11
ATOM     11  C   UNL A   1      32.367  28.478  25.814  1.00  0.00     0.070 C 
BRANCH  11  12
ATOM     12  C   UNL A   1      31.900  29.891  25.315  1.00  0.00     0.212 C 
BRANCH  12  13
ATOM     13  N   UNL A   1      31.720  30.771  26.481  1.00  0.00    -0.351 N 
ATOM     14  H   UNL A   1      30.928  30.445  27.034  1.00  0.00     0.345 HD
ATOM     15  H   UNL A   1      31.544  31.724  26.164  1.00  0.00     0.345 HD
ATOM     16  H   UNL A   1      32.565  30.754  27.053  1.00  0.00     0.345 HD
ENDBRANCH  12  13
BRANCH  12  17
ATOM     17  C   UNL A   1      30.673  29.975  24.408  1.00  0.00     0.011 A 
ATOM     18  C   UNL A   1      30.401  28.979  23.428  1.00  0.00     0.012 A 
ATOM     19  C   UNL A   1      29.821  31.074  24.459  1.00  0.00     0.038 A 
ATOM     20  C   UNL A   1      29.447  29.173  22.413  1.00  0.00     0.029 A 
ATOM     21  C   UNL A   1      29.085  31.357  23.338  1.00  0.00     0.067 A 
ATOM     22  C   UNL A   1      28.881  30.419  22.342  1.00  0.00     0.066 A 
ATOM     23  N   UNL A   1      28.590  32.580  22.892  1.00  0.00    -0.306 N 
ATOM     24  N   UNL A   1      28.180  31.035  21.311  1.00  0.00    -0.306 N 
ATOM     25  C   UNL A   1      28.069  32.403  21.603  1.00  0.00     0.323 A 
ATOM     26  H   UNL A   1      28.605  33.425  23.396  1.00  0.00     0.171 HD
ATOM     27  H   UNL A   1      27.822  30.586  20.511  1.00  0.00     0.171 HD
ATOM     28  O   UNL A   1      27.659  33.278  20.861  1.00  0.00    -0.248 OA
ENDBRANCH  12  17
ENDBRANCH  11  12
ENDBRANCH  10  11
ENDBRANCH   9  10
ENDBRANCH   8   9
ENDBRANCH   6   8
ENDBRANCH   5   6
ENDBRANCH   4   5
ENDBRANCH   3   4
ENDBRANCH   2   3
ENDBRANCH   1   2
BRANCH   1  29
ATOM     29  C   UNL A   1      32.484  22.887  26.894  1.00  0.00     0.188 C 
BRANCH  29  30
ATOM     30  O   UNL A   1      33.854  22.866  27.267  1.00  0.00    -0.377 OA
BRANCH  30  31
ATOM     31  C   UNL A   1      34.852  23.359  26.383  1.00  0.00     0.188 C 
BRANCH  31  32
ATOM     32  C   UNL A   1      35.482  22.423  25.335  1.00  0.00     0.188 C 
BRANCH  32  33
ATOM     33  O   UNL A   1      36.183  21.314  25.862  1.00  0.00    -0.376 OA
BRANCH  33  34
ATOM     34  C   UNL A   1      36.662  20.324  24.965  1.00  0.00     0.202 C 
BRANCH  34  35
ATOM     35  C   UNL A   1      38.176  20.068  24.888  1.00  0.00     0.261 C 
BRANCH  35  36
ATOM     36  O   UNL A   1      38.972  20.587  25.968  1.00  0.00    -0.460 OA
BRANCH  36  37
ATOM     37  C   UNL A   1      40.255  20.185  26.063  1.00  0.00     0.338 C 
ATOM     38  O   UNL A   1      40.745  19.147  25.646  1.00  0.00    -0.246 OA
BRANCH  37  39
ATOM     39  C   UNL A   1      41.039  21.311  26.601  1.00  0.00     0.060 A 
ATOM     40  C   UNL A   1      41.061  21.532  27.985  1.00  0.00     0.016 A 
ATOM     41  C   UNL A   1      41.732  22.160  25.736  1.00  0.00     0.016 A 
ATOM     42  C   UNL A   1      41.746  22.625  28.507  1.00  0.00     0.010 A 
ATOM     43  C   UNL A   1      42.394  23.273  26.258  1.00  0.00     0.010 A 
ATOM     44  C   UNL A   1      42.370  23.530  27.641  1.00  0.00    -0.014 A 
BRANCH  44  45
ATOM     45  C   UNL A   1      42.801  24.850  28.157  1.00  0.00     0.031 A 
ATOM     46  C   UNL A   1      41.751  25.908  28.366  1.00  0.00     0.074 A 
ATOM     47  C   UNL A   1      44.084  25.099  28.465  1.00  0.00     0.049 A 
ATOM     48  N   UNL A   1      41.887  27.147  28.760  1.00  0.00    -0.248 NA
ATOM     49  C   UNL A   1      40.360  25.511  28.088  1.00  0.00     0.031 C 
ATOM     50  C   UNL A   1      45.183  24.139  28.370  1.00  0.00     0.029 A 
ATOM     51  N   UNL A   1      44.678  26.249  28.920  1.00  0.00    -0.354 N 
ATOM     52  C   UNL A   1      40.604  27.680  28.764  1.00  0.00     0.074 A 
ATOM     53  C   UNL A   1      39.708  26.642  28.307  1.00  0.00     0.031 C 
ATOM     54  C   UNL A   1      46.322  24.745  28.747  1.00  0.00     0.029 A 
ATOM     55  C   UNL A   1      46.039  26.142  29.072  1.00  0.00     0.049 A 
ATOM     56  H   UNL A   1      44.176  27.074  29.119  1.00  0.00     0.167 HD
ATOM     57  C   UNL A   1      40.205  28.924  29.120  1.00  0.00     0.031 A 
ATOM     58  C   UNL A   1      46.951  27.075  29.408  1.00  0.00     0.031 A 
ATOM     59  C   UNL A   1      41.100  29.962  29.559  1.00  0.00     0.049 A 
ATOM     60  C   UNL A   1      46.495  28.481  29.706  1.00  0.00     0.074 A 
ATOM     61  C   UNL A   1      40.796  31.253  29.951  1.00  0.00     0.029 A 
ATOM     62  N   UNL A   1      42.478  29.829  29.648  1.00  0.00    -0.354 N 
ATOM     63  N   UNL A   1      45.279  28.971  29.726  1.00  0.00    -0.248 NA
ATOM     64  C   UNL A   1      47.542  29.459  30.035  1.00  0.00     0.031 C 
ATOM     65  C   UNL A   1      41.995  31.923  30.211  1.00  0.00     0.029 A 
ATOM     66  C   UNL A   1      43.041  31.026  30.058  1.00  0.00     0.049 A 
ATOM     67  H   UNL A   1      42.979  29.005  29.452  1.00  0.00     0.167 HD
ATOM     68  C   UNL A   1      45.411  30.303  30.102  1.00  0.00     0.074 A 
ATOM     69  C   UNL A   1      46.824  30.538  30.314  1.00  0.00     0.031 C 
ATOM     70  C   UNL A   1      44.449  31.245  30.262  1.00  0.00     0.031 A 
BRANCH  57  71
ATOM     71  C   UNL A   1      38.740  29.243  28.999  1.00  0.00    -0.014 A 
ATOM     72  C   UNL A   1      38.172  29.644  27.780  1.00  0.00     0.009 A 
ATOM     73  C   UNL A   1      37.910  29.118  30.125  1.00  0.00     0.009 A 
ATOM     74  C   UNL A   1      36.812  29.951  27.701  1.00  0.00     0.001 A 
ATOM     75  C   UNL A   1      36.545  29.393  30.035  1.00  0.00     0.001 A 
ATOM     76  C   UNL A   1      35.999  29.819  28.826  1.00  0.00     0.000 A 
ENDBRANCH  57  71
BRANCH  58  77
ATOM     77  C   UNL A   1      48.395  26.722  29.460  1.00  0.00    -0.014 A 
ATOM     78  C   UNL A   1      49.195  26.801  28.309  1.00  0.00     0.009 A 
ATOM     79  C   UNL A   1      48.976  26.278  30.658  1.00  0.00     0.009 A 
ATOM     80  C   UNL A   1      50.538  26.419  28.353  1.00  0.00     0.001 A 
ATOM     81  C   UNL A   1      50.327  25.927  30.707  1.00  0.00     0.001 A 
ATOM     82  C   UNL A   1      51.104  25.988  29.551  1.00  0.00     0.000 A 
ENDBRANCH  58  77
BRANCH  70  83
ATOM     83  C   UNL A   1      44.884  32.607  30.732  1.00  0.00    -0.014 A 
ATOM     84  C   UNL A   1      44.931  32.937  32.095  1.00  0.00     0.009 A 
ATOM     85  C   UNL A   1      45.300  33.563  29.789  1.00  0.00     0.009 A 
ATOM     86  C   UNL A   1      45.348  34.207  32.502  1.00  0.00     0.001 A 
ATOM     87  C   UNL A   1      45.750  34.818  30.200  1.00  0.00     0.001 A 
ATOM     88  C   UNL A   1      45.763  35.143  31.555  1.00  0.00     0.000 A 
ENDBRANCH  70  83
ENDBRANCH  44  45
ENDBRANCH  37  39
ENDBRANCH  36  37
ENDBRANCH  35  36
ENDBRANCH  34  35
ENDBRANCH  33  34
ENDBRANCH  32  33
ENDBRANCH  31  32
ENDBRANCH  30  31
ENDBRANCH  29  30
ENDBRANCH   1  29
TORSDOF 26
ENDMDL
MODEL 2
REMARK VINA RESULT:      -8.9      1.502      5.719
REMARK SMILES [NH3+][C@@H](CCCCC(=O)OCCOCCOCCOCCOC(=O)c1ccc(-c2c3nc(c(-c4ccccc4)c4ccc([nH]4)c(-c4ccccc4)c4nc(c(-c5ccccc5)c5ccc2[nH]5)C=C4)C=C3)cc1)c1ccc2[nH]c(=O)[nH]c2c1
REMARK SMILES IDX 13 1 12 2 11 3 10 4 9 5 7 6 8 7 6 8 5 9 4 10 3 11 2 12 1 13
REMARK SMILES IDX 72 17 73 18 81 19 74 20 80 21 75 22 79 23 76 24 77 25 78 28
REMARK SMILES IDX 14 29 15 30 16 31 17 32 18 33 19 34 20 35 21 36 22 37 23 38
REMARK SMILES IDX 24 39 25 40 71 41 26 42 70 43 27 44 28 45 29 46 64 47 30 48
REMARK SMILES IDX 69 49 63 50 65 51 31 52 68 53 62 54 61 55 32 57 54 58 39 59
REMARK SMILES IDX 53 60 40 61 43 62 52 63 66 64 41 65 42 66 51 68 67 69 44 70
REMARK SMILES IDX 33 71 34 72 38 73 35 74 37 75 36 76 55 77 56 78 60 79 57 80
REMARK SMILES IDX 59 81 58 82 45 83 46 84 50 85 47 86 49 87 48 88
REMARK H PARENT 1 14 1 15 1 16 79 26 76 27 65 56 43 67
REMARK Flexibility Score: inf
ROOT
ATOM      1  C   UNL A   1      31.839  22.741  25.398  1.00  0.00     0.188 C 
ENDROOT
BRANCH   1   2
ATOM      2  O   UNL A   1      31.080  22.746  24.209  1.00  0.00    -0.376 OA
BRANCH   2   3
ATOM      3  C   UNL A   1      30.760  23.953  23.535  1.00  0.00     0.202 C 
BRANCH   3   4
ATOM      4  C   UNL A   1      31.780  24.838  22.795  1.00  0.00     0.261 C 
BRANCH   4   5
ATOM      5  O   UNL A   1      32.950  24.166  22.329  1.00  0.00    -0.463 OA
BRANCH   5   6
ATOM      6  C   UNL A   1      34.078  24.456  23.012  1.00  0.00     0.305 C 
ATOM      7  O   UNL A   1      35.156  23.888  22.861  1.00  0.00    -0.252 OA
BRANCH   6   8
ATOM      8  C   UNL A   1      33.978  25.702  23.847  1.00  0.00     0.123 C 
BRANCH   8   9
ATOM      9  C   UNL A   1      34.104  25.686  25.373  1.00  0.00     0.012 C 
BRANCH   9  10
ATOM     10  C   UNL A   1      33.337  26.730  26.172  1.00  0.00     0.007 C 
BRANCH  10  11
ATOM     11  C   UNL A   1      31.987  27.217  25.613  1.00  0.00     0.070 C 
BRANCH  11  12
ATOM     12  C   UNL A   1      31.956  28.388  24.568  1.00  0.00     0.212 C 
BRANCH  12  13
ATOM     13  N   UNL A   1      32.658  29.550  25.136  1.00  0.00    -0.351 N 
ATOM     14  H   UNL A   1      31.992  30.305  25.294  1.00  0.00     0.345 HD
ATOM     15  H   UNL A   1      33.379  29.863  24.487  1.00  0.00     0.345 HD
ATOM     16  H   UNL A   1      33.090  29.286  26.022  1.00  0.00     0.345 HD
ENDBRANCH  12  13
BRANCH  12  17
ATOM     17  C   UNL A   1      30.605  28.824  24.002  1.00  0.00     0.011 A 
ATOM     18  C   UNL A   1      29.635  27.875  23.575  1.00  0.00     0.012 A 
ATOM     19  C   UNL A   1      30.312  30.171  23.813  1.00  0.00     0.038 A 
ATOM     20  C   UNL A   1      28.516  28.245  22.808  1.00  0.00     0.029 A 
ATOM     21  C   UNL A   1      29.371  30.487  22.867  1.00  0.00     0.067 A 
ATOM     22  C   UNL A   1      28.474  29.549  22.387  1.00  0.00     0.066 A 
ATOM     23  N   UNL A   1      29.239  31.645  22.105  1.00  0.00    -0.306 N 
ATOM     24  N   UNL A   1      27.721  30.151  21.386  1.00  0.00    -0.306 N 
ATOM     25  C   UNL A   1      28.246  31.429  21.140  1.00  0.00     0.323 A 
ATOM     26  H   UNL A   1      29.757  32.474  22.223  1.00  0.00     0.171 HD
ATOM     27  H   UNL A   1      26.948  29.748  20.926  1.00  0.00     0.171 HD
ATOM     28  O   UNL A   1      27.946  32.180  20.229  1.00  0.00    -0.248 OA
ENDBRANCH  12  17
ENDBRANCH  11  12
ENDBRANCH  10  11
ENDBRANCH   9  10
ENDBRANCH   8   9
ENDBRANCH   6   8
ENDBRANCH   5   6
ENDBRANCH   4   5
ENDBRANCH   3   4
ENDBRANCH   2   3
ENDBRANCH   1   2
BRANCH   1  29
ATOM     29  C   UNL A   1      32.346  21.349  25.810  1.00  0.00     0.188 C 
BRANCH  29  30
ATOM     30  O   UNL A   1      33.718  21.194  26.142  1.00  0.00    -0.377 OA
BRANCH  30  31
ATOM     31  C   UNL A   1      34.727  21.407  25.165  1.00  0.00     0.188 C 
BRANCH  31  32
ATOM     32  C   UNL A   1      35.876  20.393  25.012  1.00  0.00     0.188 C 
BRANCH  32  33
ATOM     33  O   UNL A   1      37.154  20.869  25.384  1.00  0.00    -0.376 OA
BRANCH  33  34
ATOM     34  C   UNL A   1      38.301  20.221  24.858  1.00  0.00     0.202 C 
BRANCH  34  35
ATOM     35  C   UNL A   1      39.172  19.378  25.804  1.00  0.00     0.261 C 
BRANCH  35  36
ATOM     36  O   UNL A   1      40.578  19.319  25.504  1.00  0.00    -0.460 OA
BRANCH  36  37
ATOM     37  C   UNL A   1      41.451  19.518  26.510  1.00  0.00     0.338 C 
ATOM     38  O   UNL A   1      42.224  18.708  27.000  1.00  0.00    -0.246 OA
BRANCH  37  39
ATOM     39  C   UNL A   1      41.465  20.961  26.812  1.00  0.00     0.060 A 
ATOM     40  C   UNL A   1      41.541  21.881  25.758  1.00  0.00     0.016 A 
ATOM     41  C   UNL A   1      41.425  21.400  28.137  1.00  0.00     0.016 A 
ATOM     42  C   UNL A   1      41.617  23.246  26.027  1.00  0.00     0.010 A 
ATOM     43  C   UNL A   1      41.530  22.766  28.406  1.00  0.00     0.010 A 
ATOM     44  C   UNL A   1      41.665  23.689  27.353  1.00  0.00    -0.014 A 
BRANCH  44  45
ATOM     45  C   UNL A   1      42.078  25.083  27.638  1.00  0.00     0.031 A 
ATOM     46  C   UNL A   1      43.497  25.479  27.330  1.00  0.00     0.074 A 
ATOM     47  C   UNL A   1      41.213  25.986  28.127  1.00  0.00     0.049 A 
ATOM     48  N   UNL A   1      44.105  26.619  27.534  1.00  0.00    -0.248 NA
ATOM     49  C   UNL A   1      44.344  24.446  26.710  1.00  0.00     0.031 C 
ATOM     50  C   UNL A   1      39.799  25.744  28.406  1.00  0.00     0.029 A 
ATOM     51  N   UNL A   1      41.409  27.297  28.480  1.00  0.00    -0.354 N 
ATOM     52  C   UNL A   1      45.405  26.436  27.081  1.00  0.00     0.074 A 
ATOM     53  C   UNL A   1      45.508  25.069  26.619  1.00  0.00     0.031 C 
ATOM     54  C   UNL A   1      39.255  26.872  28.896  1.00  0.00     0.029 A 
ATOM     55  C   UNL A   1      40.290  27.899  29.002  1.00  0.00     0.049 A 
ATOM     56  H   UNL A   1      42.270  27.764  28.370  1.00  0.00     0.167 HD
ATOM     57  C   UNL A   1      46.424  27.326  27.050  1.00  0.00     0.031 A 
ATOM     58  C   UNL A   1      40.130  29.128  29.530  1.00  0.00     0.031 A 
ATOM     59  C   UNL A   1      46.325  28.680  27.526  1.00  0.00     0.049 A 
ATOM     60  C   UNL A   1      41.306  30.071  29.574  1.00  0.00     0.074 A 
ATOM     61  C   UNL A   1      47.296  29.666  27.530  1.00  0.00     0.029 A 
ATOM     62  N   UNL A   1      45.189  29.234  28.097  1.00  0.00    -0.354 N 
ATOM     63  N   UNL A   1      42.526  29.896  29.126  1.00  0.00    -0.248 NA
ATOM     64  C   UNL A   1      41.076  31.385  30.191  1.00  0.00     0.031 C 
ATOM     65  C   UNL A   1      46.770  30.794  28.167  1.00  0.00     0.029 A 
ATOM     66  C   UNL A   1      45.445  30.537  28.487  1.00  0.00     0.049 A 
ATOM     67  H   UNL A   1      44.328  28.769  28.205  1.00  0.00     0.167 HD
ATOM     68  C   UNL A   1      43.198  31.087  29.377  1.00  0.00     0.074 A 
ATOM     69  C   UNL A   1      42.245  31.980  30.002  1.00  0.00     0.031 C 
ATOM     70  C   UNL A   1      44.487  31.414  29.109  1.00  0.00     0.031 A 
BRANCH  57  71
ATOM     71  C   UNL A   1      47.750  26.843  26.527  1.00  0.00    -0.014 A 
ATOM     72  C   UNL A   1      48.103  26.984  25.177  1.00  0.00     0.009 A 
ATOM     73  C   UNL A   1      48.668  26.254  27.411  1.00  0.00     0.009 A 
ATOM     74  C   UNL A   1      49.334  26.509  24.715  1.00  0.00     0.001 A 
ATOM     75  C   UNL A   1      49.910  25.812  26.954  1.00  0.00     0.001 A 
ATOM     76  C   UNL A   1      50.238  25.930  25.605  1.00  0.00     0.000 A 
ENDBRANCH  57  71
BRANCH  58  77
ATOM     77  C   UNL A   1      38.812  29.537  30.084  1.00  0.00    -0.014 A 
ATOM     78  C   UNL A   1      37.909  30.285  29.313  1.00  0.00     0.009 A 
ATOM     79  C   UNL A   1      38.461  29.203  31.402  1.00  0.00     0.009 A 
ATOM     80  C   UNL A   1      36.695  30.710  29.858  1.00  0.00     0.001 A 
ATOM     81  C   UNL A   1      37.233  29.602  31.934  1.00  0.00     0.001 A 
ATOM     82  C   UNL A   1      36.355  30.364  31.165  1.00  0.00     0.000 A 
ENDBRANCH  58  77
BRANCH  70  83
ATOM     83  C   UNL A   1      44.933  32.811  29.448  1.00  0.00    -0.014 A 
ATOM     84  C   UNL A   1      45.679  33.085  30.606  1.00  0.00     0.009 A 
ATOM     85  C   UNL A   1      44.640  33.864  28.566  1.00  0.00     0.009 A 
ATOM     86  C   UNL A   1      46.088  34.391  30.890  1.00  0.00     0.001 A 
ATOM     87  C   UNL A   1      45.080  35.160  28.834  1.00  0.00     0.001 A 
ATOM     88  C   UNL A   1      45.793  35.425  30.002  1.00  0.00     0.000 A 
ENDBRANCH  70  83
ENDBRANCH  44  45
ENDBRANCH  37  39
ENDBRANCH  36  37
ENDBRANCH  35  36
ENDBRANCH  34  35
ENDBRANCH  33  34
ENDBRANCH  32  33
ENDBRANCH  31  32
ENDBRANCH  30  31
ENDBRANCH  29  30
ENDBRANCH   1  29
TORSDOF 26
ENDMDL
MODEL 3
REMARK VINA RESULT:      -8.5      1.921      6.380
REMARK SMILES [NH3+][C@@H](CCCCC(=O)OCCOCCOCCOCCOC(=O)c1ccc(-c2c3nc(c(-c4ccccc4)c4ccc([nH]4)c(-c4ccccc4)c4nc(c(-c5ccccc5)c5ccc2[nH]5)C=C4)C=C3)cc1)c1ccc2[nH]c(=O)[nH]c2c1
REMARK SMILES IDX 13 1 12 2 11 3 10 4 9 5 7 6 8 7 6 8 5 9 4 10 3 11 2 12 1 13
REMARK SMILES IDX 72 17 73 18 81 19 74 20 80 21 75 22 79 23 76 24 77 25 78 28
REMARK SMILES IDX 14 29 15 30 16 31 17 32 18 33 19 34 20 35 21 36 22 37 23 38
REMARK SMILES IDX 24 39 25 40 71 41 26 42 70 43 27 44 28 45 29 46 64 47 30 48
REMARK SMILES IDX 69 49 63 50 65 51 31 52 68 53 62 54 61 55 32 57 54 58 39 59
REMARK SMILES IDX 53 60 40 61 43 62 52 63 66 64 41 65 42 66 51 68 67 69 44 70
REMARK SMILES IDX 33 71 34 72 38 73 35 74 37 75 36 76 55 77 56 78 60 79 57 80
REMARK SMILES IDX 59 81 58 82 45 83 46 84 50 85 47 86 49 87 48 88
REMARK H PARENT 1 14 1 15 1 16 79 26 76 27 65 56 43 67
REMARK Flexibility Score: inf
ROOT
ATOM      1  C   UNL A   1      31.206  24.329  26.898  1.00  0.00     0.188 C 
ENDROOT
BRANCH   1   2
ATOM      2  O   UNL A   1      30.019  24.582  26.179  1.00  0.00    -0.376 OA
BRANCH   2   3
ATOM      3  C   UNL A   1      30.023  25.332  24.974  1.00  0.00     0.202 C 
BRANCH   3   4
ATOM      4  C   UNL A   1      30.223  24.730  23.571  1.00  0.00     0.261 C 
BRANCH   4   5
ATOM      5  O   UNL A   1      30.827  23.437  23.539  1.00  0.00    -0.463 OA
BRANCH   5   6
ATOM      6  C   UNL A   1      32.112  23.424  23.123  1.00  0.00     0.305 C 
ATOM      7  O   UNL A   1      32.763  22.410  22.886  1.00  0.00    -0.252 OA
BRANCH   6   8
ATOM      8  C   UNL A   1      32.644  24.781  22.756  1.00  0.00     0.123 C 
BRANCH   8   9
ATOM      9  C   UNL A   1      33.931  25.353  23.356  1.00  0.00     0.012 C 
BRANCH   9  10
ATOM     10  C   UNL A   1      33.863  26.703  24.055  1.00  0.00     0.007 C 
BRANCH  10  11
ATOM     11  C   UNL A   1      32.477  27.236  24.464  1.00  0.00     0.070 C 
BRANCH  11  12
ATOM     12  C   UNL A   1      32.192  28.778  24.414  1.00  0.00     0.212 C 
BRANCH  12  13
ATOM     13  N   UNL A   1      32.570  29.372  25.706  1.00  0.00    -0.351 N 
ATOM     14  H   UNL A   1      33.323  30.045  25.564  1.00  0.00     0.345 HD
ATOM     15  H   UNL A   1      32.886  28.638  26.340  1.00  0.00     0.345 HD
ATOM     16  H   UNL A   1      31.762  29.846  26.112  1.00  0.00     0.345 HD
ENDBRANCH  12  13
BRANCH  12  17
ATOM     17  C   UNL A   1      30.793  29.249  24.017  1.00  0.00     0.011 A 
ATOM     18  C   UNL A   1      29.900  28.406  23.300  1.00  0.00     0.012 A 
ATOM     19  C   UNL A   1      30.378  30.551  24.277  1.00  0.00     0.038 A 
ATOM     20  C   UNL A   1      28.732  28.902  22.691  1.00  0.00     0.029 A 
ATOM     21  C   UNL A   1      29.388  31.071  23.483  1.00  0.00     0.067 A 
ATOM     22  C   UNL A   1      28.565  30.262  22.720  1.00  0.00     0.066 A 
ATOM     23  N   UNL A   1      29.135  32.396  23.140  1.00  0.00    -0.306 N 
ATOM     24  N   UNL A   1      27.735  31.085  21.967  1.00  0.00    -0.306 N 
ATOM     25  C   UNL A   1      28.140  32.416  22.154  1.00  0.00     0.323 A 
ATOM     26  H   UNL A   1      29.581  33.185  23.525  1.00  0.00     0.171 HD
ATOM     27  H   UNL A   1      26.989  30.785  21.398  1.00  0.00     0.171 HD
ATOM     28  O   UNL A   1      27.750  33.392  21.537  1.00  0.00    -0.248 OA
ENDBRANCH  12  17
ENDBRANCH  11  12
ENDBRANCH  10  11
ENDBRANCH   9  10
ENDBRANCH   8   9
ENDBRANCH   6   8
ENDBRANCH   5   6
ENDBRANCH   4   5
ENDBRANCH   3   4
ENDBRANCH   2   3
ENDBRANCH   1   2
BRANCH   1  29
ATOM     29  C   UNL A   1      31.588  22.841  26.970  1.00  0.00     0.188 C 
BRANCH  29  30
ATOM     30  O   UNL A   1      32.819  22.482  27.578  1.00  0.00    -0.377 OA
BRANCH  30  31
ATOM     31  C   UNL A   1      34.045  23.019  27.099  1.00  0.00     0.188 C 
BRANCH  31  32
ATOM     32  C   UNL A   1      34.716  22.412  25.853  1.00  0.00     0.188 C 
BRANCH  32  33
ATOM     33  O   UNL A   1      35.812  21.558  26.114  1.00  0.00    -0.376 OA
BRANCH  33  34
ATOM     34  C   UNL A   1      36.676  21.213  25.042  1.00  0.00     0.202 C 
BRANCH  34  35
ATOM     35  C   UNL A   1      38.140  21.678  25.096  1.00  0.00     0.261 C 
BRANCH  35  36
ATOM     36  O   UNL A   1      38.621  22.147  26.368  1.00  0.00    -0.460 OA
BRANCH  36  37
ATOM     37  C   UNL A   1      39.904  22.551  26.453  1.00  0.00     0.338 C 
ATOM     38  O   UNL A   1      40.901  21.959  26.069  1.00  0.00    -0.246 OA
BRANCH  37  39
ATOM     39  C   UNL A   1      39.903  23.946  26.928  1.00  0.00     0.060 A 
ATOM     40  C   UNL A   1      40.368  24.960  26.078  1.00  0.00     0.016 A 
ATOM     41  C   UNL A   1      39.465  24.248  28.219  1.00  0.00     0.016 A 
ATOM     42  C   UNL A   1      40.432  26.275  26.531  1.00  0.00     0.010 A 
ATOM     43  C   UNL A   1      39.557  25.562  28.681  1.00  0.00     0.010 A 
ATOM     44  C   UNL A   1      40.077  26.572  27.851  1.00  0.00    -0.014 A 
BRANCH  44  45
ATOM     45  C   UNL A   1      40.458  27.882  28.428  1.00  0.00     0.031 A 
ATOM     46  C   UNL A   1      41.897  28.097  28.814  1.00  0.00     0.074 A 
ATOM     47  C   UNL A   1      39.561  28.871  28.578  1.00  0.00     0.049 A 
ATOM     48  N   UNL A   1      42.460  29.134  29.377  1.00  0.00    -0.248 NA
ATOM     49  C   UNL A   1      42.823  26.989  28.525  1.00  0.00     0.031 C 
ATOM     50  C   UNL A   1      38.155  28.810  28.184  1.00  0.00     0.029 A 
ATOM     51  N   UNL A   1      39.709  30.126  29.113  1.00  0.00    -0.354 N 
ATOM     52  C   UNL A   1      43.800  28.797  29.523  1.00  0.00     0.074 A 
ATOM     53  C   UNL A   1      43.960  27.453  29.017  1.00  0.00     0.031 C 
ATOM     54  C   UNL A   1      37.565  29.977  28.499  1.00  0.00     0.029 A 
ATOM     55  C   UNL A   1      38.541  30.848  29.151  1.00  0.00     0.049 A 
ATOM     56  H   UNL A   1      40.570  30.476  29.438  1.00  0.00     0.167 HD
ATOM     57  C   UNL A   1      44.810  29.543  30.032  1.00  0.00     0.031 A 
ATOM     58  C   UNL A   1      38.288  32.062  29.677  1.00  0.00     0.031 A 
ATOM     59  C   UNL A   1      44.645  30.874  30.551  1.00  0.00     0.049 A 
ATOM     60  C   UNL A   1      39.408  32.834  30.327  1.00  0.00     0.074 A 
ATOM     61  C   UNL A   1      45.606  31.718  31.080  1.00  0.00     0.029 A 
ATOM     62  N   UNL A   1      43.436  31.549  30.620  1.00  0.00    -0.354 N 
ATOM     63  N   UNL A   1      40.675  32.517  30.443  1.00  0.00    -0.248 NA
ATOM     64  C   UNL A   1      39.060  34.138  30.911  1.00  0.00     0.031 C 
ATOM     65  C   UNL A   1      44.966  32.876  31.533  1.00  0.00     0.029 A 
ATOM     66  C   UNL A   1      43.620  32.786  31.213  1.00  0.00     0.049 A 
ATOM     67  H   UNL A   1      42.575  31.201  30.293  1.00  0.00     0.167 HD
ATOM     68  C   UNL A   1      41.280  33.593  31.082  1.00  0.00     0.074 A 
ATOM     69  C   UNL A   1      40.243  34.577  31.314  1.00  0.00     0.031 C 
ATOM     70  C   UNL A   1      42.578  33.755  31.439  1.00  0.00     0.031 A 
BRANCH  57  71
ATOM     71  C   UNL A   1      46.173  28.910  30.095  1.00  0.00    -0.014 A 
ATOM     72  C   UNL A   1      46.572  28.132  31.193  1.00  0.00     0.009 A 
ATOM     73  C   UNL A   1      47.065  29.081  29.025  1.00  0.00     0.009 A 
ATOM     74  C   UNL A   1      47.851  27.571  31.233  1.00  0.00     0.001 A 
ATOM     75  C   UNL A   1      48.330  28.491  29.053  1.00  0.00     0.001 A 
ATOM     76  C   UNL A   1      48.726  27.746  30.161  1.00  0.00     0.000 A 
ENDBRANCH  57  71
BRANCH  58  77
ATOM     77  C   UNL A   1      36.909  32.619  29.638  1.00  0.00    -0.014 A 
ATOM     78  C   UNL A   1      35.947  32.223  30.579  1.00  0.00     0.009 A 
ATOM     79  C   UNL A   1      36.541  33.535  28.639  1.00  0.00     0.009 A 
ATOM     80  C   UNL A   1      34.640  32.711  30.505  1.00  0.00     0.001 A 
ATOM     81  C   UNL A   1      35.242  34.046  28.586  1.00  0.00     0.001 A 
ATOM     82  C   UNL A   1      34.290  33.625  29.513  1.00  0.00     0.000 A 
ENDBRANCH  58  77
BRANCH  70  83
ATOM     83  C   UNL A   1      42.964  35.061  32.079  1.00  0.00    -0.014 A 
ATOM     84  C   UNL A   1      42.787  35.289  33.453  1.00  0.00     0.009 A 
ATOM     85  C   UNL A   1      43.559  36.065  31.297  1.00  0.00     0.009 A 
ATOM     86  C   UNL A   1      43.163  36.509  34.022  1.00  0.00     0.001 A 
ATOM     87  C   UNL A   1      43.966  37.268  31.874  1.00  0.00     0.001 A 
ATOM     88  C   UNL A   1      43.758  37.494  33.234  1.00  0.00     0.000 A 
ENDBRANCH  70  83
ENDBRANCH  44  45
ENDBRANCH  37  39
ENDBRANCH  36  37
ENDBRANCH  35  36
ENDBRANCH  34  35
ENDBRANCH  33  34
ENDBRANCH  32  33
ENDBRANCH  31  32
ENDBRANCH  30  31
ENDBRANCH  29  30
ENDBRANCH   1  29
TORSDOF 26
ENDMDL
