MODEL 1
REMARK VINA RESULT:     -10.1      0.000      0.000
REMARK SMILES O=C(OCCOCCOCCOCCOC(=O)c1cc(F)cc(-c2cccc(F)c2F)c1)c1ccc(-c2c3nc(c(-c4ccccc4)c4ccc([nH]4)c(-c4ccccc4)c4nc(c(-c5ccccc5)c5ccc2[nH]5)C=C4)C=C3)cc1
REMARK SMILES IDX 8 1 7 2 6 3 5 4 4 5 3 6 2 7 1 8 33 9 34 10 80 11 35 12 79 13
REMARK SMILES IDX 36 14 37 15 38 16 73 17 39 18 78 19 72 20 74 21 40 22 77 23
REMARK SMILES IDX 71 24 70 25 41 27 63 28 48 29 62 30 49 31 52 32 61 33 75 34
REMARK SMILES IDX 50 35 51 36 60 38 76 39 53 40 42 41 43 42 47 43 44 44 46 45
REMARK SMILES IDX 45 46 64 47 65 48 69 49 66 50 68 51 67 52 54 53 55 54 59 55
REMARK SMILES IDX 56 56 58 57 57 58 9 59 10 60 11 61 12 62 13 63 14 64 15 65
REMARK SMILES IDX 16 66 17 67 18 68 19 69 32 70 20 71 23 72 21 73 22 74 24 75
REMARK SMILES IDX 25 76 30 77 26 78 28 79 31 80 27 81 29 82
REMARK H PARENT 74 26 52 37
REMARK Flexibility Score: inf
ROOT
ATOM      1  C   UNL A   1      35.937  23.646  24.526  1.00  0.00     0.188 C 
ENDROOT
BRANCH   1   2
ATOM      2  C   UNL A   1      37.302  22.962  24.538  1.00  0.00     0.188 C 
BRANCH   2   3
ATOM      3  O   UNL A   1      37.238  21.743  25.286  1.00  0.00    -0.376 OA
BRANCH   3   4
ATOM      4  C   UNL A   1      38.498  21.229  25.718  1.00  0.00     0.202 C 
BRANCH   4   5
ATOM      5  C   UNL A   1      38.917  19.940  25.009  1.00  0.00     0.261 C 
BRANCH   5   6
ATOM      6  O   UNL A   1      39.816  19.159  25.807  1.00  0.00    -0.460 OA
BRANCH   6   7
ATOM      7  C   UNL A   1      41.147  19.344  25.988  1.00  0.00     0.338 C 
ATOM      8  O   UNL A   1      41.899  18.399  25.748  1.00  0.00    -0.246 OA
BRANCH   7   9
ATOM      9  C   UNL A   1      41.774  20.631  26.434  1.00  0.00     0.060 A 
ATOM     10  C   UNL A   1      41.990  21.027  27.757  1.00  0.00     0.016 A 
ATOM     11  C   UNL A   1      42.223  21.493  25.417  1.00  0.00     0.016 A 
ATOM     12  C   UNL A   1      42.542  22.263  28.069  1.00  0.00     0.010 A 
ATOM     13  C   UNL A   1      42.803  22.729  25.718  1.00  0.00     0.010 A 
ATOM     14  C   UNL A   1      42.921  23.131  27.051  1.00  0.00    -0.014 A 
BRANCH  14  15
ATOM     15  C   UNL A   1      43.239  24.521  27.415  1.00  0.00     0.031 A 
ATOM     16  C   UNL A   1      44.663  24.967  27.267  1.00  0.00     0.074 A 
ATOM     17  C   UNL A   1      42.257  25.386  27.719  1.00  0.00     0.049 A 
ATOM     18  N   UNL A   1      45.206  26.120  27.547  1.00  0.00    -0.248 NA
ATOM     19  C   UNL A   1      45.603  23.977  26.709  1.00  0.00     0.031 C 
ATOM     20  C   UNL A   1      40.828  25.072  27.738  1.00  0.00     0.029 A 
ATOM     21  N   UNL A   1      42.314  26.716  28.039  1.00  0.00    -0.354 N 
ATOM     22  C   UNL A   1      46.551  25.985  27.228  1.00  0.00     0.074 A 
ATOM     23  C   UNL A   1      46.746  24.641  26.735  1.00  0.00     0.031 C 
ATOM     24  C   UNL A   1      40.140  26.187  28.037  1.00  0.00     0.029 A 
ATOM     25  C   UNL A   1      41.084  27.271  28.292  1.00  0.00     0.049 A 
ATOM     26  H   UNL A   1      43.155  27.226  28.084  1.00  0.00     0.167 HD
ATOM     27  C   UNL A   1      47.536  26.901  27.351  1.00  0.00     0.031 A 
ATOM     28  C   UNL A   1      40.771  28.509  28.715  1.00  0.00     0.031 A 
ATOM     29  C   UNL A   1      47.317  28.223  27.864  1.00  0.00     0.049 A 
ATOM     30  C   UNL A   1      41.899  29.476  28.956  1.00  0.00     0.074 A 
ATOM     31  C   UNL A   1      48.237  29.221  28.119  1.00  0.00     0.029 A 
ATOM     32  N   UNL A   1      46.066  28.727  28.202  1.00  0.00    -0.354 N 
ATOM     33  N   UNL A   1      43.184  29.320  28.734  1.00  0.00    -0.248 NA
ATOM     34  C   UNL A   1      41.540  30.783  29.522  1.00  0.00     0.031 C 
ATOM     35  C   UNL A   1      47.546  30.315  28.655  1.00  0.00     0.029 A 
ATOM     36  C   UNL A   1      46.191  30.016  28.681  1.00  0.00     0.049 A 
ATOM     37  H   UNL A   1      45.217  28.237  28.112  1.00  0.00     0.167 HD
ATOM     38  C   UNL A   1      43.786  30.509  29.119  1.00  0.00     0.074 A 
ATOM     39  C   UNL A   1      42.721  31.385  29.568  1.00  0.00     0.031 C 
ATOM     40  C   UNL A   1      45.098  30.849  29.114  1.00  0.00     0.031 A 
BRANCH  27  41
ATOM     41  C   UNL A   1      48.927  26.450  27.010  1.00  0.00    -0.014 A 
ATOM     42  C   UNL A   1      49.782  25.899  27.978  1.00  0.00     0.009 A 
ATOM     43  C   UNL A   1      49.409  26.638  25.706  1.00  0.00     0.009 A 
ATOM     44  C   UNL A   1      51.105  25.585  27.654  1.00  0.00     0.001 A 
ATOM     45  C   UNL A   1      50.724  26.300  25.379  1.00  0.00     0.001 A 
ATOM     46  C   UNL A   1      51.575  25.786  26.356  1.00  0.00     0.000 A 
ENDBRANCH  27  41
BRANCH  28  47
ATOM     47  C   UNL A   1      39.358  28.877  28.999  1.00  0.00    -0.014 A 
ATOM     48  C   UNL A   1      38.548  29.461  28.015  1.00  0.00     0.009 A 
ATOM     49  C   UNL A   1      38.811  28.656  30.275  1.00  0.00     0.009 A 
ATOM     50  C   UNL A   1      37.231  29.832  28.306  1.00  0.00     0.001 A 
ATOM     51  C   UNL A   1      37.487  28.999  30.555  1.00  0.00     0.001 A 
ATOM     52  C   UNL A   1      36.701  29.597  29.573  1.00  0.00     0.000 A 
ENDBRANCH  28  47
BRANCH  40  53
ATOM     53  C   UNL A   1      45.439  32.234  29.580  1.00  0.00    -0.014 A 
ATOM     54  C   UNL A   1      45.808  32.481  30.909  1.00  0.00     0.009 A 
ATOM     55  C   UNL A   1      45.443  33.292  28.657  1.00  0.00     0.009 A 
ATOM     56  C   UNL A   1      46.149  33.772  31.314  1.00  0.00     0.001 A 
ATOM     57  C   UNL A   1      45.811  34.574  29.058  1.00  0.00     0.001 A 
ATOM     58  C   UNL A   1      46.156  34.815  30.387  1.00  0.00     0.000 A 
ENDBRANCH  40  53
ENDBRANCH  14  15
ENDBRANCH   7   9
ENDBRANCH   6   7
ENDBRANCH   5   6
ENDBRANCH   4   5
ENDBRANCH   3   4
ENDBRANCH   2   3
ENDBRANCH   1   2
BRANCH   1  59
ATOM     59  O   UNL A   1      35.021  23.122  23.568  1.00  0.00    -0.377 OA
BRANCH  59  60
ATOM     60  C   UNL A   1      33.862  23.898  23.295  1.00  0.00     0.188 C 
BRANCH  60  61
ATOM     61  C   UNL A   1      33.880  25.405  23.629  1.00  0.00     0.188 C 
BRANCH  61  62
ATOM     62  O   UNL A   1      32.804  26.152  23.083  1.00  0.00    -0.376 OA
BRANCH  62  63
ATOM     63  C   UNL A   1      31.717  25.382  22.576  1.00  0.00     0.202 C 
BRANCH  63  64
ATOM     64  C   UNL A   1      30.527  25.261  23.533  1.00  0.00     0.261 C 
BRANCH  64  65
ATOM     65  O   UNL A   1      30.511  24.079  24.356  1.00  0.00    -0.460 OA
BRANCH  65  66
ATOM     66  C   UNL A   1      30.633  24.198  25.698  1.00  0.00     0.338 C 
ATOM     67  O   UNL A   1      29.952  24.875  26.447  1.00  0.00    -0.246 OA
BRANCH  66  68
ATOM     68  C   UNL A   1      31.593  23.151  26.122  1.00  0.00     0.063 A 
ATOM     69  C   UNL A   1      32.640  23.481  26.985  1.00  0.00     0.055 A 
ATOM     70  C   UNL A   1      31.562  21.899  25.480  1.00  0.00     0.024 A 
ATOM     71  C   UNL A   1      33.657  22.561  27.185  1.00  0.00     0.124 A 
ATOM     72  C   UNL A   1      32.626  20.994  25.642  1.00  0.00    -0.012 A 
ATOM     73  F   UNL A   1      34.679  22.874  27.991  1.00  0.00    -0.207 F 
ATOM     74  C   UNL A   1      33.667  21.338  26.519  1.00  0.00     0.048 A 
BRANCH  72  75
ATOM     75  C   UNL A   1      32.717  19.753  24.864  1.00  0.00     0.021 A 
ATOM     76  C   UNL A   1      32.922  18.518  25.512  1.00  0.00     0.012 A 
ATOM     77  C   UNL A   1      32.527  19.744  23.478  1.00  0.00     0.166 A 
ATOM     78  C   UNL A   1      32.922  17.316  24.792  1.00  0.00     0.004 A 
ATOM     79  C   UNL A   1      32.527  18.549  22.765  1.00  0.00     0.159 A 
ATOM     80  F   UNL A   1      32.316  20.898  22.825  1.00  0.00    -0.203 F 
ATOM     81  C   UNL A   1      32.720  17.333  23.413  1.00  0.00     0.042 A 
ATOM     82  F   UNL A   1      32.322  18.556  21.441  1.00  0.00    -0.204 F 
ENDBRANCH  72  75
ENDBRANCH  66  68
ENDBRANCH  65  66
ENDBRANCH  64  65
ENDBRANCH  63  64
ENDBRANCH  62  63
ENDBRANCH  61  62
ENDBRANCH  60  61
ENDBRANCH  59  60
ENDBRANCH   1  59
TORSDOF 21
ENDMDL
MODEL 2
REMARK VINA RESULT:     -10.0      2.547      6.859
REMARK SMILES O=C(OCCOCCOCCOCCOC(=O)c1cc(F)cc(-c2cccc(F)c2F)c1)c1ccc(-c2c3nc(c(-c4ccccc4)c4ccc([nH]4)c(-c4ccccc4)c4nc(c(-c5ccccc5)c5ccc2[nH]5)C=C4)C=C3)cc1
REMARK SMILES IDX 8 1 7 2 6 3 5 4 4 5 3 6 2 7 1 8 33 9 34 10 80 11 35 12 79 13
REMARK SMILES IDX 36 14 37 15 38 16 73 17 39 18 78 19 72 20 74 21 40 22 77 23
REMARK SMILES IDX 71 24 70 25 41 27 63 28 48 29 62 30 49 31 52 32 61 33 75 34
REMARK SMILES IDX 50 35 51 36 60 38 76 39 53 40 42 41 43 42 47 43 44 44 46 45
REMARK SMILES IDX 45 46 64 47 65 48 69 49 66 50 68 51 67 52 54 53 55 54 59 55
REMARK SMILES IDX 56 56 58 57 57 58 9 59 10 60 11 61 12 62 13 63 14 64 15 65
REMARK SMILES IDX 16 66 17 67 18 68 19 69 32 70 20 71 23 72 21 73 22 74 24 75
REMARK SMILES IDX 25 76 30 77 26 78 28 79 31 80 27 81 29 82
REMARK H PARENT 74 26 52 37
REMARK Flexibility Score: inf
ROOT
ATOM      1  C   UNL A   1      34.096  24.342  23.404  1.00  0.00     0.188 C 
ENDROOT
BRANCH   1   2
ATOM      2  C   UNL A   1      35.017  23.124  23.368  1.00  0.00     0.188 C 
BRANCH   2   3
ATOM      3  O   UNL A   1      36.364  23.514  23.655  1.00  0.00    -0.376 OA
BRANCH   3   4
ATOM      4  C   UNL A   1      36.665  23.684  25.040  1.00  0.00     0.202 C 
BRANCH   4   5
ATOM      5  C   UNL A   1      37.168  22.413  25.725  1.00  0.00     0.261 C 
BRANCH   5   6
ATOM      6  O   UNL A   1      38.592  22.280  25.627  1.00  0.00    -0.460 OA
BRANCH   6   7
ATOM      7  C   UNL A   1      39.530  22.672  26.524  1.00  0.00     0.338 C 
ATOM      8  O   UNL A   1      40.264  21.809  27.006  1.00  0.00    -0.246 OA
BRANCH   7   9
ATOM      9  C   UNL A   1      39.758  24.091  26.952  1.00  0.00     0.060 A 
ATOM     10  C   UNL A   1      40.337  25.102  26.178  1.00  0.00     0.016 A 
ATOM     11  C   UNL A   1      39.303  24.437  28.237  1.00  0.00     0.016 A 
ATOM     12  C   UNL A   1      40.544  26.379  26.682  1.00  0.00     0.010 A 
ATOM     13  C   UNL A   1      39.482  25.727  28.746  1.00  0.00     0.010 A 
ATOM     14  C   UNL A   1      40.146  26.687  27.978  1.00  0.00    -0.014 A 
BRANCH  14  15
ATOM     15  C   UNL A   1      40.626  27.950  28.564  1.00  0.00     0.031 A 
ATOM     16  C   UNL A   1      39.621  29.044  28.770  1.00  0.00     0.074 A 
ATOM     17  C   UNL A   1      41.882  28.050  29.029  1.00  0.00     0.049 A 
ATOM     18  N   UNL A   1      39.790  30.250  29.234  1.00  0.00    -0.248 NA
ATOM     19  C   UNL A   1      38.225  28.722  28.419  1.00  0.00     0.031 C 
ATOM     20  C   UNL A   1      42.881  26.980  29.006  1.00  0.00     0.029 A 
ATOM     21  N   UNL A   1      42.520  29.093  29.644  1.00  0.00    -0.354 N 
ATOM     22  C   UNL A   1      38.534  30.841  29.203  1.00  0.00     0.074 A 
ATOM     23  C   UNL A   1      37.610  29.864  28.675  1.00  0.00     0.031 C 
ATOM     24  C   UNL A   1      44.005  27.420  29.598  1.00  0.00     0.029 A 
ATOM     25  C   UNL A   1      43.822  28.816  29.981  1.00  0.00     0.049 A 
ATOM     26  H   UNL A   1      42.089  29.959  29.827  1.00  0.00     0.167 HD
ATOM     27  C   UNL A   1      38.189  32.095  29.571  1.00  0.00     0.031 A 
ATOM     28  C   UNL A   1      44.763  29.621  30.509  1.00  0.00     0.031 A 
ATOM     29  C   UNL A   1      39.133  33.051  30.073  1.00  0.00     0.049 A 
ATOM     30  C   UNL A   1      44.383  31.048  30.802  1.00  0.00     0.074 A 
ATOM     31  C   UNL A   1      38.935  34.378  30.404  1.00  0.00     0.029 A 
ATOM     32  N   UNL A   1      40.471  32.767  30.316  1.00  0.00    -0.354 N 
ATOM     33  N   UNL A   1      43.212  31.631  30.693  1.00  0.00    -0.248 NA
ATOM     34  C   UNL A   1      45.456  31.934  31.273  1.00  0.00     0.031 C 
ATOM     35  C   UNL A   1      40.167  34.909  30.805  1.00  0.00     0.029 A 
ATOM     36  C   UNL A   1      41.117  33.898  30.776  1.00  0.00     0.049 A 
ATOM     37  H   UNL A   1      40.895  31.889  30.180  1.00  0.00     0.167 HD
ATOM     38  C   UNL A   1      43.400  32.946  31.092  1.00  0.00     0.074 A 
ATOM     39  C   UNL A   1      44.796  33.068  31.469  1.00  0.00     0.031 C 
ATOM     40  C   UNL A   1      42.510  33.967  31.139  1.00  0.00     0.031 A 
BRANCH  27  41
ATOM     41  C   UNL A   1      36.760  32.498  29.345  1.00  0.00    -0.014 A 
ATOM     42  C   UNL A   1      36.317  32.981  28.104  1.00  0.00     0.009 A 
ATOM     43  C   UNL A   1      35.855  32.447  30.417  1.00  0.00     0.009 A 
ATOM     44  C   UNL A   1      35.007  33.446  27.954  1.00  0.00     0.001 A 
ATOM     45  C   UNL A   1      34.540  32.889  30.257  1.00  0.00     0.001 A 
ATOM     46  C   UNL A   1      34.121  33.400  29.030  1.00  0.00     0.000 A 
ENDBRANCH  27  41
BRANCH  28  47
ATOM     47  C   UNL A   1      46.148  29.125  30.726  1.00  0.00    -0.014 A 
ATOM     48  C   UNL A   1      46.537  28.573  31.955  1.00  0.00     0.009 A 
ATOM     49  C   UNL A   1      47.102  29.215  29.698  1.00  0.00     0.009 A 
ATOM     50  C   UNL A   1      47.852  28.141  32.156  1.00  0.00     0.001 A 
ATOM     51  C   UNL A   1      48.407  28.756  29.890  1.00  0.00     0.001 A 
ATOM     52  C   UNL A   1      48.784  28.228  31.123  1.00  0.00     0.000 A 
ENDBRANCH  28  47
BRANCH  40  53
ATOM     53  C   UNL A   1      43.019  35.286  31.641  1.00  0.00    -0.014 A 
ATOM     54  C   UNL A   1      42.961  35.614  33.004  1.00  0.00     0.009 A 
ATOM     55  C   UNL A   1      43.615  36.184  30.743  1.00  0.00     0.009 A 
ATOM     56  C   UNL A   1      43.466  36.834  33.453  1.00  0.00     0.001 A 
ATOM     57  C   UNL A   1      44.144  37.389  31.199  1.00  0.00     0.001 A 
ATOM     58  C   UNL A   1      44.063  37.716  32.552  1.00  0.00     0.000 A 
ENDBRANCH  40  53
ENDBRANCH  14  15
ENDBRANCH   7   9
ENDBRANCH   6   7
ENDBRANCH   5   6
ENDBRANCH   4   5
ENDBRANCH   3   4
ENDBRANCH   2   3
ENDBRANCH   1   2
BRANCH   1  59
ATOM     59  O   UNL A   1      33.711  24.830  22.121  1.00  0.00    -0.377 OA
BRANCH  59  60
ATOM     60  C   UNL A   1      33.319  26.194  22.043  1.00  0.00     0.188 C 
BRANCH  60  61
ATOM     61  C   UNL A   1      33.228  27.017  23.346  1.00  0.00     0.188 C 
BRANCH  61  62
ATOM     62  O   UNL A   1      31.938  27.532  23.639  1.00  0.00    -0.376 OA
BRANCH  62  63
ATOM     63  C   UNL A   1      30.845  26.783  23.117  1.00  0.00     0.202 C 
BRANCH  63  64
ATOM     64  C   UNL A   1      30.063  25.990  24.169  1.00  0.00     0.261 C 
BRANCH  64  65
ATOM     65  O   UNL A   1      30.722  24.813  24.675  1.00  0.00    -0.460 OA
BRANCH  65  66
ATOM     66  C   UNL A   1      30.543  24.450  25.965  1.00  0.00     0.338 C 
ATOM     67  O   UNL A   1      29.650  24.798  26.716  1.00  0.00    -0.246 OA
BRANCH  66  68
ATOM     68  C   UNL A   1      31.499  23.346  26.222  1.00  0.00     0.063 A 
ATOM     69  C   UNL A   1      32.617  23.572  27.028  1.00  0.00     0.055 A 
ATOM     70  C   UNL A   1      31.382  22.157  25.478  1.00  0.00     0.024 A 
ATOM     71  C   UNL A   1      33.617  22.613  27.069  1.00  0.00     0.124 A 
ATOM     72  C   UNL A   1      32.426  21.216  25.479  1.00  0.00    -0.012 A 
ATOM     73  F   UNL A   1      34.705  22.828  27.819  1.00  0.00    -0.207 F 
ATOM     74  C   UNL A   1      33.539  21.454  26.301  1.00  0.00     0.048 A 
BRANCH  72  75
ATOM     75  C   UNL A   1      32.420  20.046  24.592  1.00  0.00     0.021 A 
ATOM     76  C   UNL A   1      32.319  20.210  23.196  1.00  0.00     0.012 A 
ATOM     77  C   UNL A   1      32.593  18.751  25.091  1.00  0.00     0.166 A 
ATOM     78  C   UNL A   1      32.401  19.110  22.332  1.00  0.00     0.004 A 
ATOM     79  C   UNL A   1      32.675  17.660  24.230  1.00  0.00     0.159 A 
ATOM     80  F   UNL A   1      32.706  18.553  26.414  1.00  0.00    -0.203 F 
ATOM     81  C   UNL A   1      32.584  17.831  22.853  1.00  0.00     0.042 A 
ATOM     82  F   UNL A   1      32.861  16.427  24.723  1.00  0.00    -0.204 F 
ENDBRANCH  72  75
ENDBRANCH  66  68
ENDBRANCH  65  66
ENDBRANCH  64  65
ENDBRANCH  63  64
ENDBRANCH  62  63
ENDBRANCH  61  62
ENDBRANCH  60  61
ENDBRANCH  59  60
ENDBRANCH   1  59
TORSDOF 21
ENDMDL
MODEL 3
REMARK VINA RESULT:     -10.0      2.523      4.028
REMARK SMILES O=C(OCCOCCOCCOCCOC(=O)c1cc(F)cc(-c2cccc(F)c2F)c1)c1ccc(-c2c3nc(c(-c4ccccc4)c4ccc([nH]4)c(-c4ccccc4)c4nc(c(-c5ccccc5)c5ccc2[nH]5)C=C4)C=C3)cc1
REMARK SMILES IDX 8 1 7 2 6 3 5 4 4 5 3 6 2 7 1 8 33 9 34 10 80 11 35 12 79 13
REMARK SMILES IDX 36 14 37 15 38 16 73 17 39 18 78 19 72 20 74 21 40 22 77 23
REMARK SMILES IDX 71 24 70 25 41 27 63 28 48 29 62 30 49 31 52 32 61 33 75 34
REMARK SMILES IDX 50 35 51 36 60 38 76 39 53 40 42 41 43 42 47 43 44 44 46 45
REMARK SMILES IDX 45 46 64 47 65 48 69 49 66 50 68 51 67 52 54 53 55 54 59 55
REMARK SMILES IDX 56 56 58 57 57 58 9 59 10 60 11 61 12 62 13 63 14 64 15 65
REMARK SMILES IDX 16 66 17 67 18 68 19 69 32 70 20 71 23 72 21 73 22 74 24 75
REMARK SMILES IDX 25 76 30 77 26 78 28 79 31 80 27 81 29 82
REMARK H PARENT 74 26 52 37
REMARK Flexibility Score: inf
ROOT
ATOM      1  C   UNL A   1      34.396  24.268  23.582  1.00  0.00     0.188 C 
ENDROOT
BRANCH   1   2
ATOM      2  C   UNL A   1      35.073  22.910  23.404  1.00  0.00     0.188 C 
BRANCH   2   3
ATOM      3  O   UNL A   1      36.492  23.042  23.542  1.00  0.00    -0.376 OA
BRANCH   3   4
ATOM      4  C   UNL A   1      36.931  23.609  24.776  1.00  0.00     0.202 C 
BRANCH   4   5
ATOM      5  C   UNL A   1      37.325  22.572  25.828  1.00  0.00     0.261 C 
BRANCH   5   6
ATOM      6  O   UNL A   1      38.693  22.165  25.692  1.00  0.00    -0.460 OA
BRANCH   6   7
ATOM      7  C   UNL A   1      39.787  22.704  26.286  1.00  0.00     0.338 C 
ATOM      8  O   UNL A   1      40.796  22.005  26.380  1.00  0.00    -0.246 OA
BRANCH   7   9
ATOM      9  C   UNL A   1      39.865  24.107  26.811  1.00  0.00     0.060 A 
ATOM     10  C   UNL A   1      40.367  25.217  26.125  1.00  0.00     0.016 A 
ATOM     11  C   UNL A   1      39.339  24.322  28.098  1.00  0.00     0.016 A 
ATOM     12  C   UNL A   1      40.435  26.472  26.717  1.00  0.00     0.010 A 
ATOM     13  C   UNL A   1      39.379  25.585  28.695  1.00  0.00     0.010 A 
ATOM     14  C   UNL A   1      39.971  26.653  28.015  1.00  0.00    -0.014 A 
BRANCH  14  15
ATOM     15  C   UNL A   1      40.310  27.913  28.697  1.00  0.00     0.031 A 
ATOM     16  C   UNL A   1      41.729  28.096  29.148  1.00  0.00     0.074 A 
ATOM     17  C   UNL A   1      39.413  28.910  28.769  1.00  0.00     0.049 A 
ATOM     18  N   UNL A   1      42.273  29.090  29.792  1.00  0.00    -0.248 NA
ATOM     19  C   UNL A   1      42.667  27.011  28.806  1.00  0.00     0.031 C 
ATOM     20  C   UNL A   1      38.056  28.870  28.220  1.00  0.00     0.029 A 
ATOM     21  N   UNL A   1      39.522  30.164  29.307  1.00  0.00    -0.354 N 
ATOM     22  C   UNL A   1      43.606  28.739  29.960  1.00  0.00     0.074 A 
ATOM     23  C   UNL A   1      43.792  27.442  29.352  1.00  0.00     0.031 C 
ATOM     24  C   UNL A   1      37.464  30.057  28.435  1.00  0.00     0.029 A 
ATOM     25  C   UNL A   1      38.375  30.911  29.190  1.00  0.00     0.049 A 
ATOM     26  H   UNL A   1      40.342  30.500  29.735  1.00  0.00     0.167 HD
ATOM     27  C   UNL A   1      44.584  29.436  30.581  1.00  0.00     0.031 A 
ATOM     28  C   UNL A   1      38.094  32.135  29.675  1.00  0.00     0.031 A 
ATOM     29  C   UNL A   1      44.365  30.714  31.195  1.00  0.00     0.049 A 
ATOM     30  C   UNL A   1      39.164  32.842  30.463  1.00  0.00     0.074 A 
ATOM     31  C   UNL A   1      45.244  31.489  31.928  1.00  0.00     0.029 A 
ATOM     32  N   UNL A   1      43.161  31.405  31.141  1.00  0.00    -0.354 N 
ATOM     33  N   UNL A   1      40.402  32.471  30.694  1.00  0.00    -0.248 NA
ATOM     34  C   UNL A   1      38.796  34.126  31.074  1.00  0.00     0.031 C 
ATOM     35  C   UNL A   1      44.555  32.630  32.355  1.00  0.00     0.029 A 
ATOM     36  C   UNL A   1      43.266  32.591  31.842  1.00  0.00     0.049 A 
ATOM     37  H   UNL A   1      42.353  31.096  30.672  1.00  0.00     0.167 HD
ATOM     38  C   UNL A   1      40.966  33.478  31.464  1.00  0.00     0.074 A 
ATOM     39  C   UNL A   1      39.939  34.487  31.641  1.00  0.00     0.031 C 
ATOM     40  C   UNL A   1      42.214  33.564  31.988  1.00  0.00     0.031 A 
BRANCH  27  41
ATOM     41  C   UNL A   1      45.924  28.770  30.692  1.00  0.00    -0.014 A 
ATOM     42  C   UNL A   1      46.249  27.939  31.777  1.00  0.00     0.009 A 
ATOM     43  C   UNL A   1      46.902  29.029  29.719  1.00  0.00     0.009 A 
ATOM     44  C   UNL A   1      47.539  27.418  31.905  1.00  0.00     0.001 A 
ATOM     45  C   UNL A   1      48.183  28.485  29.837  1.00  0.00     0.001 A 
ATOM     46  C   UNL A   1      48.504  27.691  30.936  1.00  0.00     0.000 A 
ENDBRANCH  27  41
BRANCH  28  47
ATOM     47  C   UNL A   1      36.744  32.730  29.490  1.00  0.00    -0.014 A 
ATOM     48  C   UNL A   1      36.414  33.432  28.321  1.00  0.00     0.009 A 
ATOM     49  C   UNL A   1      35.772  32.609  30.499  1.00  0.00     0.009 A 
ATOM     50  C   UNL A   1      35.150  34.014  28.175  1.00  0.00     0.001 A 
ATOM     51  C   UNL A   1      34.502  33.166  30.338  1.00  0.00     0.001 A 
ATOM     52  C   UNL A   1      34.195  33.877  29.181  1.00  0.00     0.000 A 
ENDBRANCH  28  47
BRANCH  40  53
ATOM     53  C   UNL A   1      42.534  34.803  32.770  1.00  0.00    -0.014 A 
ATOM     54  C   UNL A   1      43.216  35.877  32.180  1.00  0.00     0.009 A 
ATOM     55  C   UNL A   1      42.095  34.915  34.098  1.00  0.00     0.009 A 
ATOM     56  C   UNL A   1      43.478  37.032  32.917  1.00  0.00     0.001 A 
ATOM     57  C   UNL A   1      42.333  36.080  34.823  1.00  0.00     0.001 A 
ATOM     58  C   UNL A   1      43.031  37.134  34.235  1.00  0.00     0.000 A 
ENDBRANCH  40  53
ENDBRANCH  14  15
ENDBRANCH   7   9
ENDBRANCH   6   7
ENDBRANCH   5   6
ENDBRANCH   4   5
ENDBRANCH   3   4
ENDBRANCH   2   3
ENDBRANCH   1   2
BRANCH   1  59
ATOM     59  O   UNL A   1      34.075  24.933  22.363  1.00  0.00    -0.377 OA
BRANCH  59  60
ATOM     60  C   UNL A   1      33.457  26.209  22.470  1.00  0.00     0.188 C 
BRANCH  60  61
ATOM     61  C   UNL A   1      33.177  26.783  23.875  1.00  0.00     0.188 C 
BRANCH  61  62
ATOM     62  O   UNL A   1      31.814  27.078  24.140  1.00  0.00    -0.376 OA
BRANCH  62  63
ATOM     63  C   UNL A   1      30.882  26.589  23.180  1.00  0.00     0.202 C 
BRANCH  63  64
ATOM     64  C   UNL A   1      29.980  25.461  23.691  1.00  0.00     0.261 C 
BRANCH  64  65
ATOM     65  O   UNL A   1      30.656  24.392  24.381  1.00  0.00    -0.460 OA
BRANCH  65  66
ATOM     66  C   UNL A   1      30.665  24.372  25.733  1.00  0.00     0.338 C 
ATOM     67  O   UNL A   1      29.905  24.951  26.488  1.00  0.00    -0.246 OA
BRANCH  66  68
ATOM     68  C   UNL A   1      31.619  23.307  26.125  1.00  0.00     0.063 A 
ATOM     69  C   UNL A   1      32.700  23.617  26.953  1.00  0.00     0.055 A 
ATOM     70  C   UNL A   1      31.543  22.056  25.486  1.00  0.00     0.024 A 
ATOM     71  C   UNL A   1      33.706  22.679  27.119  1.00  0.00     0.124 A 
ATOM     72  C   UNL A   1      32.595  21.131  25.613  1.00  0.00    -0.012 A 
ATOM     73  F   UNL A   1      34.760  22.973  27.891  1.00  0.00    -0.207 F 
ATOM     74  C   UNL A   1      33.670  21.456  26.454  1.00  0.00     0.048 A 
BRANCH  72  75
ATOM     75  C   UNL A   1      32.636  19.888  24.833  1.00  0.00     0.021 A 
ATOM     76  C   UNL A   1      32.743  18.642  25.482  1.00  0.00     0.012 A 
ATOM     77  C   UNL A   1      32.494  19.895  23.441  1.00  0.00     0.166 A 
ATOM     78  C   UNL A   1      32.695  17.444  24.757  1.00  0.00     0.004 A 
ATOM     79  C   UNL A   1      32.445  18.703  22.724  1.00  0.00     0.159 A 
ATOM     80  F   UNL A   1      32.377  21.061  22.786  1.00  0.00    -0.203 F 
ATOM     81  C   UNL A   1      32.542  17.476  23.373  1.00  0.00     0.042 A 
ATOM     82  F   UNL A   1      32.288  18.726  21.393  1.00  0.00    -0.204 F 
ENDBRANCH  72  75
ENDBRANCH  66  68
ENDBRANCH  65  66
ENDBRANCH  64  65
ENDBRANCH  63  64
ENDBRANCH  62  63
ENDBRANCH  61  62
ENDBRANCH  60  61
ENDBRANCH  59  60
ENDBRANCH   1  59
TORSDOF 21
ENDMDL
