MODEL 1
REMARK VINA RESULT:      -9.6      0.000      0.000
REMARK SMILES COc1cc(C)cc2c1O[C@H](C(F)(F)F)C(C(=O)OCCOCCOCCOCCOC(=O)c1ccc(-c3c4nc(c(-c5ccccc5)c5ccc([nH]5)c(-c5ccccc5)c5nc(c(-c6ccccc6)c6ccc3[nH]6)C=C5)C=C4)cc1)=C2
REMARK SMILES IDX 26 1 25 2 24 3 23 4 22 5 21 6 20 7 19 8 17 9 18 10 16 11
REMARK SMILES IDX 3 12 4 13 9 14 5 15 8 16 10 17 6 18 7 19 82 20 11 21 2 22
REMARK SMILES IDX 1 23 12 24 13 25 14 26 15 27 27 28 28 29 29 30 30 31 31 32
REMARK SMILES IDX 32 33 33 34 34 35 35 36 81 37 36 38 80 39 37 40 38 41 39 42
REMARK SMILES IDX 74 43 40 44 79 45 73 46 75 47 41 48 78 49 72 50 71 51 42 53
REMARK SMILES IDX 64 54 49 55 63 56 50 57 53 58 62 59 76 60 51 61 52 62 61 64
REMARK SMILES IDX 77 65 54 66 43 67 44 68 48 69 45 70 47 71 46 72 65 73 66 74
REMARK SMILES IDX 70 75 67 76 69 77 68 78 55 79 56 80 60 81 57 82 59 83 58 84
REMARK H PARENT 75 52 53 63
REMARK Flexibility Score: inf
ROOT
ATOM      1  C   UNL A   1      41.413  21.818  27.249  1.00  0.00     0.188 C 
ENDROOT
BRANCH   1   2
ATOM      2  O   UNL A   1      40.032  21.462  27.175  1.00  0.00    -0.377 OA
BRANCH   2   3
ATOM      3  C   UNL A   1      39.220  22.163  26.245  1.00  0.00     0.188 C 
BRANCH   3   4
ATOM      4  C   UNL A   1      38.887  23.595  26.701  1.00  0.00     0.188 C 
BRANCH   4   5
ATOM      5  O   UNL A   1      37.690  24.101  26.112  1.00  0.00    -0.376 OA
BRANCH   5   6
ATOM      6  C   UNL A   1      37.015  23.260  25.184  1.00  0.00     0.202 C 
BRANCH   6   7
ATOM      7  C   UNL A   1      35.751  23.819  24.515  1.00  0.00     0.261 C 
BRANCH   7   8
ATOM      8  O   UNL A   1      34.530  23.136  24.843  1.00  0.00    -0.460 OA
BRANCH   8   9
ATOM      9  C   UNL A   1      33.778  23.641  25.839  1.00  0.00     0.338 C 
ATOM     10  O   UNL A   1      33.790  23.298  27.008  1.00  0.00    -0.246 OA
BRANCH   9  11
ATOM     11  C   UNL A   1      33.044  24.810  25.307  1.00  0.00     0.087 C 
ATOM     12  C   UNL A   1      30.939  28.123  23.856  1.00  0.00     0.161 A 
ATOM     13  C   UNL A   1      30.981  29.326  24.568  1.00  0.00     0.054 A 
ATOM     14  C   UNL A   1      31.682  27.019  24.308  1.00  0.00     0.169 A 
ATOM     15  C   UNL A   1      31.783  29.448  25.712  1.00  0.00    -0.047 A 
ATOM     16  C   UNL A   1      32.466  27.127  25.459  1.00  0.00     0.021 A 
ATOM     17  O   UNL A   1      31.596  25.869  23.571  1.00  0.00    -0.471 OA
ATOM     18  C   UNL A   1      31.831  30.732  26.488  1.00  0.00     0.044 C 
ATOM     19  C   UNL A   1      32.539  28.349  26.138  1.00  0.00     0.015 A 
ATOM     20  C   UNL A   1      33.165  25.962  25.977  1.00  0.00     0.027 C 
ATOM     21  C   UNL A   1      32.276  24.671  24.017  1.00  0.00     0.316 C 
BRANCH  12  22
ATOM     22  O   UNL A   1      30.139  27.913  22.760  1.00  0.00    -0.493 OA
ATOM     23  C   UNL A   1      29.320  29.006  22.366  1.00  0.00     0.278 C 
ENDBRANCH  12  22
BRANCH  21  24
ATOM     24  C   UNL A   1      31.247  23.533  24.074  1.00  0.00     0.430 C 
ATOM     25  F   UNL A   1      30.240  23.727  23.188  1.00  0.00    -0.167 F 
ATOM     26  F   UNL A   1      31.798  22.333  23.768  1.00  0.00    -0.167 F 
ATOM     27  F   UNL A   1      30.691  23.414  25.303  1.00  0.00    -0.167 F 
ENDBRANCH  21  24
ENDBRANCH   9  11
ENDBRANCH   8   9
ENDBRANCH   7   8
ENDBRANCH   6   7
ENDBRANCH   5   6
ENDBRANCH   4   5
ENDBRANCH   3   4
ENDBRANCH   2   3
ENDBRANCH   1   2
BRANCH   1  28
ATOM     28  C   UNL A   1      42.528  20.903  26.690  1.00  0.00     0.188 C 
BRANCH  28  29
ATOM     29  O   UNL A   1      42.930  21.224  25.361  1.00  0.00    -0.376 OA
BRANCH  29  30
ATOM     30  C   UNL A   1      42.975  22.603  25.020  1.00  0.00     0.202 C 
BRANCH  30  31
ATOM     31  C   UNL A   1      44.325  23.053  24.450  1.00  0.00     0.261 C 
BRANCH  31  32
ATOM     32  O   UNL A   1      44.924  24.174  25.118  1.00  0.00    -0.460 OA
BRANCH  32  33
ATOM     33  C   UNL A   1      45.335  24.002  26.395  1.00  0.00     0.338 C 
ATOM     34  O   UNL A   1      46.275  23.335  26.786  1.00  0.00    -0.246 OA
BRANCH  33  35
ATOM     35  C   UNL A   1      44.553  24.935  27.233  1.00  0.00     0.060 A 
ATOM     36  C   UNL A   1      43.576  24.448  28.105  1.00  0.00     0.016 A 
ATOM     37  C   UNL A   1      44.773  26.313  27.110  1.00  0.00     0.016 A 
ATOM     38  C   UNL A   1      42.839  25.341  28.881  1.00  0.00     0.010 A 
ATOM     39  C   UNL A   1      44.028  27.207  27.884  1.00  0.00     0.010 A 
ATOM     40  C   UNL A   1      43.075  26.724  28.793  1.00  0.00    -0.014 A 
BRANCH  40  41
ATOM     41  C   UNL A   1      42.474  27.626  29.803  1.00  0.00     0.031 A 
ATOM     42  C   UNL A   1      41.204  28.379  29.555  1.00  0.00     0.074 A 
ATOM     43  C   UNL A   1      43.115  27.750  30.981  1.00  0.00     0.049 A 
ATOM     44  N   UNL A   1      40.522  29.119  30.393  1.00  0.00    -0.248 NA
ATOM     45  C   UNL A   1      40.624  28.302  28.208  1.00  0.00     0.031 C 
ATOM     46  C   UNL A   1      44.376  27.083  31.317  1.00  0.00     0.029 A 
ATOM     47  N   UNL A   1      42.801  28.463  32.109  1.00  0.00    -0.354 N 
ATOM     48  C   UNL A   1      39.423  29.582  29.684  1.00  0.00     0.074 A 
ATOM     49  C   UNL A   1      39.548  29.072  28.334  1.00  0.00     0.031 C 
ATOM     50  C   UNL A   1      44.717  27.405  32.573  1.00  0.00     0.029 A 
ATOM     51  C   UNL A   1      43.717  28.316  33.121  1.00  0.00     0.049 A 
ATOM     52  H   UNL A   1      41.997  29.027  32.184  1.00  0.00     0.167 HD
ATOM     53  C   UNL A   1      38.402  30.352  30.132  1.00  0.00     0.031 A 
ATOM     54  C   UNL A   1      43.753  28.846  34.358  1.00  0.00     0.031 A 
ATOM     55  C   UNL A   1      38.296  30.867  31.475  1.00  0.00     0.049 A 
ATOM     56  C   UNL A   1      42.619  29.715  34.817  1.00  0.00     0.074 A 
ATOM     57  C   UNL A   1      37.264  31.604  32.029  1.00  0.00     0.029 A 
ATOM     58  N   UNL A   1      39.255  30.717  32.466  1.00  0.00    -0.354 N 
ATOM     59  N   UNL A   1      41.535  30.062  34.166  1.00  0.00    -0.248 NA
ATOM     60  C   UNL A   1      42.697  30.247  36.185  1.00  0.00     0.031 C 
ATOM     61  C   UNL A   1      37.628  31.964  33.328  1.00  0.00     0.029 A 
ATOM     62  C   UNL A   1      38.853  31.385  33.612  1.00  0.00     0.049 A 
ATOM     63  H   UNL A   1      40.095  30.213  32.369  1.00  0.00     0.167 HD
ATOM     64  C   UNL A   1      40.795  30.837  35.048  1.00  0.00     0.074 A 
ATOM     65  C   UNL A   1      41.542  30.892  36.288  1.00  0.00     0.031 C 
ATOM     66  C   UNL A   1      39.603  31.446  34.842  1.00  0.00     0.031 A 
BRANCH  53  67
ATOM     67  C   UNL A   1      37.286  30.692  29.183  1.00  0.00    -0.014 A 
ATOM     68  C   UNL A   1      37.142  32.009  28.715  1.00  0.00     0.009 A 
ATOM     69  C   UNL A   1      36.285  29.755  28.884  1.00  0.00     0.009 A 
ATOM     70  C   UNL A   1      36.009  32.387  27.992  1.00  0.00     0.001 A 
ATOM     71  C   UNL A   1      35.164  30.130  28.140  1.00  0.00     0.001 A 
ATOM     72  C   UNL A   1      35.021  31.448  27.706  1.00  0.00     0.000 A 
ENDBRANCH  53  67
BRANCH  54  73
ATOM     73  C   UNL A   1      44.902  28.530  35.245  1.00  0.00    -0.014 A 
ATOM     74  C   UNL A   1      44.840  27.433  36.121  1.00  0.00     0.009 A 
ATOM     75  C   UNL A   1      46.035  29.356  35.271  1.00  0.00     0.009 A 
ATOM     76  C   UNL A   1      45.876  27.186  37.023  1.00  0.00     0.001 A 
ATOM     77  C   UNL A   1      47.084  29.086  36.153  1.00  0.00     0.001 A 
ATOM     78  C   UNL A   1      46.999  28.010  37.035  1.00  0.00     0.000 A 
ENDBRANCH  54  73
BRANCH  66  79
ATOM     79  C   UNL A   1      39.007  32.235  35.976  1.00  0.00    -0.014 A 
ATOM     80  C   UNL A   1      39.384  33.575  36.167  1.00  0.00     0.009 A 
ATOM     81  C   UNL A   1      38.166  31.626  36.920  1.00  0.00     0.009 A 
ATOM     82  C   UNL A   1      38.947  34.283  37.288  1.00  0.00     0.001 A 
ATOM     83  C   UNL A   1      37.706  32.346  38.025  1.00  0.00     0.001 A 
ATOM     84  C   UNL A   1      38.106  33.668  38.215  1.00  0.00     0.000 A 
ENDBRANCH  66  79
ENDBRANCH  40  41
ENDBRANCH  33  35
ENDBRANCH  32  33
ENDBRANCH  31  32
ENDBRANCH  30  31
ENDBRANCH  29  30
ENDBRANCH  28  29
ENDBRANCH   1  28
TORSDOF 22
ENDMDL
MODEL 2
REMARK VINA RESULT:      -8.5      6.038      9.340
REMARK SMILES COc1cc(C)cc2c1O[C@H](C(F)(F)F)C(C(=O)OCCOCCOCCOCCOC(=O)c1ccc(-c3c4nc(c(-c5ccccc5)c5ccc([nH]5)c(-c5ccccc5)c5nc(c(-c6ccccc6)c6ccc3[nH]6)C=C5)C=C4)cc1)=C2
REMARK SMILES IDX 26 1 25 2 24 3 23 4 22 5 21 6 20 7 19 8 17 9 18 10 16 11
REMARK SMILES IDX 3 12 4 13 9 14 5 15 8 16 10 17 6 18 7 19 82 20 11 21 2 22
REMARK SMILES IDX 1 23 12 24 13 25 14 26 15 27 27 28 28 29 29 30 30 31 31 32
REMARK SMILES IDX 32 33 33 34 34 35 35 36 81 37 36 38 80 39 37 40 38 41 39 42
REMARK SMILES IDX 74 43 40 44 79 45 73 46 75 47 41 48 78 49 72 50 71 51 42 53
REMARK SMILES IDX 64 54 49 55 63 56 50 57 53 58 62 59 76 60 51 61 52 62 61 64
REMARK SMILES IDX 77 65 54 66 43 67 44 68 48 69 45 70 47 71 46 72 65 73 66 74
REMARK SMILES IDX 70 75 67 76 69 77 68 78 55 79 56 80 60 81 57 82 59 83 58 84
REMARK H PARENT 75 52 53 63
REMARK Flexibility Score: inf
ROOT
ATOM      1  C   UNL A   1      38.118  28.922  30.127  1.00  0.00     0.188 C 
ENDROOT
BRANCH   1   2
ATOM      2  O   UNL A   1      38.255  30.332  30.305  1.00  0.00    -0.377 OA
BRANCH   2   3
ATOM      3  C   UNL A   1      38.066  31.160  29.168  1.00  0.00     0.188 C 
BRANCH   3   4
ATOM      4  C   UNL A   1      36.803  32.034  29.265  1.00  0.00     0.188 C 
BRANCH   4   5
ATOM      5  O   UNL A   1      35.973  31.942  28.108  1.00  0.00    -0.376 OA
BRANCH   5   6
ATOM      6  C   UNL A   1      35.685  30.638  27.616  1.00  0.00     0.202 C 
BRANCH   6   7
ATOM      7  C   UNL A   1      34.208  30.273  27.409  1.00  0.00     0.261 C 
BRANCH   7   8
ATOM      8  O   UNL A   1      33.922  28.865  27.384  1.00  0.00    -0.460 OA
BRANCH   8   9
ATOM      9  C   UNL A   1      32.657  28.488  27.117  1.00  0.00     0.338 C 
ATOM     10  O   UNL A   1      31.641  28.931  27.625  1.00  0.00    -0.246 OA
BRANCH   9  11
ATOM     11  C   UNL A   1      32.693  27.552  25.972  1.00  0.00     0.087 C 
ATOM     12  C   UNL A   1      32.853  24.919  22.724  1.00  0.00     0.161 A 
ATOM     13  C   UNL A   1      33.837  23.926  22.696  1.00  0.00     0.054 A 
ATOM     14  C   UNL A   1      32.760  25.777  23.833  1.00  0.00     0.169 A 
ATOM     15  C   UNL A   1      34.711  23.759  23.780  1.00  0.00    -0.047 A 
ATOM     16  C   UNL A   1      33.641  25.631  24.907  1.00  0.00     0.021 A 
ATOM     17  O   UNL A   1      31.779  26.731  23.798  1.00  0.00    -0.471 OA
ATOM     18  C   UNL A   1      35.775  22.700  23.759  1.00  0.00     0.044 C 
ATOM     19  C   UNL A   1      34.592  24.604  24.891  1.00  0.00     0.015 A 
ATOM     20  C   UNL A   1      33.603  26.571  26.015  1.00  0.00     0.027 C 
ATOM     21  C   UNL A   1      31.671  27.696  24.873  1.00  0.00     0.316 C 
BRANCH  12  22
ATOM     22  O   UNL A   1      31.998  25.176  21.680  1.00  0.00    -0.493 OA
ATOM     23  C   UNL A   1      32.608  25.543  20.450  1.00  0.00     0.278 C 
ENDBRANCH  12  22
BRANCH  21  24
ATOM     24  C   UNL A   1      31.678  29.102  24.254  1.00  0.00     0.430 C 
ATOM     25  F   UNL A   1      31.171  29.094  22.997  1.00  0.00    -0.167 F 
ATOM     26  F   UNL A   1      30.924  29.974  24.965  1.00  0.00    -0.167 F 
ATOM     27  F   UNL A   1      32.928  29.618  24.187  1.00  0.00    -0.167 F 
ENDBRANCH  21  24
ENDBRANCH   9  11
ENDBRANCH   8   9
ENDBRANCH   7   8
ENDBRANCH   6   7
ENDBRANCH   5   6
ENDBRANCH   4   5
ENDBRANCH   3   4
ENDBRANCH   2   3
ENDBRANCH   1   2
BRANCH   1  28
ATOM     28  C   UNL A   1      39.246  28.059  29.513  1.00  0.00     0.188 C 
BRANCH  28  29
ATOM     29  O   UNL A   1      38.998  27.651  28.170  1.00  0.00    -0.376 OA
BRANCH  29  30
ATOM     30  C   UNL A   1      39.131  26.266  27.885  1.00  0.00     0.202 C 
BRANCH  30  31
ATOM     31  C   UNL A   1      40.422  25.646  28.431  1.00  0.00     0.261 C 
BRANCH  31  32
ATOM     32  O   UNL A   1      40.839  24.437  27.778  1.00  0.00    -0.460 OA
BRANCH  32  33
ATOM     33  C   UNL A   1      41.999  23.870  28.179  1.00  0.00     0.338 C 
ATOM     34  O   UNL A   1      42.169  22.729  28.570  1.00  0.00    -0.246 OA
BRANCH  33  35
ATOM     35  C   UNL A   1      43.080  24.829  27.874  1.00  0.00     0.060 A 
ATOM     36  C   UNL A   1      43.380  25.152  26.548  1.00  0.00     0.016 A 
ATOM     37  C   UNL A   1      43.827  25.376  28.925  1.00  0.00     0.016 A 
ATOM     38  C   UNL A   1      44.411  26.050  26.275  1.00  0.00     0.010 A 
ATOM     39  C   UNL A   1      44.864  26.271  28.648  1.00  0.00     0.010 A 
ATOM     40  C   UNL A   1      45.144  26.633  27.322  1.00  0.00    -0.014 A 
BRANCH  40  41
ATOM     41  C   UNL A   1      46.048  27.770  27.028  1.00  0.00     0.031 A 
ATOM     42  C   UNL A   1      45.563  29.184  26.948  1.00  0.00     0.074 A 
ATOM     43  C   UNL A   1      47.352  27.489  26.834  1.00  0.00     0.049 A 
ATOM     44  N   UNL A   1      46.269  30.277  26.799  1.00  0.00    -0.248 NA
ATOM     45  C   UNL A   1      44.114  29.407  27.040  1.00  0.00     0.031 C 
ATOM     46  C   UNL A   1      47.926  26.142  26.862  1.00  0.00     0.029 A 
ATOM     47  N   UNL A   1      48.423  28.307  26.586  1.00  0.00    -0.354 N 
ATOM     48  C   UNL A   1      45.355  31.321  26.798  1.00  0.00     0.074 A 
ATOM     49  C   UNL A   1      44.039  30.729  26.922  1.00  0.00     0.031 C 
ATOM     50  C   UNL A   1      49.249  26.229  26.657  1.00  0.00     0.029 A 
ATOM     51  C   UNL A   1      49.610  27.629  26.461  1.00  0.00     0.049 A 
ATOM     52  H   UNL A   1      48.348  29.286  26.503  1.00  0.00     0.167 HD
ATOM     53  C   UNL A   1      45.604  32.651  26.714  1.00  0.00     0.031 A 
ATOM     54  C   UNL A   1      50.858  28.077  26.222  1.00  0.00     0.031 A 
ATOM     55  C   UNL A   1      46.919  33.228  26.575  1.00  0.00     0.049 A 
ATOM     56  C   UNL A   1      51.098  29.554  26.109  1.00  0.00     0.074 A 
ATOM     57  C   UNL A   1      47.265  34.568  26.544  1.00  0.00     0.029 A 
ATOM     58  N   UNL A   1      48.095  32.509  26.428  1.00  0.00    -0.354 N 
ATOM     59  N   UNL A   1      50.236  30.536  26.211  1.00  0.00    -0.248 NA
ATOM     60  C   UNL A   1      52.482  29.989  25.872  1.00  0.00     0.031 C 
ATOM     61  C   UNL A   1      48.637  34.661  26.305  1.00  0.00     0.029 A 
ATOM     62  C   UNL A   1      49.161  33.380  26.265  1.00  0.00     0.049 A 
ATOM     63  H   UNL A   1      48.163  31.527  26.438  1.00  0.00     0.167 HD
ATOM     64  C   UNL A   1      50.972  31.703  26.069  1.00  0.00     0.074 A 
ATOM     65  C   UNL A   1      52.355  31.310  25.895  1.00  0.00     0.031 C 
ATOM     66  C   UNL A   1      50.534  32.985  26.082  1.00  0.00     0.031 A 
BRANCH  53  67
ATOM     67  C   UNL A   1      44.445  33.606  26.781  1.00  0.00    -0.014 A 
ATOM     68  C   UNL A   1      43.840  34.058  25.596  1.00  0.00     0.009 A 
ATOM     69  C   UNL A   1      44.060  34.185  28.001  1.00  0.00     0.009 A 
ATOM     70  C   UNL A   1      42.897  35.087  25.627  1.00  0.00     0.001 A 
ATOM     71  C   UNL A   1      43.097  35.197  28.030  1.00  0.00     0.001 A 
ATOM     72  C   UNL A   1      42.527  35.656  26.844  1.00  0.00     0.000 A 
ENDBRANCH  53  67
BRANCH  54  73
ATOM     73  C   UNL A   1      51.966  27.095  26.106  1.00  0.00    -0.014 A 
ATOM     74  C   UNL A   1      52.192  26.420  24.895  1.00  0.00     0.009 A 
ATOM     75  C   UNL A   1      52.758  26.776  27.218  1.00  0.00     0.009 A 
ATOM     76  C   UNL A   1      53.170  25.429  24.806  1.00  0.00     0.001 A 
ATOM     77  C   UNL A   1      53.758  25.805  27.117  1.00  0.00     0.001 A 
ATOM     78  C   UNL A   1      53.956  25.125  25.917  1.00  0.00     0.000 A 
ENDBRANCH  54  73
BRANCH  66  79
ATOM     79  C   UNL A   1      51.551  34.081  25.905  1.00  0.00    -0.014 A 
ATOM     80  C   UNL A   1      52.159  34.657  27.033  1.00  0.00     0.009 A 
ATOM     81  C   UNL A   1      51.824  34.618  24.638  1.00  0.00     0.009 A 
ATOM     82  C   UNL A   1      53.002  35.762  26.898  1.00  0.00     0.001 A 
ATOM     83  C   UNL A   1      52.692  35.704  24.503  1.00  0.00     0.001 A 
ATOM     84  C   UNL A   1      53.270  36.282  25.632  1.00  0.00     0.000 A 
ENDBRANCH  66  79
ENDBRANCH  40  41
ENDBRANCH  33  35
ENDBRANCH  32  33
ENDBRANCH  31  32
ENDBRANCH  30  31
ENDBRANCH  29  30
ENDBRANCH  28  29
ENDBRANCH   1  28
TORSDOF 22
ENDMDL
MODEL 3
REMARK VINA RESULT:      -8.4      5.244     11.317
REMARK SMILES COc1cc(C)cc2c1O[C@H](C(F)(F)F)C(C(=O)OCCOCCOCCOCCOC(=O)c1ccc(-c3c4nc(c(-c5ccccc5)c5ccc([nH]5)c(-c5ccccc5)c5nc(c(-c6ccccc6)c6ccc3[nH]6)C=C5)C=C4)cc1)=C2
REMARK SMILES IDX 26 1 25 2 24 3 23 4 22 5 21 6 20 7 19 8 17 9 18 10 16 11
REMARK SMILES IDX 3 12 4 13 9 14 5 15 8 16 10 17 6 18 7 19 82 20 11 21 2 22
REMARK SMILES IDX 1 23 12 24 13 25 14 26 15 27 27 28 28 29 29 30 30 31 31 32
REMARK SMILES IDX 32 33 33 34 34 35 35 36 81 37 36 38 80 39 37 40 38 41 39 42
REMARK SMILES IDX 74 43 40 44 79 45 73 46 75 47 41 48 78 49 72 50 71 51 42 53
REMARK SMILES IDX 64 54 49 55 63 56 50 57 53 58 62 59 76 60 51 61 52 62 61 64
REMARK SMILES IDX 77 65 54 66 43 67 44 68 48 69 45 70 47 71 46 72 65 73 66 74
REMARK SMILES IDX 70 75 67 76 69 77 68 78 55 79 56 80 60 81 57 82 59 83 58 84
REMARK H PARENT 75 52 53 63
REMARK Flexibility Score: inf
ROOT
ATOM      1  C   UNL A   1      34.832  34.039  31.955  1.00  0.00     0.188 C 
ENDROOT
BRANCH   1   2
ATOM      2  O   UNL A   1      34.543  32.645  31.851  1.00  0.00    -0.377 OA
BRANCH   2   3
ATOM      3  C   UNL A   1      35.568  31.795  31.361  1.00  0.00     0.188 C 
BRANCH   3   4
ATOM      4  C   UNL A   1      35.428  31.493  29.858  1.00  0.00     0.188 C 
BRANCH   4   5
ATOM      5  O   UNL A   1      36.628  31.743  29.128  1.00  0.00    -0.376 OA
BRANCH   5   6
ATOM      6  C   UNL A   1      36.977  30.812  28.110  1.00  0.00     0.202 C 
BRANCH   6   7
ATOM      7  C   UNL A   1      37.520  29.447  28.559  1.00  0.00     0.261 C 
BRANCH   7   8
ATOM      8  O   UNL A   1      38.951  29.325  28.557  1.00  0.00    -0.460 OA
BRANCH   8   9
ATOM      9  C   UNL A   1      39.499  28.361  29.321  1.00  0.00     0.338 C 
ATOM     10  O   UNL A   1      39.368  28.221  30.524  1.00  0.00    -0.246 OA
BRANCH   9  11
ATOM     11  C   UNL A   1      40.160  27.389  28.423  1.00  0.00     0.087 C 
ATOM     12  C   UNL A   1      42.055  24.613  25.931  1.00  0.00     0.161 A 
ATOM     13  C   UNL A   1      41.877  23.246  26.169  1.00  0.00     0.054 A 
ATOM     14  C   UNL A   1      41.384  25.552  26.732  1.00  0.00     0.169 A 
ATOM     15  C   UNL A   1      41.010  22.807  27.181  1.00  0.00    -0.047 A 
ATOM     16  C   UNL A   1      40.536  25.123  27.754  1.00  0.00     0.021 A 
ATOM     17  O   UNL A   1      41.603  26.875  26.451  1.00  0.00    -0.471 OA
ATOM     18  C   UNL A   1      40.816  21.343  27.449  1.00  0.00     0.044 C 
ATOM     19  C   UNL A   1      40.327  23.753  27.955  1.00  0.00     0.015 A 
ATOM     20  C   UNL A   1      39.909  26.092  28.638  1.00  0.00     0.027 C 
ATOM     21  C   UNL A   1      41.003  27.899  27.281  1.00  0.00     0.316 C 
BRANCH  12  22
ATOM     22  O   UNL A   1      42.925  25.117  24.996  1.00  0.00    -0.493 OA
ATOM     23  C   UNL A   1      44.258  24.628  25.057  1.00  0.00     0.278 C 
ENDBRANCH  12  22
BRANCH  21  24
ATOM     24  C   UNL A   1      42.118  28.840  27.758  1.00  0.00     0.430 C 
ATOM     25  F   UNL A   1      43.118  28.928  26.847  1.00  0.00    -0.167 F 
ATOM     26  F   UNL A   1      41.668  30.103  27.953  1.00  0.00    -0.167 F 
ATOM     27  F   UNL A   1      42.664  28.427  28.925  1.00  0.00    -0.167 F 
ENDBRANCH  21  24
ENDBRANCH   9  11
ENDBRANCH   8   9
ENDBRANCH   7   8
ENDBRANCH   6   7
ENDBRANCH   5   6
ENDBRANCH   4   5
ENDBRANCH   3   4
ENDBRANCH   2   3
ENDBRANCH   1   2
BRANCH   1  28
ATOM     28  C   UNL A   1      36.258  34.563  32.246  1.00  0.00     0.188 C 
BRANCH  28  29
ATOM     29  O   UNL A   1      36.465  34.958  33.600  1.00  0.00    -0.376 OA
BRANCH  29  30
ATOM     30  C   UNL A   1      35.921  34.114  34.605  1.00  0.00     0.202 C 
BRANCH  30  31
ATOM     31  C   UNL A   1      36.940  33.686  35.668  1.00  0.00     0.261 C 
BRANCH  31  32
ATOM     32  O   UNL A   1      37.100  32.267  35.819  1.00  0.00    -0.460 OA
BRANCH  32  33
ATOM     33  C   UNL A   1      38.210  31.821  36.450  1.00  0.00     0.338 C 
ATOM     34  O   UNL A   1      38.323  31.522  37.625  1.00  0.00    -0.246 OA
BRANCH  33  35
ATOM     35  C   UNL A   1      39.229  31.567  35.411  1.00  0.00     0.060 A 
ATOM     36  C   UNL A   1      40.554  31.963  35.613  1.00  0.00     0.016 A 
ATOM     37  C   UNL A   1      38.843  30.966  34.206  1.00  0.00     0.016 A 
ATOM     38  C   UNL A   1      41.502  31.727  34.619  1.00  0.00     0.010 A 
ATOM     39  C   UNL A   1      39.794  30.737  33.208  1.00  0.00     0.010 A 
ATOM     40  C   UNL A   1      41.134  31.093  33.420  1.00  0.00    -0.014 A 
BRANCH  40  41
ATOM     41  C   UNL A   1      42.193  30.620  32.497  1.00  0.00     0.031 A 
ATOM     42  C   UNL A   1      42.871  29.296  32.661  1.00  0.00     0.074 A 
ATOM     43  C   UNL A   1      42.533  31.433  31.478  1.00  0.00     0.049 A 
ATOM     44  N   UNL A   1      43.738  28.724  31.864  1.00  0.00    -0.248 NA
ATOM     45  C   UNL A   1      42.547  28.515  33.863  1.00  0.00     0.031 C 
ATOM     46  C   UNL A   1      41.955  32.758  31.242  1.00  0.00     0.029 A 
ATOM     47  N   UNL A   1      43.431  31.270  30.455  1.00  0.00    -0.354 N 
ATOM     48  C   UNL A   1      44.052  27.508  32.455  1.00  0.00     0.074 A 
ATOM     49  C   UNL A   1      43.312  27.441  33.698  1.00  0.00     0.031 C 
ATOM     50  C   UNL A   1      42.500  33.279  30.133  1.00  0.00     0.029 A 
ATOM     51  C   UNL A   1      43.479  32.340  29.595  1.00  0.00     0.049 A 
ATOM     52  H   UNL A   1      43.988  30.465  30.349  1.00  0.00     0.167 HD
ATOM     53  C   UNL A   1      44.874  26.537  31.987  1.00  0.00     0.031 A 
ATOM     54  C   UNL A   1      44.221  32.547  28.491  1.00  0.00     0.031 A 
ATOM     55  C   UNL A   1      45.619  26.623  30.754  1.00  0.00     0.049 A 
ATOM     56  C   UNL A   1      45.141  31.463  28.011  1.00  0.00     0.074 A 
ATOM     57  C   UNL A   1      46.427  25.660  30.176  1.00  0.00     0.029 A 
ATOM     58  N   UNL A   1      45.661  27.731  29.922  1.00  0.00    -0.354 N 
ATOM     59  N   UNL A   1      45.351  30.277  28.527  1.00  0.00    -0.248 NA
ATOM     60  C   UNL A   1      45.908  31.733  26.787  1.00  0.00     0.031 C 
ATOM     61  C   UNL A   1      47.017  26.208  29.035  1.00  0.00     0.029 A 
ATOM     62  C   UNL A   1      46.515  27.487  28.858  1.00  0.00     0.049 A 
ATOM     63  H   UNL A   1      45.160  28.566  30.065  1.00  0.00     0.167 HD
ATOM     64  C   UNL A   1      46.260  29.652  27.684  1.00  0.00     0.074 A 
ATOM     65  C   UNL A   1      46.545  30.581  26.611  1.00  0.00     0.031 C 
ATOM     66  C   UNL A   1      46.805  28.417  27.796  1.00  0.00     0.031 A 
BRANCH  53  67
ATOM     67  C   UNL A   1      45.025  25.273  32.786  1.00  0.00    -0.014 A 
ATOM     68  C   UNL A   1      46.153  25.091  33.604  1.00  0.00     0.009 A 
ATOM     69  C   UNL A   1      44.140  24.198  32.605  1.00  0.00     0.009 A 
ATOM     70  C   UNL A   1      46.408  23.854  34.200  1.00  0.00     0.001 A 
ATOM     71  C   UNL A   1      44.384  22.969  33.223  1.00  0.00     0.001 A 
ATOM     72  C   UNL A   1      45.523  22.794  34.008  1.00  0.00     0.000 A 
ENDBRANCH  53  67
BRANCH  54  73
ATOM     73  C   UNL A   1      44.083  33.833  27.762  1.00  0.00    -0.014 A 
ATOM     74  C   UNL A   1      44.945  34.906  28.047  1.00  0.00     0.009 A 
ATOM     75  C   UNL A   1      43.053  34.021  26.829  1.00  0.00     0.009 A 
ATOM     76  C   UNL A   1      44.762  36.147  27.435  1.00  0.00     0.001 A 
ATOM     77  C   UNL A   1      42.893  35.255  26.194  1.00  0.00     0.001 A 
ATOM     78  C   UNL A   1      43.739  36.318  26.505  1.00  0.00     0.000 A 
ENDBRANCH  54  73
BRANCH  66  79
ATOM     79  C   UNL A   1      47.774  27.974  26.733  1.00  0.00    -0.014 A 
ATOM     80  C   UNL A   1      49.136  28.298  26.854  1.00  0.00     0.009 A 
ATOM     81  C   UNL A   1      47.328  27.340  25.564  1.00  0.00     0.009 A 
ATOM     82  C   UNL A   1      50.027  28.014  25.817  1.00  0.00     0.001 A 
ATOM     83  C   UNL A   1      48.227  27.030  24.542  1.00  0.00     0.001 A 
ATOM     84  C   UNL A   1      49.572  27.377  24.663  1.00  0.00     0.000 A 
ENDBRANCH  66  79
ENDBRANCH  40  41
ENDBRANCH  33  35
ENDBRANCH  32  33
ENDBRANCH  31  32
ENDBRANCH  30  31
ENDBRANCH  29  30
ENDBRANCH  28  29
ENDBRANCH   1  28
TORSDOF 22
ENDMDL
