MODEL 1
REMARK VINA RESULT:     -10.3      0.000      0.000
REMARK SMILES CCc1cc(C)c2c(c1)C=C(C(=O)OCCOCCOCCOCCOC(=O)c1ccc(-c3c4nc(c(-c5ccccc5)c5ccc([nH]5)c(-c5ccccc5)c5nc(c(-c6ccccc6)c6ccc3[nH]6)C=C5)C=C4)cc1)[C@@H](C(F)(F)F)O2
REMARK SMILES IDX 21 1 20 2 19 3 18 4 17 5 16 6 15 7 14 8 12 9 13 10 11 11
REMARK SMILES IDX 3 12 4 13 9 14 5 15 8 16 6 17 7 18 10 19 82 20 77 21 2 22
REMARK SMILES IDX 1 23 78 24 79 25 80 26 81 27 22 28 23 29 24 30 25 31 26 32
REMARK SMILES IDX 27 33 28 34 29 35 30 36 76 37 31 38 75 39 32 40 33 41 34 42
REMARK SMILES IDX 69 43 35 44 74 45 68 46 70 47 36 48 73 49 67 50 66 51 37 53
REMARK SMILES IDX 59 54 44 55 58 56 45 57 48 58 57 59 71 60 46 61 47 62 56 64
REMARK SMILES IDX 72 65 49 66 38 67 39 68 43 69 40 70 42 71 41 72 60 73 61 74
REMARK SMILES IDX 65 75 62 76 64 77 63 78 50 79 51 80 55 81 52 82 54 83 53 84
REMARK H PARENT 70 52 48 63
REMARK Flexibility Score: inf
ROOT
ATOM      1  C   UNL A   1      40.027  20.631  26.512  1.00  0.00     0.188 C 
ENDROOT
BRANCH   1   2
ATOM      2  O   UNL A   1      39.963  21.981  26.052  1.00  0.00    -0.377 OA
BRANCH   2   3
ATOM      3  C   UNL A   1      39.290  22.922  26.876  1.00  0.00     0.188 C 
BRANCH   3   4
ATOM      4  C   UNL A   1      38.278  23.788  26.100  1.00  0.00     0.188 C 
BRANCH   4   5
ATOM      5  O   UNL A   1      37.369  23.067  25.291  1.00  0.00    -0.376 OA
BRANCH   5   6
ATOM      6  C   UNL A   1      36.268  22.348  25.820  1.00  0.00     0.202 C 
BRANCH   6   7
ATOM      7  C   UNL A   1      35.002  22.944  26.469  1.00  0.00     0.261 C 
BRANCH   7   8
ATOM      8  O   UNL A   1      34.167  23.776  25.669  1.00  0.00    -0.460 OA
BRANCH   8   9
ATOM      9  C   UNL A   1      32.852  23.497  25.671  1.00  0.00     0.338 C 
ATOM     10  O   UNL A   1      31.951  24.221  26.056  1.00  0.00    -0.246 OA
BRANCH   9  11
ATOM     11  C   UNL A   1      32.665  22.221  24.950  1.00  0.00     0.087 C 
ATOM     12  C   UNL A   1      32.946  17.421  25.034  1.00  0.00    -0.047 A 
ATOM     13  C   UNL A   1      32.736  17.398  23.648  1.00  0.00     0.011 A 
ATOM     14  C   UNL A   1      32.896  18.650  25.701  1.00  0.00     0.015 A 
ATOM     15  C   UNL A   1      32.467  18.579  22.934  1.00  0.00    -0.008 A 
ATOM     16  C   UNL A   1      32.667  19.835  24.996  1.00  0.00     0.018 A 
ATOM     17  C   UNL A   1      32.296  18.532  21.441  1.00  0.00     0.048 C 
ATOM     18  C   UNL A   1      32.418  19.799  23.623  1.00  0.00     0.130 A 
ATOM     19  C   UNL A   1      32.799  21.107  25.679  1.00  0.00     0.027 C 
ATOM     20  O   UNL A   1      32.149  20.918  22.883  1.00  0.00    -0.475 OA
ATOM     21  C   UNL A   1      32.278  22.230  23.496  1.00  0.00     0.316 C 
BRANCH  12  22
ATOM     22  C   UNL A   1      33.332  16.166  25.779  1.00  0.00     0.032 C 
ATOM     23  C   UNL A   1      32.534  14.937  25.368  1.00  0.00     0.009 C 
ENDBRANCH  12  22
BRANCH  21  24
ATOM     24  C   UNL A   1      33.246  23.062  22.646  1.00  0.00     0.430 C 
ATOM     25  F   UNL A   1      34.537  22.773  22.942  1.00  0.00    -0.167 F 
ATOM     26  F   UNL A   1      33.092  22.824  21.323  1.00  0.00    -0.167 F 
ATOM     27  F   UNL A   1      33.073  24.389  22.841  1.00  0.00    -0.167 F 
ENDBRANCH  21  24
ENDBRANCH   9  11
ENDBRANCH   8   9
ENDBRANCH   7   8
ENDBRANCH   6   7
ENDBRANCH   5   6
ENDBRANCH   4   5
ENDBRANCH   3   4
ENDBRANCH   2   3
ENDBRANCH   1   2
BRANCH   1  28
ATOM     28  C   UNL A   1      41.164  19.682  26.059  1.00  0.00     0.188 C 
BRANCH  28  29
ATOM     29  O   UNL A   1      42.463  20.106  26.444  1.00  0.00    -0.376 OA
BRANCH  29  30
ATOM     30  C   UNL A   1      43.524  20.024  25.510  1.00  0.00     0.202 C 
BRANCH  30  31
ATOM     31  C   UNL A   1      44.229  21.335  25.142  1.00  0.00     0.261 C 
BRANCH  31  32
ATOM     32  O   UNL A   1      43.429  22.521  25.210  1.00  0.00    -0.460 OA
BRANCH  32  33
ATOM     33  C   UNL A   1      44.055  23.703  25.046  1.00  0.00     0.338 C 
ATOM     34  O   UNL A   1      44.943  23.971  24.252  1.00  0.00    -0.246 OA
BRANCH  33  35
ATOM     35  C   UNL A   1      43.365  24.688  25.899  1.00  0.00     0.060 A 
ATOM     36  C   UNL A   1      43.688  26.048  25.791  1.00  0.00     0.016 A 
ATOM     37  C   UNL A   1      42.402  24.252  26.810  1.00  0.00     0.016 A 
ATOM     38  C   UNL A   1      43.071  26.977  26.627  1.00  0.00     0.010 A 
ATOM     39  C   UNL A   1      41.814  25.176  27.671  1.00  0.00     0.010 A 
ATOM     40  C   UNL A   1      42.176  26.534  27.608  1.00  0.00    -0.014 A 
BRANCH  40  41
ATOM     41  C   UNL A   1      41.784  27.422  28.720  1.00  0.00     0.031 A 
ATOM     42  C   UNL A   1      42.538  27.300  30.015  1.00  0.00     0.074 A 
ATOM     43  C   UNL A   1      40.757  28.282  28.604  1.00  0.00     0.049 A 
ATOM     44  N   UNL A   1      42.277  27.840  31.175  1.00  0.00    -0.248 NA
ATOM     45  C   UNL A   1      43.743  26.452  30.000  1.00  0.00     0.031 C 
ATOM     46  C   UNL A   1      39.995  28.533  27.384  1.00  0.00     0.029 A 
ATOM     47  N   UNL A   1      40.168  29.085  29.547  1.00  0.00    -0.354 N 
ATOM     48  C   UNL A   1      43.273  27.387  32.028  1.00  0.00     0.074 A 
ATOM     49  C   UNL A   1      44.143  26.526  31.261  1.00  0.00     0.031 C 
ATOM     50  C   UNL A   1      39.014  29.411  27.660  1.00  0.00     0.029 A 
ATOM     51  C   UNL A   1      39.058  29.746  29.083  1.00  0.00     0.049 A 
ATOM     52  H   UNL A   1      40.507  29.178  30.467  1.00  0.00     0.167 HD
ATOM     53  C   UNL A   1      43.441  27.665  33.339  1.00  0.00     0.031 A 
ATOM     54  C   UNL A   1      38.158  30.504  29.742  1.00  0.00     0.031 A 
ATOM     55  C   UNL A   1      42.569  28.513  34.101  1.00  0.00     0.049 A 
ATOM     56  C   UNL A   1      38.322  30.733  31.219  1.00  0.00     0.074 A 
ATOM     57  C   UNL A   1      42.666  28.857  35.437  1.00  0.00     0.029 A 
ATOM     58  N   UNL A   1      41.446  29.146  33.598  1.00  0.00    -0.354 N 
ATOM     59  N   UNL A   1      39.258  30.291  32.023  1.00  0.00    -0.248 NA
ATOM     60  C   UNL A   1      37.307  31.567  31.882  1.00  0.00     0.031 C 
ATOM     61  C   UNL A   1      41.568  29.656  35.758  1.00  0.00     0.029 A 
ATOM     62  C   UNL A   1      40.828  29.863  34.604  1.00  0.00     0.049 A 
ATOM     63  H   UNL A   1      41.134  29.092  32.666  1.00  0.00     0.167 HD
ATOM     64  C   UNL A   1      38.966  30.816  33.276  1.00  0.00     0.074 A 
ATOM     65  C   UNL A   1      37.765  31.611  33.128  1.00  0.00     0.031 C 
ATOM     66  C   UNL A   1      39.638  30.658  34.441  1.00  0.00     0.031 A 
BRANCH  53  67
ATOM     67  C   UNL A   1      44.598  27.038  34.059  1.00  0.00    -0.014 A 
ATOM     68  C   UNL A   1      44.474  25.779  34.662  1.00  0.00     0.009 A 
ATOM     69  C   UNL A   1      45.859  27.653  34.007  1.00  0.00     0.009 A 
ATOM     70  C   UNL A   1      45.598  25.138  35.186  1.00  0.00     0.001 A 
ATOM     71  C   UNL A   1      46.983  27.002  34.513  1.00  0.00     0.001 A 
ATOM     72  C   UNL A   1      46.853  25.744  35.099  1.00  0.00     0.000 A 
ENDBRANCH  53  67
BRANCH  54  73
ATOM     73  C   UNL A   1      37.009  31.083  29.000  1.00  0.00    -0.014 A 
ATOM     74  C   UNL A   1      35.898  30.291  28.674  1.00  0.00     0.009 A 
ATOM     75  C   UNL A   1      37.002  32.441  28.646  1.00  0.00     0.009 A 
ATOM     76  C   UNL A   1      34.804  30.848  28.007  1.00  0.00     0.001 A 
ATOM     77  C   UNL A   1      35.896  33.001  28.001  1.00  0.00     0.001 A 
ATOM     78  C   UNL A   1      34.800  32.202  27.680  1.00  0.00     0.000 A 
ENDBRANCH  54  73
BRANCH  66  79
ATOM     79  C   UNL A   1      39.135  31.384  35.654  1.00  0.00    -0.014 A 
ATOM     80  C   UNL A   1      38.159  30.821  36.489  1.00  0.00     0.009 A 
ATOM     81  C   UNL A   1      39.738  32.597  36.029  1.00  0.00     0.009 A 
ATOM     82  C   UNL A   1      37.786  31.469  37.669  1.00  0.00     0.001 A 
ATOM     83  C   UNL A   1      39.382  33.226  37.222  1.00  0.00     0.001 A 
ATOM     84  C   UNL A   1      38.404  32.664  38.039  1.00  0.00     0.000 A 
ENDBRANCH  66  79
ENDBRANCH  40  41
ENDBRANCH  33  35
ENDBRANCH  32  33
ENDBRANCH  31  32
ENDBRANCH  30  31
ENDBRANCH  29  30
ENDBRANCH  28  29
ENDBRANCH   1  28
TORSDOF 22
ENDMDL
MODEL 2
REMARK VINA RESULT:     -10.2      3.967      8.988
REMARK SMILES CCc1cc(C)c2c(c1)C=C(C(=O)OCCOCCOCCOCCOC(=O)c1ccc(-c3c4nc(c(-c5ccccc5)c5ccc([nH]5)c(-c5ccccc5)c5nc(c(-c6ccccc6)c6ccc3[nH]6)C=C5)C=C4)cc1)[C@@H](C(F)(F)F)O2
REMARK SMILES IDX 21 1 20 2 19 3 18 4 17 5 16 6 15 7 14 8 12 9 13 10 11 11
REMARK SMILES IDX 3 12 4 13 9 14 5 15 8 16 6 17 7 18 10 19 82 20 77 21 2 22
REMARK SMILES IDX 1 23 78 24 79 25 80 26 81 27 22 28 23 29 24 30 25 31 26 32
REMARK SMILES IDX 27 33 28 34 29 35 30 36 76 37 31 38 75 39 32 40 33 41 34 42
REMARK SMILES IDX 69 43 35 44 74 45 68 46 70 47 36 48 73 49 67 50 66 51 37 53
REMARK SMILES IDX 59 54 44 55 58 56 45 57 48 58 57 59 71 60 46 61 47 62 56 64
REMARK SMILES IDX 72 65 49 66 38 67 39 68 43 69 40 70 42 71 41 72 60 73 61 74
REMARK SMILES IDX 65 75 62 76 64 77 63 78 50 79 51 80 55 81 52 82 54 83 53 84
REMARK H PARENT 70 52 48 63
REMARK Flexibility Score: inf
ROOT
ATOM      1  C   UNL A   1      32.517  29.219  25.539  1.00  0.00     0.188 C 
ENDROOT
BRANCH   1   2
ATOM      2  O   UNL A   1      32.034  29.678  24.277  1.00  0.00    -0.377 OA
BRANCH   2   3
ATOM      3  C   UNL A   1      30.647  29.529  24.013  1.00  0.00     0.188 C 
BRANCH   3   4
ATOM      4  C   UNL A   1      30.353  28.533  22.874  1.00  0.00     0.188 C 
BRANCH   4   5
ATOM      5  O   UNL A   1      29.137  27.821  22.999  1.00  0.00    -0.376 OA
BRANCH   5   6
ATOM      6  C   UNL A   1      28.977  26.714  23.869  1.00  0.00     0.202 C 
BRANCH   6   7
ATOM      7  C   UNL A   1      30.080  25.743  24.338  1.00  0.00     0.261 C 
BRANCH   7   8
ATOM      8  O   UNL A   1      30.407  24.643  23.494  1.00  0.00    -0.460 OA
BRANCH   8   9
ATOM      9  C   UNL A   1      31.525  24.756  22.755  1.00  0.00     0.338 C 
ATOM     10  O   UNL A   1      31.793  25.642  21.964  1.00  0.00    -0.246 OA
BRANCH   9  11
ATOM     11  C   UNL A   1      32.465  23.708  23.205  1.00  0.00     0.087 C 
ATOM     12  C   UNL A   1      33.190  19.073  24.260  1.00  0.00    -0.047 A 
ATOM     13  C   UNL A   1      34.435  19.408  24.811  1.00  0.00     0.011 A 
ATOM     14  C   UNL A   1      32.433  20.079  23.650  1.00  0.00     0.015 A 
ATOM     15  C   UNL A   1      34.929  20.722  24.746  1.00  0.00    -0.008 A 
ATOM     16  C   UNL A   1      32.897  21.397  23.612  1.00  0.00     0.018 A 
ATOM     17  C   UNL A   1      36.245  21.063  25.389  1.00  0.00     0.048 C 
ATOM     18  C   UNL A   1      34.156  21.714  24.126  1.00  0.00     0.130 A 
ATOM     19  C   UNL A   1      32.020  22.448  23.138  1.00  0.00     0.027 C 
ATOM     20  O   UNL A   1      34.684  22.975  24.086  1.00  0.00    -0.475 OA
ATOM     21  C   UNL A   1      33.857  24.084  23.638  1.00  0.00     0.316 C 
BRANCH  12  22
ATOM     22  C   UNL A   1      32.621  17.684  24.420  1.00  0.00     0.032 C 
ATOM     23  C   UNL A   1      33.365  16.828  25.434  1.00  0.00     0.009 C 
ENDBRANCH  12  22
BRANCH  21  24
ATOM     24  C   UNL A   1      33.850  25.152  24.738  1.00  0.00     0.430 C 
ATOM     25  F   UNL A   1      35.057  25.241  25.348  1.00  0.00    -0.167 F 
ATOM     26  F   UNL A   1      33.575  26.383  24.248  1.00  0.00    -0.167 F 
ATOM     27  F   UNL A   1      32.932  24.884  25.694  1.00  0.00    -0.167 F 
ENDBRANCH  21  24
ENDBRANCH   9  11
ENDBRANCH   8   9
ENDBRANCH   7   8
ENDBRANCH   6   7
ENDBRANCH   5   6
ENDBRANCH   4   5
ENDBRANCH   3   4
ENDBRANCH   2   3
ENDBRANCH   1   2
BRANCH   1  28
ATOM     28  C   UNL A   1      31.931  29.759  26.868  1.00  0.00     0.188 C 
BRANCH  28  29
ATOM     29  O   UNL A   1      32.484  30.997  27.287  1.00  0.00    -0.376 OA
BRANCH  29  30
ATOM     30  C   UNL A   1      33.887  31.177  27.250  1.00  0.00     0.202 C 
BRANCH  30  31
ATOM     31  C   UNL A   1      34.476  32.247  28.178  1.00  0.00     0.261 C 
BRANCH  31  32
ATOM     32  O   UNL A   1      34.628  31.874  29.553  1.00  0.00    -0.460 OA
BRANCH  32  33
ATOM     33  C   UNL A   1      35.717  32.328  30.203  1.00  0.00     0.338 C 
ATOM     34  O   UNL A   1      35.787  33.283  30.961  1.00  0.00    -0.246 OA
BRANCH  33  35
ATOM     35  C   UNL A   1      36.805  31.363  29.965  1.00  0.00     0.060 A 
ATOM     36  C   UNL A   1      37.360  30.660  31.044  1.00  0.00     0.016 A 
ATOM     37  C   UNL A   1      37.277  31.167  28.667  1.00  0.00     0.016 A 
ATOM     38  C   UNL A   1      38.420  29.781  30.830  1.00  0.00     0.010 A 
ATOM     39  C   UNL A   1      38.361  30.316  28.458  1.00  0.00     0.010 A 
ATOM     40  C   UNL A   1      38.959  29.652  29.545  1.00  0.00    -0.014 A 
BRANCH  40  41
ATOM     41  C   UNL A   1      40.279  29.020  29.347  1.00  0.00     0.031 A 
ATOM     42  C   UNL A   1      41.497  29.895  29.438  1.00  0.00     0.074 A 
ATOM     43  C   UNL A   1      40.394  27.715  29.047  1.00  0.00     0.049 A 
ATOM     44  N   UNL A   1      42.738  29.616  29.139  1.00  0.00    -0.248 NA
ATOM     45  C   UNL A   1      41.288  31.271  29.926  1.00  0.00     0.031 C 
ATOM     46  C   UNL A   1      39.293  26.756  28.993  1.00  0.00     0.029 A 
ATOM     47  N   UNL A   1      41.503  26.982  28.706  1.00  0.00    -0.354 N 
ATOM     48  C   UNL A   1      43.451  30.780  29.389  1.00  0.00     0.074 A 
ATOM     49  C   UNL A   1      42.512  31.772  29.859  1.00  0.00     0.031 C 
ATOM     50  C   UNL A   1      39.779  25.562  28.610  1.00  0.00     0.029 A 
ATOM     51  C   UNL A   1      41.212  25.689  28.351  1.00  0.00     0.049 A 
ATOM     52  H   UNL A   1      42.417  27.349  28.715  1.00  0.00     0.167 HD
ATOM     53  C   UNL A   1      44.775  30.999  29.233  1.00  0.00     0.031 A 
ATOM     54  C   UNL A   1      42.008  24.728  27.839  1.00  0.00     0.031 A 
ATOM     55  C   UNL A   1      45.703  30.012  28.757  1.00  0.00     0.049 A 
ATOM     56  C   UNL A   1      43.464  25.021  27.599  1.00  0.00     0.074 A 
ATOM     57  C   UNL A   1      47.068  30.144  28.572  1.00  0.00     0.029 A 
ATOM     58  N   UNL A   1      45.366  28.722  28.389  1.00  0.00    -0.354 N 
ATOM     59  N   UNL A   1      44.130  26.128  27.824  1.00  0.00    -0.248 NA
ATOM     60  C   UNL A   1      44.281  23.934  27.037  1.00  0.00     0.031 C 
ATOM     61  C   UNL A   1      47.549  28.947  28.040  1.00  0.00     0.029 A 
ATOM     62  C   UNL A   1      46.494  28.051  27.959  1.00  0.00     0.049 A 
ATOM     63  H   UNL A   1      44.458  28.341  28.427  1.00  0.00     0.167 HD
ATOM     64  C   UNL A   1      45.445  25.863  27.462  1.00  0.00     0.074 A 
ATOM     65  C   UNL A   1      45.485  24.490  27.003  1.00  0.00     0.031 C 
ATOM     66  C   UNL A   1      46.522  26.683  27.513  1.00  0.00     0.031 A 
BRANCH  53  67
ATOM     67  C   UNL A   1      45.317  32.358  29.558  1.00  0.00    -0.014 A 
ATOM     68  C   UNL A   1      45.240  33.404  28.629  1.00  0.00     0.009 A 
ATOM     69  C   UNL A   1      45.777  32.626  30.857  1.00  0.00     0.009 A 
ATOM     70  C   UNL A   1      45.600  34.701  29.001  1.00  0.00     0.001 A 
ATOM     71  C   UNL A   1      46.115  33.926  31.232  1.00  0.00     0.001 A 
ATOM     72  C   UNL A   1      46.023  34.962  30.305  1.00  0.00     0.000 A 
ENDBRANCH  53  67
BRANCH  54  73
ATOM     73  C   UNL A   1      41.428  23.403  27.501  1.00  0.00    -0.014 A 
ATOM     74  C   UNL A   1      40.456  23.285  26.498  1.00  0.00     0.009 A 
ATOM     75  C   UNL A   1      41.872  22.244  28.158  1.00  0.00     0.009 A 
ATOM     76  C   UNL A   1      39.939  22.031  26.159  1.00  0.00     0.001 A 
ATOM     77  C   UNL A   1      41.371  20.990  27.801  1.00  0.00     0.001 A 
ATOM     78  C   UNL A   1      40.403  20.886  26.803  1.00  0.00     0.000 A 
ENDBRANCH  54  73
BRANCH  66  79
ATOM     79  C   UNL A   1      47.856  26.127  27.109  1.00  0.00    -0.014 A 
ATOM     80  C   UNL A   1      48.403  26.390  25.845  1.00  0.00     0.009 A 
ATOM     81  C   UNL A   1      48.627  25.430  28.055  1.00  0.00     0.009 A 
ATOM     82  C   UNL A   1      49.692  25.952  25.532  1.00  0.00     0.001 A 
ATOM     83  C   UNL A   1      49.924  25.019  27.748  1.00  0.00     0.001 A 
ATOM     84  C   UNL A   1      50.454  25.276  26.485  1.00  0.00     0.000 A 
ENDBRANCH  66  79
ENDBRANCH  40  41
ENDBRANCH  33  35
ENDBRANCH  32  33
ENDBRANCH  31  32
ENDBRANCH  30  31
ENDBRANCH  29  30
ENDBRANCH  28  29
ENDBRANCH   1  28
TORSDOF 22
ENDMDL
MODEL 3
REMARK VINA RESULT:      -9.7      4.266      9.380
REMARK SMILES CCc1cc(C)c2c(c1)C=C(C(=O)OCCOCCOCCOCCOC(=O)c1ccc(-c3c4nc(c(-c5ccccc5)c5ccc([nH]5)c(-c5ccccc5)c5nc(c(-c6ccccc6)c6ccc3[nH]6)C=C5)C=C4)cc1)[C@@H](C(F)(F)F)O2
REMARK SMILES IDX 21 1 20 2 19 3 18 4 17 5 16 6 15 7 14 8 12 9 13 10 11 11
REMARK SMILES IDX 3 12 4 13 9 14 5 15 8 16 6 17 7 18 10 19 82 20 77 21 2 22
REMARK SMILES IDX 1 23 78 24 79 25 80 26 81 27 22 28 23 29 24 30 25 31 26 32
REMARK SMILES IDX 27 33 28 34 29 35 30 36 76 37 31 38 75 39 32 40 33 41 34 42
REMARK SMILES IDX 69 43 35 44 74 45 68 46 70 47 36 48 73 49 67 50 66 51 37 53
REMARK SMILES IDX 59 54 44 55 58 56 45 57 48 58 57 59 71 60 46 61 47 62 56 64
REMARK SMILES IDX 72 65 49 66 38 67 39 68 43 69 40 70 42 71 41 72 60 73 61 74
REMARK SMILES IDX 65 75 62 76 64 77 63 78 50 79 51 80 55 81 52 82 54 83 53 84
REMARK H PARENT 70 52 48 63
REMARK Flexibility Score: inf
ROOT
ATOM      1  C   UNL A   1      33.353  29.303  26.012  1.00  0.00     0.188 C 
ENDROOT
BRANCH   1   2
ATOM      2  O   UNL A   1      32.891  29.598  24.694  1.00  0.00    -0.377 OA
BRANCH   2   3
ATOM      3  C   UNL A   1      31.533  29.313  24.397  1.00  0.00     0.188 C 
BRANCH   3   4
ATOM      4  C   UNL A   1      31.312  28.890  22.930  1.00  0.00     0.188 C 
BRANCH   4   5
ATOM      5  O   UNL A   1      30.076  28.253  22.670  1.00  0.00    -0.376 OA
BRANCH   5   6
ATOM      6  C   UNL A   1      29.550  27.226  23.493  1.00  0.00     0.202 C 
BRANCH   6   7
ATOM      7  C   UNL A   1      30.345  26.109  24.197  1.00  0.00     0.261 C 
BRANCH   7   8
ATOM      8  O   UNL A   1      30.574  24.897  23.485  1.00  0.00    -0.460 OA
BRANCH   8   9
ATOM      9  C   UNL A   1      31.639  24.866  22.665  1.00  0.00     0.338 C 
ATOM     10  O   UNL A   1      31.909  25.661  21.784  1.00  0.00    -0.246 OA
BRANCH   9  11
ATOM     11  C   UNL A   1      32.536  23.791  23.141  1.00  0.00     0.087 C 
ATOM     12  C   UNL A   1      33.087  19.146  24.254  1.00  0.00    -0.047 A 
ATOM     13  C   UNL A   1      34.334  19.444  24.822  1.00  0.00     0.011 A 
ATOM     14  C   UNL A   1      32.374  20.170  23.621  1.00  0.00     0.015 A 
ATOM     15  C   UNL A   1      34.872  20.740  24.753  1.00  0.00    -0.008 A 
ATOM     16  C   UNL A   1      32.884  21.471  23.578  1.00  0.00     0.018 A 
ATOM     17  C   UNL A   1      36.188  21.044  25.414  1.00  0.00     0.048 C 
ATOM     18  C   UNL A   1      34.143  21.751  24.110  1.00  0.00     0.130 A 
ATOM     19  C   UNL A   1      32.050  22.546  23.079  1.00  0.00     0.027 C 
ATOM     20  O   UNL A   1      34.714  22.994  24.066  1.00  0.00    -0.475 OA
ATOM     21  C   UNL A   1      33.932  24.124  23.594  1.00  0.00     0.316 C 
BRANCH  12  22
ATOM     22  C   UNL A   1      32.468  17.779  24.418  1.00  0.00     0.032 C 
ATOM     23  C   UNL A   1      33.373  16.638  23.976  1.00  0.00     0.009 C 
ENDBRANCH  12  22
BRANCH  21  24
ATOM     24  C   UNL A   1      33.943  25.203  24.683  1.00  0.00     0.430 C 
ATOM     25  F   UNL A   1      32.964  24.994  25.596  1.00  0.00    -0.167 F 
ATOM     26  F   UNL A   1      35.111  25.220  25.368  1.00  0.00    -0.167 F 
ATOM     27  F   UNL A   1      33.760  26.440  24.168  1.00  0.00    -0.167 F 
ENDBRANCH  21  24
ENDBRANCH   9  11
ENDBRANCH   8   9
ENDBRANCH   7   8
ENDBRANCH   6   7
ENDBRANCH   5   6
ENDBRANCH   4   5
ENDBRANCH   3   4
ENDBRANCH   2   3
ENDBRANCH   1   2
BRANCH   1  28
ATOM     28  C   UNL A   1      32.783  30.043  27.248  1.00  0.00     0.188 C 
BRANCH  28  29
ATOM     29  O   UNL A   1      33.174  31.404  27.342  1.00  0.00    -0.376 OA
BRANCH  29  30
ATOM     30  C   UNL A   1      34.507  31.718  27.700  1.00  0.00     0.202 C 
BRANCH  30  31
ATOM     31  C   UNL A   1      35.001  31.208  29.060  1.00  0.00     0.261 C 
BRANCH  31  32
ATOM     32  O   UNL A   1      35.687  29.950  29.049  1.00  0.00    -0.460 OA
BRANCH  32  33
ATOM     33  C   UNL A   1      36.494  29.674  30.091  1.00  0.00     0.338 C 
ATOM     34  O   UNL A   1      36.228  29.752  31.280  1.00  0.00    -0.246 OA
BRANCH  33  35
ATOM     35  C   UNL A   1      37.735  29.096  29.545  1.00  0.00     0.060 A 
ATOM     36  C   UNL A   1      38.687  28.544  30.414  1.00  0.00     0.016 A 
ATOM     37  C   UNL A   1      37.952  29.113  28.167  1.00  0.00     0.016 A 
ATOM     38  C   UNL A   1      39.882  28.038  29.906  1.00  0.00     0.010 A 
ATOM     39  C   UNL A   1      39.162  28.641  27.662  1.00  0.00     0.010 A 
ATOM     40  C   UNL A   1      40.145  28.139  28.535  1.00  0.00    -0.014 A 
BRANCH  40  41
ATOM     41  C   UNL A   1      41.515  27.946  28.019  1.00  0.00     0.031 A 
ATOM     42  C   UNL A   1      41.888  26.581  27.512  1.00  0.00     0.074 A 
ATOM     43  C   UNL A   1      42.420  28.938  28.042  1.00  0.00     0.049 A 
ATOM     44  N   UNL A   1      43.063  26.120  27.173  1.00  0.00    -0.248 NA
ATOM     45  C   UNL A   1      40.793  25.603  27.377  1.00  0.00     0.031 C 
ATOM     46  C   UNL A   1      42.158  30.316  28.450  1.00  0.00     0.029 A 
ATOM     47  N   UNL A   1      43.757  28.922  27.734  1.00  0.00    -0.354 N 
ATOM     48  C   UNL A   1      42.849  24.800  26.798  1.00  0.00     0.074 A 
ATOM     49  C   UNL A   1      41.439  24.527  26.954  1.00  0.00     0.031 C 
ATOM     50  C   UNL A   1      43.309  31.010  28.395  1.00  0.00     0.029 A 
ATOM     51  C   UNL A   1      44.391  30.112  27.991  1.00  0.00     0.049 A 
ATOM     52  H   UNL A   1      44.217  28.133  27.364  1.00  0.00     0.167 HD
ATOM     53  C   UNL A   1      43.756  23.897  26.366  1.00  0.00     0.031 A 
ATOM     54  C   UNL A   1      45.700  30.428  27.942  1.00  0.00     0.031 A 
ATOM     55  C   UNL A   1      45.158  24.170  26.222  1.00  0.00     0.049 A 
ATOM     56  C   UNL A   1      46.701  29.382  27.535  1.00  0.00     0.074 A 
ATOM     57  C   UNL A   1      46.153  23.314  25.784  1.00  0.00     0.029 A 
ATOM     58  N   UNL A   1      45.761  25.380  26.512  1.00  0.00    -0.354 N 
ATOM     59  N   UNL A   1      46.495  28.132  27.195  1.00  0.00    -0.248 NA
ATOM     60  C   UNL A   1      48.115  29.787  27.502  1.00  0.00     0.031 C 
ATOM     61  C   UNL A   1      47.370  23.992  25.861  1.00  0.00     0.029 A 
ATOM     62  C   UNL A   1      47.121  25.289  26.282  1.00  0.00     0.049 A 
ATOM     63  H   UNL A   1      45.293  26.185  26.835  1.00  0.00     0.167 HD
ATOM     64  C   UNL A   1      47.744  27.611  26.878  1.00  0.00     0.074 A 
ATOM     65  C   UNL A   1      48.703  28.679  27.065  1.00  0.00     0.031 C 
ATOM     66  C   UNL A   1      48.063  26.362  26.463  1.00  0.00     0.031 A 
BRANCH  53  67
ATOM     67  C   UNL A   1      43.282  22.515  26.031  1.00  0.00    -0.014 A 
ATOM     68  C   UNL A   1      44.192  21.508  25.679  1.00  0.00     0.009 A 
ATOM     69  C   UNL A   1      41.929  22.186  26.210  1.00  0.00     0.009 A 
ATOM     70  C   UNL A   1      43.756  20.190  25.528  1.00  0.00     0.001 A 
ATOM     71  C   UNL A   1      41.501  20.865  26.079  1.00  0.00     0.001 A 
ATOM     72  C   UNL A   1      42.414  19.868  25.742  1.00  0.00     0.000 A 
ENDBRANCH  53  67
BRANCH  54  73
ATOM     73  C   UNL A   1      46.134  31.800  28.310  1.00  0.00    -0.014 A 
ATOM     74  C   UNL A   1      46.299  32.784  27.324  1.00  0.00     0.009 A 
ATOM     75  C   UNL A   1      46.351  32.142  29.654  1.00  0.00     0.009 A 
ATOM     76  C   UNL A   1      46.674  34.083  27.678  1.00  0.00     0.001 A 
ATOM     77  C   UNL A   1      46.701  33.447  30.007  1.00  0.00     0.001 A 
ATOM     78  C   UNL A   1      46.865  34.415  29.018  1.00  0.00     0.000 A 
ENDBRANCH  54  73
BRANCH  66  79
ATOM     79  C   UNL A   1      49.498  26.069  26.134  1.00  0.00    -0.014 A 
ATOM     80  C   UNL A   1      50.039  26.392  24.882  1.00  0.00     0.009 A 
ATOM     81  C   UNL A   1      50.346  25.573  27.138  1.00  0.00     0.009 A 
ATOM     82  C   UNL A   1      51.402  26.208  24.637  1.00  0.00     0.001 A 
ATOM     83  C   UNL A   1      51.712  25.418  26.898  1.00  0.00     0.001 A 
ATOM     84  C   UNL A   1      52.238  25.731  25.647  1.00  0.00     0.000 A 
ENDBRANCH  66  79
ENDBRANCH  40  41
ENDBRANCH  33  35
ENDBRANCH  32  33
ENDBRANCH  31  32
ENDBRANCH  30  31
ENDBRANCH  29  30
ENDBRANCH  28  29
ENDBRANCH   1  28
TORSDOF 22
ENDMDL
