MODEL 1
REMARK VINA RESULT:      -8.8      0.000      0.000
REMARK SMILES CC[N@@H+]1CC[C@H](C[NH2+]Cc2cc(C(=O)OCCOCCOCCOCCOC(=O)c3ccc(-c4c5nc(c(-c6ccccc6)c6ccc([nH]6)c(-c6ccccc6)c6nc(c(-c7ccccc7)c7ccc4[nH]7)C=C6)C=C5)cc3)cs2)C1
REMARK SMILES IDX 19 1 18 2 17 3 16 4 15 5 13 6 14 7 12 8 10 9 11 10 79 11
REMARK SMILES IDX 78 12 9 13 8 14 7 17 6 18 3 19 4 20 80 21 5 23 2 24 1 25
REMARK SMILES IDX 20 26 21 27 22 28 23 29 24 30 25 31 26 32 27 33 28 34 29 35
REMARK SMILES IDX 30 36 31 37 77 38 32 39 76 40 33 41 34 42 35 43 70 44 36 45
REMARK SMILES IDX 75 46 69 47 71 48 37 49 74 50 68 51 67 52 38 54 60 55 45 56
REMARK SMILES IDX 59 57 46 58 49 59 58 60 72 61 47 62 48 63 57 65 73 66 50 67
REMARK SMILES IDX 39 68 40 69 44 70 41 71 43 72 42 73 61 74 62 75 66 76 63 77
REMARK SMILES IDX 65 78 64 79 51 80 52 81 56 82 53 83 55 84 54 85
REMARK H PARENT 8 15 8 16 3 22 71 53 49 64
REMARK Flexibility Score: inf
ROOT
ATOM      1  C   UNL A   1      33.272  33.891  28.090  1.00  0.00     0.188 C 
ENDROOT
BRANCH   1   2
ATOM      2  O   UNL A   1      33.740  32.543  28.079  1.00  0.00    -0.376 OA
BRANCH   2   3
ATOM      3  C   UNL A   1      32.922  31.605  27.392  1.00  0.00     0.202 C 
BRANCH   3   4
ATOM      4  C   UNL A   1      33.667  30.311  27.036  1.00  0.00     0.261 C 
BRANCH   4   5
ATOM      5  O   UNL A   1      33.067  29.553  25.977  1.00  0.00    -0.460 OA
BRANCH   5   6
ATOM      6  C   UNL A   1      32.244  28.537  26.342  1.00  0.00     0.339 C 
ATOM      7  O   UNL A   1      31.819  28.351  27.476  1.00  0.00    -0.246 OA
BRANCH   6   8
ATOM      8  C   UNL A   1      31.805  27.775  25.184  1.00  0.00     0.071 A 
ATOM      9  C   UNL A   1      31.632  26.004  23.668  1.00  0.00     0.059 A 
ATOM     10  C   UNL A   1      32.299  26.494  24.773  1.00  0.00     0.037 A 
ATOM     11  S   UNL A   1      30.624  27.202  22.966  1.00  0.00    -0.142 S 
ATOM     12  C   UNL A   1      30.863  28.253  24.293  1.00  0.00     0.081 A 
BRANCH   9  13
ATOM     13  C   UNL A   1      31.616  24.594  23.146  1.00  0.00     0.308 C 
BRANCH  13  14
ATOM     14  N   UNL A   1      32.871  24.281  22.428  1.00  0.00    -0.341 N 
ATOM     15  H   UNL A   1      32.641  23.879  21.519  1.00  0.00     0.346 HD
ATOM     16  H   UNL A   1      33.400  25.146  22.320  1.00  0.00     0.346 HD
BRANCH  14  17
ATOM     17  C   UNL A   1      33.697  23.326  23.179  1.00  0.00     0.270 C 
BRANCH  17  18
ATOM     18  C   UNL A   1      35.052  23.877  23.627  1.00  0.00     0.105 C 
ATOM     19  N   UNL A   1      37.134  22.773  24.219  1.00  0.00    -0.335 N 
ATOM     20  C   UNL A   1      36.762  23.705  25.284  1.00  0.00     0.262 C 
ATOM     21  C   UNL A   1      36.188  22.974  23.113  1.00  0.00     0.271 C 
ATOM     22  H   UNL A   1      38.083  22.984  23.911  1.00  0.00     0.348 HD
ATOM     23  C   UNL A   1      35.266  23.909  25.137  1.00  0.00     0.076 C 
BRANCH  19  24
ATOM     24  C   UNL A   1      37.268  21.372  24.639  1.00  0.00     0.258 C 
ATOM     25  C   UNL A   1      35.995  20.604  24.989  1.00  0.00     0.071 C 
ENDBRANCH  19  24
ENDBRANCH  17  18
ENDBRANCH  14  17
ENDBRANCH  13  14
ENDBRANCH   9  13
ENDBRANCH   6   8
ENDBRANCH   5   6
ENDBRANCH   4   5
ENDBRANCH   3   4
ENDBRANCH   2   3
ENDBRANCH   1   2
BRANCH   1  26
ATOM     26  C   UNL A   1      33.881  34.748  29.212  1.00  0.00     0.188 C 
BRANCH  26  27
ATOM     27  O   UNL A   1      33.083  34.956  30.363  1.00  0.00    -0.377 OA
BRANCH  27  28
ATOM     28  C   UNL A   1      32.932  36.276  30.875  1.00  0.00     0.188 C 
BRANCH  28  29
ATOM     29  C   UNL A   1      33.290  36.634  32.333  1.00  0.00     0.188 C 
BRANCH  29  30
ATOM     30  O   UNL A   1      34.642  36.376  32.700  1.00  0.00    -0.376 OA
BRANCH  30  31
ATOM     31  C   UNL A   1      34.870  35.205  33.473  1.00  0.00     0.202 C 
BRANCH  31  32
ATOM     32  C   UNL A   1      36.140  34.457  33.059  1.00  0.00     0.261 C 
BRANCH  32  33
ATOM     33  O   UNL A   1      36.104  33.922  31.728  1.00  0.00    -0.460 OA
BRANCH  33  34
ATOM     34  C   UNL A   1      35.683  32.645  31.597  1.00  0.00     0.338 C 
ATOM     35  O   UNL A   1      34.554  32.214  31.741  1.00  0.00    -0.246 OA
BRANCH  34  36
ATOM     36  C   UNL A   1      36.811  31.858  31.070  1.00  0.00     0.060 A 
ATOM     37  C   UNL A   1      37.646  31.188  31.971  1.00  0.00     0.016 A 
ATOM     38  C   UNL A   1      37.032  31.779  29.693  1.00  0.00     0.016 A 
ATOM     39  C   UNL A   1      38.732  30.454  31.493  1.00  0.00     0.010 A 
ATOM     40  C   UNL A   1      38.129  31.063  29.218  1.00  0.00     0.010 A 
ATOM     41  C   UNL A   1      38.997  30.422  30.117  1.00  0.00    -0.014 A 
BRANCH  41  42
ATOM     42  C   UNL A   1      40.281  29.881  29.622  1.00  0.00     0.031 A 
ATOM     43  C   UNL A   1      41.445  30.822  29.488  1.00  0.00     0.074 A 
ATOM     44  C   UNL A   1      40.409  28.588  29.280  1.00  0.00     0.049 A 
ATOM     45  N   UNL A   1      42.648  30.592  29.031  1.00  0.00    -0.248 NA
ATOM     46  C   UNL A   1      41.218  32.210  29.928  1.00  0.00     0.031 C 
ATOM     47  C   UNL A   1      39.366  27.572  29.394  1.00  0.00     0.029 A 
ATOM     48  N   UNL A   1      41.482  27.917  28.752  1.00  0.00    -0.354 N 
ATOM     49  C   UNL A   1      43.322  31.802  29.129  1.00  0.00     0.074 A 
ATOM     50  C   UNL A   1      42.388  32.770  29.664  1.00  0.00     0.031 C 
ATOM     51  C   UNL A   1      39.848  26.402  28.937  1.00  0.00     0.029 A 
ATOM     52  C   UNL A   1      41.221  26.599  28.473  1.00  0.00     0.049 A 
ATOM     53  H   UNL A   1      42.357  28.339  28.590  1.00  0.00     0.167 HD
ATOM     54  C   UNL A   1      44.604  32.085  28.805  1.00  0.00     0.031 A 
ATOM     55  C   UNL A   1      41.997  25.666  27.889  1.00  0.00     0.031 A 
ATOM     56  C   UNL A   1      45.525  31.137  28.242  1.00  0.00     0.049 A 
ATOM     57  C   UNL A   1      43.391  26.030  27.450  1.00  0.00     0.074 A 
ATOM     58  C   UNL A   1      46.850  31.326  27.889  1.00  0.00     0.029 A 
ATOM     59  N   UNL A   1      45.209  29.824  27.934  1.00  0.00    -0.354 N 
ATOM     60  N   UNL A   1      44.029  27.167  27.581  1.00  0.00    -0.248 NA
ATOM     61  C   UNL A   1      44.169  24.977  26.781  1.00  0.00     0.031 C 
ATOM     62  C   UNL A   1      47.321  30.137  27.320  1.00  0.00     0.029 A 
ATOM     63  C   UNL A   1      46.303  29.197  27.366  1.00  0.00     0.049 A 
ATOM     64  H   UNL A   1      44.335  29.400  28.097  1.00  0.00     0.167 HD
ATOM     65  C   UNL A   1      45.290  26.961  27.032  1.00  0.00     0.074 A 
ATOM     66  C   UNL A   1      45.330  25.586  26.579  1.00  0.00     0.031 C 
ATOM     67  C   UNL A   1      46.323  27.830  26.915  1.00  0.00     0.031 A 
BRANCH  54  68
ATOM     68  C   UNL A   1      45.067  33.495  29.025  1.00  0.00    -0.014 A 
ATOM     69  C   UNL A   1      44.941  34.464  28.017  1.00  0.00     0.009 A 
ATOM     70  C   UNL A   1      45.627  33.861  30.258  1.00  0.00     0.009 A 
ATOM     71  C   UNL A   1      45.398  35.766  28.230  1.00  0.00     0.001 A 
ATOM     72  C   UNL A   1      46.062  35.169  30.475  1.00  0.00     0.001 A 
ATOM     73  C   UNL A   1      45.955  36.118  29.459  1.00  0.00     0.000 A 
ENDBRANCH  54  68
BRANCH  55  74
ATOM     74  C   UNL A   1      41.472  24.297  27.657  1.00  0.00    -0.014 A 
ATOM     75  C   UNL A   1      40.635  24.029  26.563  1.00  0.00     0.009 A 
ATOM     76  C   UNL A   1      41.779  23.256  28.549  1.00  0.00     0.009 A 
ATOM     77  C   UNL A   1      40.099  22.752  26.379  1.00  0.00     0.001 A 
ATOM     78  C   UNL A   1      41.260  21.976  28.349  1.00  0.00     0.001 A 
ATOM     79  C   UNL A   1      40.415  21.726  27.269  1.00  0.00     0.000 A 
ENDBRANCH  55  74
BRANCH  67  80
ATOM     80  C   UNL A   1      47.590  27.315  26.296  1.00  0.00    -0.014 A 
ATOM     81  C   UNL A   1      48.524  26.590  27.051  1.00  0.00     0.009 A 
ATOM     82  C   UNL A   1      47.828  27.517  24.928  1.00  0.00     0.009 A 
ATOM     83  C   UNL A   1      49.687  26.100  26.452  1.00  0.00     0.001 A 
ATOM     84  C   UNL A   1      48.978  27.005  24.325  1.00  0.00     0.001 A 
ATOM     85  C   UNL A   1      49.910  26.303  25.090  1.00  0.00     0.000 A 
ENDBRANCH  67  80
ENDBRANCH  41  42
ENDBRANCH  34  36
ENDBRANCH  33  34
ENDBRANCH  32  33
ENDBRANCH  31  32
ENDBRANCH  30  31
ENDBRANCH  29  30
ENDBRANCH  28  29
ENDBRANCH  27  28
ENDBRANCH  26  27
ENDBRANCH   1  26
TORSDOF 25
ENDMDL
MODEL 2
REMARK VINA RESULT:      -7.9      6.771     10.634
REMARK SMILES CC[N@@H+]1CC[C@H](C[NH2+]Cc2cc(C(=O)OCCOCCOCCOCCOC(=O)c3ccc(-c4c5nc(c(-c6ccccc6)c6ccc([nH]6)c(-c6ccccc6)c6nc(c(-c7ccccc7)c7ccc4[nH]7)C=C6)C=C5)cc3)cs2)C1
REMARK SMILES IDX 19 1 18 2 17 3 16 4 15 5 13 6 14 7 12 8 10 9 11 10 79 11
REMARK SMILES IDX 78 12 9 13 8 14 7 17 6 18 3 19 4 20 80 21 5 23 2 24 1 25
REMARK SMILES IDX 20 26 21 27 22 28 23 29 24 30 25 31 26 32 27 33 28 34 29 35
REMARK SMILES IDX 30 36 31 37 77 38 32 39 76 40 33 41 34 42 35 43 70 44 36 45
REMARK SMILES IDX 75 46 69 47 71 48 37 49 74 50 68 51 67 52 38 54 60 55 45 56
REMARK SMILES IDX 59 57 46 58 49 59 58 60 72 61 47 62 48 63 57 65 73 66 50 67
REMARK SMILES IDX 39 68 40 69 44 70 41 71 43 72 42 73 61 74 62 75 66 76 63 77
REMARK SMILES IDX 65 78 64 79 51 80 52 81 56 82 53 83 55 84 54 85
REMARK H PARENT 8 15 8 16 3 22 71 53 49 64
REMARK Flexibility Score: inf
ROOT
ATOM      1  C   UNL A   1      34.044  28.679  27.003  1.00  0.00     0.188 C 
ENDROOT
BRANCH   1   2
ATOM      2  O   UNL A   1      33.222  27.567  26.651  1.00  0.00    -0.376 OA
BRANCH   2   3
ATOM      3  C   UNL A   1      31.891  27.876  26.259  1.00  0.00     0.202 C 
BRANCH   3   4
ATOM      4  C   UNL A   1      30.939  26.677  26.379  1.00  0.00     0.261 C 
BRANCH   4   5
ATOM      5  O   UNL A   1      31.447  25.592  27.168  1.00  0.00    -0.460 OA
BRANCH   5   6
ATOM      6  C   UNL A   1      31.029  24.345  26.833  1.00  0.00     0.339 C 
ATOM      7  O   UNL A   1      29.927  23.878  27.098  1.00  0.00    -0.246 OA
BRANCH   6   8
ATOM      8  C   UNL A   1      32.003  23.675  25.988  1.00  0.00     0.071 A 
ATOM      9  C   UNL A   1      32.872  22.460  24.189  1.00  0.00     0.059 A 
ATOM     10  C   UNL A   1      31.723  22.914  24.806  1.00  0.00     0.037 A 
ATOM     11  S   UNL A   1      34.251  22.703  25.182  1.00  0.00    -0.142 S 
ATOM     12  C   UNL A   1      33.355  23.659  26.279  1.00  0.00     0.081 A 
BRANCH   9  13
ATOM     13  C   UNL A   1      33.025  21.931  22.790  1.00  0.00     0.308 C 
BRANCH  13  14
ATOM     14  N   UNL A   1      32.575  22.928  21.795  1.00  0.00    -0.341 N 
ATOM     15  H   UNL A   1      32.969  22.690  20.885  1.00  0.00     0.346 HD
ATOM     16  H   UNL A   1      31.555  22.911  21.766  1.00  0.00     0.346 HD
BRANCH  14  17
ATOM     17  C   UNL A   1      33.002  24.285  22.161  1.00  0.00     0.270 C 
BRANCH  17  18
ATOM     18  C   UNL A   1      32.035  25.391  21.735  1.00  0.00     0.105 C 
ATOM     19  N   UNL A   1      32.104  27.803  22.018  1.00  0.00    -0.335 N 
ATOM     20  C   UNL A   1      30.815  27.298  22.493  1.00  0.00     0.262 C 
ATOM     21  C   UNL A   1      32.812  26.675  21.396  1.00  0.00     0.271 C 
ATOM     22  H   UNL A   1      31.938  28.535  21.328  1.00  0.00     0.348 HD
ATOM     23  C   UNL A   1      31.049  25.833  22.812  1.00  0.00     0.076 C 
BRANCH  19  24
ATOM     24  C   UNL A   1      32.898  28.522  23.022  1.00  0.00     0.258 C 
ATOM     25  C   UNL A   1      34.414  28.557  22.845  1.00  0.00     0.071 C 
ENDBRANCH  19  24
ENDBRANCH  17  18
ENDBRANCH  14  17
ENDBRANCH  13  14
ENDBRANCH   9  13
ENDBRANCH   6   8
ENDBRANCH   5   6
ENDBRANCH   4   5
ENDBRANCH   3   4
ENDBRANCH   2   3
ENDBRANCH   1   2
BRANCH   1  26
ATOM     26  C   UNL A   1      33.250  29.952  27.341  1.00  0.00     0.188 C 
BRANCH  26  27
ATOM     27  O   UNL A   1      33.907  31.188  27.132  1.00  0.00    -0.377 OA
BRANCH  27  28
ATOM     28  C   UNL A   1      33.680  32.259  28.042  1.00  0.00     0.188 C 
BRANCH  28  29
ATOM     29  C   UNL A   1      34.596  33.500  28.091  1.00  0.00     0.188 C 
BRANCH  29  30
ATOM     30  O   UNL A   1      33.932  34.725  28.385  1.00  0.00    -0.376 OA
BRANCH  30  31
ATOM     31  C   UNL A   1      33.330  34.820  29.670  1.00  0.00     0.202 C 
BRANCH  31  32
ATOM     32  C   UNL A   1      34.350  34.779  30.810  1.00  0.00     0.261 C 
BRANCH  32  33
ATOM     33  O   UNL A   1      34.000  33.893  31.883  1.00  0.00    -0.460 OA
BRANCH  33  34
ATOM     34  C   UNL A   1      34.725  32.759  31.996  1.00  0.00     0.338 C 
ATOM     35  O   UNL A   1      34.789  31.833  31.208  1.00  0.00    -0.246 OA
BRANCH  34  36
ATOM     36  C   UNL A   1      35.585  32.899  33.184  1.00  0.00     0.060 A 
ATOM     37  C   UNL A   1      35.322  33.934  34.089  1.00  0.00     0.016 A 
ATOM     38  C   UNL A   1      36.635  32.005  33.403  1.00  0.00     0.016 A 
ATOM     39  C   UNL A   1      36.137  34.096  35.209  1.00  0.00     0.010 A 
ATOM     40  C   UNL A   1      37.462  32.180  34.512  1.00  0.00     0.010 A 
ATOM     41  C   UNL A   1      37.232  33.242  35.402  1.00  0.00    -0.014 A 
BRANCH  41  42
ATOM     42  C   UNL A   1      38.252  33.563  36.424  1.00  0.00     0.031 A 
ATOM     43  C   UNL A   1      39.465  34.341  35.999  1.00  0.00     0.074 A 
ATOM     44  C   UNL A   1      38.116  33.156  37.698  1.00  0.00     0.049 A 
ATOM     45  N   UNL A   1      40.510  34.694  36.700  1.00  0.00    -0.248 NA
ATOM     46  C   UNL A   1      39.502  34.777  34.592  1.00  0.00     0.031 C 
ATOM     47  C   UNL A   1      36.974  32.424  38.239  1.00  0.00     0.029 A 
ATOM     48  N   UNL A   1      38.966  33.299  38.764  1.00  0.00    -0.354 N 
ATOM     49  C   UNL A   1      41.328  35.394  35.823  1.00  0.00     0.074 A 
ATOM     50  C   UNL A   1      40.671  35.395  34.533  1.00  0.00     0.031 C 
ATOM     51  C   UNL A   1      37.199  32.169  39.540  1.00  0.00     0.029 A 
ATOM     52  C   UNL A   1      38.513  32.696  39.911  1.00  0.00     0.049 A 
ATOM     53  H   UNL A   1      39.820  33.788  38.713  1.00  0.00     0.167 HD
ATOM     54  C   UNL A   1      42.518  35.988  36.067  1.00  0.00     0.031 A 
ATOM     55  C   UNL A   1      39.103  32.567  41.115  1.00  0.00     0.031 A 
ATOM     56  C   UNL A   1      43.191  35.961  37.336  1.00  0.00     0.049 A 
ATOM     57  C   UNL A   1      40.472  33.155  41.335  1.00  0.00     0.074 A 
ATOM     58  C   UNL A   1      44.398  36.541  37.685  1.00  0.00     0.029 A 
ATOM     59  N   UNL A   1      42.719  35.303  38.460  1.00  0.00    -0.354 N 
ATOM     60  N   UNL A   1      41.219  33.845  40.510  1.00  0.00    -0.248 NA
ATOM     61  C   UNL A   1      41.077  32.941  42.659  1.00  0.00     0.031 C 
ATOM     62  C   UNL A   1      44.680  36.191  39.011  1.00  0.00     0.029 A 
ATOM     63  C   UNL A   1      43.624  35.436  39.498  1.00  0.00     0.049 A 
ATOM     64  H   UNL A   1      41.866  34.815  38.513  1.00  0.00     0.167 HD
ATOM     65  C   UNL A   1      42.371  34.167  41.218  1.00  0.00     0.074 A 
ATOM     66  C   UNL A   1      42.218  33.607  42.545  1.00  0.00     0.031 C 
ATOM     67  C   UNL A   1      43.458  34.866  40.809  1.00  0.00     0.031 A 
BRANCH  54  68
ATOM     68  C   UNL A   1      43.181  36.685  34.916  1.00  0.00    -0.014 A 
ATOM     69  C   UNL A   1      44.040  35.993  34.047  1.00  0.00     0.009 A 
ATOM     70  C   UNL A   1      42.935  38.048  34.691  1.00  0.00     0.009 A 
ATOM     71  C   UNL A   1      44.667  36.663  32.994  1.00  0.00     0.001 A 
ATOM     72  C   UNL A   1      43.545  38.709  33.624  1.00  0.00     0.001 A 
ATOM     73  C   UNL A   1      44.416  38.019  32.783  1.00  0.00     0.000 A 
ENDBRANCH  54  68
BRANCH  55  74
ATOM     74  C   UNL A   1      38.419  31.829  42.205  1.00  0.00    -0.014 A 
ATOM     75  C   UNL A   1      37.598  32.506  43.121  1.00  0.00     0.009 A 
ATOM     76  C   UNL A   1      38.608  30.446  42.357  1.00  0.00     0.009 A 
ATOM     77  C   UNL A   1      37.000  31.816  44.178  1.00  0.00     0.001 A 
ATOM     78  C   UNL A   1      37.990  29.756  43.401  1.00  0.00     0.001 A 
ATOM     79  C   UNL A   1      37.193  30.442  44.316  1.00  0.00     0.000 A 
ENDBRANCH  55  74
BRANCH  67  80
ATOM     80  C   UNL A   1      44.553  35.085  41.812  1.00  0.00    -0.014 A 
ATOM     81  C   UNL A   1      44.658  36.291  42.521  1.00  0.00     0.009 A 
ATOM     82  C   UNL A   1      45.464  34.052  42.085  1.00  0.00     0.009 A 
ATOM     83  C   UNL A   1      45.671  36.468  43.466  1.00  0.00     0.001 A 
ATOM     84  C   UNL A   1      46.460  34.222  43.048  1.00  0.00     0.001 A 
ATOM     85  C   UNL A   1      46.567  35.433  43.732  1.00  0.00     0.000 A 
ENDBRANCH  67  80
ENDBRANCH  41  42
ENDBRANCH  34  36
ENDBRANCH  33  34
ENDBRANCH  32  33
ENDBRANCH  31  32
ENDBRANCH  30  31
ENDBRANCH  29  30
ENDBRANCH  28  29
ENDBRANCH  27  28
ENDBRANCH  26  27
ENDBRANCH   1  26
TORSDOF 25
ENDMDL
MODEL 3
REMARK VINA RESULT:      -7.9      1.821      6.421
REMARK SMILES CC[N@@H+]1CC[C@H](C[NH2+]Cc2cc(C(=O)OCCOCCOCCOCCOC(=O)c3ccc(-c4c5nc(c(-c6ccccc6)c6ccc([nH]6)c(-c6ccccc6)c6nc(c(-c7ccccc7)c7ccc4[nH]7)C=C6)C=C5)cc3)cs2)C1
REMARK SMILES IDX 19 1 18 2 17 3 16 4 15 5 13 6 14 7 12 8 10 9 11 10 79 11
REMARK SMILES IDX 78 12 9 13 8 14 7 17 6 18 3 19 4 20 80 21 5 23 2 24 1 25
REMARK SMILES IDX 20 26 21 27 22 28 23 29 24 30 25 31 26 32 27 33 28 34 29 35
REMARK SMILES IDX 30 36 31 37 77 38 32 39 76 40 33 41 34 42 35 43 70 44 36 45
REMARK SMILES IDX 75 46 69 47 71 48 37 49 74 50 68 51 67 52 38 54 60 55 45 56
REMARK SMILES IDX 59 57 46 58 49 59 58 60 72 61 47 62 48 63 57 65 73 66 50 67
REMARK SMILES IDX 39 68 40 69 44 70 41 71 43 72 42 73 61 74 62 75 66 76 63 77
REMARK SMILES IDX 65 78 64 79 51 80 52 81 56 82 53 83 55 84 54 85
REMARK H PARENT 8 15 8 16 3 22 71 53 49 64
REMARK Flexibility Score: inf
ROOT
ATOM      1  C   UNL A   1      33.046  29.190  26.988  1.00  0.00     0.188 C 
ENDROOT
BRANCH   1   2
ATOM      2  O   UNL A   1      33.265  28.838  25.623  1.00  0.00    -0.376 OA
BRANCH   2   3
ATOM      3  C   UNL A   1      32.652  29.680  24.656  1.00  0.00     0.202 C 
BRANCH   3   4
ATOM      4  C   UNL A   1      31.137  29.457  24.544  1.00  0.00     0.261 C 
BRANCH   4   5
ATOM      5  O   UNL A   1      30.743  28.079  24.487  1.00  0.00    -0.460 OA
BRANCH   5   6
ATOM      6  C   UNL A   1      30.585  27.539  23.252  1.00  0.00     0.339 C 
ATOM      7  O   UNL A   1      30.188  28.147  22.265  1.00  0.00    -0.246 OA
BRANCH   6   8
ATOM      8  C   UNL A   1      31.087  26.175  23.208  1.00  0.00     0.071 A 
ATOM      9  C   UNL A   1      32.587  24.404  22.929  1.00  0.00     0.059 A 
ATOM     10  C   UNL A   1      32.397  25.765  22.793  1.00  0.00     0.037 A 
ATOM     11  S   UNL A   1      31.113  23.599  23.277  1.00  0.00    -0.142 S 
ATOM     12  C   UNL A   1      30.303  25.083  23.526  1.00  0.00     0.081 A 
BRANCH   9  13
ATOM     13  C   UNL A   1      33.886  23.646  22.924  1.00  0.00     0.308 C 
BRANCH  13  14
ATOM     14  N   UNL A   1      34.685  23.957  24.129  1.00  0.00    -0.341 N 
ATOM     15  H   UNL A   1      35.676  23.911  23.891  1.00  0.00     0.346 HD
ATOM     16  H   UNL A   1      34.431  24.892  24.448  1.00  0.00     0.346 HD
BRANCH  14  17
ATOM     17  C   UNL A   1      34.410  23.008  25.217  1.00  0.00     0.270 C 
BRANCH  17  18
ATOM     18  C   UNL A   1      35.448  21.894  25.363  1.00  0.00     0.105 C 
ATOM     19  N   UNL A   1      37.778  21.930  26.052  1.00  0.00    -0.335 N 
ATOM     20  C   UNL A   1      37.661  21.218  24.778  1.00  0.00     0.262 C 
ATOM     21  C   UNL A   1      36.413  22.216  26.517  1.00  0.00     0.271 C 
ATOM     22  H   UNL A   1      38.258  21.331  26.722  1.00  0.00     0.348 HD
ATOM     23  C   UNL A   1      36.366  21.708  24.159  1.00  0.00     0.076 C 
BRANCH  19  24
ATOM     24  C   UNL A   1      38.657  23.105  26.028  1.00  0.00     0.258 C 
ATOM     25  C   UNL A   1      38.181  24.370  26.740  1.00  0.00     0.071 C 
ENDBRANCH  19  24
ENDBRANCH  17  18
ENDBRANCH  14  17
ENDBRANCH  13  14
ENDBRANCH   9  13
ENDBRANCH   6   8
ENDBRANCH   5   6
ENDBRANCH   4   5
ENDBRANCH   3   4
ENDBRANCH   2   3
ENDBRANCH   1   2
BRANCH   1  26
ATOM     26  C   UNL A   1      32.840  30.697  27.213  1.00  0.00     0.188 C 
BRANCH  26  27
ATOM     27  O   UNL A   1      33.875  31.389  27.889  1.00  0.00    -0.377 OA
BRANCH  27  28
ATOM     28  C   UNL A   1      33.818  32.809  27.978  1.00  0.00     0.188 C 
BRANCH  28  29
ATOM     29  C   UNL A   1      34.309  33.571  29.227  1.00  0.00     0.188 C 
BRANCH  29  30
ATOM     30  O   UNL A   1      35.652  34.038  29.156  1.00  0.00    -0.376 OA
BRANCH  30  31
ATOM     31  C   UNL A   1      36.622  33.270  29.857  1.00  0.00     0.202 C 
BRANCH  31  32
ATOM     32  C   UNL A   1      35.997  32.210  30.768  1.00  0.00     0.261 C 
BRANCH  32  33
ATOM     33  O   UNL A   1      36.169  30.861  30.308  1.00  0.00    -0.460 OA
BRANCH  33  34
ATOM     34  C   UNL A   1      36.887  30.036  31.100  1.00  0.00     0.338 C 
ATOM     35  O   UNL A   1      36.490  29.374  32.042  1.00  0.00    -0.246 OA
BRANCH  34  36
ATOM     36  C   UNL A   1      38.236  29.927  30.520  1.00  0.00     0.060 A 
ATOM     37  C   UNL A   1      38.365  29.771  29.135  1.00  0.00     0.016 A 
ATOM     38  C   UNL A   1      39.364  29.991  31.342  1.00  0.00     0.016 A 
ATOM     39  C   UNL A   1      39.634  29.647  28.568  1.00  0.00     0.010 A 
ATOM     40  C   UNL A   1      40.630  29.846  30.777  1.00  0.00     0.010 A 
ATOM     41  C   UNL A   1      40.767  29.645  29.394  1.00  0.00    -0.014 A 
BRANCH  41  42
ATOM     42  C   UNL A   1      42.082  29.248  28.847  1.00  0.00     0.031 A 
ATOM     43  C   UNL A   1      42.277  27.819  28.429  1.00  0.00     0.074 A 
ATOM     44  C   UNL A   1      43.090  30.132  28.741  1.00  0.00     0.049 A 
ATOM     45  N   UNL A   1      43.350  27.228  27.973  1.00  0.00    -0.248 NA
ATOM     46  C   UNL A   1      41.101  26.938  28.544  1.00  0.00     0.031 C 
ATOM     47  C   UNL A   1      43.016  31.550  29.083  1.00  0.00     0.029 A 
ATOM     48  N   UNL A   1      44.383  29.949  28.322  1.00  0.00    -0.354 N 
ATOM     49  C   UNL A   1      42.980  25.909  27.744  1.00  0.00     0.074 A 
ATOM     50  C   UNL A   1      41.593  25.779  28.136  1.00  0.00     0.031 C 
ATOM     51  C   UNL A   1      44.221  32.110  28.870  1.00  0.00     0.029 A 
ATOM     52  C   UNL A   1      45.152  31.082  28.405  1.00  0.00     0.049 A 
ATOM     53  H   UNL A   1      44.727  29.087  27.992  1.00  0.00     0.167 HD
ATOM     54  C   UNL A   1      43.726  24.895  27.250  1.00  0.00     0.031 A 
ATOM     55  C   UNL A   1      46.463  31.261  28.156  1.00  0.00     0.031 A 
ATOM     56  C   UNL A   1      45.112  25.009  26.892  1.00  0.00     0.049 A 
ATOM     57  C   UNL A   1      47.296  30.093  27.697  1.00  0.00     0.074 A 
ATOM     58  C   UNL A   1      45.953  24.039  26.373  1.00  0.00     0.029 A 
ATOM     59  N   UNL A   1      45.866  26.163  27.032  1.00  0.00    -0.354 N 
ATOM     60  N   UNL A   1      46.928  28.860  27.451  1.00  0.00    -0.248 NA
ATOM     61  C   UNL A   1      48.729  30.347  27.484  1.00  0.00     0.031 C 
ATOM     62  C   UNL A   1      47.231  24.596  26.247  1.00  0.00     0.029 A 
ATOM     63  C   UNL A   1      47.171  25.924  26.640  1.00  0.00     0.049 A 
ATOM     64  H   UNL A   1      45.524  27.025  27.362  1.00  0.00     0.167 HD
ATOM     65  C   UNL A   1      48.076  28.197  27.033  1.00  0.00     0.074 A 
ATOM     66  C   UNL A   1      49.150  29.168  27.047  1.00  0.00     0.031 C 
ATOM     67  C   UNL A   1      48.227  26.900  26.667  1.00  0.00     0.031 A 
BRANCH  54  68
ATOM     68  C   UNL A   1      43.053  23.562  27.106  1.00  0.00    -0.014 A 
ATOM     69  C   UNL A   1      42.781  22.762  28.228  1.00  0.00     0.009 A 
ATOM     70  C   UNL A   1      42.679  23.103  25.834  1.00  0.00     0.009 A 
ATOM     71  C   UNL A   1      42.174  21.514  28.073  1.00  0.00     0.001 A 
ATOM     72  C   UNL A   1      42.053  21.865  25.686  1.00  0.00     0.001 A 
ATOM     73  C   UNL A   1      41.809  21.068  26.803  1.00  0.00     0.000 A 
ENDBRANCH  54  68
BRANCH  55  74
ATOM     74  C   UNL A   1      47.086  32.593  28.358  1.00  0.00    -0.014 A 
ATOM     75  C   UNL A   1      47.513  32.996  29.632  1.00  0.00     0.009 A 
ATOM     76  C   UNL A   1      47.228  33.482  27.281  1.00  0.00     0.009 A 
ATOM     77  C   UNL A   1      48.050  34.271  29.828  1.00  0.00     0.001 A 
ATOM     78  C   UNL A   1      47.786  34.747  27.475  1.00  0.00     0.001 A 
ATOM     79  C   UNL A   1      48.189  35.144  28.749  1.00  0.00     0.000 A 
ENDBRANCH  55  74
BRANCH  67  80
ATOM     80  C   UNL A   1      49.596  26.464  26.230  1.00  0.00    -0.014 A 
ATOM     81  C   UNL A   1      50.084  26.776  24.952  1.00  0.00     0.009 A 
ATOM     82  C   UNL A   1      50.426  25.773  27.127  1.00  0.00     0.009 A 
ATOM     83  C   UNL A   1      51.368  26.381  24.571  1.00  0.00     0.001 A 
ATOM     84  C   UNL A   1      51.718  25.401  26.753  1.00  0.00     0.001 A 
ATOM     85  C   UNL A   1      52.185  25.698  25.473  1.00  0.00     0.000 A 
ENDBRANCH  67  80
ENDBRANCH  41  42
ENDBRANCH  34  36
ENDBRANCH  33  34
ENDBRANCH  32  33
ENDBRANCH  31  32
ENDBRANCH  30  31
ENDBRANCH  29  30
ENDBRANCH  28  29
ENDBRANCH  27  28
ENDBRANCH  26  27
ENDBRANCH   1  26
TORSDOF 25
ENDMDL
