MODEL 1
REMARK VINA RESULT:      -9.9      0.000      0.000
REMARK SMILES Cc1ccc(F)c(O[C@H]2CC[C@]([NH2+]C(C)C)(C(=O)OCCOCCOCCOCCOC(=O)c3ccc(-c4c5nc(c(-c6ccccc6)c6ccc([nH]6)c(-c6ccccc6)c6nc(c(-c7ccccc7)c7ccc4[nH]7)C=C6)C=C5)cc3)C2)c1
REMARK SMILES IDX 25 1 24 2 23 3 22 4 21 5 20 6 19 7 17 8 18 9 12 10 9 11
REMARK SMILES IDX 10 12 82 13 11 14 8 15 7 16 1 17 2 18 3 19 83 20 4 21 5 22
REMARK SMILES IDX 6 23 13 24 14 27 15 28 16 29 26 30 27 31 28 32 29 33 30 34
REMARK SMILES IDX 31 35 32 36 33 37 34 38 35 39 81 40 36 41 80 42 37 43 38 44
REMARK SMILES IDX 39 45 74 46 40 47 79 48 73 49 75 50 41 51 78 52 72 53 71 54
REMARK SMILES IDX 42 56 64 57 49 58 63 59 50 60 53 61 62 62 76 63 51 64 52 65
REMARK SMILES IDX 61 67 77 68 54 69 43 70 44 71 48 72 45 73 47 74 46 75 65 76
REMARK SMILES IDX 66 77 70 78 67 79 69 80 68 81 55 82 56 83 60 84 57 85 59 86
REMARK SMILES IDX 58 87
REMARK H PARENT 13 25 13 26 75 55 53 66
REMARK Flexibility Score: inf
ROOT
ATOM      1  O   UNL A   1      38.930  21.648  25.757  1.00  0.00    -0.377 OA
ENDROOT
BRANCH   1   2
ATOM      2  C   UNL A   1      37.668  22.287  25.658  1.00  0.00     0.188 C 
BRANCH   2   3
ATOM      3  C   UNL A   1      36.760  21.795  24.525  1.00  0.00     0.188 C 
BRANCH   3   4
ATOM      4  O   UNL A   1      35.425  21.527  24.897  1.00  0.00    -0.376 OA
BRANCH   4   5
ATOM      5  C   UNL A   1      34.938  20.198  24.992  1.00  0.00     0.202 C 
BRANCH   5   6
ATOM      6  C   UNL A   1      33.556  19.690  24.531  1.00  0.00     0.261 C 
BRANCH   6   7
ATOM      7  O   UNL A   1      32.474  20.619  24.555  1.00  0.00    -0.459 OA
BRANCH   7   8
ATOM      8  C   UNL A   1      32.267  21.382  23.458  1.00  0.00     0.368 C 
ATOM      9  O   UNL A   1      32.031  20.921  22.345  1.00  0.00    -0.245 OA
BRANCH   8  10
ATOM     10  C   UNL A   1      32.325  22.904  23.768  1.00  0.00     0.198 C 
ATOM     11  C   UNL A   1      31.275  25.001  23.081  1.00  0.00     0.180 C 
ATOM     12  C   UNL A   1      32.563  24.904  22.281  1.00  0.00     0.052 C 
ATOM     13  C   UNL A   1      30.975  23.530  23.355  1.00  0.00     0.126 C 
ATOM     14  C   UNL A   1      33.321  23.728  22.887  1.00  0.00     0.085 C 
BRANCH  11  15
ATOM     15  O   UNL A   1      31.470  25.640  24.346  1.00  0.00    -0.487 OA
BRANCH  15  16
ATOM     16  C   UNL A   1      31.296  26.992  24.435  1.00  0.00     0.155 A 
ATOM     17  C   UNL A   1      32.235  29.531  27.125  1.00  0.00     0.044 C 
ATOM     18  C   UNL A   1      31.722  28.934  25.848  1.00  0.00    -0.047 A 
ATOM     19  C   UNL A   1      31.139  29.758  24.879  1.00  0.00     0.007 A 
ATOM     20  C   UNL A   1      31.809  27.555  25.609  1.00  0.00     0.053 A 
ATOM     21  C   UNL A   1      30.629  29.206  23.706  1.00  0.00     0.043 A 
ATOM     22  C   UNL A   1      30.697  27.832  23.495  1.00  0.00     0.165 A 
ATOM     23  F   UNL A   1      30.175  27.358  22.354  1.00  0.00    -0.203 F 
ENDBRANCH  15  16
ENDBRANCH  11  15
BRANCH  10  24
ATOM     24  N   UNL A   1      32.735  23.176  25.181  1.00  0.00    -0.330 N 
ATOM     25  H   UNL A   1      32.728  24.188  25.298  1.00  0.00     0.347 HD
ATOM     26  H   UNL A   1      33.632  22.698  25.259  1.00  0.00     0.347 HD
BRANCH  24  27
ATOM     27  C   UNL A   1      31.959  22.617  26.293  1.00  0.00     0.176 C 
ATOM     28  C   UNL A   1      32.916  22.480  27.487  1.00  0.00     0.075 C 
ATOM     29  C   UNL A   1      30.758  23.456  26.720  1.00  0.00     0.075 C 
ENDBRANCH  24  27
ENDBRANCH  10  24
ENDBRANCH   8  10
ENDBRANCH   7   8
ENDBRANCH   6   7
ENDBRANCH   5   6
ENDBRANCH   4   5
ENDBRANCH   3   4
ENDBRANCH   2   3
ENDBRANCH   1   2
BRANCH   1  30
ATOM     30  C   UNL A   1      39.847  22.075  26.756  1.00  0.00     0.188 C 
BRANCH  30  31
ATOM     31  C   UNL A   1      41.041  21.200  27.199  1.00  0.00     0.188 C 
BRANCH  31  32
ATOM     32  O   UNL A   1      41.882  20.742  26.155  1.00  0.00    -0.376 OA
BRANCH  32  33
ATOM     33  C   UNL A   1      43.218  21.222  26.095  1.00  0.00     0.202 C 
BRANCH  33  34
ATOM     34  C   UNL A   1      43.588  22.159  24.934  1.00  0.00     0.261 C 
BRANCH  34  35
ATOM     35  O   UNL A   1      42.987  23.466  24.957  1.00  0.00    -0.460 OA
BRANCH  35  36
ATOM     36  C   UNL A   1      43.787  24.519  25.212  1.00  0.00     0.338 C 
ATOM     37  O   UNL A   1      44.832  24.808  24.650  1.00  0.00    -0.246 OA
BRANCH  36  38
ATOM     38  C   UNL A   1      43.090  25.401  26.168  1.00  0.00     0.060 A 
ATOM     39  C   UNL A   1      43.513  26.730  26.290  1.00  0.00     0.016 A 
ATOM     40  C   UNL A   1      42.028  24.925  26.942  1.00  0.00     0.016 A 
ATOM     41  C   UNL A   1      42.900  27.577  27.212  1.00  0.00     0.010 A 
ATOM     42  C   UNL A   1      41.430  25.769  27.883  1.00  0.00     0.010 A 
ATOM     43  C   UNL A   1      41.887  27.088  28.046  1.00  0.00    -0.014 A 
BRANCH  43  44
ATOM     44  C   UNL A   1      41.438  27.911  29.196  1.00  0.00     0.031 A 
ATOM     45  C   UNL A   1      42.188  27.809  30.496  1.00  0.00     0.074 A 
ATOM     46  C   UNL A   1      40.418  28.779  29.075  1.00  0.00     0.049 A 
ATOM     47  N   UNL A   1      41.995  28.450  31.620  1.00  0.00    -0.248 NA
ATOM     48  C   UNL A   1      43.310  26.855  30.531  1.00  0.00     0.031 C 
ATOM     49  C   UNL A   1      39.640  29.008  27.860  1.00  0.00     0.029 A 
ATOM     50  N   UNL A   1      39.869  29.637  29.996  1.00  0.00    -0.354 N 
ATOM     51  C   UNL A   1      42.966  27.978  32.495  1.00  0.00     0.074 A 
ATOM     52  C   UNL A   1      43.723  26.971  31.785  1.00  0.00     0.031 C 
ATOM     53  C   UNL A   1      38.713  29.950  28.109  1.00  0.00     0.029 A 
ATOM     54  C   UNL A   1      38.810  30.364  29.507  1.00  0.00     0.049 A 
ATOM     55  H   UNL A   1      40.201  29.723  30.918  1.00  0.00     0.167 HD
ATOM     56  C   UNL A   1      43.211  28.352  33.773  1.00  0.00     0.031 A 
ATOM     57  C   UNL A   1      38.004  31.250  30.124  1.00  0.00     0.031 A 
ATOM     58  C   UNL A   1      42.445  29.338  34.490  1.00  0.00     0.049 A 
ATOM     59  C   UNL A   1      38.242  31.585  31.574  1.00  0.00     0.074 A 
ATOM     60  C   UNL A   1      42.626  29.795  35.784  1.00  0.00     0.029 A 
ATOM     61  N   UNL A   1      41.345  30.007  33.979  1.00  0.00    -0.354 N 
ATOM     62  N   UNL A   1      39.184  31.158  32.380  1.00  0.00    -0.248 NA
ATOM     63  C   UNL A   1      37.307  32.535  32.194  1.00  0.00     0.031 C 
ATOM     64  C   UNL A   1      41.592  30.689  36.079  1.00  0.00     0.029 A 
ATOM     65  C   UNL A   1      40.812  30.847  34.944  1.00  0.00     0.049 A 
ATOM     66  H   UNL A   1      40.993  29.902  33.066  1.00  0.00     0.167 HD
ATOM     67  C   UNL A   1      38.973  31.806  33.590  1.00  0.00     0.074 A 
ATOM     68  C   UNL A   1      37.827  32.672  33.405  1.00  0.00     0.031 C 
ATOM     69  C   UNL A   1      39.663  31.695  34.753  1.00  0.00     0.031 A 
BRANCH  56  70
ATOM     70  C   UNL A   1      44.333  27.655  34.494  1.00  0.00    -0.014 A 
ATOM     71  C   UNL A   1      44.119  26.472  35.218  1.00  0.00     0.009 A 
ATOM     72  C   UNL A   1      45.634  28.180  34.424  1.00  0.00     0.009 A 
ATOM     73  C   UNL A   1      45.177  25.849  35.886  1.00  0.00     0.001 A 
ATOM     74  C   UNL A   1      46.695  27.539  35.065  1.00  0.00     0.001 A 
ATOM     75  C   UNL A   1      46.464  26.380  35.805  1.00  0.00     0.000 A 
ENDBRANCH  56  70
BRANCH  57  76
ATOM     76  C   UNL A   1      36.876  31.875  29.382  1.00  0.00    -0.014 A 
ATOM     77  C   UNL A   1      37.013  33.143  28.796  1.00  0.00     0.009 A 
ATOM     78  C   UNL A   1      35.642  31.213  29.279  1.00  0.00     0.009 A 
ATOM     79  C   UNL A   1      35.932  33.745  28.148  1.00  0.00     0.001 A 
ATOM     80  C   UNL A   1      34.572  31.802  28.601  1.00  0.00     0.001 A 
ATOM     81  C   UNL A   1      34.715  33.072  28.045  1.00  0.00     0.000 A 
ENDBRANCH  57  76
BRANCH  69  82
ATOM     82  C   UNL A   1      39.217  32.555  35.906  1.00  0.00    -0.014 A 
ATOM     83  C   UNL A   1      39.710  33.857  36.083  1.00  0.00     0.009 A 
ATOM     84  C   UNL A   1      38.268  32.061  36.814  1.00  0.00     0.009 A 
ATOM     85  C   UNL A   1      39.296  34.628  37.173  1.00  0.00     0.001 A 
ATOM     86  C   UNL A   1      37.828  32.847  37.881  1.00  0.00     0.001 A 
ATOM     87  C   UNL A   1      38.352  34.124  38.067  1.00  0.00     0.000 A 
ENDBRANCH  69  82
ENDBRANCH  43  44
ENDBRANCH  36  38
ENDBRANCH  35  36
ENDBRANCH  34  35
ENDBRANCH  33  34
ENDBRANCH  32  33
ENDBRANCH  31  32
ENDBRANCH  30  31
ENDBRANCH   1  30
TORSDOF 24
ENDMDL
MODEL 2
REMARK VINA RESULT:      -9.7      4.365      6.730
REMARK SMILES Cc1ccc(F)c(O[C@H]2CC[C@]([NH2+]C(C)C)(C(=O)OCCOCCOCCOCCOC(=O)c3ccc(-c4c5nc(c(-c6ccccc6)c6ccc([nH]6)c(-c6ccccc6)c6nc(c(-c7ccccc7)c7ccc4[nH]7)C=C6)C=C5)cc3)C2)c1
REMARK SMILES IDX 25 1 24 2 23 3 22 4 21 5 20 6 19 7 17 8 18 9 12 10 9 11
REMARK SMILES IDX 10 12 82 13 11 14 8 15 7 16 1 17 2 18 3 19 83 20 4 21 5 22
REMARK SMILES IDX 6 23 13 24 14 27 15 28 16 29 26 30 27 31 28 32 29 33 30 34
REMARK SMILES IDX 31 35 32 36 33 37 34 38 35 39 81 40 36 41 80 42 37 43 38 44
REMARK SMILES IDX 39 45 74 46 40 47 79 48 73 49 75 50 41 51 78 52 72 53 71 54
REMARK SMILES IDX 42 56 64 57 49 58 63 59 50 60 53 61 62 62 76 63 51 64 52 65
REMARK SMILES IDX 61 67 77 68 54 69 43 70 44 71 48 72 45 73 47 74 46 75 65 76
REMARK SMILES IDX 66 77 70 78 67 79 69 80 68 81 55 82 56 83 60 84 57 85 59 86
REMARK SMILES IDX 58 87
REMARK H PARENT 13 25 13 26 75 55 53 66
REMARK Flexibility Score: inf
ROOT
ATOM      1  O   UNL A   1      39.082  21.833  26.001  1.00  0.00    -0.377 OA
ENDROOT
BRANCH   1   2
ATOM      2  C   UNL A   1      38.013  22.726  25.746  1.00  0.00     0.188 C 
BRANCH   2   3
ATOM      3  C   UNL A   1      36.718  22.085  25.230  1.00  0.00     0.188 C 
BRANCH   3   4
ATOM      4  O   UNL A   1      35.538  22.508  25.879  1.00  0.00    -0.376 OA
BRANCH   4   5
ATOM      5  C   UNL A   1      34.800  21.629  26.713  1.00  0.00     0.202 C 
BRANCH   5   6
ATOM      6  C   UNL A   1      33.406  21.037  26.419  1.00  0.00     0.261 C 
BRANCH   6   7
ATOM      7  O   UNL A   1      32.346  21.954  26.153  1.00  0.00    -0.459 OA
BRANCH   7   8
ATOM      8  C   UNL A   1      32.185  22.388  24.882  1.00  0.00     0.368 C 
ATOM      9  O   UNL A   1      32.060  21.637  23.919  1.00  0.00    -0.245 OA
BRANCH   8  10
ATOM     10  C   UNL A   1      32.138  23.938  24.781  1.00  0.00     0.198 C 
ATOM     11  C   UNL A   1      31.602  25.893  26.146  1.00  0.00     0.180 C 
ATOM     12  C   UNL A   1      30.347  25.595  25.343  1.00  0.00     0.052 C 
ATOM     13  C   UNL A   1      32.258  24.517  26.208  1.00  0.00     0.126 C 
ATOM     14  C   UNL A   1      30.765  24.536  24.329  1.00  0.00     0.085 C 
BRANCH  11  15
ATOM     15  O   UNL A   1      32.497  26.763  25.447  1.00  0.00    -0.487 OA
BRANCH  15  16
ATOM     16  C   UNL A   1      32.610  28.060  25.858  1.00  0.00     0.155 A 
ATOM     17  C   UNL A   1      35.187  29.854  28.027  1.00  0.00     0.044 C 
ATOM     18  C   UNL A   1      34.003  29.596  27.143  1.00  0.00    -0.047 A 
ATOM     19  C   UNL A   1      33.143  30.647  26.805  1.00  0.00     0.007 A 
ATOM     20  C   UNL A   1      33.736  28.310  26.652  1.00  0.00     0.053 A 
ATOM     21  C   UNL A   1      32.023  30.408  26.013  1.00  0.00     0.043 A 
ATOM     22  C   UNL A   1      31.755  29.121  25.555  1.00  0.00     0.165 A 
ATOM     23  F   UNL A   1      30.653  28.950  24.810  1.00  0.00    -0.203 F 
ENDBRANCH  15  16
ENDBRANCH  11  15
BRANCH  10  24
ATOM     24  N   UNL A   1      33.137  24.470  23.803  1.00  0.00    -0.330 N 
ATOM     25  H   UNL A   1      33.906  23.801  23.777  1.00  0.00     0.347 HD
ATOM     26  H   UNL A   1      33.337  25.404  24.158  1.00  0.00     0.347 HD
BRANCH  24  27
ATOM     27  C   UNL A   1      32.746  24.716  22.411  1.00  0.00     0.176 C 
ATOM     28  C   UNL A   1      33.277  26.106  22.032  1.00  0.00     0.075 C 
ATOM     29  C   UNL A   1      33.277  23.696  21.407  1.00  0.00     0.075 C 
ENDBRANCH  24  27
ENDBRANCH  10  24
ENDBRANCH   8  10
ENDBRANCH   7   8
ENDBRANCH   6   7
ENDBRANCH   5   6
ENDBRANCH   4   5
ENDBRANCH   3   4
ENDBRANCH   2   3
ENDBRANCH   1   2
BRANCH   1  30
ATOM     30  C   UNL A   1      40.034  22.159  27.007  1.00  0.00     0.188 C 
BRANCH  30  31
ATOM     31  C   UNL A   1      41.209  21.219  27.357  1.00  0.00     0.188 C 
BRANCH  31  32
ATOM     32  O   UNL A   1      41.303  20.041  26.576  1.00  0.00    -0.376 OA
BRANCH  32  33
ATOM     33  C   UNL A   1      42.255  19.053  26.942  1.00  0.00     0.202 C 
BRANCH  33  34
ATOM     34  C   UNL A   1      43.221  18.554  25.855  1.00  0.00     0.261 C 
BRANCH  34  35
ATOM     35  O   UNL A   1      43.354  19.390  24.693  1.00  0.00    -0.460 OA
BRANCH  35  36
ATOM     36  C   UNL A   1      44.599  19.647  24.245  1.00  0.00     0.338 C 
ATOM     37  O   UNL A   1      45.274  18.956  23.498  1.00  0.00    -0.246 OA
BRANCH  36  38
ATOM     38  C   UNL A   1      44.955  21.020  24.652  1.00  0.00     0.060 A 
ATOM     39  C   UNL A   1      45.348  21.250  25.976  1.00  0.00     0.016 A 
ATOM     40  C   UNL A   1      44.903  22.076  23.738  1.00  0.00     0.016 A 
ATOM     41  C   UNL A   1      45.653  22.542  26.400  1.00  0.00     0.010 A 
ATOM     42  C   UNL A   1      45.187  23.375  24.171  1.00  0.00     0.010 A 
ATOM     43  C   UNL A   1      45.529  23.618  25.513  1.00  0.00    -0.014 A 
BRANCH  43  44
ATOM     44  C   UNL A   1      45.590  25.002  26.042  1.00  0.00     0.031 A 
ATOM     45  C   UNL A   1      46.907  25.732  26.010  1.00  0.00     0.074 A 
ATOM     46  C   UNL A   1      44.487  25.627  26.490  1.00  0.00     0.049 A 
ATOM     47  N   UNL A   1      47.190  26.952  26.390  1.00  0.00    -0.248 NA
ATOM     48  C   UNL A   1      48.057  24.984  25.476  1.00  0.00     0.031 C 
ATOM     49  C   UNL A   1      43.145  25.049  26.532  1.00  0.00     0.029 A 
ATOM     50  N   UNL A   1      44.326  26.894  26.993  1.00  0.00    -0.354 N 
ATOM     51  C   UNL A   1      48.548  27.117  26.143  1.00  0.00     0.074 A 
ATOM     52  C   UNL A   1      49.038  25.862  25.617  1.00  0.00     0.031 C 
ATOM     53  C   UNL A   1      42.294  25.964  27.030  1.00  0.00     0.029 A 
ATOM     54  C   UNL A   1      43.036  27.175  27.374  1.00  0.00     0.049 A 
ATOM     55  H   UNL A   1      45.064  27.540  27.072  1.00  0.00     0.167 HD
ATOM     56  C   UNL A   1      49.317  28.215  26.331  1.00  0.00     0.031 A 
ATOM     57  C   UNL A   1      42.519  28.278  27.948  1.00  0.00     0.031 A 
ATOM     58  C   UNL A   1      48.836  29.458  26.876  1.00  0.00     0.049 A 
ATOM     59  C   UNL A   1      43.415  29.457  28.229  1.00  0.00     0.074 A 
ATOM     60  C   UNL A   1      49.536  30.633  27.091  1.00  0.00     0.029 A 
ATOM     61  N   UNL A   1      47.537  29.682  27.304  1.00  0.00    -0.354 N 
ATOM     62  N   UNL A   1      44.689  29.614  27.960  1.00  0.00    -0.248 NA
ATOM     63  C   UNL A   1      42.794  30.616  28.887  1.00  0.00     0.031 C 
ATOM     64  C   UNL A   1      48.678  31.544  27.715  1.00  0.00     0.029 A 
ATOM     65  C   UNL A   1      47.424  30.963  27.818  1.00  0.00     0.049 A 
ATOM     66  H   UNL A   1      46.804  29.027  27.252  1.00  0.00     0.167 HD
ATOM     67  C   UNL A   1      45.014  30.896  28.388  1.00  0.00     0.074 A 
ATOM     68  C   UNL A   1      43.798  31.481  28.914  1.00  0.00     0.031 C 
ATOM     69  C   UNL A   1      46.211  31.532  28.351  1.00  0.00     0.031 A 
BRANCH  56  70
ATOM     70  C   UNL A   1      50.777  28.104  25.983  1.00  0.00    -0.014 A 
ATOM     71  C   UNL A   1      51.254  28.425  24.703  1.00  0.00     0.009 A 
ATOM     72  C   UNL A   1      51.694  27.698  26.965  1.00  0.00     0.009 A 
ATOM     73  C   UNL A   1      52.613  28.306  24.403  1.00  0.00     0.001 A 
ATOM     74  C   UNL A   1      53.056  27.611  26.673  1.00  0.00     0.001 A 
ATOM     75  C   UNL A   1      53.513  27.904  25.389  1.00  0.00     0.000 A 
ENDBRANCH  56  70
BRANCH  57  76
ATOM     76  C   UNL A   1      41.079  28.321  28.320  1.00  0.00    -0.014 A 
ATOM     77  C   UNL A   1      40.620  27.719  29.501  1.00  0.00     0.009 A 
ATOM     78  C   UNL A   1      40.148  28.947  27.475  1.00  0.00     0.009 A 
ATOM     79  C   UNL A   1      39.259  27.717  29.814  1.00  0.00     0.001 A 
ATOM     80  C   UNL A   1      38.791  28.974  27.807  1.00  0.00     0.001 A 
ATOM     81  C   UNL A   1      38.347  28.350  28.971  1.00  0.00     0.000 A 
ENDBRANCH  57  76
BRANCH  69  82
ATOM     82  C   UNL A   1      46.258  32.946  28.865  1.00  0.00    -0.014 A 
ATOM     83  C   UNL A   1      46.016  34.041  28.021  1.00  0.00     0.009 A 
ATOM     84  C   UNL A   1      46.523  33.184  30.223  1.00  0.00     0.009 A 
ATOM     85  C   UNL A   1      46.084  35.346  28.517  1.00  0.00     0.001 A 
ATOM     86  C   UNL A   1      46.554  34.487  30.724  1.00  0.00     0.001 A 
ATOM     87  C   UNL A   1      46.348  35.567  29.869  1.00  0.00     0.000 A 
ENDBRANCH  69  82
ENDBRANCH  43  44
ENDBRANCH  36  38
ENDBRANCH  35  36
ENDBRANCH  34  35
ENDBRANCH  33  34
ENDBRANCH  32  33
ENDBRANCH  31  32
ENDBRANCH  30  31
ENDBRANCH   1  30
TORSDOF 24
ENDMDL
MODEL 3
REMARK VINA RESULT:      -9.6      4.255      7.960
REMARK SMILES Cc1ccc(F)c(O[C@H]2CC[C@]([NH2+]C(C)C)(C(=O)OCCOCCOCCOCCOC(=O)c3ccc(-c4c5nc(c(-c6ccccc6)c6ccc([nH]6)c(-c6ccccc6)c6nc(c(-c7ccccc7)c7ccc4[nH]7)C=C6)C=C5)cc3)C2)c1
REMARK SMILES IDX 25 1 24 2 23 3 22 4 21 5 20 6 19 7 17 8 18 9 12 10 9 11
REMARK SMILES IDX 10 12 82 13 11 14 8 15 7 16 1 17 2 18 3 19 83 20 4 21 5 22
REMARK SMILES IDX 6 23 13 24 14 27 15 28 16 29 26 30 27 31 28 32 29 33 30 34
REMARK SMILES IDX 31 35 32 36 33 37 34 38 35 39 81 40 36 41 80 42 37 43 38 44
REMARK SMILES IDX 39 45 74 46 40 47 79 48 73 49 75 50 41 51 78 52 72 53 71 54
REMARK SMILES IDX 42 56 64 57 49 58 63 59 50 60 53 61 62 62 76 63 51 64 52 65
REMARK SMILES IDX 61 67 77 68 54 69 43 70 44 71 48 72 45 73 47 74 46 75 65 76
REMARK SMILES IDX 66 77 70 78 67 79 69 80 68 81 55 82 56 83 60 84 57 85 59 86
REMARK SMILES IDX 58 87
REMARK H PARENT 13 25 13 26 75 55 53 66
REMARK Flexibility Score: inf
ROOT
ATOM      1  O   UNL A   1      39.219  21.485  25.644  1.00  0.00    -0.377 OA
ENDROOT
BRANCH   1   2
ATOM      2  C   UNL A   1      37.921  22.051  25.597  1.00  0.00     0.188 C 
BRANCH   2   3
ATOM      3  C   UNL A   1      37.125  21.785  24.313  1.00  0.00     0.188 C 
BRANCH   3   4
ATOM      4  O   UNL A   1      35.741  22.049  24.397  1.00  0.00    -0.376 OA
BRANCH   4   5
ATOM      5  C   UNL A   1      34.857  21.153  25.053  1.00  0.00     0.202 C 
BRANCH   5   6
ATOM      6  C   UNL A   1      33.433  20.772  24.601  1.00  0.00     0.261 C 
BRANCH   6   7
ATOM      7  O   UNL A   1      32.464  21.816  24.532  1.00  0.00    -0.459 OA
BRANCH   7   8
ATOM      8  C   UNL A   1      32.444  22.593  23.425  1.00  0.00     0.368 C 
ATOM      9  O   UNL A   1      32.433  22.146  22.282  1.00  0.00    -0.245 OA
BRANCH   8  10
ATOM     10  C   UNL A   1      32.401  24.111  23.760  1.00  0.00     0.198 C 
ATOM     11  C   UNL A   1      32.129  25.603  25.676  1.00  0.00     0.180 C 
ATOM     12  C   UNL A   1      30.752  25.492  25.042  1.00  0.00     0.052 C 
ATOM     13  C   UNL A   1      32.768  24.284  25.250  1.00  0.00     0.126 C 
ATOM     14  C   UNL A   1      30.980  24.762  23.723  1.00  0.00     0.085 C 
BRANCH  11  15
ATOM     15  O   UNL A   1      32.905  26.659  25.103  1.00  0.00    -0.487 OA
BRANCH  15  16
ATOM     16  C   UNL A   1      32.826  27.907  25.650  1.00  0.00     0.155 A 
ATOM     17  C   UNL A   1      35.044  29.769  28.136  1.00  0.00     0.044 C 
ATOM     18  C   UNL A   1      33.945  29.459  27.164  1.00  0.00    -0.047 A 
ATOM     19  C   UNL A   1      32.967  30.422  26.888  1.00  0.00     0.007 A 
ATOM     20  C   UNL A   1      33.873  28.211  26.528  1.00  0.00     0.053 A 
ATOM     21  C   UNL A   1      31.923  30.129  26.013  1.00  0.00     0.043 A 
ATOM     22  C   UNL A   1      31.850  28.876  25.411  1.00  0.00     0.165 A 
ATOM     23  F   UNL A   1      30.813  28.648  24.591  1.00  0.00    -0.203 F 
ENDBRANCH  15  16
ENDBRANCH  11  15
BRANCH  10  24
ATOM     24  N   UNL A   1      33.228  24.920  22.813  1.00  0.00    -0.330 N 
ATOM     25  H   UNL A   1      33.762  24.258  22.250  1.00  0.00     0.347 HD
ATOM     26  H   UNL A   1      33.749  25.542  23.431  1.00  0.00     0.347 HD
BRANCH  24  27
ATOM     27  C   UNL A   1      32.581  25.844  21.875  1.00  0.00     0.176 C 
ATOM     28  C   UNL A   1      33.340  27.177  21.958  1.00  0.00     0.075 C 
ATOM     29  C   UNL A   1      32.567  25.376  20.423  1.00  0.00     0.075 C 
ENDBRANCH  24  27
ENDBRANCH  10  24
ENDBRANCH   8  10
ENDBRANCH   7   8
ENDBRANCH   6   7
ENDBRANCH   5   6
ENDBRANCH   4   5
ENDBRANCH   3   4
ENDBRANCH   2   3
ENDBRANCH   1   2
BRANCH   1  30
ATOM     30  C   UNL A   1      40.072  21.796  26.739  1.00  0.00     0.188 C 
BRANCH  30  31
ATOM     31  C   UNL A   1      41.394  21.037  26.989  1.00  0.00     0.188 C 
BRANCH  31  32
ATOM     32  O   UNL A   1      41.655  19.959  26.107  1.00  0.00    -0.376 OA
BRANCH  32  33
ATOM     33  C   UNL A   1      42.556  18.941  26.519  1.00  0.00     0.202 C 
BRANCH  33  34
ATOM     34  C   UNL A   1      43.596  18.451  25.499  1.00  0.00     0.261 C 
BRANCH  34  35
ATOM     35  O   UNL A   1      43.814  19.299  24.358  1.00  0.00    -0.460 OA
BRANCH  35  36
ATOM     36  C   UNL A   1      45.041  19.832  24.199  1.00  0.00     0.338 C 
ATOM     37  O   UNL A   1      45.974  19.365  23.564  1.00  0.00    -0.246 OA
BRANCH  36  38
ATOM     38  C   UNL A   1      45.023  21.195  24.764  1.00  0.00     0.060 A 
ATOM     39  C   UNL A   1      44.738  22.272  23.915  1.00  0.00     0.016 A 
ATOM     40  C   UNL A   1      45.285  21.415  26.119  1.00  0.00     0.016 A 
ATOM     41  C   UNL A   1      44.752  23.575  24.410  1.00  0.00     0.010 A 
ATOM     42  C   UNL A   1      45.321  22.725  26.609  1.00  0.00     0.010 A 
ATOM     43  C   UNL A   1      45.089  23.812  25.748  1.00  0.00    -0.014 A 
BRANCH  43  44
ATOM     44  C   UNL A   1      45.364  25.201  26.189  1.00  0.00     0.031 A 
ATOM     45  C   UNL A   1      44.240  26.011  26.776  1.00  0.00     0.074 A 
ATOM     46  C   UNL A   1      46.604  25.720  26.125  1.00  0.00     0.049 A 
ATOM     47  N   UNL A   1      44.254  27.230  27.252  1.00  0.00    -0.248 NA
ATOM     48  C   UNL A   1      42.923  25.356  26.835  1.00  0.00     0.031 C 
ATOM     49  C   UNL A   1      47.787  25.026  25.622  1.00  0.00     0.029 A 
ATOM     50  N   UNL A   1      47.069  26.957  26.496  1.00  0.00    -0.354 N 
ATOM     51  C   UNL A   1      42.952  27.488  27.664  1.00  0.00     0.074 A 
ATOM     52  C   UNL A   1      42.167  26.315  27.348  1.00  0.00     0.031 C 
ATOM     53  C   UNL A   1      48.847  25.849  25.720  1.00  0.00     0.029 A 
ATOM     54  C   UNL A   1      48.410  27.135  26.259  1.00  0.00     0.049 A 
ATOM     55  H   UNL A   1      46.496  27.651  26.895  1.00  0.00     0.167 HD
ATOM     56  C   UNL A   1      42.454  28.598  28.258  1.00  0.00     0.031 A 
ATOM     57  C   UNL A   1      49.191  28.217  26.441  1.00  0.00     0.031 A 
ATOM     58  C   UNL A   1      43.228  29.776  28.552  1.00  0.00     0.049 A 
ATOM     59  C   UNL A   1      48.593  29.473  27.022  1.00  0.00     0.074 A 
ATOM     60  C   UNL A   1      42.816  30.947  29.166  1.00  0.00     0.029 A 
ATOM     61  N   UNL A   1      44.569  29.937  28.242  1.00  0.00    -0.354 N 
ATOM     62  N   UNL A   1      47.370  29.693  27.440  1.00  0.00    -0.248 NA
ATOM     63  C   UNL A   1      49.492  30.627  27.165  1.00  0.00     0.031 C 
ATOM     64  C   UNL A   1      43.890  31.843  29.162  1.00  0.00     0.029 A 
ATOM     65  C   UNL A   1      44.991  31.203  28.616  1.00  0.00     0.049 A 
ATOM     66  H   UNL A   1      45.137  29.255  27.818  1.00  0.00     0.167 HD
ATOM     67  C   UNL A   1      47.359  30.997  27.920  1.00  0.00     0.074 A 
ATOM     68  C   UNL A   1      48.705  31.510  27.762  1.00  0.00     0.031 C 
ATOM     69  C   UNL A   1      46.330  31.708  28.443  1.00  0.00     0.031 A 
BRANCH  56  70
ATOM     70  C   UNL A   1      40.986  28.606  28.589  1.00  0.00    -0.014 A 
ATOM     71  C   UNL A   1      40.038  29.154  27.711  1.00  0.00     0.009 A 
ATOM     72  C   UNL A   1      40.543  28.028  29.790  1.00  0.00     0.009 A 
ATOM     73  C   UNL A   1      38.681  29.157  28.046  1.00  0.00     0.001 A 
ATOM     74  C   UNL A   1      39.184  28.003  30.107  1.00  0.00     0.001 A 
ATOM     75  C   UNL A   1      38.256  28.577  29.241  1.00  0.00     0.000 A 
ENDBRANCH  56  70
BRANCH  57  76
ATOM     76  C   UNL A   1      50.626  28.177  26.051  1.00  0.00    -0.014 A 
ATOM     77  C   UNL A   1      51.024  28.450  24.734  1.00  0.00     0.009 A 
ATOM     78  C   UNL A   1      51.608  27.837  26.997  1.00  0.00     0.009 A 
ATOM     79  C   UNL A   1      52.368  28.356  24.365  1.00  0.00     0.001 A 
ATOM     80  C   UNL A   1      52.955  27.777  26.634  1.00  0.00     0.001 A 
ATOM     81  C   UNL A   1      53.333  28.027  25.317  1.00  0.00     0.000 A 
ENDBRANCH  57  76
BRANCH  69  82
ATOM     82  C   UNL A   1      46.626  33.108  28.913  1.00  0.00    -0.014 A 
ATOM     83  C   UNL A   1      46.466  34.215  28.065  1.00  0.00     0.009 A 
ATOM     84  C   UNL A   1      47.046  33.323  30.235  1.00  0.00     0.009 A 
ATOM     85  C   UNL A   1      46.767  35.502  28.518  1.00  0.00     0.001 A 
ATOM     86  C   UNL A   1      47.310  34.614  30.696  1.00  0.00     0.001 A 
ATOM     87  C   UNL A   1      47.184  35.701  29.834  1.00  0.00     0.000 A 
ENDBRANCH  69  82
ENDBRANCH  43  44
ENDBRANCH  36  38
ENDBRANCH  35  36
ENDBRANCH  34  35
ENDBRANCH  33  34
ENDBRANCH  32  33
ENDBRANCH  31  32
ENDBRANCH  30  31
ENDBRANCH   1  30
TORSDOF 24
ENDMDL
