MODEL 1
REMARK VINA RESULT:      -9.0      0.000      0.000
REMARK SMILES COc1cc(Cl)c2c(c1)C=C(C(=O)OCCOCCOCCOCCOC(=O)c1ccc(-c3c4nc(c(-c5ccccc5)c5ccc([nH]5)c(-c5ccccc5)c5nc(c(-c6ccccc6)c6ccc3[nH]6)C=C5)C=C4)cc1)[C@@H](C(F)(F)F)O2
REMARK SMILES IDX 21 1 20 2 19 3 18 4 17 5 16 6 15 7 14 8 12 9 13 10 11 11
REMARK SMILES IDX 3 12 4 13 9 14 5 15 8 16 6 17 7 18 10 19 82 20 77 21 2 22
REMARK SMILES IDX 1 23 78 24 79 25 80 26 81 27 22 28 23 29 24 30 25 31 26 32
REMARK SMILES IDX 27 33 28 34 29 35 30 36 76 37 31 38 75 39 32 40 33 41 34 42
REMARK SMILES IDX 69 43 35 44 74 45 68 46 70 47 36 48 73 49 67 50 66 51 37 53
REMARK SMILES IDX 59 54 44 55 58 56 45 57 48 58 57 59 71 60 46 61 47 62 56 64
REMARK SMILES IDX 72 65 49 66 38 67 39 68 43 69 40 70 42 71 41 72 60 73 61 74
REMARK SMILES IDX 65 75 62 76 64 77 63 78 50 79 51 80 55 81 52 82 54 83 53 84
REMARK H PARENT 70 52 48 63
REMARK Flexibility Score: inf
ROOT
ATOM      1  C   UNL A   1      42.478  22.831  26.189  1.00  0.00     0.188 C 
ENDROOT
BRANCH   1   2
ATOM      2  O   UNL A   1      41.815  21.761  25.513  1.00  0.00    -0.377 OA
BRANCH   2   3
ATOM      3  C   UNL A   1      41.017  20.881  26.291  1.00  0.00     0.188 C 
BRANCH   3   4
ATOM      4  C   UNL A   1      39.652  21.488  26.673  1.00  0.00     0.188 C 
BRANCH   4   5
ATOM      5  O   UNL A   1      39.104  22.315  25.662  1.00  0.00    -0.376 OA
BRANCH   5   6
ATOM      6  C   UNL A   1      37.810  22.082  25.135  1.00  0.00     0.202 C 
BRANCH   6   7
ATOM      7  C   UNL A   1      36.975  20.816  25.410  1.00  0.00     0.261 C 
BRANCH   7   8
ATOM      8  O   UNL A   1      35.609  20.821  24.996  1.00  0.00    -0.460 OA
BRANCH   8   9
ATOM      9  C   UNL A   1      34.738  21.545  25.720  1.00  0.00     0.338 C 
ATOM     10  O   UNL A   1      34.437  21.372  26.887  1.00  0.00    -0.246 OA
BRANCH   9  11
ATOM     11  C   UNL A   1      34.330  22.706  24.898  1.00  0.00     0.087 C 
ATOM     12  C   UNL A   1      33.682  27.450  24.535  1.00  0.00     0.121 A 
ATOM     13  C   UNL A   1      33.080  27.290  23.290  1.00  0.00     0.070 A 
ATOM     14  C   UNL A   1      34.225  26.355  25.202  1.00  0.00     0.058 A 
ATOM     15  C   UNL A   1      33.013  26.017  22.719  1.00  0.00     0.087 A 
ATOM     16  C   UNL A   1      34.107  25.073  24.656  1.00  0.00     0.022 A 
ATOM     17  Cl  UNL A   1      32.250  25.856  21.176  1.00  0.00    -0.080 Cl
ATOM     18  C   UNL A   1      33.524  24.902  23.396  1.00  0.00     0.146 A 
ATOM     19  C   UNL A   1      34.523  23.918  25.431  1.00  0.00     0.027 C 
ATOM     20  O   UNL A   1      33.428  23.682  22.785  1.00  0.00    -0.474 OA
ATOM     21  C   UNL A   1      33.800  22.477  23.507  1.00  0.00     0.316 C 
BRANCH  12  22
ATOM     22  O   UNL A   1      33.807  28.671  25.137  1.00  0.00    -0.497 OA
ATOM     23  C   UNL A   1      32.573  29.391  25.142  1.00  0.00     0.278 C 
ENDBRANCH  12  22
BRANCH  21  24
ATOM     24  C   UNL A   1      32.599  21.523  23.497  1.00  0.00     0.430 C 
ATOM     25  F   UNL A   1      31.749  21.786  24.518  1.00  0.00    -0.167 F 
ATOM     26  F   UNL A   1      31.878  21.625  22.356  1.00  0.00    -0.167 F 
ATOM     27  F   UNL A   1      32.988  20.233  23.613  1.00  0.00    -0.167 F 
ENDBRANCH  21  24
ENDBRANCH   9  11
ENDBRANCH   8   9
ENDBRANCH   7   8
ENDBRANCH   6   7
ENDBRANCH   5   6
ENDBRANCH   4   5
ENDBRANCH   3   4
ENDBRANCH   2   3
ENDBRANCH   1   2
BRANCH   1  28
ATOM     28  C   UNL A   1      42.540  24.263  25.598  1.00  0.00     0.188 C 
BRANCH  28  29
ATOM     29  O   UNL A   1      43.675  24.505  24.779  1.00  0.00    -0.376 OA
BRANCH  29  30
ATOM     30  C   UNL A   1      44.520  23.413  24.463  1.00  0.00     0.202 C 
BRANCH  30  31
ATOM     31  C   UNL A   1      46.004  23.578  24.814  1.00  0.00     0.261 C 
BRANCH  31  32
ATOM     32  O   UNL A   1      46.353  24.779  25.520  1.00  0.00    -0.460 OA
BRANCH  32  33
ATOM     33  C   UNL A   1      46.601  24.679  26.841  1.00  0.00     0.338 C 
ATOM     34  O   UNL A   1      47.563  24.160  27.381  1.00  0.00    -0.246 OA
BRANCH  33  35
ATOM     35  C   UNL A   1      45.573  25.479  27.536  1.00  0.00     0.060 A 
ATOM     36  C   UNL A   1      45.488  26.856  27.291  1.00  0.00     0.016 A 
ATOM     37  C   UNL A   1      44.688  24.857  28.419  1.00  0.00     0.016 A 
ATOM     38  C   UNL A   1      44.528  27.623  27.950  1.00  0.00     0.010 A 
ATOM     39  C   UNL A   1      43.755  25.631  29.109  1.00  0.00     0.010 A 
ATOM     40  C   UNL A   1      43.697  27.020  28.903  1.00  0.00    -0.014 A 
BRANCH  40  41
ATOM     41  C   UNL A   1      42.968  27.868  29.871  1.00  0.00     0.031 A 
ATOM     42  C   UNL A   1      43.616  28.111  31.206  1.00  0.00     0.074 A 
ATOM     43  C   UNL A   1      41.777  28.418  29.582  1.00  0.00     0.049 A 
ATOM     44  N   UNL A   1      43.158  28.765  32.240  1.00  0.00    -0.248 NA
ATOM     45  C   UNL A   1      44.963  27.544  31.397  1.00  0.00     0.031 C 
ATOM     46  C   UNL A   1      41.080  28.312  28.303  1.00  0.00     0.029 A 
ATOM     47  N   UNL A   1      40.945  29.181  30.363  1.00  0.00    -0.354 N 
ATOM     48  C   UNL A   1      44.158  28.689  33.200  1.00  0.00     0.074 A 
ATOM     49  C   UNL A   1      45.237  27.910  32.639  1.00  0.00     0.031 C 
ATOM     50  C   UNL A   1      39.917  28.982  28.388  1.00  0.00     0.029 A 
ATOM     51  C   UNL A   1      39.775  29.533  29.738  1.00  0.00     0.049 A 
ATOM     52  H   UNL A   1      41.165  29.449  31.284  1.00  0.00     0.167 HD
ATOM     53  C   UNL A   1      44.177  29.226  34.439  1.00  0.00     0.031 A 
ATOM     54  C   UNL A   1      38.706  30.207  30.206  1.00  0.00     0.031 A 
ATOM     55  C   UNL A   1      43.100  29.983  35.006  1.00  0.00     0.049 A 
ATOM     56  C   UNL A   1      38.704  30.704  31.627  1.00  0.00     0.074 A 
ATOM     57  C   UNL A   1      43.029  30.565  36.259  1.00  0.00     0.029 A 
ATOM     58  N   UNL A   1      41.906  30.258  34.361  1.00  0.00    -0.354 N 
ATOM     59  N   UNL A   1      39.653  30.625  32.528  1.00  0.00    -0.248 NA
ATOM     60  C   UNL A   1      37.485  31.380  32.098  1.00  0.00     0.031 C 
ATOM     61  C   UNL A   1      41.769  31.148  36.393  1.00  0.00     0.029 A 
ATOM     62  C   UNL A   1      41.078  30.978  35.202  1.00  0.00     0.049 A 
ATOM     63  H   UNL A   1      41.681  29.983  33.444  1.00  0.00     0.167 HD
ATOM     64  C   UNL A   1      39.155  31.252  33.663  1.00  0.00     0.074 A 
ATOM     65  C   UNL A   1      37.823  31.716  33.338  1.00  0.00     0.031 C 
ATOM     66  C   UNL A   1      39.753  31.429  34.867  1.00  0.00     0.031 A 
BRANCH  53  67
ATOM     67  C   UNL A   1      45.397  28.998  35.280  1.00  0.00    -0.014 A 
ATOM     68  C   UNL A   1      46.427  29.950  35.326  1.00  0.00     0.009 A 
ATOM     69  C   UNL A   1      45.478  27.860  36.096  1.00  0.00     0.009 A 
ATOM     70  C   UNL A   1      47.519  29.764  36.176  1.00  0.00     0.001 A 
ATOM     71  C   UNL A   1      46.560  27.687  36.959  1.00  0.00     0.001 A 
ATOM     72  C   UNL A   1      47.579  28.638  36.998  1.00  0.00     0.000 A 
ENDBRANCH  53  67
BRANCH  54  73
ATOM     73  C   UNL A   1      37.545  30.443  29.311  1.00  0.00    -0.014 A 
ATOM     74  C   UNL A   1      36.639  29.407  29.038  1.00  0.00     0.009 A 
ATOM     75  C   UNL A   1      37.310  31.714  28.765  1.00  0.00     0.009 A 
ATOM     76  C   UNL A   1      35.517  29.643  28.239  1.00  0.00     0.001 A 
ATOM     77  C   UNL A   1      36.177  31.952  27.983  1.00  0.00     0.001 A 
ATOM     78  C   UNL A   1      35.282  30.917  27.721  1.00  0.00     0.000 A 
ENDBRANCH  54  73
BRANCH  66  79
ATOM     79  C   UNL A   1      38.994  32.157  35.940  1.00  0.00    -0.014 A 
ATOM     80  C   UNL A   1      38.191  31.457  36.851  1.00  0.00     0.009 A 
ATOM     81  C   UNL A   1      39.203  33.534  36.127  1.00  0.00     0.009 A 
ATOM     82  C   UNL A   1      37.609  32.124  37.930  1.00  0.00     0.001 A 
ATOM     83  C   UNL A   1      38.639  34.191  37.220  1.00  0.00     0.001 A 
ATOM     84  C   UNL A   1      37.842  33.486  38.121  1.00  0.00     0.000 A 
ENDBRANCH  66  79
ENDBRANCH  40  41
ENDBRANCH  33  35
ENDBRANCH  32  33
ENDBRANCH  31  32
ENDBRANCH  30  31
ENDBRANCH  29  30
ENDBRANCH  28  29
ENDBRANCH   1  28
TORSDOF 22
ENDMDL
MODEL 2
REMARK VINA RESULT:      -8.8      4.516      8.197
REMARK SMILES COc1cc(Cl)c2c(c1)C=C(C(=O)OCCOCCOCCOCCOC(=O)c1ccc(-c3c4nc(c(-c5ccccc5)c5ccc([nH]5)c(-c5ccccc5)c5nc(c(-c6ccccc6)c6ccc3[nH]6)C=C5)C=C4)cc1)[C@@H](C(F)(F)F)O2
REMARK SMILES IDX 21 1 20 2 19 3 18 4 17 5 16 6 15 7 14 8 12 9 13 10 11 11
REMARK SMILES IDX 3 12 4 13 9 14 5 15 8 16 6 17 7 18 10 19 82 20 77 21 2 22
REMARK SMILES IDX 1 23 78 24 79 25 80 26 81 27 22 28 23 29 24 30 25 31 26 32
REMARK SMILES IDX 27 33 28 34 29 35 30 36 76 37 31 38 75 39 32 40 33 41 34 42
REMARK SMILES IDX 69 43 35 44 74 45 68 46 70 47 36 48 73 49 67 50 66 51 37 53
REMARK SMILES IDX 59 54 44 55 58 56 45 57 48 58 57 59 71 60 46 61 47 62 56 64
REMARK SMILES IDX 72 65 49 66 38 67 39 68 43 69 40 70 42 71 41 72 60 73 61 74
REMARK SMILES IDX 65 75 62 76 64 77 63 78 50 79 51 80 55 81 52 82 54 83 53 84
REMARK H PARENT 70 52 48 63
REMARK Flexibility Score: inf
ROOT
ATOM      1  C   UNL A   1      38.994  22.658  26.512  1.00  0.00     0.188 C 
ENDROOT
BRANCH   1   2
ATOM      2  O   UNL A   1      38.189  22.734  25.334  1.00  0.00    -0.377 OA
BRANCH   2   3
ATOM      3  C   UNL A   1      37.308  21.653  25.065  1.00  0.00     0.188 C 
BRANCH   3   4
ATOM      4  C   UNL A   1      36.240  21.998  24.008  1.00  0.00     0.188 C 
BRANCH   4   5
ATOM      5  O   UNL A   1      35.094  22.628  24.555  1.00  0.00    -0.376 OA
BRANCH   5   6
ATOM      6  C   UNL A   1      33.861  21.941  24.679  1.00  0.00     0.202 C 
BRANCH   6   7
ATOM      7  C   UNL A   1      32.680  22.091  23.701  1.00  0.00     0.261 C 
BRANCH   7   8
ATOM      8  O   UNL A   1      31.994  23.343  23.679  1.00  0.00    -0.460 OA
BRANCH   8   9
ATOM      9  C   UNL A   1      31.292  23.691  24.771  1.00  0.00     0.338 C 
ATOM     10  O   UNL A   1      30.945  22.960  25.681  1.00  0.00    -0.246 OA
BRANCH   9  11
ATOM     11  C   UNL A   1      31.156  25.164  24.764  1.00  0.00     0.087 C 
ATOM     12  C   UNL A   1      29.428  29.116  22.652  1.00  0.00     0.121 A 
ATOM     13  C   UNL A   1      30.149  29.921  23.529  1.00  0.00     0.070 A 
ATOM     14  C   UNL A   1      29.430  27.731  22.802  1.00  0.00     0.058 A 
ATOM     15  C   UNL A   1      30.886  29.328  24.557  1.00  0.00     0.087 A 
ATOM     16  C   UNL A   1      30.213  27.135  23.795  1.00  0.00     0.022 A 
ATOM     17  Cl  UNL A   1      31.775  30.360  25.620  1.00  0.00    -0.080 Cl
ATOM     18  C   UNL A   1      30.924  27.934  24.697  1.00  0.00     0.146 A 
ATOM     19  C   UNL A   1      30.343  25.690  23.840  1.00  0.00     0.027 C 
ATOM     20  O   UNL A   1      31.664  27.414  25.722  1.00  0.00    -0.474 OA
ATOM     21  C   UNL A   1      31.863  25.978  25.818  1.00  0.00     0.316 C 
BRANCH  12  22
ATOM     22  O   UNL A   1      28.662  29.632  21.644  1.00  0.00    -0.497 OA
ATOM     23  C   UNL A   1      28.733  31.058  21.599  1.00  0.00     0.278 C 
ENDBRANCH  12  22
BRANCH  21  24
ATOM     24  C   UNL A   1      33.371  25.703  25.842  1.00  0.00     0.430 C 
ATOM     25  F   UNL A   1      33.663  24.595  26.565  1.00  0.00    -0.167 F 
ATOM     26  F   UNL A   1      33.872  25.499  24.601  1.00  0.00    -0.167 F 
ATOM     27  F   UNL A   1      34.056  26.735  26.387  1.00  0.00    -0.167 F 
ENDBRANCH  21  24
ENDBRANCH   9  11
ENDBRANCH   8   9
ENDBRANCH   7   8
ENDBRANCH   6   7
ENDBRANCH   5   6
ENDBRANCH   4   5
ENDBRANCH   3   4
ENDBRANCH   2   3
ENDBRANCH   1   2
BRANCH   1  28
ATOM     28  C   UNL A   1      40.539  22.773  26.461  1.00  0.00     0.188 C 
BRANCH  28  29
ATOM     29  O   UNL A   1      41.223  21.726  27.136  1.00  0.00    -0.376 OA
BRANCH  29  30
ATOM     30  C   UNL A   1      40.858  20.389  26.845  1.00  0.00     0.202 C 
BRANCH  30  31
ATOM     31  C   UNL A   1      41.841  19.591  25.978  1.00  0.00     0.261 C 
BRANCH  31  32
ATOM     32  O   UNL A   1      43.228  19.926  26.130  1.00  0.00    -0.460 OA
BRANCH  32  33
ATOM     33  C   UNL A   1      43.912  20.283  25.025  1.00  0.00     0.338 C 
ATOM     34  O   UNL A   1      43.976  19.684  23.963  1.00  0.00    -0.246 OA
BRANCH  33  35
ATOM     35  C   UNL A   1      44.439  21.641  25.261  1.00  0.00     0.060 A 
ATOM     36  C   UNL A   1      45.471  21.829  26.190  1.00  0.00     0.016 A 
ATOM     37  C   UNL A   1      43.915  22.722  24.549  1.00  0.00     0.016 A 
ATOM     38  C   UNL A   1      45.968  23.110  26.429  1.00  0.00     0.010 A 
ATOM     39  C   UNL A   1      44.385  24.008  24.818  1.00  0.00     0.010 A 
ATOM     40  C   UNL A   1      45.386  24.209  25.784  1.00  0.00    -0.014 A 
BRANCH  40  41
ATOM     41  C   UNL A   1      45.625  25.570  26.309  1.00  0.00     0.031 A 
ATOM     42  C   UNL A   1      44.451  26.305  26.896  1.00  0.00     0.074 A 
ATOM     43  C   UNL A   1      46.841  26.141  26.284  1.00  0.00     0.049 A 
ATOM     44  N   UNL A   1      44.388  27.522  27.365  1.00  0.00    -0.248 NA
ATOM     45  C   UNL A   1      43.179  25.562  26.965  1.00  0.00     0.031 C 
ATOM     46  C   UNL A   1      48.067  25.508  25.805  1.00  0.00     0.029 A 
ATOM     47  N   UNL A   1      47.235  27.396  26.676  1.00  0.00    -0.354 N 
ATOM     48  C   UNL A   1      43.076  27.690  27.785  1.00  0.00     0.074 A 
ATOM     49  C   UNL A   1      42.369  26.463  27.498  1.00  0.00     0.031 C 
ATOM     50  C   UNL A   1      49.081  26.384  25.926  1.00  0.00     0.029 A 
ATOM     51  C   UNL A   1      48.566  27.647  26.458  1.00  0.00     0.049 A 
ATOM     52  H   UNL A   1      46.621  28.054  27.076  1.00  0.00     0.167 HD
ATOM     53  C   UNL A   1      42.510  28.770  28.365  1.00  0.00     0.031 A 
ATOM     54  C   UNL A   1      49.282  28.773  26.649  1.00  0.00     0.031 A 
ATOM     55  C   UNL A   1      43.203  29.996  28.635  1.00  0.00     0.049 A 
ATOM     56  C   UNL A   1      48.607  30.002  27.195  1.00  0.00     0.074 A 
ATOM     57  C   UNL A   1      42.709  31.149  29.218  1.00  0.00     0.029 A 
ATOM     58  N   UNL A   1      44.534  30.230  28.334  1.00  0.00    -0.354 N 
ATOM     59  N   UNL A   1      47.364  30.152  27.588  1.00  0.00    -0.248 NA
ATOM     60  C   UNL A   1      49.427  31.216  27.325  1.00  0.00     0.031 C 
ATOM     61  C   UNL A   1      43.729  32.102  29.221  1.00  0.00     0.029 A 
ATOM     62  C   UNL A   1      44.873  31.522  28.694  1.00  0.00     0.049 A 
ATOM     63  H   UNL A   1      45.147  29.577  27.926  1.00  0.00     0.167 HD
ATOM     64  C   UNL A   1      47.258  31.467  28.023  1.00  0.00     0.074 A 
ATOM     65  C   UNL A   1      48.563  32.073  27.857  1.00  0.00     0.031 C 
ATOM     66  C   UNL A   1      46.174  32.112  28.519  1.00  0.00     0.031 A 
BRANCH  53  67
ATOM     67  C   UNL A   1      41.059  28.687  28.732  1.00  0.00    -0.014 A 
ATOM     68  C   UNL A   1      40.063  29.054  27.815  1.00  0.00     0.009 A 
ATOM     69  C   UNL A   1      40.684  28.159  29.976  1.00  0.00     0.009 A 
ATOM     70  C   UNL A   1      38.715  28.895  28.140  1.00  0.00     0.001 A 
ATOM     71  C   UNL A   1      39.337  27.982  30.290  1.00  0.00     0.001 A 
ATOM     72  C   UNL A   1      38.354  28.351  29.373  1.00  0.00     0.000 A 
ENDBRANCH  53  67
BRANCH  54  73
ATOM     73  C   UNL A   1      50.728  28.783  26.309  1.00  0.00    -0.014 A 
ATOM     74  C   UNL A   1      51.695  28.799  27.324  1.00  0.00     0.009 A 
ATOM     75  C   UNL A   1      51.148  28.728  24.970  1.00  0.00     0.009 A 
ATOM     76  C   UNL A   1      53.055  28.755  27.005  1.00  0.00     0.001 A 
ATOM     77  C   UNL A   1      52.507  28.663  24.655  1.00  0.00     0.001 A 
ATOM     78  C   UNL A   1      53.459  28.676  25.673  1.00  0.00     0.000 A 
ENDBRANCH  54  73
BRANCH  66  79
ATOM     79  C   UNL A   1      46.325  33.549  28.931  1.00  0.00    -0.014 A 
ATOM     80  C   UNL A   1      45.945  34.586  28.068  1.00  0.00     0.009 A 
ATOM     81  C   UNL A   1      46.713  33.857  30.245  1.00  0.00     0.009 A 
ATOM     82  C   UNL A   1      45.953  35.909  28.514  1.00  0.00     0.001 A 
ATOM     83  C   UNL A   1      46.696  35.178  30.695  1.00  0.00     0.001 A 
ATOM     84  C   UNL A   1      46.317  36.203  29.829  1.00  0.00     0.000 A 
ENDBRANCH  66  79
ENDBRANCH  40  41
ENDBRANCH  33  35
ENDBRANCH  32  33
ENDBRANCH  31  32
ENDBRANCH  30  31
ENDBRANCH  29  30
ENDBRANCH  28  29
ENDBRANCH   1  28
TORSDOF 22
ENDMDL
MODEL 3
REMARK VINA RESULT:      -8.5      8.664     13.822
REMARK SMILES COc1cc(Cl)c2c(c1)C=C(C(=O)OCCOCCOCCOCCOC(=O)c1ccc(-c3c4nc(c(-c5ccccc5)c5ccc([nH]5)c(-c5ccccc5)c5nc(c(-c6ccccc6)c6ccc3[nH]6)C=C5)C=C4)cc1)[C@@H](C(F)(F)F)O2
REMARK SMILES IDX 21 1 20 2 19 3 18 4 17 5 16 6 15 7 14 8 12 9 13 10 11 11
REMARK SMILES IDX 3 12 4 13 9 14 5 15 8 16 6 17 7 18 10 19 82 20 77 21 2 22
REMARK SMILES IDX 1 23 78 24 79 25 80 26 81 27 22 28 23 29 24 30 25 31 26 32
REMARK SMILES IDX 27 33 28 34 29 35 30 36 76 37 31 38 75 39 32 40 33 41 34 42
REMARK SMILES IDX 69 43 35 44 74 45 68 46 70 47 36 48 73 49 67 50 66 51 37 53
REMARK SMILES IDX 59 54 44 55 58 56 45 57 48 58 57 59 71 60 46 61 47 62 56 64
REMARK SMILES IDX 72 65 49 66 38 67 39 68 43 69 40 70 42 71 41 72 60 73 61 74
REMARK SMILES IDX 65 75 62 76 64 77 63 78 50 79 51 80 55 81 52 82 54 83 53 84
REMARK H PARENT 70 52 48 63
REMARK Flexibility Score: inf
ROOT
ATOM      1  C   UNL A   1      38.735  34.466  30.370  1.00  0.00     0.188 C 
ENDROOT
BRANCH   1   2
ATOM      2  O   UNL A   1      39.263  34.244  29.061  1.00  0.00    -0.377 OA
BRANCH   2   3
ATOM      3  C   UNL A   1      40.220  35.170  28.568  1.00  0.00     0.188 C 
BRANCH   3   4
ATOM      4  C   UNL A   1      41.605  35.012  29.228  1.00  0.00     0.188 C 
BRANCH   4   5
ATOM      5  O   UNL A   1      42.477  36.097  28.965  1.00  0.00    -0.376 OA
BRANCH   5   6
ATOM      6  C   UNL A   1      42.011  37.292  28.362  1.00  0.00     0.202 C 
BRANCH   6   7
ATOM      7  C   UNL A   1      42.653  37.947  27.124  1.00  0.00     0.261 C 
BRANCH   7   8
ATOM      8  O   UNL A   1      42.053  39.142  26.623  1.00  0.00    -0.460 OA
BRANCH   8   9
ATOM      9  C   UNL A   1      42.447  40.311  27.156  1.00  0.00     0.338 C 
ATOM     10  O   UNL A   1      42.584  40.566  28.339  1.00  0.00    -0.246 OA
BRANCH   9  11
ATOM     11  C   UNL A   1      42.856  41.195  26.042  1.00  0.00     0.087 C 
ATOM     12  C   UNL A   1      41.913  43.037  21.708  1.00  0.00     0.121 A 
ATOM     13  C   UNL A   1      43.177  43.619  21.661  1.00  0.00     0.070 A 
ATOM     14  C   UNL A   1      41.487  42.366  22.852  1.00  0.00     0.058 A 
ATOM     15  C   UNL A   1      44.022  43.514  22.768  1.00  0.00     0.087 A 
ATOM     16  C   UNL A   1      42.355  42.212  23.937  1.00  0.00     0.022 A 
ATOM     17  Cl  UNL A   1      45.587  44.241  22.669  1.00  0.00    -0.080 Cl
ATOM     18  C   UNL A   1      43.619  42.810  23.912  1.00  0.00     0.146 A 
ATOM     19  C   UNL A   1      41.969  41.370  25.055  1.00  0.00     0.027 C 
ATOM     20  O   UNL A   1      44.492  42.742  24.962  1.00  0.00    -0.474 OA
ATOM     21  C   UNL A   1      44.187  41.898  26.105  1.00  0.00     0.316 C 
BRANCH  12  22
ATOM     22  O   UNL A   1      41.025  43.128  20.672  1.00  0.00    -0.497 OA
ATOM     23  C   UNL A   1      41.656  43.569  19.468  1.00  0.00     0.278 C 
ENDBRANCH  12  22
BRANCH  21  24
ATOM     24  C   UNL A   1      45.349  40.916  26.298  1.00  0.00     0.430 C 
ATOM     25  F   UNL A   1      46.512  41.424  25.825  1.00  0.00    -0.167 F 
ATOM     26  F   UNL A   1      45.557  40.625  27.604  1.00  0.00    -0.167 F 
ATOM     27  F   UNL A   1      45.125  39.747  25.656  1.00  0.00    -0.167 F 
ENDBRANCH  21  24
ENDBRANCH   9  11
ENDBRANCH   8   9
ENDBRANCH   7   8
ENDBRANCH   6   7
ENDBRANCH   5   6
ENDBRANCH   4   5
ENDBRANCH   3   4
ENDBRANCH   2   3
ENDBRANCH   1   2
BRANCH   1  28
ATOM     28  C   UNL A   1      37.504  33.689  30.902  1.00  0.00     0.188 C 
BRANCH  28  29
ATOM     29  O   UNL A   1      36.256  34.282  30.572  1.00  0.00    -0.376 OA
BRANCH  29  30
ATOM     30  C   UNL A   1      35.695  34.004  29.301  1.00  0.00     0.202 C 
BRANCH  30  31
ATOM     31  C   UNL A   1      34.358  33.252  29.299  1.00  0.00     0.261 C 
BRANCH  31  32
ATOM     32  O   UNL A   1      34.437  31.828  29.464  1.00  0.00    -0.460 OA
BRANCH  32  33
ATOM     33  C   UNL A   1      34.641  31.080  28.361  1.00  0.00     0.338 C 
ATOM     34  O   UNL A   1      33.973  31.061  27.340  1.00  0.00    -0.246 OA
BRANCH  33  35
ATOM     35  C   UNL A   1      35.941  30.402  28.532  1.00  0.00     0.060 A 
ATOM     36  C   UNL A   1      36.264  29.831  29.770  1.00  0.00     0.016 A 
ATOM     37  C   UNL A   1      36.829  30.324  27.458  1.00  0.00     0.016 A 
ATOM     38  C   UNL A   1      37.494  29.198  29.945  1.00  0.00     0.010 A 
ATOM     39  C   UNL A   1      38.076  29.727  27.645  1.00  0.00     0.010 A 
ATOM     40  C   UNL A   1      38.425  29.195  28.898  1.00  0.00    -0.014 A 
BRANCH  40  41
ATOM     41  C   UNL A   1      39.843  28.889  29.188  1.00  0.00     0.031 A 
ATOM     42  C   UNL A   1      40.357  27.534  28.785  1.00  0.00     0.074 A 
ATOM     43  C   UNL A   1      40.659  29.779  29.776  1.00  0.00     0.049 A 
ATOM     44  N   UNL A   1      41.535  27.006  28.979  1.00  0.00    -0.248 NA
ATOM     45  C   UNL A   1      39.414  26.661  28.062  1.00  0.00     0.031 C 
ATOM     46  C   UNL A   1      40.299  31.144  30.152  1.00  0.00     0.029 A 
ATOM     47  N   UNL A   1      41.971  29.653  30.161  1.00  0.00    -0.354 N 
ATOM     48  C   UNL A   1      41.475  25.744  28.403  1.00  0.00     0.074 A 
ATOM     49  C   UNL A   1      40.143  25.573  27.872  1.00  0.00     0.031 C 
ATOM     50  C   UNL A   1      41.367  31.731  30.721  1.00  0.00     0.029 A 
ATOM     51  C   UNL A   1      42.471  30.771  30.779  1.00  0.00     0.049 A 
ATOM     52  H   UNL A   1      42.502  28.839  30.008  1.00  0.00     0.167 HD
ATOM     53  C   UNL A   1      42.448  24.811  28.320  1.00  0.00     0.031 A 
ATOM     54  C   UNL A   1      43.676  30.988  31.344  1.00  0.00     0.031 A 
ATOM     55  C   UNL A   1      43.766  24.969  28.863  1.00  0.00     0.049 A 
ATOM     56  C   UNL A   1      44.710  29.895  31.336  1.00  0.00     0.074 A 
ATOM     57  C   UNL A   1      44.819  24.073  28.829  1.00  0.00     0.029 A 
ATOM     58  N   UNL A   1      44.208  26.091  29.542  1.00  0.00    -0.354 N 
ATOM     59  N   UNL A   1      44.644  28.703  30.791  1.00  0.00    -0.248 NA
ATOM     60  C   UNL A   1      45.982  30.171  32.020  1.00  0.00     0.031 C 
ATOM     61  C   UNL A   1      45.884  24.633  29.536  1.00  0.00     0.029 A 
ATOM     62  C   UNL A   1      45.512  25.900  29.959  1.00  0.00     0.049 A 
ATOM     63  H   UNL A   1      43.675  26.903  29.703  1.00  0.00     0.167 HD
ATOM     64  C   UNL A   1      45.865  28.096  31.052  1.00  0.00     0.074 A 
ATOM     65  C   UNL A   1      46.660  29.051  31.795  1.00  0.00     0.031 C 
ATOM     66  C   UNL A   1      46.290  26.857  30.702  1.00  0.00     0.031 A 
BRANCH  53  67
ATOM     67  C   UNL A   1      42.121  23.520  27.631  1.00  0.00    -0.014 A 
ATOM     68  C   UNL A   1      42.330  23.368  26.252  1.00  0.00     0.009 A 
ATOM     69  C   UNL A   1      41.677  22.422  28.383  1.00  0.00     0.009 A 
ATOM     70  C   UNL A   1      42.098  22.136  25.638  1.00  0.00     0.001 A 
ATOM     71  C   UNL A   1      41.467  21.187  27.770  1.00  0.00     0.001 A 
ATOM     72  C   UNL A   1      41.677  21.045  26.399  1.00  0.00     0.000 A 
ENDBRANCH  53  67
BRANCH  54  73
ATOM     73  C   UNL A   1      43.959  32.304  31.972  1.00  0.00    -0.014 A 
ATOM     74  C   UNL A   1      43.658  32.524  33.324  1.00  0.00     0.009 A 
ATOM     75  C   UNL A   1      44.574  33.329  31.236  1.00  0.00     0.009 A 
ATOM     76  C   UNL A   1      43.973  33.744  33.927  1.00  0.00     0.001 A 
ATOM     77  C   UNL A   1      44.907  34.540  31.847  1.00  0.00     0.001 A 
ATOM     78  C   UNL A   1      44.606  34.746  33.192  1.00  0.00     0.000 A 
ENDBRANCH  54  73
BRANCH  66  79
ATOM     79  C   UNL A   1      47.675  26.438  31.103  1.00  0.00    -0.014 A 
ATOM     80  C   UNL A   1      47.894  25.731  32.293  1.00  0.00     0.009 A 
ATOM     81  C   UNL A   1      48.743  26.624  30.210  1.00  0.00     0.009 A 
ATOM     82  C   UNL A   1      49.161  25.221  32.584  1.00  0.00     0.001 A 
ATOM     83  C   UNL A   1      50.001  26.091  30.492  1.00  0.00     0.001 A 
ATOM     84  C   UNL A   1      50.209  25.391  31.680  1.00  0.00     0.000 A 
ENDBRANCH  66  79
ENDBRANCH  40  41
ENDBRANCH  33  35
ENDBRANCH  32  33
ENDBRANCH  31  32
ENDBRANCH  30  31
ENDBRANCH  29  30
ENDBRANCH  28  29
ENDBRANCH   1  28
TORSDOF 22
ENDMDL
