MODEL 1
REMARK VINA RESULT:      -9.9      0.000      0.000
REMARK SMILES CN(c1ccccc1C(=O)OCCOCCOCCOCCOC(=O)c1ccc(-c2c3nc(c(-c4ccccc4)c4ccc([nH]4)c(-c4ccccc4)c4nc(c(-c5ccccc5)c5ccc2[nH]5)C=C4)C=C3)cc1)S(=O)(=O)c1ccc(I)cc1
REMARK SMILES IDX 16 1 15 2 14 3 13 4 12 5 11 6 9 7 10 8 8 9 3 10 4 11 5 12
REMARK SMILES IDX 7 13 6 14 2 15 1 16 74 17 75 18 76 19 77 20 78 21 83 22
REMARK SMILES IDX 79 23 82 24 80 25 81 26 17 27 18 28 19 29 20 30 21 31 22 32
REMARK SMILES IDX 23 33 24 34 25 35 26 36 27 37 73 38 28 39 72 40 29 41 30 42
REMARK SMILES IDX 31 43 66 44 32 45 71 46 65 47 67 48 33 49 70 50 64 51 63 52
REMARK SMILES IDX 34 54 56 55 41 56 55 57 42 58 45 59 54 60 68 61 43 62 44 63
REMARK SMILES IDX 53 65 69 66 46 67 35 68 36 69 40 70 37 71 39 72 38 73 57 74
REMARK SMILES IDX 58 75 62 76 59 77 61 78 60 79 47 80 48 81 52 82 49 83 51 84
REMARK SMILES IDX 50 85
REMARK H PARENT 67 53 45 64
REMARK Flexibility Score: inf
ROOT
ATOM      1  C   UNL A   1      39.431  21.015  26.016  1.00  0.00     0.188 C 
ENDROOT
BRANCH   1   2
ATOM      2  C   UNL A   1      38.296  22.010  25.716  1.00  0.00     0.188 C 
BRANCH   2   3
ATOM      3  O   UNL A   1      37.532  21.698  24.558  1.00  0.00    -0.376 OA
BRANCH   3   4
ATOM      4  C   UNL A   1      36.156  22.042  24.611  1.00  0.00     0.202 C 
BRANCH   4   5
ATOM      5  C   UNL A   1      35.659  22.959  23.486  1.00  0.00     0.261 C 
BRANCH   5   6
ATOM      6  O   UNL A   1      35.198  24.243  23.936  1.00  0.00    -0.460 OA
BRANCH   6   7
ATOM      7  C   UNL A   1      34.093  24.730  23.346  1.00  0.00     0.340 C 
ATOM      8  O   UNL A   1      33.547  24.278  22.351  1.00  0.00    -0.246 OA
BRANCH   7   9
ATOM      9  C   UNL A   1      33.499  25.795  24.180  1.00  0.00     0.084 A 
ATOM     10  C   UNL A   1      32.534  25.629  25.193  1.00  0.00     0.066 A 
ATOM     11  C   UNL A   1      32.285  26.751  26.006  1.00  0.00     0.028 A 
ATOM     12  C   UNL A   1      32.828  28.013  25.752  1.00  0.00     0.002 A 
ATOM     13  C   UNL A   1      34.072  27.069  23.943  1.00  0.00     0.018 A 
ATOM     14  C   UNL A   1      33.709  28.180  24.700  1.00  0.00     0.001 A 
BRANCH  10  15
ATOM     15  N   UNL A   1      31.822  24.421  25.578  1.00  0.00    -0.269 N 
ATOM     16  C   UNL A   1      30.372  24.495  25.875  1.00  0.00     0.164 C 
BRANCH  15  17
ATOM     17  S   UNL A   1      32.583  23.225  26.573  1.00  0.00     0.264 S 
ATOM     18  O   UNL A   1      33.920  23.676  26.894  1.00  0.00    -0.201 OA
ATOM     19  O   UNL A   1      31.655  22.947  27.656  1.00  0.00    -0.201 OA
BRANCH  17  20
ATOM     20  C   UNL A   1      32.733  21.707  25.651  1.00  0.00     0.088 A 
ATOM     21  C   UNL A   1      32.247  21.636  24.338  1.00  0.00     0.023 A 
ATOM     22  C   UNL A   1      33.248  20.565  26.275  1.00  0.00     0.023 A 
ATOM     23  C   UNL A   1      32.363  20.442  23.619  1.00  0.00     0.016 A 
ATOM     24  C   UNL A   1      33.338  19.366  25.561  1.00  0.00     0.016 A 
ATOM     25  C   UNL A   1      32.911  19.315  24.232  1.00  0.00     0.013 A 
ATOM     26  I   UNL A   1      33.088  17.541  23.159  1.00  0.00    -0.044 I 
ENDBRANCH  17  20
ENDBRANCH  15  17
ENDBRANCH  10  15
ENDBRANCH   7   9
ENDBRANCH   6   7
ENDBRANCH   5   6
ENDBRANCH   4   5
ENDBRANCH   3   4
ENDBRANCH   2   3
ENDBRANCH   1   2
BRANCH   1  27
ATOM     27  O   UNL A   1      40.666  21.514  26.490  1.00  0.00    -0.377 OA
BRANCH  27  28
ATOM     28  C   UNL A   1      41.644  20.625  27.020  1.00  0.00     0.188 C 
BRANCH  28  29
ATOM     29  C   UNL A   1      42.144  19.410  26.209  1.00  0.00     0.188 C 
BRANCH  29  30
ATOM     30  O   UNL A   1      42.901  19.731  25.051  1.00  0.00    -0.376 OA
BRANCH  30  31
ATOM     31  C   UNL A   1      44.256  20.103  25.271  1.00  0.00     0.202 C 
BRANCH  31  32
ATOM     32  C   UNL A   1      44.616  21.506  24.767  1.00  0.00     0.261 C 
BRANCH  32  33
ATOM     33  O   UNL A   1      44.673  22.517  25.786  1.00  0.00    -0.460 OA
BRANCH  33  34
ATOM     34  C   UNL A   1      44.860  23.789  25.376  1.00  0.00     0.338 C 
ATOM     35  O   UNL A   1      45.474  24.172  24.396  1.00  0.00    -0.246 OA
BRANCH  34  36
ATOM     36  C   UNL A   1      44.042  24.667  26.230  1.00  0.00     0.060 A 
ATOM     37  C   UNL A   1      44.345  26.032  26.284  1.00  0.00     0.016 A 
ATOM     38  C   UNL A   1      42.996  24.136  26.989  1.00  0.00     0.016 A 
ATOM     39  C   UNL A   1      43.626  26.867  27.137  1.00  0.00     0.010 A 
ATOM     40  C   UNL A   1      42.288  24.970  27.855  1.00  0.00     0.010 A 
ATOM     41  C   UNL A   1      42.625  26.330  27.959  1.00  0.00    -0.014 A 
BRANCH  41  42
ATOM     42  C   UNL A   1      42.063  27.150  29.056  1.00  0.00     0.031 A 
ATOM     43  C   UNL A   1      42.787  27.176  30.373  1.00  0.00     0.074 A 
ATOM     44  C   UNL A   1      40.948  27.877  28.881  1.00  0.00     0.049 A 
ATOM     45  N   UNL A   1      42.497  27.834  31.467  1.00  0.00    -0.248 NA
ATOM     46  C   UNL A   1      44.002  26.349  30.470  1.00  0.00     0.031 C 
ATOM     47  C   UNL A   1      40.171  27.955  27.646  1.00  0.00     0.029 A 
ATOM     48  N   UNL A   1      40.277  28.692  29.757  1.00  0.00    -0.354 N 
ATOM     49  C   UNL A   1      43.493  27.504  32.377  1.00  0.00     0.074 A 
ATOM     50  C   UNL A   1      44.375  26.562  31.722  1.00  0.00     0.031 C 
ATOM     51  C   UNL A   1      39.124  28.776  27.844  1.00  0.00     0.029 A 
ATOM     52  C   UNL A   1      39.147  29.259  29.223  1.00  0.00     0.049 A 
ATOM     53  H   UNL A   1      40.577  28.854  30.680  1.00  0.00     0.167 HD
ATOM     54  C   UNL A   1      43.663  27.949  33.644  1.00  0.00     0.031 A 
ATOM     55  C   UNL A   1      38.231  30.067  29.791  1.00  0.00     0.031 A 
ATOM     56  C   UNL A   1      42.774  28.860  34.308  1.00  0.00     0.049 A 
ATOM     57  C   UNL A   1      38.402  30.488  31.227  1.00  0.00     0.074 A 
ATOM     58  C   UNL A   1      42.868  29.379  35.589  1.00  0.00     0.029 A 
ATOM     59  N   UNL A   1      41.617  29.380  33.749  1.00  0.00    -0.354 N 
ATOM     60  N   UNL A   1      39.371  30.205  32.065  1.00  0.00    -0.248 NA
ATOM     61  C   UNL A   1      37.355  31.352  31.791  1.00  0.00     0.031 C 
ATOM     62  C   UNL A   1      41.739  30.172  35.821  1.00  0.00     0.029 A 
ATOM     63  C   UNL A   1      40.973  30.192  34.666  1.00  0.00     0.049 A 
ATOM     64  H   UNL A   1      41.301  29.198  32.834  1.00  0.00     0.167 HD
ATOM     65  C   UNL A   1      39.062  30.873  33.244  1.00  0.00     0.074 A 
ATOM     66  C   UNL A   1      37.827  31.592  33.005  1.00  0.00     0.031 C 
ATOM     67  C   UNL A   1      39.741  30.893  34.417  1.00  0.00     0.031 A 
BRANCH  54  68
ATOM     68  C   UNL A   1      44.848  27.420  34.401  1.00  0.00    -0.014 A 
ATOM     69  C   UNL A   1      44.756  26.250  35.171  1.00  0.00     0.009 A 
ATOM     70  C   UNL A   1      46.077  28.093  34.331  1.00  0.00     0.009 A 
ATOM     71  C   UNL A   1      45.863  25.783  35.883  1.00  0.00     0.001 A 
ATOM     72  C   UNL A   1      47.189  27.609  35.021  1.00  0.00     0.001 A 
ATOM     73  C   UNL A   1      47.080  26.461  35.803  1.00  0.00     0.000 A 
ENDBRANCH  54  68
BRANCH  55  74
ATOM     74  C   UNL A   1      37.056  30.529  29.008  1.00  0.00    -0.014 A 
ATOM     75  C   UNL A   1      36.955  31.864  28.588  1.00  0.00     0.009 A 
ATOM     76  C   UNL A   1      36.012  29.642  28.704  1.00  0.00     0.009 A 
ATOM     77  C   UNL A   1      35.822  32.307  27.901  1.00  0.00     0.001 A 
ATOM     78  C   UNL A   1      34.892  30.081  27.995  1.00  0.00     0.001 A 
ATOM     79  C   UNL A   1      34.793  31.415  27.603  1.00  0.00     0.000 A 
ENDBRANCH  55  74
BRANCH  67  80
ATOM     80  C   UNL A   1      39.176  31.743  35.522  1.00  0.00    -0.014 A 
ATOM     81  C   UNL A   1      39.545  33.089  35.668  1.00  0.00     0.009 A 
ATOM     82  C   UNL A   1      38.237  31.194  36.409  1.00  0.00     0.009 A 
ATOM     83  C   UNL A   1      39.014  33.858  36.707  1.00  0.00     0.001 A 
ATOM     84  C   UNL A   1      37.686  31.972  37.428  1.00  0.00     0.001 A 
ATOM     85  C   UNL A   1      38.083  33.300  37.583  1.00  0.00     0.000 A 
ENDBRANCH  67  80
ENDBRANCH  41  42
ENDBRANCH  34  36
ENDBRANCH  33  34
ENDBRANCH  32  33
ENDBRANCH  31  32
ENDBRANCH  30  31
ENDBRANCH  29  30
ENDBRANCH  28  29
ENDBRANCH  27  28
ENDBRANCH   1  27
TORSDOF 23
ENDMDL
MODEL 2
REMARK VINA RESULT:      -9.3      4.635      9.734
REMARK SMILES CN(c1ccccc1C(=O)OCCOCCOCCOCCOC(=O)c1ccc(-c2c3nc(c(-c4ccccc4)c4ccc([nH]4)c(-c4ccccc4)c4nc(c(-c5ccccc5)c5ccc2[nH]5)C=C4)C=C3)cc1)S(=O)(=O)c1ccc(I)cc1
REMARK SMILES IDX 16 1 15 2 14 3 13 4 12 5 11 6 9 7 10 8 8 9 3 10 4 11 5 12
REMARK SMILES IDX 7 13 6 14 2 15 1 16 74 17 75 18 76 19 77 20 78 21 83 22
REMARK SMILES IDX 79 23 82 24 80 25 81 26 17 27 18 28 19 29 20 30 21 31 22 32
REMARK SMILES IDX 23 33 24 34 25 35 26 36 27 37 73 38 28 39 72 40 29 41 30 42
REMARK SMILES IDX 31 43 66 44 32 45 71 46 65 47 67 48 33 49 70 50 64 51 63 52
REMARK SMILES IDX 34 54 56 55 41 56 55 57 42 58 45 59 54 60 68 61 43 62 44 63
REMARK SMILES IDX 53 65 69 66 46 67 35 68 36 69 40 70 37 71 39 72 38 73 57 74
REMARK SMILES IDX 58 75 62 76 59 77 61 78 60 79 47 80 48 81 52 82 49 83 51 84
REMARK SMILES IDX 50 85
REMARK H PARENT 67 53 45 64
REMARK Flexibility Score: inf
ROOT
ATOM      1  C   UNL A   1      33.620  31.317  27.091  1.00  0.00     0.188 C 
ENDROOT
BRANCH   1   2
ATOM      2  C   UNL A   1      33.842  29.872  27.570  1.00  0.00     0.188 C 
BRANCH   2   3
ATOM      3  O   UNL A   1      33.152  28.889  26.809  1.00  0.00    -0.376 OA
BRANCH   3   4
ATOM      4  C   UNL A   1      31.895  28.476  27.323  1.00  0.00     0.202 C 
BRANCH   4   5
ATOM      5  C   UNL A   1      31.334  27.176  26.734  1.00  0.00     0.261 C 
BRANCH   5   6
ATOM      6  O   UNL A   1      32.284  26.099  26.677  1.00  0.00    -0.460 OA
BRANCH   6   7
ATOM      7  C   UNL A   1      31.787  24.862  26.506  1.00  0.00     0.340 C 
ATOM      8  O   UNL A   1      30.611  24.540  26.582  1.00  0.00    -0.246 OA
BRANCH   7   9
ATOM      9  C   UNL A   1      32.844  23.953  26.019  1.00  0.00     0.084 A 
ATOM     10  C   UNL A   1      33.309  23.839  24.694  1.00  0.00     0.066 A 
ATOM     11  C   UNL A   1      34.476  23.073  24.507  1.00  0.00     0.028 A 
ATOM     12  C   UNL A   1      35.071  22.328  25.528  1.00  0.00     0.002 A 
ATOM     13  C   UNL A   1      33.468  23.220  27.059  1.00  0.00     0.018 A 
ATOM     14  C   UNL A   1      34.551  22.382  26.807  1.00  0.00     0.001 A 
BRANCH  10  15
ATOM     15  N   UNL A   1      32.800  24.486  23.495  1.00  0.00    -0.269 N 
ATOM     16  C   UNL A   1      32.604  23.685  22.264  1.00  0.00     0.164 C 
BRANCH  15  17
ATOM     17  S   UNL A   1      33.272  26.104  23.096  1.00  0.00     0.264 S 
ATOM     18  O   UNL A   1      34.093  26.622  24.169  1.00  0.00    -0.201 OA
ATOM     19  O   UNL A   1      33.823  26.047  21.753  1.00  0.00    -0.201 OA
BRANCH  17  20
ATOM     20  C   UNL A   1      31.817  27.128  22.988  1.00  0.00     0.088 A 
ATOM     21  C   UNL A   1      31.942  28.488  22.668  1.00  0.00     0.023 A 
ATOM     22  C   UNL A   1      30.567  26.593  23.318  1.00  0.00     0.023 A 
ATOM     23  C   UNL A   1      30.799  29.290  22.589  1.00  0.00     0.016 A 
ATOM     24  C   UNL A   1      29.430  27.405  23.263  1.00  0.00     0.016 A 
ATOM     25  C   UNL A   1      29.548  28.743  22.882  1.00  0.00     0.013 A 
ATOM     26  I   UNL A   1      27.848  29.936  22.758  1.00  0.00    -0.044 I 
ENDBRANCH  17  20
ENDBRANCH  15  17
ENDBRANCH  10  15
ENDBRANCH   7   9
ENDBRANCH   6   7
ENDBRANCH   5   6
ENDBRANCH   4   5
ENDBRANCH   3   4
ENDBRANCH   2   3
ENDBRANCH   1   2
BRANCH   1  27
ATOM     27  O   UNL A   1      34.036  32.382  27.924  1.00  0.00    -0.377 OA
BRANCH  27  28
ATOM     28  C   UNL A   1      33.177  33.495  28.148  1.00  0.00     0.188 C 
BRANCH  28  29
ATOM     29  C   UNL A   1      33.652  34.723  28.954  1.00  0.00     0.188 C 
BRANCH  29  30
ATOM     30  O   UNL A   1      32.762  35.152  29.976  1.00  0.00    -0.376 OA
BRANCH  30  31
ATOM     31  C   UNL A   1      33.346  35.873  31.052  1.00  0.00     0.202 C 
BRANCH  31  32
ATOM     32  C   UNL A   1      33.871  34.992  32.193  1.00  0.00     0.261 C 
BRANCH  32  33
ATOM     33  O   UNL A   1      35.146  34.379  31.944  1.00  0.00    -0.460 OA
BRANCH  33  34
ATOM     34  C   UNL A   1      35.153  33.048  31.722  1.00  0.00     0.338 C 
ATOM     35  O   UNL A   1      34.197  32.293  31.700  1.00  0.00    -0.246 OA
BRANCH  34  36
ATOM     36  C   UNL A   1      36.518  32.659  31.332  1.00  0.00     0.060 A 
ATOM     37  C   UNL A   1      36.971  32.979  30.047  1.00  0.00     0.016 A 
ATOM     38  C   UNL A   1      37.335  31.963  32.225  1.00  0.00     0.016 A 
ATOM     39  C   UNL A   1      38.235  32.560  29.634  1.00  0.00     0.010 A 
ATOM     40  C   UNL A   1      38.594  31.530  31.806  1.00  0.00     0.010 A 
ATOM     41  C   UNL A   1      39.032  31.795  30.497  1.00  0.00    -0.014 A 
BRANCH  41  42
ATOM     42  C   UNL A   1      40.238  31.119  29.968  1.00  0.00     0.031 A 
ATOM     43  C   UNL A   1      41.540  31.870  29.975  1.00  0.00     0.074 A 
ATOM     44  C   UNL A   1      40.185  29.857  29.513  1.00  0.00     0.049 A 
ATOM     45  N   UNL A   1      42.726  31.478  29.584  1.00  0.00    -0.248 NA
ATOM     46  C   UNL A   1      41.501  33.246  30.495  1.00  0.00     0.031 C 
ATOM     47  C   UNL A   1      38.990  29.016  29.477  1.00  0.00     0.029 A 
ATOM     48  N   UNL A   1      41.175  29.062  28.992  1.00  0.00    -0.354 N 
ATOM     49  C   UNL A   1      43.571  32.556  29.813  1.00  0.00     0.074 A 
ATOM     50  C   UNL A   1      42.759  33.629  30.345  1.00  0.00     0.031 C 
ATOM     51  C   UNL A   1      39.317  27.819  28.958  1.00  0.00     0.029 A 
ATOM     52  C   UNL A   1      40.736  27.820  28.606  1.00  0.00     0.049 A 
ATOM     53  H   UNL A   1      42.110  29.356  28.903  1.00  0.00     0.167 HD
ATOM     54  C   UNL A   1      44.905  32.645  29.606  1.00  0.00     0.031 A 
ATOM     55  C   UNL A   1      41.405  26.807  28.023  1.00  0.00     0.031 A 
ATOM     56  C   UNL A   1      45.711  31.593  29.051  1.00  0.00     0.049 A 
ATOM     57  C   UNL A   1      42.875  26.958  27.734  1.00  0.00     0.074 A 
ATOM     58  C   UNL A   1      47.074  31.584  28.812  1.00  0.00     0.029 A 
ATOM     59  N   UNL A   1      45.222  30.365  28.633  1.00  0.00    -0.354 N 
ATOM     60  N   UNL A   1      43.673  27.967  27.994  1.00  0.00    -0.248 NA
ATOM     61  C   UNL A   1      43.539  25.823  27.076  1.00  0.00     0.031 C 
ATOM     62  C   UNL A   1      47.402  30.368  28.202  1.00  0.00     0.029 A 
ATOM     63  C   UNL A   1      46.252  29.599  28.113  1.00  0.00     0.049 A 
ATOM     64  H   UNL A   1      44.282  30.080  28.697  1.00  0.00     0.167 HD
ATOM     65  C   UNL A   1      44.933  27.577  27.556  1.00  0.00     0.074 A 
ATOM     66  C   UNL A   1      44.797  26.234  27.032  1.00  0.00     0.031 C 
ATOM     67  C   UNL A   1      46.099  28.268  27.588  1.00  0.00     0.031 A 
BRANCH  54  68
ATOM     68  C   UNL A   1      45.566  33.948  29.956  1.00  0.00    -0.014 A 
ATOM     69  C   UNL A   1      46.161  34.146  31.212  1.00  0.00     0.009 A 
ATOM     70  C   UNL A   1      45.608  34.985  29.012  1.00  0.00     0.009 A 
ATOM     71  C   UNL A   1      46.756  35.370  31.527  1.00  0.00     0.001 A 
ATOM     72  C   UNL A   1      46.227  36.197  29.320  1.00  0.00     0.001 A 
ATOM     73  C   UNL A   1      46.791  36.393  30.579  1.00  0.00     0.000 A 
ENDBRANCH  54  68
BRANCH  55  74
ATOM     74  C   UNL A   1      40.693  25.554  27.661  1.00  0.00    -0.014 A 
ATOM     75  C   UNL A   1      41.048  24.332  28.253  1.00  0.00     0.009 A 
ATOM     76  C   UNL A   1      39.674  25.570  26.696  1.00  0.00     0.009 A 
ATOM     77  C   UNL A   1      40.415  23.148  27.867  1.00  0.00     0.001 A 
ATOM     78  C   UNL A   1      39.025  24.390  26.331  1.00  0.00     0.001 A 
ATOM     79  C   UNL A   1      39.401  23.178  26.909  1.00  0.00     0.000 A 
ENDBRANCH  55  74
BRANCH  67  80
ATOM     80  C   UNL A   1      47.324  27.570  27.066  1.00  0.00    -0.014 A 
ATOM     81  C   UNL A   1      47.723  27.700  25.727  1.00  0.00     0.009 A 
ATOM     82  C   UNL A   1      48.108  26.797  27.937  1.00  0.00     0.009 A 
ATOM     83  C   UNL A   1      48.860  27.035  25.261  1.00  0.00     0.001 A 
ATOM     84  C   UNL A   1      49.260  26.159  27.476  1.00  0.00     0.001 A 
ATOM     85  C   UNL A   1      49.630  26.269  26.136  1.00  0.00     0.000 A 
ENDBRANCH  67  80
ENDBRANCH  41  42
ENDBRANCH  34  36
ENDBRANCH  33  34
ENDBRANCH  32  33
ENDBRANCH  31  32
ENDBRANCH  30  31
ENDBRANCH  29  30
ENDBRANCH  28  29
ENDBRANCH  27  28
ENDBRANCH   1  27
TORSDOF 23
ENDMDL
MODEL 3
REMARK VINA RESULT:      -9.1      1.262      5.826
REMARK SMILES CN(c1ccccc1C(=O)OCCOCCOCCOCCOC(=O)c1ccc(-c2c3nc(c(-c4ccccc4)c4ccc([nH]4)c(-c4ccccc4)c4nc(c(-c5ccccc5)c5ccc2[nH]5)C=C4)C=C3)cc1)S(=O)(=O)c1ccc(I)cc1
REMARK SMILES IDX 16 1 15 2 14 3 13 4 12 5 11 6 9 7 10 8 8 9 3 10 4 11 5 12
REMARK SMILES IDX 7 13 6 14 2 15 1 16 74 17 75 18 76 19 77 20 78 21 83 22
REMARK SMILES IDX 79 23 82 24 80 25 81 26 17 27 18 28 19 29 20 30 21 31 22 32
REMARK SMILES IDX 23 33 24 34 25 35 26 36 27 37 73 38 28 39 72 40 29 41 30 42
REMARK SMILES IDX 31 43 66 44 32 45 71 46 65 47 67 48 33 49 70 50 64 51 63 52
REMARK SMILES IDX 34 54 56 55 41 56 55 57 42 58 45 59 54 60 68 61 43 62 44 63
REMARK SMILES IDX 53 65 69 66 46 67 35 68 36 69 40 70 37 71 39 72 38 73 57 74
REMARK SMILES IDX 58 75 62 76 59 77 61 78 60 79 47 80 48 81 52 82 49 83 51 84
REMARK SMILES IDX 50 85
REMARK H PARENT 67 53 45 64
REMARK Flexibility Score: inf
ROOT
ATOM      1  C   UNL A   1      38.569  22.105  25.749  1.00  0.00     0.188 C 
ENDROOT
BRANCH   1   2
ATOM      2  C   UNL A   1      37.272  22.832  25.357  1.00  0.00     0.188 C 
BRANCH   2   3
ATOM      3  O   UNL A   1      36.391  22.066  24.545  1.00  0.00    -0.376 OA
BRANCH   3   4
ATOM      4  C   UNL A   1      35.532  22.806  23.690  1.00  0.00     0.202 C 
BRANCH   4   5
ATOM      5  C   UNL A   1      35.466  24.314  23.964  1.00  0.00     0.261 C 
BRANCH   5   6
ATOM      6  O   UNL A   1      34.132  24.822  24.133  1.00  0.00    -0.460 OA
BRANCH   6   7
ATOM      7  C   UNL A   1      33.621  25.530  23.112  1.00  0.00     0.340 C 
ATOM      8  O   UNL A   1      33.460  25.134  21.968  1.00  0.00    -0.246 OA
BRANCH   7   9
ATOM      9  C   UNL A   1      33.091  26.818  23.603  1.00  0.00     0.084 A 
ATOM     10  C   UNL A   1      31.890  27.016  24.313  1.00  0.00     0.066 A 
ATOM     11  C   UNL A   1      31.702  28.293  24.875  1.00  0.00     0.028 A 
ATOM     12  C   UNL A   1      32.560  29.369  24.630  1.00  0.00     0.002 A 
ATOM     13  C   UNL A   1      33.975  27.903  23.381  1.00  0.00     0.018 A 
ATOM     14  C   UNL A   1      33.691  29.179  23.859  1.00  0.00     0.001 A 
BRANCH  10  15
ATOM     15  N   UNL A   1      30.851  26.048  24.628  1.00  0.00    -0.269 N 
ATOM     16  C   UNL A   1      29.449  26.336  24.247  1.00  0.00     0.164 C 
BRANCH  15  17
ATOM     17  S   UNL A   1      30.905  25.144  26.105  1.00  0.00     0.264 S 
ATOM     18  O   UNL A   1      31.799  25.814  27.023  1.00  0.00    -0.201 OA
ATOM     19  O   UNL A   1      29.523  24.928  26.499  1.00  0.00    -0.201 OA
BRANCH  17  20
ATOM     20  C   UNL A   1      31.581  23.528  25.777  1.00  0.00     0.088 A 
ATOM     21  C   UNL A   1      32.503  22.962  26.669  1.00  0.00     0.023 A 
ATOM     22  C   UNL A   1      31.263  22.872  24.582  1.00  0.00     0.023 A 
ATOM     23  C   UNL A   1      33.035  21.696  26.407  1.00  0.00     0.016 A 
ATOM     24  C   UNL A   1      31.818  21.618  24.311  1.00  0.00     0.016 A 
ATOM     25  C   UNL A   1      32.687  21.028  25.232  1.00  0.00     0.013 A 
ATOM     26  I   UNL A   1      33.475  19.142  24.845  1.00  0.00    -0.044 I 
ENDBRANCH  17  20
ENDBRANCH  15  17
ENDBRANCH  10  15
ENDBRANCH   7   9
ENDBRANCH   6   7
ENDBRANCH   5   6
ENDBRANCH   4   5
ENDBRANCH   3   4
ENDBRANCH   2   3
ENDBRANCH   1   2
BRANCH   1  27
ATOM     27  O   UNL A   1      39.533  22.798  26.518  1.00  0.00    -0.377 OA
BRANCH  27  28
ATOM     28  C   UNL A   1      40.384  22.088  27.413  1.00  0.00     0.188 C 
BRANCH  28  29
ATOM     29  C   UNL A   1      40.989  20.722  27.027  1.00  0.00     0.188 C 
BRANCH  29  30
ATOM     30  O   UNL A   1      41.584  20.671  25.737  1.00  0.00    -0.376 OA
BRANCH  30  31
ATOM     31  C   UNL A   1      42.939  21.092  25.654  1.00  0.00     0.202 C 
BRANCH  31  32
ATOM     32  C   UNL A   1      43.121  22.557  25.237  1.00  0.00     0.261 C 
BRANCH  32  33
ATOM     33  O   UNL A   1      44.063  23.297  26.030  1.00  0.00    -0.460 OA
BRANCH  33  34
ATOM     34  C   UNL A   1      44.267  24.588  25.692  1.00  0.00     0.338 C 
ATOM     35  O   UNL A   1      44.830  25.017  24.701  1.00  0.00    -0.246 OA
BRANCH  34  36
ATOM     36  C   UNL A   1      43.535  25.431  26.653  1.00  0.00     0.060 A 
ATOM     37  C   UNL A   1      43.781  26.808  26.669  1.00  0.00     0.016 A 
ATOM     38  C   UNL A   1      42.628  24.856  27.547  1.00  0.00     0.016 A 
ATOM     39  C   UNL A   1      43.150  27.613  27.615  1.00  0.00     0.010 A 
ATOM     40  C   UNL A   1      42.009  25.660  28.504  1.00  0.00     0.010 A 
ATOM     41  C   UNL A   1      42.296  27.034  28.565  1.00  0.00    -0.014 A 
BRANCH  41  42
ATOM     42  C   UNL A   1      41.854  27.832  29.731  1.00  0.00     0.031 A 
ATOM     43  C   UNL A   1      40.618  28.677  29.591  1.00  0.00     0.074 A 
ATOM     44  C   UNL A   1      42.520  27.792  30.896  1.00  0.00     0.049 A 
ATOM     45  N   UNL A   1      40.031  29.441  30.476  1.00  0.00    -0.248 NA
ATOM     46  C   UNL A   1      39.955  28.657  28.276  1.00  0.00     0.031 C 
ATOM     47  C   UNL A   1      43.714  26.994  31.165  1.00  0.00     0.029 A 
ATOM     48  N   UNL A   1      42.274  28.444  32.077  1.00  0.00    -0.354 N 
ATOM     49  C   UNL A   1      38.931  29.988  29.828  1.00  0.00     0.074 A 
ATOM     50  C   UNL A   1      38.950  29.497  28.467  1.00  0.00     0.031 C 
ATOM     51  C   UNL A   1      44.100  27.206  32.435  1.00  0.00     0.029 A 
ATOM     52  C   UNL A   1      43.195  28.170  33.058  1.00  0.00     0.049 A 
ATOM     53  H   UNL A   1      41.512  29.053  32.209  1.00  0.00     0.167 HD
ATOM     54  C   UNL A   1      37.984  30.819  30.322  1.00  0.00     0.031 A 
ATOM     55  C   UNL A   1      43.298  28.653  34.311  1.00  0.00     0.031 A 
ATOM     56  C   UNL A   1      37.977  31.333  31.663  1.00  0.00     0.049 A 
ATOM     57  C   UNL A   1      42.273  29.636  34.813  1.00  0.00     0.074 A 
ATOM     58  C   UNL A   1      37.054  32.174  32.261  1.00  0.00     0.029 A 
ATOM     59  N   UNL A   1      38.950  31.064  32.614  1.00  0.00    -0.354 N 
ATOM     60  N   UNL A   1      41.212  30.112  34.205  1.00  0.00    -0.248 NA
ATOM     61  C   UNL A   1      42.458  30.141  36.181  1.00  0.00     0.031 C 
ATOM     62  C   UNL A   1      37.497  32.455  33.558  1.00  0.00     0.029 A 
ATOM     63  C   UNL A   1      38.664  31.744  33.786  1.00  0.00     0.049 A 
ATOM     64  H   UNL A   1      39.727  30.477  32.476  1.00  0.00     0.167 HD
ATOM     65  C   UNL A   1      40.593  30.951  35.124  1.00  0.00     0.074 A 
ATOM     66  C   UNL A   1      41.385  30.902  36.336  1.00  0.00     0.031 C 
ATOM     67  C   UNL A   1      39.467  31.692  34.979  1.00  0.00     0.031 A 
BRANCH  54  68
ATOM     68  C   UNL A   1      36.893  31.248  29.382  1.00  0.00    -0.014 A 
ATOM     69  C   UNL A   1      36.866  32.544  28.843  1.00  0.00     0.009 A 
ATOM     70  C   UNL A   1      35.888  30.339  29.020  1.00  0.00     0.009 A 
ATOM     71  C   UNL A   1      35.834  32.931  27.985  1.00  0.00     0.001 A 
ATOM     72  C   UNL A   1      34.873  30.720  28.142  1.00  0.00     0.001 A 
ATOM     73  C   UNL A   1      34.841  32.017  27.632  1.00  0.00     0.000 A 
ENDBRANCH  54  68
BRANCH  55  74
ATOM     74  C   UNL A   1      44.420  28.225  35.185  1.00  0.00    -0.014 A 
ATOM     75  C   UNL A   1      45.640  28.919  35.175  1.00  0.00     0.009 A 
ATOM     76  C   UNL A   1      44.288  27.098  36.010  1.00  0.00     0.009 A 
ATOM     77  C   UNL A   1      46.712  28.479  35.955  1.00  0.00     0.001 A 
ATOM     78  C   UNL A   1      45.352  26.675  36.809  1.00  0.00     0.001 A 
ATOM     79  C   UNL A   1      46.566  27.360  36.774  1.00  0.00     0.000 A 
ENDBRANCH  55  74
BRANCH  67  80
ATOM     80  C   UNL A   1      39.011  32.487  36.171  1.00  0.00    -0.014 A 
ATOM     81  C   UNL A   1      38.138  31.939  37.124  1.00  0.00     0.009 A 
ATOM     82  C   UNL A   1      39.488  33.794  36.359  1.00  0.00     0.009 A 
ATOM     83  C   UNL A   1      37.721  32.698  38.220  1.00  0.00     0.001 A 
ATOM     84  C   UNL A   1      39.093  34.540  37.470  1.00  0.00     0.001 A 
ATOM     85  C   UNL A   1      38.201  33.996  38.394  1.00  0.00     0.000 A 
ENDBRANCH  67  80
ENDBRANCH  41  42
ENDBRANCH  34  36
ENDBRANCH  33  34
ENDBRANCH  32  33
ENDBRANCH  31  32
ENDBRANCH  30  31
ENDBRANCH  29  30
ENDBRANCH  28  29
ENDBRANCH  27  28
ENDBRANCH   1  27
TORSDOF 23
ENDMDL
