MODEL 1
REMARK VINA RESULT:      -9.8      0.000      0.000
REMARK SMILES Cc1nc2cc(C(=O)OCCOCCOCCOCCOC(=O)c3ccc(-c4c5nc(c(-c6ccccc6)c6ccc([nH]6)c(-c6ccccc6)c6nc(c(-c7ccccc7)c7ccc4[nH]7)C=C6)C=C5)cc3)ccc2n1CCC[NH+]1CCOCC1
REMARK SMILES IDX 14 1 13 2 12 3 11 4 10 5 9 6 7 7 8 8 6 9 1 10 2 11 3 12
REMARK SMILES IDX 75 13 4 14 74 15 5 16 73 17 72 18 76 19 77 20 78 21 79 22
REMARK SMILES IDX 80 23 84 24 81 26 83 27 82 28 15 29 16 30 17 31 18 32 19 33
REMARK SMILES IDX 20 34 21 35 22 36 23 37 24 38 25 39 71 40 26 41 70 42 27 43
REMARK SMILES IDX 28 44 29 45 64 46 30 47 69 48 63 49 65 50 31 51 68 52 62 53
REMARK SMILES IDX 61 54 32 56 54 57 39 58 53 59 40 60 43 61 52 62 66 63 41 64
REMARK SMILES IDX 42 65 51 67 67 68 44 69 33 70 34 71 38 72 35 73 37 74 36 75
REMARK SMILES IDX 55 76 56 77 60 78 57 79 59 80 58 81 45 82 46 83 50 84 47 85
REMARK SMILES IDX 49 86 48 87
REMARK H PARENT 79 25 65 55 43 66
REMARK Flexibility Score: inf
ROOT
ATOM      1  C   UNL A   1      40.672  23.341  26.863  1.00  0.00     0.188 C 
ENDROOT
BRANCH   1   2
ATOM      2  C   UNL A   1      39.261  23.941  26.934  1.00  0.00     0.188 C 
BRANCH   2   3
ATOM      3  O   UNL A   1      38.412  23.506  25.886  1.00  0.00    -0.376 OA
BRANCH   3   4
ATOM      4  C   UNL A   1      38.040  22.139  25.791  1.00  0.00     0.202 C 
BRANCH   4   5
ATOM      5  C   UNL A   1      36.819  21.665  24.975  1.00  0.00     0.261 C 
BRANCH   5   6
ATOM      6  O   UNL A   1      35.743  22.594  24.860  1.00  0.00    -0.460 OA
BRANCH   6   7
ATOM      7  C   UNL A   1      35.745  23.375  23.760  1.00  0.00     0.338 C 
ATOM      8  O   UNL A   1      36.386  23.208  22.745  1.00  0.00    -0.246 OA
BRANCH   7   9
ATOM      9  C   UNL A   1      34.611  24.315  23.903  1.00  0.00     0.062 A 
ATOM     10  C   UNL A   1      31.322  28.016  27.207  1.00  0.00     0.088 C 
ATOM     11  C   UNL A   1      32.008  27.139  26.229  1.00  0.00     0.106 A 
ATOM     12  N   UNL A   1      32.929  26.260  26.566  1.00  0.00    -0.233 NA
ATOM     13  N   UNL A   1      31.741  27.063  24.878  1.00  0.00    -0.328 N 
ATOM     14  C   UNL A   1      33.326  25.673  25.401  1.00  0.00     0.090 A 
ATOM     15  C   UNL A   1      32.681  26.231  24.305  1.00  0.00     0.068 A 
ATOM     16  C   UNL A   1      34.262  24.659  25.215  1.00  0.00     0.046 A 
ATOM     17  C   UNL A   1      32.999  25.889  22.983  1.00  0.00     0.029 A 
ATOM     18  C   UNL A   1      34.010  24.938  22.802  1.00  0.00     0.018 A 
BRANCH  13  19
ATOM     19  C   UNL A   1      30.598  27.612  24.169  1.00  0.00     0.130 C 
BRANCH  19  20
ATOM     20  C   UNL A   1      30.712  29.130  23.969  1.00  0.00     0.083 C 
BRANCH  20  21
ATOM     21  C   UNL A   1      30.044  29.649  22.686  1.00  0.00     0.264 C 
BRANCH  21  22
ATOM     22  N   UNL A   1      28.622  29.962  22.884  1.00  0.00    -0.331 N 
ATOM     23  C   UNL A   1      27.903  30.145  21.604  1.00  0.00     0.291 C 
ATOM     24  C   UNL A   1      28.396  31.168  23.710  1.00  0.00     0.291 C 
ATOM     25  H   UNL A   1      28.254  29.149  23.379  1.00  0.00     0.348 HD
ATOM     26  C   UNL A   1      28.192  31.478  20.903  1.00  0.00     0.221 C 
ATOM     27  C   UNL A   1      28.698  32.484  22.976  1.00  0.00     0.221 C 
ATOM     28  O   UNL A   1      27.935  32.590  21.768  1.00  0.00    -0.370 OA
ENDBRANCH  21  22
ENDBRANCH  20  21
ENDBRANCH  19  20
ENDBRANCH  13  19
ENDBRANCH   7   9
ENDBRANCH   6   7
ENDBRANCH   5   6
ENDBRANCH   4   5
ENDBRANCH   3   4
ENDBRANCH   2   3
ENDBRANCH   1   2
BRANCH   1  29
ATOM     29  O   UNL A   1      41.503  23.967  25.909  1.00  0.00    -0.377 OA
BRANCH  29  30
ATOM     30  C   UNL A   1      42.851  24.251  26.274  1.00  0.00     0.188 C 
BRANCH  30  31
ATOM     31  C   UNL A   1      44.076  23.795  25.447  1.00  0.00     0.188 C 
BRANCH  31  32
ATOM     32  O   UNL A   1      45.268  24.468  25.807  1.00  0.00    -0.376 OA
BRANCH  32  33
ATOM     33  C   UNL A   1      46.129  23.813  26.724  1.00  0.00     0.202 C 
BRANCH  33  34
ATOM     34  C   UNL A   1      46.266  24.387  28.150  1.00  0.00     0.261 C 
BRANCH  34  35
ATOM     35  O   UNL A   1      45.018  24.670  28.810  1.00  0.00    -0.460 OA
BRANCH  35  36
ATOM     36  C   UNL A   1      44.994  24.997  30.125  1.00  0.00     0.338 C 
ATOM     37  O   UNL A   1      45.859  24.799  30.946  1.00  0.00    -0.246 OA
BRANCH  36  38
ATOM     38  C   UNL A   1      43.874  25.977  30.266  1.00  0.00     0.060 A 
ATOM     39  C   UNL A   1      42.867  26.099  29.303  1.00  0.00     0.016 A 
ATOM     40  C   UNL A   1      44.060  26.990  31.220  1.00  0.00     0.016 A 
ATOM     41  C   UNL A   1      42.137  27.289  29.228  1.00  0.00     0.010 A 
ATOM     42  C   UNL A   1      43.348  28.186  31.126  1.00  0.00     0.010 A 
ATOM     43  C   UNL A   1      42.412  28.359  30.106  1.00  0.00    -0.014 A 
BRANCH  43  44
ATOM     44  C   UNL A   1      41.493  29.514  30.096  1.00  0.00     0.031 A 
ATOM     45  C   UNL A   1      42.215  30.769  29.763  1.00  0.00     0.074 A 
ATOM     46  C   UNL A   1      40.141  29.520  30.171  1.00  0.00     0.049 A 
ATOM     47  N   UNL A   1      42.321  31.849  30.460  1.00  0.00    -0.248 NA
ATOM     48  C   UNL A   1      43.045  30.744  28.544  1.00  0.00     0.031 C 
ATOM     49  C   UNL A   1      39.264  28.351  30.133  1.00  0.00     0.029 A 
ATOM     50  N   UNL A   1      39.248  30.570  30.197  1.00  0.00    -0.354 N 
ATOM     51  C   UNL A   1      43.090  32.709  29.681  1.00  0.00     0.074 A 
ATOM     52  C   UNL A   1      43.650  31.925  28.615  1.00  0.00     0.031 C 
ATOM     53  C   UNL A   1      37.981  28.746  29.974  1.00  0.00     0.029 A 
ATOM     54  C   UNL A   1      37.925  30.199  29.961  1.00  0.00     0.049 A 
ATOM     55  H   UNL A   1      39.522  31.501  30.368  1.00  0.00     0.167 HD
ATOM     56  C   UNL A   1      42.982  34.057  29.797  1.00  0.00     0.031 A 
ATOM     57  C   UNL A   1      36.857  30.996  29.698  1.00  0.00     0.031 A 
ATOM     58  C   UNL A   1      42.359  34.442  31.032  1.00  0.00     0.049 A 
ATOM     59  C   UNL A   1      37.159  32.369  30.148  1.00  0.00     0.074 A 
ATOM     60  C   UNL A   1      42.732  34.517  32.353  1.00  0.00     0.029 A 
ATOM     61  N   UNL A   1      40.993  34.490  30.980  1.00  0.00    -0.354 N 
ATOM     62  N   UNL A   1      37.270  32.712  31.397  1.00  0.00    -0.248 NA
ATOM     63  C   UNL A   1      37.629  33.354  29.180  1.00  0.00     0.031 C 
ATOM     64  C   UNL A   1      41.529  34.426  33.108  1.00  0.00     0.029 A 
ATOM     65  C   UNL A   1      40.452  34.330  32.228  1.00  0.00     0.049 A 
ATOM     66  H   UNL A   1      40.468  34.624  30.158  1.00  0.00     0.167 HD
ATOM     67  C   UNL A   1      38.204  33.728  31.385  1.00  0.00     0.074 A 
ATOM     68  C   UNL A   1      38.252  34.197  30.007  1.00  0.00     0.031 C 
ATOM     69  C   UNL A   1      39.091  33.868  32.408  1.00  0.00     0.031 A 
BRANCH  56  70
ATOM     70  C   UNL A   1      42.988  34.976  28.597  1.00  0.00    -0.014 A 
ATOM     71  C   UNL A   1      41.876  35.748  28.205  1.00  0.00     0.009 A 
ATOM     72  C   UNL A   1      44.220  35.307  28.007  1.00  0.00     0.009 A 
ATOM     73  C   UNL A   1      41.975  36.786  27.277  1.00  0.00     0.001 A 
ATOM     74  C   UNL A   1      44.332  36.374  27.104  1.00  0.00     0.001 A 
ATOM     75  C   UNL A   1      43.211  37.112  26.741  1.00  0.00     0.000 A 
ENDBRANCH  56  70
BRANCH  57  76
ATOM     76  C   UNL A   1      35.661  30.714  28.861  1.00  0.00    -0.014 A 
ATOM     77  C   UNL A   1      35.681  29.645  27.948  1.00  0.00     0.009 A 
ATOM     78  C   UNL A   1      34.614  31.647  28.740  1.00  0.00     0.009 A 
ATOM     79  C   UNL A   1      34.730  29.534  26.928  1.00  0.00     0.001 A 
ATOM     80  C   UNL A   1      33.664  31.540  27.712  1.00  0.00     0.001 A 
ATOM     81  C   UNL A   1      33.733  30.494  26.796  1.00  0.00     0.000 A 
ENDBRANCH  57  76
BRANCH  69  82
ATOM     82  C   UNL A   1      38.719  33.311  33.753  1.00  0.00    -0.014 A 
ATOM     83  C   UNL A   1      38.062  34.173  34.645  1.00  0.00     0.009 A 
ATOM     84  C   UNL A   1      39.092  32.036  34.202  1.00  0.00     0.009 A 
ATOM     85  C   UNL A   1      37.810  33.786  35.961  1.00  0.00     0.001 A 
ATOM     86  C   UNL A   1      38.814  31.637  35.513  1.00  0.00     0.001 A 
ATOM     87  C   UNL A   1      38.186  32.518  36.395  1.00  0.00     0.000 A 
ENDBRANCH  69  82
ENDBRANCH  43  44
ENDBRANCH  36  38
ENDBRANCH  35  36
ENDBRANCH  34  35
ENDBRANCH  33  34
ENDBRANCH  32  33
ENDBRANCH  31  32
ENDBRANCH  30  31
ENDBRANCH  29  30
ENDBRANCH   1  29
TORSDOF 24
ENDMDL
MODEL 2
REMARK VINA RESULT:      -8.3      3.253      9.694
REMARK SMILES Cc1nc2cc(C(=O)OCCOCCOCCOCCOC(=O)c3ccc(-c4c5nc(c(-c6ccccc6)c6ccc([nH]6)c(-c6ccccc6)c6nc(c(-c7ccccc7)c7ccc4[nH]7)C=C6)C=C5)cc3)ccc2n1CCC[NH+]1CCOCC1
REMARK SMILES IDX 14 1 13 2 12 3 11 4 10 5 9 6 7 7 8 8 6 9 1 10 2 11 3 12
REMARK SMILES IDX 75 13 4 14 74 15 5 16 73 17 72 18 76 19 77 20 78 21 79 22
REMARK SMILES IDX 80 23 84 24 81 26 83 27 82 28 15 29 16 30 17 31 18 32 19 33
REMARK SMILES IDX 20 34 21 35 22 36 23 37 24 38 25 39 71 40 26 41 70 42 27 43
REMARK SMILES IDX 28 44 29 45 64 46 30 47 69 48 63 49 65 50 31 51 68 52 62 53
REMARK SMILES IDX 61 54 32 56 54 57 39 58 53 59 40 60 43 61 52 62 66 63 41 64
REMARK SMILES IDX 42 65 51 67 67 68 44 69 33 70 34 71 38 72 35 73 37 74 36 75
REMARK SMILES IDX 55 76 56 77 60 78 57 79 59 80 58 81 45 82 46 83 50 84 47 85
REMARK SMILES IDX 49 86 48 87
REMARK H PARENT 79 25 65 55 43 66
REMARK Flexibility Score: inf
ROOT
ATOM      1  C   UNL A   1      31.385  23.873  27.014  1.00  0.00     0.188 C 
ENDROOT
BRANCH   1   2
ATOM      2  C   UNL A   1      30.523  22.847  26.267  1.00  0.00     0.188 C 
BRANCH   2   3
ATOM      3  O   UNL A   1      31.282  21.910  25.523  1.00  0.00    -0.376 OA
BRANCH   3   4
ATOM      4  C   UNL A   1      32.679  21.785  25.749  1.00  0.00     0.202 C 
BRANCH   4   5
ATOM      5  C   UNL A   1      33.726  22.573  24.935  1.00  0.00     0.261 C 
BRANCH   5   6
ATOM      6  O   UNL A   1      35.085  22.416  25.342  1.00  0.00    -0.460 OA
BRANCH   6   7
ATOM      7  C   UNL A   1      36.014  22.518  24.371  1.00  0.00     0.338 C 
ATOM      8  O   UNL A   1      35.831  22.818  23.211  1.00  0.00    -0.246 OA
BRANCH   7   9
ATOM      9  C   UNL A   1      37.334  22.476  25.038  1.00  0.00     0.062 A 
ATOM     10  C   UNL A   1      41.433  24.922  28.595  1.00  0.00     0.088 C 
ATOM     11  C   UNL A   1      40.550  24.157  27.684  1.00  0.00     0.106 A 
ATOM     12  N   UNL A   1      39.459  24.658  27.142  1.00  0.00    -0.233 NA
ATOM     13  N   UNL A   1      40.770  22.875  27.225  1.00  0.00    -0.328 N 
ATOM     14  C   UNL A   1      38.919  23.654  26.395  1.00  0.00     0.090 A 
ATOM     15  C   UNL A   1      39.655  22.482  26.512  1.00  0.00     0.068 A 
ATOM     16  C   UNL A   1      37.774  23.679  25.603  1.00  0.00     0.046 A 
ATOM     17  C   UNL A   1      39.246  21.269  25.941  1.00  0.00     0.029 A 
ATOM     18  C   UNL A   1      38.042  21.282  25.225  1.00  0.00     0.018 A 
BRANCH  13  19
ATOM     19  C   UNL A   1      41.995  22.101  27.315  1.00  0.00     0.130 C 
BRANCH  19  20
ATOM     20  C   UNL A   1      42.871  22.250  26.062  1.00  0.00     0.083 C 
BRANCH  20  21
ATOM     21  C   UNL A   1      43.574  20.955  25.628  1.00  0.00     0.264 C 
BRANCH  21  22
ATOM     22  N   UNL A   1      44.655  21.202  24.665  1.00  0.00    -0.331 N 
ATOM     23  C   UNL A   1      44.494  20.415  23.422  1.00  0.00     0.291 C 
ATOM     24  C   UNL A   1      46.002  20.922  25.210  1.00  0.00     0.291 C 
ATOM     25  H   UNL A   1      44.584  22.199  24.459  1.00  0.00     0.348 HD
ATOM     26  C   UNL A   1      44.842  18.928  23.568  1.00  0.00     0.221 C 
ATOM     27  C   UNL A   1      46.314  19.423  25.343  1.00  0.00     0.221 C 
ATOM     28  O   UNL A   1      46.164  18.749  24.089  1.00  0.00    -0.370 OA
ENDBRANCH  21  22
ENDBRANCH  20  21
ENDBRANCH  19  20
ENDBRANCH  13  19
ENDBRANCH   7   9
ENDBRANCH   6   7
ENDBRANCH   5   6
ENDBRANCH   4   5
ENDBRANCH   3   4
ENDBRANCH   2   3
ENDBRANCH   1   2
BRANCH   1  29
ATOM     29  O   UNL A   1      31.137  25.207  26.627  1.00  0.00    -0.377 OA
BRANCH  29  30
ATOM     30  C   UNL A   1      30.999  25.491  25.238  1.00  0.00     0.188 C 
BRANCH  30  31
ATOM     31  C   UNL A   1      30.616  26.883  24.682  1.00  0.00     0.188 C 
BRANCH  31  32
ATOM     32  O   UNL A   1      31.663  27.829  24.791  1.00  0.00    -0.376 OA
BRANCH  32  33
ATOM     33  C   UNL A   1      31.313  29.134  25.224  1.00  0.00     0.202 C 
BRANCH  33  34
ATOM     34  C   UNL A   1      32.441  30.146  25.514  1.00  0.00     0.261 C 
BRANCH  34  35
ATOM     35  O   UNL A   1      32.843  30.225  26.893  1.00  0.00    -0.460 OA
BRANCH  35  36
ATOM     36  C   UNL A   1      33.619  29.258  27.441  1.00  0.00     0.338 C 
ATOM     37  O   UNL A   1      33.599  28.075  27.193  1.00  0.00    -0.246 OA
BRANCH  36  38
ATOM     38  C   UNL A   1      34.743  29.985  28.106  1.00  0.00     0.060 A 
ATOM     39  C   UNL A   1      35.495  30.960  27.443  1.00  0.00     0.016 A 
ATOM     40  C   UNL A   1      35.223  29.417  29.297  1.00  0.00     0.016 A 
ATOM     41  C   UNL A   1      36.776  31.265  27.909  1.00  0.00     0.010 A 
ATOM     42  C   UNL A   1      36.512  29.705  29.745  1.00  0.00     0.010 A 
ATOM     43  C   UNL A   1      37.312  30.600  29.033  1.00  0.00    -0.014 A 
BRANCH  43  44
ATOM     44  C   UNL A   1      38.591  31.091  29.582  1.00  0.00     0.031 A 
ATOM     45  C   UNL A   1      39.519  29.966  29.864  1.00  0.00     0.074 A 
ATOM     46  C   UNL A   1      39.037  32.366  29.676  1.00  0.00     0.049 A 
ATOM     47  N   UNL A   1      40.062  29.628  30.984  1.00  0.00    -0.248 NA
ATOM     48  C   UNL A   1      39.749  29.014  28.760  1.00  0.00     0.031 C 
ATOM     49  C   UNL A   1      38.398  33.553  29.110  1.00  0.00     0.029 A 
ATOM     50  N   UNL A   1      40.204  32.871  30.208  1.00  0.00    -0.354 N 
ATOM     51  C   UNL A   1      40.847  28.517  30.685  1.00  0.00     0.074 A 
ATOM     52  C   UNL A   1      40.479  28.083  29.366  1.00  0.00     0.031 C 
ATOM     53  C   UNL A   1      39.245  34.605  29.179  1.00  0.00     0.029 A 
ATOM     54  C   UNL A   1      40.467  34.193  29.849  1.00  0.00     0.049 A 
ATOM     55  H   UNL A   1      40.799  32.345  30.791  1.00  0.00     0.167 HD
ATOM     56  C   UNL A   1      41.944  28.207  31.422  1.00  0.00     0.031 A 
ATOM     57  C   UNL A   1      41.616  34.900  30.011  1.00  0.00     0.031 A 
ATOM     58  C   UNL A   1      41.930  28.852  32.704  1.00  0.00     0.049 A 
ATOM     59  C   UNL A   1      42.441  34.248  31.046  1.00  0.00     0.074 A 
ATOM     60  C   UNL A   1      41.273  28.677  33.899  1.00  0.00     0.029 A 
ATOM     61  N   UNL A   1      42.473  30.109  32.706  1.00  0.00    -0.354 N 
ATOM     62  N   UNL A   1      42.129  34.222  32.308  1.00  0.00    -0.248 NA
ATOM     63  C   UNL A   1      43.519  33.350  30.645  1.00  0.00     0.031 C 
ATOM     64  C   UNL A   1      41.285  29.946  34.545  1.00  0.00     0.029 A 
ATOM     65  C   UNL A   1      41.976  30.853  33.742  1.00  0.00     0.049 A 
ATOM     66  H   UNL A   1      43.133  30.434  32.052  1.00  0.00     0.167 HD
ATOM     67  C   UNL A   1      42.644  33.022  32.756  1.00  0.00     0.074 A 
ATOM     68  C   UNL A   1      43.626  32.622  31.759  1.00  0.00     0.031 C 
ATOM     69  C   UNL A   1      41.993  32.300  33.709  1.00  0.00     0.031 A 
BRANCH  56  70
ATOM     70  C   UNL A   1      43.233  27.729  30.793  1.00  0.00    -0.014 A 
ATOM     71  C   UNL A   1      43.775  28.285  29.616  1.00  0.00     0.009 A 
ATOM     72  C   UNL A   1      44.084  26.901  31.545  1.00  0.00     0.009 A 
ATOM     73  C   UNL A   1      45.084  28.030  29.203  1.00  0.00     0.001 A 
ATOM     74  C   UNL A   1      45.411  26.675  31.155  1.00  0.00     0.001 A 
ATOM     75  C   UNL A   1      45.910  27.239  29.986  1.00  0.00     0.000 A 
ENDBRANCH  56  70
BRANCH  57  76
ATOM     76  C   UNL A   1      42.176  35.984  29.161  1.00  0.00    -0.014 A 
ATOM     77  C   UNL A   1      41.870  36.028  27.789  1.00  0.00     0.009 A 
ATOM     78  C   UNL A   1      43.227  36.803  29.615  1.00  0.00     0.009 A 
ATOM     79  C   UNL A   1      42.609  36.813  26.898  1.00  0.00     0.001 A 
ATOM     80  C   UNL A   1      43.973  37.586  28.720  1.00  0.00     0.001 A 
ATOM     81  C   UNL A   1      43.675  37.577  27.360  1.00  0.00     0.000 A 
ENDBRANCH  57  76
BRANCH  69  82
ATOM     82  C   UNL A   1      41.067  33.027  34.643  1.00  0.00    -0.014 A 
ATOM     83  C   UNL A   1      39.744  33.220  34.214  1.00  0.00     0.009 A 
ATOM     84  C   UNL A   1      41.475  33.618  35.848  1.00  0.00     0.009 A 
ATOM     85  C   UNL A   1      38.859  34.006  34.951  1.00  0.00     0.001 A 
ATOM     86  C   UNL A   1      40.579  34.383  36.602  1.00  0.00     0.001 A 
ATOM     87  C   UNL A   1      39.277  34.588  36.145  1.00  0.00     0.000 A 
ENDBRANCH  69  82
ENDBRANCH  43  44
ENDBRANCH  36  38
ENDBRANCH  35  36
ENDBRANCH  34  35
ENDBRANCH  33  34
ENDBRANCH  32  33
ENDBRANCH  31  32
ENDBRANCH  30  31
ENDBRANCH  29  30
ENDBRANCH   1  29
TORSDOF 24
ENDMDL
MODEL 3
REMARK VINA RESULT:      -8.3      8.509     14.041
REMARK SMILES Cc1nc2cc(C(=O)OCCOCCOCCOCCOC(=O)c3ccc(-c4c5nc(c(-c6ccccc6)c6ccc([nH]6)c(-c6ccccc6)c6nc(c(-c7ccccc7)c7ccc4[nH]7)C=C6)C=C5)cc3)ccc2n1CCC[NH+]1CCOCC1
REMARK SMILES IDX 14 1 13 2 12 3 11 4 10 5 9 6 7 7 8 8 6 9 1 10 2 11 3 12
REMARK SMILES IDX 75 13 4 14 74 15 5 16 73 17 72 18 76 19 77 20 78 21 79 22
REMARK SMILES IDX 80 23 84 24 81 26 83 27 82 28 15 29 16 30 17 31 18 32 19 33
REMARK SMILES IDX 20 34 21 35 22 36 23 37 24 38 25 39 71 40 26 41 70 42 27 43
REMARK SMILES IDX 28 44 29 45 64 46 30 47 69 48 63 49 65 50 31 51 68 52 62 53
REMARK SMILES IDX 61 54 32 56 54 57 39 58 53 59 40 60 43 61 52 62 66 63 41 64
REMARK SMILES IDX 42 65 51 67 67 68 44 69 33 70 34 71 38 72 35 73 37 74 36 75
REMARK SMILES IDX 55 76 56 77 60 78 57 79 59 80 58 81 45 82 46 83 50 84 47 85
REMARK SMILES IDX 49 86 48 87
REMARK H PARENT 79 25 65 55 43 66
REMARK Flexibility Score: inf
ROOT
ATOM      1  C   UNL A   1      36.590  33.550  33.901  1.00  0.00     0.188 C 
ENDROOT
BRANCH   1   2
ATOM      2  C   UNL A   1      35.375  34.413  34.265  1.00  0.00     0.188 C 
BRANCH   2   3
ATOM      3  O   UNL A   1      35.218  35.545  33.427  1.00  0.00    -0.376 OA
BRANCH   3   4
ATOM      4  C   UNL A   1      33.960  36.199  33.341  1.00  0.00     0.202 C 
BRANCH   4   5
ATOM      5  C   UNL A   1      33.438  36.826  32.032  1.00  0.00     0.261 C 
BRANCH   5   6
ATOM      6  O   UNL A   1      32.803  35.933  31.119  1.00  0.00    -0.460 OA
BRANCH   6   7
ATOM      7  C   UNL A   1      33.130  36.076  29.818  1.00  0.00     0.338 C 
ATOM      8  O   UNL A   1      33.176  37.107  29.184  1.00  0.00    -0.246 OA
BRANCH   7   9
ATOM      9  C   UNL A   1      33.699  34.783  29.377  1.00  0.00     0.062 A 
ATOM     10  C   UNL A   1      36.793  29.821  30.494  1.00  0.00     0.088 C 
ATOM     11  C   UNL A   1      36.005  30.984  30.020  1.00  0.00     0.106 A 
ATOM     12  N   UNL A   1      35.863  32.094  30.715  1.00  0.00    -0.233 NA
ATOM     13  N   UNL A   1      35.388  31.102  28.793  1.00  0.00    -0.328 N 
ATOM     14  C   UNL A   1      35.066  32.904  29.963  1.00  0.00     0.090 A 
ATOM     15  C   UNL A   1      34.655  32.271  28.797  1.00  0.00     0.068 A 
ATOM     16  C   UNL A   1      34.636  34.200  30.239  1.00  0.00     0.046 A 
ATOM     17  C   UNL A   1      33.732  32.842  27.909  1.00  0.00     0.029 A 
ATOM     18  C   UNL A   1      33.231  34.106  28.244  1.00  0.00     0.018 A 
BRANCH  13  19
ATOM     19  C   UNL A   1      35.572  30.259  27.625  1.00  0.00     0.130 C 
BRANCH  19  20
ATOM     20  C   UNL A   1      34.432  29.243  27.456  1.00  0.00     0.083 C 
BRANCH  20  21
ATOM     21  C   UNL A   1      33.622  29.414  26.161  1.00  0.00     0.264 C 
BRANCH  21  22
ATOM     22  N   UNL A   1      32.176  29.475  26.411  1.00  0.00    -0.331 N 
ATOM     23  C   UNL A   1      31.689  28.314  27.189  1.00  0.00     0.291 C 
ATOM     24  C   UNL A   1      31.370  29.565  25.174  1.00  0.00     0.291 C 
ATOM     25  H   UNL A   1      32.051  30.333  26.949  1.00  0.00     0.348 HD
ATOM     26  C   UNL A   1      31.587  27.013  26.383  1.00  0.00     0.221 C 
ATOM     27  C   UNL A   1      31.291  28.244  24.392  1.00  0.00     0.221 C 
ATOM     28  O   UNL A   1      30.780  27.187  25.212  1.00  0.00    -0.370 OA
ENDBRANCH  21  22
ENDBRANCH  20  21
ENDBRANCH  19  20
ENDBRANCH  13  19
ENDBRANCH   7   9
ENDBRANCH   6   7
ENDBRANCH   5   6
ENDBRANCH   4   5
ENDBRANCH   3   4
ENDBRANCH   2   3
ENDBRANCH   1   2
BRANCH   1  29
ATOM     29  O   UNL A   1      36.784  32.455  34.771  1.00  0.00    -0.377 OA
BRANCH  29  30
ATOM     30  C   UNL A   1      38.105  32.190  35.235  1.00  0.00     0.188 C 
BRANCH  30  31
ATOM     31  C   UNL A   1      39.152  31.388  34.426  1.00  0.00     0.188 C 
BRANCH  31  32
ATOM     32  O   UNL A   1      39.395  30.100  34.960  1.00  0.00    -0.376 OA
BRANCH  32  33
ATOM     33  C   UNL A   1      40.613  29.911  35.663  1.00  0.00     0.202 C 
BRANCH  33  34
ATOM     34  C   UNL A   1      41.907  29.681  34.855  1.00  0.00     0.261 C 
BRANCH  34  35
ATOM     35  O   UNL A   1      42.572  28.433  35.119  1.00  0.00    -0.460 OA
BRANCH  35  36
ATOM     36  C   UNL A   1      42.564  27.439  34.198  1.00  0.00     0.338 C 
ATOM     37  O   UNL A   1      42.138  27.492  33.068  1.00  0.00    -0.246 OA
BRANCH  36  38
ATOM     38  C   UNL A   1      43.517  26.413  34.718  1.00  0.00     0.060 A 
ATOM     39  C   UNL A   1      43.187  25.557  35.774  1.00  0.00     0.016 A 
ATOM     40  C   UNL A   1      44.859  26.570  34.335  1.00  0.00     0.016 A 
ATOM     41  C   UNL A   1      44.213  24.964  36.516  1.00  0.00     0.010 A 
ATOM     42  C   UNL A   1      45.880  25.998  35.094  1.00  0.00     0.010 A 
ATOM     43  C   UNL A   1      45.566  25.225  36.212  1.00  0.00    -0.014 A 
BRANCH  43  44
ATOM     44  C   UNL A   1      46.597  24.433  36.912  1.00  0.00     0.031 A 
ATOM     45  C   UNL A   1      47.507  25.312  37.691  1.00  0.00     0.074 A 
ATOM     46  C   UNL A   1      46.679  23.090  37.054  1.00  0.00     0.049 A 
ATOM     47  N   UNL A   1      48.786  25.442  37.589  1.00  0.00    -0.248 NA
ATOM     48  C   UNL A   1      46.865  26.272  38.608  1.00  0.00     0.031 C 
ATOM     49  C   UNL A   1      45.667  22.111  36.660  1.00  0.00     0.029 A 
ATOM     50  N   UNL A   1      47.636  22.310  37.668  1.00  0.00    -0.354 N 
ATOM     51  C   UNL A   1      49.134  26.380  38.558  1.00  0.00     0.074 A 
ATOM     52  C   UNL A   1      47.913  26.979  39.021  1.00  0.00     0.031 C 
ATOM     53  C   UNL A   1      45.973  20.902  37.180  1.00  0.00     0.029 A 
ATOM     54  C   UNL A   1      47.236  20.993  37.895  1.00  0.00     0.049 A 
ATOM     55  H   UNL A   1      48.523  22.652  37.924  1.00  0.00     0.167 HD
ATOM     56  C   UNL A   1      50.369  26.394  39.119  1.00  0.00     0.031 A 
ATOM     57  C   UNL A   1      47.836  20.048  38.665  1.00  0.00     0.031 A 
ATOM     58  C   UNL A   1      51.326  25.672  38.329  1.00  0.00     0.049 A 
ATOM     59  C   UNL A   1      49.243  20.430  38.887  1.00  0.00     0.074 A 
ATOM     60  C   UNL A   1      52.025  25.893  37.166  1.00  0.00     0.029 A 
ATOM     61  N   UNL A   1      51.385  24.333  38.603  1.00  0.00    -0.354 N 
ATOM     62  N   UNL A   1      50.149  20.428  37.954  1.00  0.00    -0.248 NA
ATOM     63  C   UNL A   1      49.617  21.106  40.125  1.00  0.00     0.031 C 
ATOM     64  C   UNL A   1      52.350  24.606  36.651  1.00  0.00     0.029 A 
ATOM     65  C   UNL A   1      51.870  23.636  37.529  1.00  0.00     0.049 A 
ATOM     66  H   UNL A   1      51.115  23.924  39.458  1.00  0.00     0.167 HD
ATOM     67  C   UNL A   1      51.001  21.454  38.310  1.00  0.00     0.074 A 
ATOM     68  C   UNL A   1      50.737  21.710  39.719  1.00  0.00     0.031 C 
ATOM     69  C   UNL A   1      51.595  22.224  37.358  1.00  0.00     0.031 A 
BRANCH  56  70
ATOM     70  C   UNL A   1      50.586  26.632  40.596  1.00  0.00    -0.014 A 
ATOM     71  C   UNL A   1      50.475  25.619  41.570  1.00  0.00     0.009 A 
ATOM     72  C   UNL A   1      51.199  27.829  41.004  1.00  0.00     0.009 A 
ATOM     73  C   UNL A   1      50.940  25.784  42.876  1.00  0.00     0.001 A 
ATOM     74  C   UNL A   1      51.703  27.984  42.302  1.00  0.00     0.001 A 
ATOM     75  C   UNL A   1      51.574  26.962  43.237  1.00  0.00     0.000 A 
ENDBRANCH  56  70
BRANCH  57  76
ATOM     76  C   UNL A   1      47.218  18.936  39.435  1.00  0.00    -0.014 A 
ATOM     77  C   UNL A   1      47.936  18.319  40.474  1.00  0.00     0.009 A 
ATOM     78  C   UNL A   1      46.053  18.289  38.982  1.00  0.00     0.009 A 
ATOM     79  C   UNL A   1      47.543  17.087  41.006  1.00  0.00     0.001 A 
ATOM     80  C   UNL A   1      45.662  17.048  39.510  1.00  0.00     0.001 A 
ATOM     81  C   UNL A   1      46.417  16.440  40.509  1.00  0.00     0.000 A 
ENDBRANCH  57  76
BRANCH  69  82
ATOM     82  C   UNL A   1      51.777  21.643  35.984  1.00  0.00    -0.014 A 
ATOM     83  C   UNL A   1      50.710  21.781  35.082  1.00  0.00     0.009 A 
ATOM     84  C   UNL A   1      52.889  20.879  35.598  1.00  0.00     0.009 A 
ATOM     85  C   UNL A   1      50.736  21.150  33.839  1.00  0.00     0.001 A 
ATOM     86  C   UNL A   1      52.927  20.269  34.340  1.00  0.00     0.001 A 
ATOM     87  C   UNL A   1      51.845  20.393  33.468  1.00  0.00     0.000 A 
ENDBRANCH  69  82
ENDBRANCH  43  44
ENDBRANCH  36  38
ENDBRANCH  35  36
ENDBRANCH  34  35
ENDBRANCH  33  34
ENDBRANCH  32  33
ENDBRANCH  31  32
ENDBRANCH  30  31
ENDBRANCH  29  30
ENDBRANCH   1  29
TORSDOF 24
ENDMDL
