MODEL 1
REMARK VINA RESULT:     -10.1      0.000      0.000
REMARK SMILES Cc1cc2c(c(C)c1Cl)C=C(C(=O)OCCOCCOCCOCCOC(=O)c1ccc(-c3c4nc(c(-c5ccccc5)c5ccc([nH]5)c(-c5ccccc5)c5nc(c(-c6ccccc6)c6ccc3[nH]6)C=C5)C=C4)cc1)[C@H](C(F)(F)F)O2
REMARK SMILES IDX 21 1 20 2 19 3 18 4 17 5 16 6 15 7 14 8 12 9 13 10 11 11
REMARK SMILES IDX 1 12 2 13 3 14 8 15 4 16 6 17 9 18 5 19 82 20 7 21 10 22
REMARK SMILES IDX 77 23 78 24 79 25 80 26 81 27 22 28 23 29 24 30 25 31 26 32
REMARK SMILES IDX 27 33 28 34 29 35 30 36 76 37 31 38 75 39 32 40 33 41 34 42
REMARK SMILES IDX 69 43 35 44 74 45 68 46 70 47 36 48 73 49 67 50 66 51 37 53
REMARK SMILES IDX 59 54 44 55 58 56 45 57 48 58 57 59 71 60 46 61 47 62 56 64
REMARK SMILES IDX 72 65 49 66 38 67 39 68 43 69 40 70 42 71 41 72 60 73 61 74
REMARK SMILES IDX 65 75 62 76 64 77 63 78 50 79 51 80 55 81 52 82 54 83 53 84
REMARK H PARENT 70 52 48 63
REMARK Flexibility Score: inf
ROOT
ATOM      1  C   UNL A   1      39.894  21.545  26.454  1.00  0.00     0.188 C 
ENDROOT
BRANCH   1   2
ATOM      2  O   UNL A   1      38.686  21.218  25.794  1.00  0.00    -0.377 OA
BRANCH   2   3
ATOM      3  C   UNL A   1      37.854  22.283  25.368  1.00  0.00     0.188 C 
BRANCH   3   4
ATOM      4  C   UNL A   1      36.565  22.000  24.578  1.00  0.00     0.188 C 
BRANCH   4   5
ATOM      5  O   UNL A   1      35.832  20.918  25.119  1.00  0.00    -0.376 OA
BRANCH   5   6
ATOM      6  C   UNL A   1      34.439  20.987  25.327  1.00  0.00     0.202 C 
BRANCH   6   7
ATOM      7  C   UNL A   1      33.878  21.475  26.673  1.00  0.00     0.261 C 
BRANCH   7   8
ATOM      8  O   UNL A   1      32.997  22.599  26.623  1.00  0.00    -0.460 OA
BRANCH   8   9
ATOM      9  C   UNL A   1      31.912  22.495  25.834  1.00  0.00     0.338 C 
ATOM     10  O   UNL A   1      31.062  21.623  25.896  1.00  0.00    -0.246 OA
BRANCH   9  11
ATOM     11  C   UNL A   1      31.802  23.692  24.971  1.00  0.00     0.087 C 
ATOM     12  C   UNL A   1      30.300  29.517  22.561  1.00  0.00     0.046 C 
ATOM     13  C   UNL A   1      30.779  28.361  23.398  1.00  0.00    -0.028 A 
ATOM     14  C   UNL A   1      30.739  27.082  22.825  1.00  0.00     0.052 A 
ATOM     15  C   UNL A   1      31.287  28.508  24.705  1.00  0.00     0.047 A 
ATOM     16  C   UNL A   1      31.119  25.959  23.555  1.00  0.00     0.128 A 
ATOM     17  C   UNL A   1      31.685  27.379  25.462  1.00  0.00    -0.021 A 
ATOM     18  Cl  UNL A   1      31.396  30.104  25.385  1.00  0.00    -0.084 Cl
ATOM     19  C   UNL A   1      31.572  26.093  24.874  1.00  0.00     0.022 A 
ATOM     20  O   UNL A   1      30.926  24.755  22.928  1.00  0.00    -0.475 OA
ATOM     21  C   UNL A   1      32.220  27.516  26.870  1.00  0.00     0.047 C 
ATOM     22  C   UNL A   1      31.814  24.862  25.624  1.00  0.00     0.027 C 
ATOM     23  C   UNL A   1      31.590  23.581  23.483  1.00  0.00     0.316 C 
BRANCH  23  24
ATOM     24  C   UNL A   1      32.824  23.269  22.607  1.00  0.00     0.430 C 
ATOM     25  F   UNL A   1      32.864  21.977  22.216  1.00  0.00    -0.167 F 
ATOM     26  F   UNL A   1      32.889  24.041  21.500  1.00  0.00    -0.167 F 
ATOM     27  F   UNL A   1      33.969  23.512  23.298  1.00  0.00    -0.167 F 
ENDBRANCH  23  24
ENDBRANCH   9  11
ENDBRANCH   8   9
ENDBRANCH   7   8
ENDBRANCH   6   7
ENDBRANCH   5   6
ENDBRANCH   4   5
ENDBRANCH   3   4
ENDBRANCH   2   3
ENDBRANCH   1   2
BRANCH   1  28
ATOM     28  C   UNL A   1      40.770  20.313  26.776  1.00  0.00     0.188 C 
BRANCH  28  29
ATOM     29  O   UNL A   1      42.187  20.424  26.886  1.00  0.00    -0.376 OA
BRANCH  29  30
ATOM     30  C   UNL A   1      43.013  20.260  25.746  1.00  0.00     0.202 C 
BRANCH  30  31
ATOM     31  C   UNL A   1      43.733  21.477  25.149  1.00  0.00     0.261 C 
BRANCH  31  32
ATOM     32  O   UNL A   1      43.028  22.723  25.202  1.00  0.00    -0.460 OA
BRANCH  32  33
ATOM     33  C   UNL A   1      43.804  23.829  25.206  1.00  0.00     0.338 C 
ATOM     34  O   UNL A   1      44.518  24.242  24.301  1.00  0.00    -0.246 OA
BRANCH  33  35
ATOM     35  C   UNL A   1      43.565  24.595  26.443  1.00  0.00     0.060 A 
ATOM     36  C   UNL A   1      42.688  24.066  27.400  1.00  0.00     0.016 A 
ATOM     37  C   UNL A   1      44.146  25.850  26.631  1.00  0.00     0.016 A 
ATOM     38  C   UNL A   1      42.364  24.802  28.536  1.00  0.00     0.010 A 
ATOM     39  C   UNL A   1      43.794  26.604  27.754  1.00  0.00     0.010 A 
ATOM     40  C   UNL A   1      42.873  26.096  28.688  1.00  0.00    -0.014 A 
BRANCH  40  41
ATOM     41  C   UNL A   1      42.267  26.990  29.698  1.00  0.00     0.031 A 
ATOM     42  C   UNL A   1      42.967  27.142  31.020  1.00  0.00     0.074 A 
ATOM     43  C   UNL A   1      41.155  27.693  29.428  1.00  0.00     0.049 A 
ATOM     44  N   UNL A   1      42.620  27.846  32.065  1.00  0.00    -0.248 NA
ATOM     45  C   UNL A   1      44.233  26.405  31.182  1.00  0.00     0.031 C 
ATOM     46  C   UNL A   1      40.435  27.686  28.157  1.00  0.00     0.029 A 
ATOM     47  N   UNL A   1      40.442  28.560  30.217  1.00  0.00    -0.354 N 
ATOM     48  C   UNL A   1      43.620  27.634  33.006  1.00  0.00     0.074 A 
ATOM     49  C   UNL A   1      44.569  26.712  32.426  1.00  0.00     0.031 C 
ATOM     50  C   UNL A   1      39.379  28.512  28.250  1.00  0.00     0.029 A 
ATOM     51  C   UNL A   1      39.329  29.075  29.600  1.00  0.00     0.049 A 
ATOM     52  H   UNL A   1      40.702  28.792  31.138  1.00  0.00     0.167 HD
ATOM     53  C   UNL A   1      43.740  28.169  34.242  1.00  0.00     0.031 A 
ATOM     54  C   UNL A   1      38.370  29.892  30.078  1.00  0.00     0.031 A 
ATOM     55  C   UNL A   1      42.786  29.074  34.821  1.00  0.00     0.049 A 
ATOM     56  C   UNL A   1      38.468  30.386  31.498  1.00  0.00     0.074 A 
ATOM     57  C   UNL A   1      42.812  29.667  36.071  1.00  0.00     0.029 A 
ATOM     58  N   UNL A   1      41.632  29.513  34.191  1.00  0.00    -0.354 N 
ATOM     59  N   UNL A   1      39.417  30.180  32.381  1.00  0.00    -0.248 NA
ATOM     60  C   UNL A   1      37.364  31.225  31.986  1.00  0.00     0.031 C 
ATOM     61  C   UNL A   1      41.641  30.414  36.221  1.00  0.00     0.029 A 
ATOM     62  C   UNL A   1      40.922  30.345  35.038  1.00  0.00     0.049 A 
ATOM     63  H   UNL A   1      41.360  29.269  33.277  1.00  0.00     0.167 HD
ATOM     64  C   UNL A   1      39.037  30.887  33.517  1.00  0.00     0.074 A 
ATOM     65  C   UNL A   1      37.782  31.537  33.206  1.00  0.00     0.031 C 
ATOM     66  C   UNL A   1      39.673  30.986  34.711  1.00  0.00     0.031 A 
BRANCH  53  67
ATOM     67  C   UNL A   1      44.934  27.770  35.064  1.00  0.00    -0.014 A 
ATOM     68  C   UNL A   1      46.078  28.581  35.129  1.00  0.00     0.009 A 
ATOM     69  C   UNL A   1      44.892  26.593  35.828  1.00  0.00     0.009 A 
ATOM     70  C   UNL A   1      47.162  28.211  35.927  1.00  0.00     0.001 A 
ATOM     71  C   UNL A   1      45.965  26.240  36.647  1.00  0.00     0.001 A 
ATOM     72  C   UNL A   1      47.102  27.046  36.692  1.00  0.00     0.000 A 
ENDBRANCH  53  67
BRANCH  54  73
ATOM     73  C   UNL A   1      37.232  30.289  29.208  1.00  0.00    -0.014 A 
ATOM     74  C   UNL A   1      37.076  31.622  28.798  1.00  0.00     0.009 A 
ATOM     75  C   UNL A   1      36.296  29.336  28.776  1.00  0.00     0.009 A 
ATOM     76  C   UNL A   1      36.002  31.993  27.986  1.00  0.00     0.001 A 
ATOM     77  C   UNL A   1      35.239  29.703  27.939  1.00  0.00     0.001 A 
ATOM     78  C   UNL A   1      35.090  31.034  27.550  1.00  0.00     0.000 A 
ENDBRANCH  54  73
BRANCH  66  79
ATOM     79  C   UNL A   1      39.043  31.848  35.770  1.00  0.00    -0.014 A 
ATOM     80  C   UNL A   1      39.256  33.234  35.802  1.00  0.00     0.009 A 
ATOM     81  C   UNL A   1      38.151  31.275  36.692  1.00  0.00     0.009 A 
ATOM     82  C   UNL A   1      38.605  34.026  36.750  1.00  0.00     0.001 A 
ATOM     83  C   UNL A   1      37.477  32.073  37.616  1.00  0.00     0.001 A 
ATOM     84  C   UNL A   1      37.709  33.446  37.650  1.00  0.00     0.000 A 
ENDBRANCH  66  79
ENDBRANCH  40  41
ENDBRANCH  33  35
ENDBRANCH  32  33
ENDBRANCH  31  32
ENDBRANCH  30  31
ENDBRANCH  29  30
ENDBRANCH  28  29
ENDBRANCH   1  28
TORSDOF 21
ENDMDL
MODEL 2
REMARK VINA RESULT:      -9.8      3.991      8.961
REMARK SMILES Cc1cc2c(c(C)c1Cl)C=C(C(=O)OCCOCCOCCOCCOC(=O)c1ccc(-c3c4nc(c(-c5ccccc5)c5ccc([nH]5)c(-c5ccccc5)c5nc(c(-c6ccccc6)c6ccc3[nH]6)C=C5)C=C4)cc1)[C@H](C(F)(F)F)O2
REMARK SMILES IDX 21 1 20 2 19 3 18 4 17 5 16 6 15 7 14 8 12 9 13 10 11 11
REMARK SMILES IDX 1 12 2 13 3 14 8 15 4 16 6 17 9 18 5 19 82 20 7 21 10 22
REMARK SMILES IDX 77 23 78 24 79 25 80 26 81 27 22 28 23 29 24 30 25 31 26 32
REMARK SMILES IDX 27 33 28 34 29 35 30 36 76 37 31 38 75 39 32 40 33 41 34 42
REMARK SMILES IDX 69 43 35 44 74 45 68 46 70 47 36 48 73 49 67 50 66 51 37 53
REMARK SMILES IDX 59 54 44 55 58 56 45 57 48 58 57 59 71 60 46 61 47 62 56 64
REMARK SMILES IDX 72 65 49 66 38 67 39 68 43 69 40 70 42 71 41 72 60 73 61 74
REMARK SMILES IDX 65 75 62 76 64 77 63 78 50 79 51 80 55 81 52 82 54 83 53 84
REMARK H PARENT 70 52 48 63
REMARK Flexibility Score: inf
ROOT
ATOM      1  C   UNL A   1      35.099  32.215  28.544  1.00  0.00     0.188 C 
ENDROOT
BRANCH   1   2
ATOM      2  O   UNL A   1      36.316  31.722  28.017  1.00  0.00    -0.377 OA
BRANCH   2   3
ATOM      3  C   UNL A   1      36.337  30.392  27.527  1.00  0.00     0.188 C 
BRANCH   3   4
ATOM      4  C   UNL A   1      35.243  29.392  27.938  1.00  0.00     0.188 C 
BRANCH   4   5
ATOM      5  O   UNL A   1      34.791  28.615  26.845  1.00  0.00    -0.376 OA
BRANCH   5   6
ATOM      6  C   UNL A   1      33.426  28.329  26.643  1.00  0.00     0.202 C 
BRANCH   6   7
ATOM      7  C   UNL A   1      32.958  26.880  26.429  1.00  0.00     0.261 C 
BRANCH   7   8
ATOM      8  O   UNL A   1      32.102  26.648  25.309  1.00  0.00    -0.460 OA
BRANCH   8   9
ATOM      9  C   UNL A   1      32.626  25.985  24.261  1.00  0.00     0.338 C 
ATOM     10  O   UNL A   1      33.104  26.492  23.260  1.00  0.00    -0.246 OA
BRANCH   9  11
ATOM     11  C   UNL A   1      32.692  24.539  24.564  1.00  0.00     0.087 C 
ATOM     12  C   UNL A   1      34.254  18.250  24.608  1.00  0.00     0.046 C 
ATOM     13  C   UNL A   1      34.246  19.754  24.670  1.00  0.00    -0.028 A 
ATOM     14  C   UNL A   1      33.003  20.400  24.620  1.00  0.00     0.052 A 
ATOM     15  C   UNL A   1      35.415  20.531  24.801  1.00  0.00     0.047 A 
ATOM     16  C   UNL A   1      32.918  21.790  24.622  1.00  0.00     0.128 A 
ATOM     17  C   UNL A   1      35.350  21.946  24.812  1.00  0.00    -0.021 A 
ATOM     18  Cl  UNL A   1      36.948  19.721  24.929  1.00  0.00    -0.084 Cl
ATOM     19  C   UNL A   1      34.081  22.568  24.698  1.00  0.00     0.022 A 
ATOM     20  O   UNL A   1      31.659  22.305  24.454  1.00  0.00    -0.475 OA
ATOM     21  C   UNL A   1      36.594  22.796  24.941  1.00  0.00     0.047 C 
ATOM     22  C   UNL A   1      33.926  24.014  24.548  1.00  0.00     0.027 C 
ATOM     23  C   UNL A   1      31.448  23.713  24.767  1.00  0.00     0.316 C 
BRANCH  23  24
ATOM     24  C   UNL A   1      30.753  23.798  26.145  1.00  0.00     0.430 C 
ATOM     25  F   UNL A   1      29.979  22.720  26.398  1.00  0.00    -0.167 F 
ATOM     26  F   UNL A   1      31.628  23.931  27.166  1.00  0.00    -0.167 F 
ATOM     27  F   UNL A   1      29.946  24.890  26.203  1.00  0.00    -0.167 F 
ENDBRANCH  23  24
ENDBRANCH   9  11
ENDBRANCH   8   9
ENDBRANCH   7   8
ENDBRANCH   6   7
ENDBRANCH   5   6
ENDBRANCH   4   5
ENDBRANCH   3   4
ENDBRANCH   2   3
ENDBRANCH   1   2
BRANCH   1  28
ATOM     28  C   UNL A   1      35.162  33.706  28.943  1.00  0.00     0.188 C 
BRANCH  28  29
ATOM     29  O   UNL A   1      34.498  34.704  28.172  1.00  0.00    -0.376 OA
BRANCH  29  30
ATOM     30  C   UNL A   1      34.152  35.951  28.752  1.00  0.00     0.202 C 
BRANCH  30  31
ATOM     31  C   UNL A   1      32.843  36.083  29.542  1.00  0.00     0.261 C 
BRANCH  31  32
ATOM     32  O   UNL A   1      32.637  35.134  30.596  1.00  0.00    -0.460 OA
BRANCH  32  33
ATOM     33  C   UNL A   1      32.797  35.615  31.849  1.00  0.00     0.338 C 
ATOM     34  O   UNL A   1      32.055  36.378  32.455  1.00  0.00    -0.246 OA
BRANCH  33  35
ATOM     35  C   UNL A   1      33.957  34.962  32.482  1.00  0.00     0.060 A 
ATOM     36  C   UNL A   1      35.202  35.603  32.423  1.00  0.00     0.016 A 
ATOM     37  C   UNL A   1      33.835  33.703  33.072  1.00  0.00     0.016 A 
ATOM     38  C   UNL A   1      36.338  34.975  32.927  1.00  0.00     0.010 A 
ATOM     39  C   UNL A   1      34.981  33.057  33.545  1.00  0.00     0.010 A 
ATOM     40  C   UNL A   1      36.239  33.677  33.438  1.00  0.00    -0.014 A 
BRANCH  40  41
ATOM     41  C   UNL A   1      37.476  32.894  33.648  1.00  0.00     0.031 A 
ATOM     42  C   UNL A   1      38.246  33.115  34.920  1.00  0.00     0.074 A 
ATOM     43  C   UNL A   1      37.874  31.969  32.760  1.00  0.00     0.049 A 
ATOM     44  N   UNL A   1      39.365  32.567  35.317  1.00  0.00    -0.248 NA
ATOM     45  C   UNL A   1      37.674  34.080  35.876  1.00  0.00     0.031 C 
ATOM     46  C   UNL A   1      37.165  31.613  31.532  1.00  0.00     0.029 A 
ATOM     47  N   UNL A   1      38.975  31.152  32.765  1.00  0.00    -0.354 N 
ATOM     48  C   UNL A   1      39.630  33.123  36.563  1.00  0.00     0.074 A 
ATOM     49  C   UNL A   1      38.579  34.073  36.843  1.00  0.00     0.031 C 
ATOM     50  C   UNL A   1      37.852  30.646  30.899  1.00  0.00     0.029 A 
ATOM     51  C   UNL A   1      39.065  30.344  31.658  1.00  0.00     0.049 A 
ATOM     52  H   UNL A   1      39.640  31.145  33.491  1.00  0.00     0.167 HD
ATOM     53  C   UNL A   1      40.656  32.856  37.402  1.00  0.00     0.031 A 
ATOM     54  C   UNL A   1      40.028  29.474  31.294  1.00  0.00     0.031 A 
ATOM     55  C   UNL A   1      41.708  31.921  37.112  1.00  0.00     0.049 A 
ATOM     56  C   UNL A   1      41.219  29.278  32.195  1.00  0.00     0.074 A 
ATOM     57  C   UNL A   1      42.799  31.585  37.894  1.00  0.00     0.029 A 
ATOM     58  N   UNL A   1      41.803  31.177  35.946  1.00  0.00    -0.354 N 
ATOM     59  N   UNL A   1      41.463  29.807  33.370  1.00  0.00    -0.248 NA
ATOM     60  C   UNL A   1      42.267  28.363  31.719  1.00  0.00     0.031 C 
ATOM     61  C   UNL A   1      43.587  30.685  37.173  1.00  0.00     0.029 A 
ATOM     62  C   UNL A   1      42.951  30.406  35.974  1.00  0.00     0.049 A 
ATOM     63  H   UNL A   1      41.150  31.196  35.209  1.00  0.00     0.167 HD
ATOM     64  C   UNL A   1      42.675  29.269  33.786  1.00  0.00     0.074 A 
ATOM     65  C   UNL A   1      43.109  28.362  32.744  1.00  0.00     0.031 C 
ATOM     66  C   UNL A   1      43.367  29.506  34.928  1.00  0.00     0.031 A 
BRANCH  53  67
ATOM     67  C   UNL A   1      40.707  33.605  38.705  1.00  0.00    -0.014 A 
ATOM     68  C   UNL A   1      41.388  34.827  38.816  1.00  0.00     0.009 A 
ATOM     69  C   UNL A   1      40.016  33.108  39.821  1.00  0.00     0.009 A 
ATOM     70  C   UNL A   1      41.393  35.526  40.025  1.00  0.00     0.001 A 
ATOM     71  C   UNL A   1      39.997  33.824  41.020  1.00  0.00     0.001 A 
ATOM     72  C   UNL A   1      40.691  35.029  41.122  1.00  0.00     0.000 A 
ENDBRANCH  53  67
BRANCH  54  73
ATOM     73  C   UNL A   1      39.907  28.729  30.012  1.00  0.00    -0.014 A 
ATOM     74  C   UNL A   1      40.380  29.286  28.815  1.00  0.00     0.009 A 
ATOM     75  C   UNL A   1      39.323  27.452  29.981  1.00  0.00     0.009 A 
ATOM     76  C   UNL A   1      40.259  28.585  27.612  1.00  0.00     0.001 A 
ATOM     77  C   UNL A   1      39.230  26.742  28.782  1.00  0.00     0.001 A 
ATOM     78  C   UNL A   1      39.692  27.312  27.597  1.00  0.00     0.000 A 
ENDBRANCH  54  73
BRANCH  66  79
ATOM     79  C   UNL A   1      44.655  28.759  35.134  1.00  0.00    -0.014 A 
ATOM     80  C   UNL A   1      45.887  29.312  34.751  1.00  0.00     0.009 A 
ATOM     81  C   UNL A   1      44.642  27.523  35.803  1.00  0.00     0.009 A 
ATOM     82  C   UNL A   1      47.077  28.632  35.016  1.00  0.00     0.001 A 
ATOM     83  C   UNL A   1      45.836  26.863  36.095  1.00  0.00     0.001 A 
ATOM     84  C   UNL A   1      47.052  27.413  35.695  1.00  0.00     0.000 A 
ENDBRANCH  66  79
ENDBRANCH  40  41
ENDBRANCH  33  35
ENDBRANCH  32  33
ENDBRANCH  31  32
ENDBRANCH  30  31
ENDBRANCH  29  30
ENDBRANCH  28  29
ENDBRANCH   1  28
TORSDOF 21
ENDMDL
MODEL 3
REMARK VINA RESULT:      -9.7      4.476      9.878
REMARK SMILES Cc1cc2c(c(C)c1Cl)C=C(C(=O)OCCOCCOCCOCCOC(=O)c1ccc(-c3c4nc(c(-c5ccccc5)c5ccc([nH]5)c(-c5ccccc5)c5nc(c(-c6ccccc6)c6ccc3[nH]6)C=C5)C=C4)cc1)[C@H](C(F)(F)F)O2
REMARK SMILES IDX 21 1 20 2 19 3 18 4 17 5 16 6 15 7 14 8 12 9 13 10 11 11
REMARK SMILES IDX 1 12 2 13 3 14 8 15 4 16 6 17 9 18 5 19 82 20 7 21 10 22
REMARK SMILES IDX 77 23 78 24 79 25 80 26 81 27 22 28 23 29 24 30 25 31 26 32
REMARK SMILES IDX 27 33 28 34 29 35 30 36 76 37 31 38 75 39 32 40 33 41 34 42
REMARK SMILES IDX 69 43 35 44 74 45 68 46 70 47 36 48 73 49 67 50 66 51 37 53
REMARK SMILES IDX 59 54 44 55 58 56 45 57 48 58 57 59 71 60 46 61 47 62 56 64
REMARK SMILES IDX 72 65 49 66 38 67 39 68 43 69 40 70 42 71 41 72 60 73 61 74
REMARK SMILES IDX 65 75 62 76 64 77 63 78 50 79 51 80 55 81 52 82 54 83 53 84
REMARK H PARENT 70 52 48 63
REMARK Flexibility Score: inf
ROOT
ATOM      1  C   UNL A   1      32.420  32.118  27.250  1.00  0.00     0.188 C 
ENDROOT
BRANCH   1   2
ATOM      2  O   UNL A   1      33.385  31.104  27.451  1.00  0.00    -0.377 OA
BRANCH   2   3
ATOM      3  C   UNL A   1      33.267  29.915  26.689  1.00  0.00     0.188 C 
BRANCH   3   4
ATOM      4  C   UNL A   1      31.927  29.535  26.038  1.00  0.00     0.188 C 
BRANCH   4   5
ATOM      5  O   UNL A   1      32.035  29.387  24.635  1.00  0.00    -0.376 OA
BRANCH   5   6
ATOM      6  C   UNL A   1      33.256  29.065  24.008  1.00  0.00     0.202 C 
BRANCH   6   7
ATOM      7  C   UNL A   1      33.276  28.170  22.758  1.00  0.00     0.261 C 
BRANCH   7   8
ATOM      8  O   UNL A   1      32.478  26.985  22.813  1.00  0.00    -0.460 OA
BRANCH   8   9
ATOM      9  C   UNL A   1      32.864  25.949  22.045  1.00  0.00     0.338 C 
ATOM     10  O   UNL A   1      33.311  26.026  20.913  1.00  0.00    -0.246 OA
BRANCH   9  11
ATOM     11  C   UNL A   1      32.819  24.697  22.830  1.00  0.00     0.087 C 
ATOM     12  C   UNL A   1      33.931  18.735  25.115  1.00  0.00     0.046 C 
ATOM     13  C   UNL A   1      34.028  20.165  24.654  1.00  0.00    -0.028 A 
ATOM     14  C   UNL A   1      32.835  20.825  24.327  1.00  0.00     0.052 A 
ATOM     15  C   UNL A   1      35.246  20.870  24.563  1.00  0.00     0.047 A 
ATOM     16  C   UNL A   1      32.850  22.131  23.845  1.00  0.00     0.128 A 
ATOM     17  C   UNL A   1      35.281  22.202  24.081  1.00  0.00    -0.021 A 
ATOM     18  Cl  UNL A   1      36.714  20.067  25.032  1.00  0.00    -0.084 Cl
ATOM     19  C   UNL A   1      34.062  22.818  23.701  1.00  0.00     0.022 A 
ATOM     20  O   UNL A   1      31.634  22.629  23.451  1.00  0.00    -0.475 OA
ATOM     21  C   UNL A   1      36.579  22.970  23.966  1.00  0.00     0.047 C 
ATOM     22  C   UNL A   1      34.013  24.128  23.054  1.00  0.00     0.027 C 
ATOM     23  C   UNL A   1      31.516  24.068  23.249  1.00  0.00     0.316 C 
BRANCH  23  24
ATOM     24  C   UNL A   1      30.797  24.666  24.479  1.00  0.00     0.430 C 
ATOM     25  F   UNL A   1      30.262  23.716  25.275  1.00  0.00    -0.167 F 
ATOM     26  F   UNL A   1      31.609  25.436  25.238  1.00  0.00    -0.167 F 
ATOM     27  F   UNL A   1      29.779  25.476  24.086  1.00  0.00    -0.167 F 
ENDBRANCH  23  24
ENDBRANCH   9  11
ENDBRANCH   8   9
ENDBRANCH   7   8
ENDBRANCH   6   7
ENDBRANCH   5   6
ENDBRANCH   4   5
ENDBRANCH   3   4
ENDBRANCH   2   3
ENDBRANCH   1   2
BRANCH   1  28
ATOM     28  C   UNL A   1      32.924  33.529  27.629  1.00  0.00     0.188 C 
BRANCH  28  29
ATOM     29  O   UNL A   1      33.216  33.869  28.982  1.00  0.00    -0.376 OA
BRANCH  29  30
ATOM     30  C   UNL A   1      34.484  33.573  29.542  1.00  0.00     0.202 C 
BRANCH  30  31
ATOM     31  C   UNL A   1      34.587  33.182  31.023  1.00  0.00     0.261 C 
BRANCH  31  32
ATOM     32  O   UNL A   1      34.986  31.834  31.299  1.00  0.00    -0.460 OA
BRANCH  32  33
ATOM     33  C   UNL A   1      36.052  31.701  32.119  1.00  0.00     0.338 C 
ATOM     34  O   UNL A   1      36.133  32.032  33.296  1.00  0.00    -0.246 OA
BRANCH  33  35
ATOM     35  C   UNL A   1      37.111  30.941  31.432  1.00  0.00     0.060 A 
ATOM     36  C   UNL A   1      38.038  30.231  32.207  1.00  0.00     0.016 A 
ATOM     37  C   UNL A   1      37.230  30.978  30.042  1.00  0.00     0.016 A 
ATOM     38  C   UNL A   1      39.106  29.579  31.598  1.00  0.00     0.010 A 
ATOM     39  C   UNL A   1      38.323  30.354  29.433  1.00  0.00     0.010 A 
ATOM     40  C   UNL A   1      39.282  29.686  30.215  1.00  0.00    -0.014 A 
BRANCH  40  41
ATOM     41  C   UNL A   1      40.581  29.293  29.625  1.00  0.00     0.031 A 
ATOM     42  C   UNL A   1      40.725  27.891  29.100  1.00  0.00     0.074 A 
ATOM     43  C   UNL A   1      41.587  30.174  29.506  1.00  0.00     0.049 A 
ATOM     44  N   UNL A   1      41.766  27.311  28.563  1.00  0.00    -0.248 NA
ATOM     45  C   UNL A   1      39.532  27.030  29.188  1.00  0.00     0.031 C 
ATOM     46  C   UNL A   1      41.535  31.579  29.907  1.00  0.00     0.029 A 
ATOM     47  N   UNL A   1      42.852  30.012  29.001  1.00  0.00    -0.354 N 
ATOM     48  C   UNL A   1      41.354  26.020  28.253  1.00  0.00     0.074 A 
ATOM     49  C   UNL A   1      39.983  25.889  28.691  1.00  0.00     0.031 C 
ATOM     50  C   UNL A   1      42.718  32.153  29.632  1.00  0.00     0.029 A 
ATOM     51  C   UNL A   1      43.621  31.147  29.072  1.00  0.00     0.049 A 
ATOM     52  H   UNL A   1      43.179  29.163  28.625  1.00  0.00     0.167 HD
ATOM     53  C   UNL A   1      42.055  25.035  27.649  1.00  0.00     0.031 A 
ATOM     54  C   UNL A   1      44.912  31.343  28.739  1.00  0.00     0.031 A 
ATOM     55  C   UNL A   1      43.424  25.165  27.229  1.00  0.00     0.049 A 
ATOM     56  C   UNL A   1      45.706  30.197  28.171  1.00  0.00     0.074 A 
ATOM     57  C   UNL A   1      44.228  24.222  26.615  1.00  0.00     0.029 A 
ATOM     58  N   UNL A   1      44.192  26.308  27.387  1.00  0.00    -0.354 N 
ATOM     59  N   UNL A   1      45.309  28.980  27.881  1.00  0.00    -0.248 NA
ATOM     60  C   UNL A   1      47.125  30.450  27.882  1.00  0.00     0.031 C 
ATOM     61  C   UNL A   1      45.501  24.774  26.458  1.00  0.00     0.029 A 
ATOM     62  C   UNL A   1      45.470  26.085  26.909  1.00  0.00     0.049 A 
ATOM     63  H   UNL A   1      43.873  27.153  27.780  1.00  0.00     0.167 HD
ATOM     64  C   UNL A   1      46.421  28.334  27.351  1.00  0.00     0.074 A 
ATOM     65  C   UNL A   1      47.502  29.297  27.345  1.00  0.00     0.031 C 
ATOM     66  C   UNL A   1      46.534  27.056  26.910  1.00  0.00     0.031 A 
BRANCH  53  67
ATOM     67  C   UNL A   1      41.364  23.719  27.428  1.00  0.00    -0.014 A 
ATOM     68  C   UNL A   1      40.430  23.552  26.393  1.00  0.00     0.009 A 
ATOM     69  C   UNL A   1      41.693  22.615  28.230  1.00  0.00     0.009 A 
ATOM     70  C   UNL A   1      39.824  22.312  26.181  1.00  0.00     0.001 A 
ATOM     71  C   UNL A   1      41.109  21.369  27.997  1.00  0.00     0.001 A 
ATOM     72  C   UNL A   1      40.171  21.219  26.976  1.00  0.00     0.000 A 
ENDBRANCH  53  67
BRANCH  54  73
ATOM     73  C   UNL A   1      45.535  32.679  28.941  1.00  0.00    -0.014 A 
ATOM     74  C   UNL A   1      46.163  32.998  30.154  1.00  0.00     0.009 A 
ATOM     75  C   UNL A   1      45.510  33.641  27.918  1.00  0.00     0.009 A 
ATOM     76  C   UNL A   1      46.741  34.256  30.342  1.00  0.00     0.001 A 
ATOM     77  C   UNL A   1      46.115  34.887  28.098  1.00  0.00     0.001 A 
ATOM     78  C   UNL A   1      46.724  35.196  29.313  1.00  0.00     0.000 A 
ENDBRANCH  54  73
BRANCH  66  79
ATOM     79  C   UNL A   1      47.863  26.623  26.357  1.00  0.00    -0.014 A 
ATOM     80  C   UNL A   1      48.213  26.873  25.021  1.00  0.00     0.009 A 
ATOM     81  C   UNL A   1      48.814  26.038  27.211  1.00  0.00     0.009 A 
ATOM     82  C   UNL A   1      49.480  26.526  24.547  1.00  0.00     0.001 A 
ATOM     83  C   UNL A   1      50.090  25.723  26.742  1.00  0.00     0.001 A 
ATOM     84  C   UNL A   1      50.419  25.960  25.409  1.00  0.00     0.000 A 
ENDBRANCH  66  79
ENDBRANCH  40  41
ENDBRANCH  33  35
ENDBRANCH  32  33
ENDBRANCH  31  32
ENDBRANCH  30  31
ENDBRANCH  29  30
ENDBRANCH  28  29
ENDBRANCH   1  28
TORSDOF 21
ENDMDL
