MODEL 1
REMARK VINA RESULT:      -9.7      0.000      0.000
REMARK SMILES O=C(OCCOCCOCCOCCOC(=O)c1cccc(CS(=O)(=O)Nc2ncccn2)c1)c1ccc(-c2c3nc(c(-c4ccccc4)c4ccc([nH]4)c(-c4ccccc4)c4nc(c(-c5ccccc5)c5ccc2[nH]5)C=C4)C=C3)cc1
REMARK SMILES IDX 10 1 9 2 8 3 7 4 6 5 5 6 4 7 3 8 2 9 1 10 35 11 36 12 82 13
REMARK SMILES IDX 37 14 81 15 38 16 39 17 40 18 75 19 41 20 80 21 74 22 76 23
REMARK SMILES IDX 42 24 79 25 73 26 72 27 43 29 65 30 50 31 64 32 51 33 54 34
REMARK SMILES IDX 63 35 77 36 52 37 53 38 62 40 78 41 55 42 44 43 45 44 49 45
REMARK SMILES IDX 46 46 48 47 47 48 66 49 67 50 71 51 68 52 70 53 69 54 56 55
REMARK SMILES IDX 57 56 61 57 58 58 60 59 59 60 11 61 12 62 13 63 14 64 15 65
REMARK SMILES IDX 16 66 17 67 18 68 19 69 34 70 20 71 22 72 21 73 23 74 24 75
REMARK SMILES IDX 25 76 26 77 27 78 28 80 29 81 33 82 30 83 32 84 31 85
REMARK H PARENT 76 28 54 39 27 79
REMARK Flexibility Score: inf
ROOT
ATOM      1  C   UNL A   1      34.747  31.748  28.329  1.00  0.00     0.188 C 
ENDROOT
BRANCH   1   2
ATOM      2  O   UNL A   1      34.685  33.053  27.772  1.00  0.00    -0.377 OA
BRANCH   2   3
ATOM      3  C   UNL A   1      33.830  33.977  28.430  1.00  0.00     0.188 C 
BRANCH   3   4
ATOM      4  C   UNL A   1      34.352  34.544  29.751  1.00  0.00     0.188 C 
BRANCH   4   5
ATOM      5  O   UNL A   1      33.659  34.030  30.889  1.00  0.00    -0.376 OA
BRANCH   5   6
ATOM      6  C   UNL A   1      34.061  34.523  32.167  1.00  0.00     0.202 C 
BRANCH   6   7
ATOM      7  C   UNL A   1      34.315  33.453  33.224  1.00  0.00     0.261 C 
BRANCH   7   8
ATOM      8  O   UNL A   1      35.176  32.393  32.784  1.00  0.00    -0.460 OA
BRANCH   8   9
ATOM      9  C   UNL A   1      36.391  32.018  33.247  1.00  0.00     0.338 C 
ATOM     10  O   UNL A   1      36.691  32.343  34.397  1.00  0.00    -0.246 OA
BRANCH   9  11
ATOM     11  C   UNL A   1      37.407  31.236  32.472  1.00  0.00     0.060 A 
ATOM     12  C   UNL A   1      38.514  30.574  33.001  1.00  0.00     0.016 A 
ATOM     13  C   UNL A   1      37.193  31.137  31.085  1.00  0.00     0.016 A 
ATOM     14  C   UNL A   1      39.416  29.896  32.203  1.00  0.00     0.010 A 
ATOM     15  C   UNL A   1      38.105  30.475  30.259  1.00  0.00     0.010 A 
ATOM     16  C   UNL A   1      39.248  29.905  30.826  1.00  0.00    -0.014 A 
BRANCH  16  17
ATOM     17  C   UNL A   1      40.453  29.614  30.037  1.00  0.00     0.031 A 
ATOM     18  C   UNL A   1      40.485  28.290  29.330  1.00  0.00     0.074 A 
ATOM     19  C   UNL A   1      41.339  30.588  29.779  1.00  0.00     0.049 A 
ATOM     20  N   UNL A   1      41.409  27.777  28.566  1.00  0.00    -0.248 NA
ATOM     21  C   UNL A   1      39.293  27.434  29.485  1.00  0.00     0.031 C 
ATOM     22  C   UNL A   1      41.243  31.969  30.260  1.00  0.00     0.029 A 
ATOM     23  N   UNL A   1      42.462  30.579  29.003  1.00  0.00    -0.354 N 
ATOM     24  C   UNL A   1      40.931  26.525  28.199  1.00  0.00     0.074 A 
ATOM     25  C   UNL A   1      39.636  26.353  28.809  1.00  0.00     0.031 C 
ATOM     26  C   UNL A   1      42.257  32.681  29.743  1.00  0.00     0.029 A 
ATOM     27  C   UNL A   1      43.109  31.788  28.966  1.00  0.00     0.049 A 
ATOM     28  H   UNL A   1      42.777  29.783  28.516  1.00  0.00     0.167 HD
ATOM     29  C   UNL A   1      41.540  25.594  27.431  1.00  0.00     0.031 A 
ATOM     30  C   UNL A   1      44.280  32.108  28.390  1.00  0.00     0.031 A 
ATOM     31  C   UNL A   1      42.835  25.806  26.851  1.00  0.00     0.049 A 
ATOM     32  C   UNL A   1      45.009  31.013  27.658  1.00  0.00     0.074 A 
ATOM     33  C   UNL A   1      43.620  24.932  26.128  1.00  0.00     0.029 A 
ATOM     34  N   UNL A   1      43.534  27.005  26.942  1.00  0.00    -0.354 N 
ATOM     35  N   UNL A   1      44.615  29.785  27.405  1.00  0.00    -0.248 NA
ATOM     36  C   UNL A   1      46.343  31.339  27.146  1.00  0.00     0.031 C 
ATOM     37  C   UNL A   1      44.823  25.585  25.834  1.00  0.00     0.029 A 
ATOM     38  C   UNL A   1      44.754  26.888  26.306  1.00  0.00     0.049 A 
ATOM     39  H   UNL A   1      43.207  27.817  27.392  1.00  0.00     0.167 HD
ATOM     40  C   UNL A   1      45.639  29.199  26.676  1.00  0.00     0.074 A 
ATOM     41  C   UNL A   1      46.664  30.215  26.520  1.00  0.00     0.031 C 
ATOM     42  C   UNL A   1      45.733  27.940  26.177  1.00  0.00     0.031 A 
BRANCH  29  43
ATOM     43  C   UNL A   1      40.859  24.259  27.318  1.00  0.00    -0.014 A 
ATOM     44  C   UNL A   1      41.366  23.102  27.932  1.00  0.00     0.009 A 
ATOM     45  C   UNL A   1      39.725  24.146  26.498  1.00  0.00     0.009 A 
ATOM     46  C   UNL A   1      40.784  21.855  27.681  1.00  0.00     0.001 A 
ATOM     47  C   UNL A   1      39.127  22.905  26.274  1.00  0.00     0.001 A 
ATOM     48  C   UNL A   1      39.666  21.757  26.853  1.00  0.00     0.000 A 
ENDBRANCH  29  43
BRANCH  30  49
ATOM     49  C   UNL A   1      44.853  33.473  28.538  1.00  0.00    -0.014 A 
ATOM     50  C   UNL A   1      45.625  33.817  29.657  1.00  0.00     0.009 A 
ATOM     51  C   UNL A   1      44.618  34.452  27.557  1.00  0.00     0.009 A 
ATOM     52  C   UNL A   1      46.126  35.115  29.803  1.00  0.00     0.001 A 
ATOM     53  C   UNL A   1      45.147  35.738  27.688  1.00  0.00     0.001 A 
ATOM     54  C   UNL A   1      45.891  36.072  28.816  1.00  0.00     0.000 A 
ENDBRANCH  30  49
BRANCH  42  55
ATOM     55  C   UNL A   1      46.955  27.631  25.365  1.00  0.00    -0.014 A 
ATOM     56  C   UNL A   1      48.113  27.101  25.952  1.00  0.00     0.009 A 
ATOM     57  C   UNL A   1      46.917  27.831  23.976  1.00  0.00     0.009 A 
ATOM     58  C   UNL A   1      49.228  26.816  25.165  1.00  0.00     0.001 A 
ATOM     59  C   UNL A   1      48.019  27.509  23.188  1.00  0.00     0.001 A 
ATOM     60  C   UNL A   1      49.178  27.014  23.784  1.00  0.00     0.000 A 
ENDBRANCH  42  55
ENDBRANCH  16  17
ENDBRANCH   9  11
ENDBRANCH   8   9
ENDBRANCH   7   8
ENDBRANCH   6   7
ENDBRANCH   5   6
ENDBRANCH   4   5
ENDBRANCH   3   4
ENDBRANCH   2   3
ENDBRANCH   1   2
BRANCH   1  61
ATOM     61  C   UNL A   1      34.481  30.525  27.414  1.00  0.00     0.188 C 
BRANCH  61  62
ATOM     62  O   UNL A   1      33.169  29.994  27.506  1.00  0.00    -0.376 OA
BRANCH  62  63
ATOM     63  C   UNL A   1      32.145  30.723  26.842  1.00  0.00     0.202 C 
BRANCH  63  64
ATOM     64  C   UNL A   1      31.721  30.255  25.435  1.00  0.00     0.261 C 
BRANCH  64  65
ATOM     65  O   UNL A   1      32.616  29.369  24.739  1.00  0.00    -0.460 OA
BRANCH  65  66
ATOM     66  C   UNL A   1      32.180  28.798  23.602  1.00  0.00     0.338 C 
ATOM     67  O   UNL A   1      32.655  28.950  22.480  1.00  0.00    -0.246 OA
BRANCH  66  68
ATOM     68  C   UNL A   1      31.170  27.769  23.940  1.00  0.00     0.060 A 
ATOM     69  C   UNL A   1      29.845  27.940  23.502  1.00  0.00     0.016 A 
ATOM     70  C   UNL A   1      31.522  26.640  24.681  1.00  0.00     0.020 A 
ATOM     71  C   UNL A   1      28.912  26.928  23.697  1.00  0.00     0.001 A 
ATOM     72  C   UNL A   1      30.523  25.735  25.062  1.00  0.00    -0.030 A 
ATOM     73  C   UNL A   1      29.255  25.821  24.465  1.00  0.00     0.005 A 
BRANCH  72  74
ATOM     74  C   UNL A   1      30.785  24.762  26.179  1.00  0.00     0.195 C 
BRANCH  74  75
ATOM     75  S   UNL A   1      31.027  23.069  25.526  1.00  0.00     0.239 S 
ATOM     76  O   UNL A   1      30.071  22.163  26.137  1.00  0.00    -0.206 OA
ATOM     77  O   UNL A   1      31.016  23.175  24.078  1.00  0.00    -0.206 OA
BRANCH  75  78
ATOM     78  N   UNL A   1      32.518  22.459  25.917  1.00  0.00    -0.251 N 
ATOM     79  H   UNL A   1      32.598  21.750  26.595  1.00  0.00     0.183 HD
BRANCH  78  80
ATOM     80  C   UNL A   1      33.656  22.949  25.284  1.00  0.00     0.236 A 
ATOM     81  N   UNL A   1      33.989  22.378  24.122  1.00  0.00    -0.221 NA
ATOM     82  N   UNL A   1      34.393  23.798  26.001  1.00  0.00    -0.221 NA
ATOM     83  C   UNL A   1      35.229  22.665  23.675  1.00  0.00     0.117 A 
ATOM     84  C   UNL A   1      35.602  24.092  25.479  1.00  0.00     0.117 A 
ATOM     85  C   UNL A   1      36.087  23.524  24.321  1.00  0.00     0.040 A 
ENDBRANCH  78  80
ENDBRANCH  75  78
ENDBRANCH  74  75
ENDBRANCH  72  74
ENDBRANCH  66  68
ENDBRANCH  65  66
ENDBRANCH  64  65
ENDBRANCH  63  64
ENDBRANCH  62  63
ENDBRANCH  61  62
ENDBRANCH   1  61
TORSDOF 24
ENDMDL
MODEL 2
REMARK VINA RESULT:      -9.3      5.236     10.769
REMARK SMILES O=C(OCCOCCOCCOCCOC(=O)c1cccc(CS(=O)(=O)Nc2ncccn2)c1)c1ccc(-c2c3nc(c(-c4ccccc4)c4ccc([nH]4)c(-c4ccccc4)c4nc(c(-c5ccccc5)c5ccc2[nH]5)C=C4)C=C3)cc1
REMARK SMILES IDX 10 1 9 2 8 3 7 4 6 5 5 6 4 7 3 8 2 9 1 10 35 11 36 12 82 13
REMARK SMILES IDX 37 14 81 15 38 16 39 17 40 18 75 19 41 20 80 21 74 22 76 23
REMARK SMILES IDX 42 24 79 25 73 26 72 27 43 29 65 30 50 31 64 32 51 33 54 34
REMARK SMILES IDX 63 35 77 36 52 37 53 38 62 40 78 41 55 42 44 43 45 44 49 45
REMARK SMILES IDX 46 46 48 47 47 48 66 49 67 50 71 51 68 52 70 53 69 54 56 55
REMARK SMILES IDX 57 56 61 57 58 58 60 59 59 60 11 61 12 62 13 63 14 64 15 65
REMARK SMILES IDX 16 66 17 67 18 68 19 69 34 70 20 71 22 72 21 73 23 74 24 75
REMARK SMILES IDX 25 76 26 77 27 78 28 80 29 81 33 82 30 83 32 84 31 85
REMARK H PARENT 76 28 54 39 27 79
REMARK Flexibility Score: inf
ROOT
ATOM      1  C   UNL A   1      41.921  19.149  26.235  1.00  0.00     0.188 C 
ENDROOT
BRANCH   1   2
ATOM      2  O   UNL A   1      42.619  19.294  25.007  1.00  0.00    -0.377 OA
BRANCH   2   3
ATOM      3  C   UNL A   1      44.004  18.976  25.032  1.00  0.00     0.188 C 
BRANCH   3   4
ATOM      4  C   UNL A   1      44.962  20.158  24.885  1.00  0.00     0.188 C 
BRANCH   4   5
ATOM      5  O   UNL A   1      44.620  21.019  23.799  1.00  0.00    -0.376 OA
BRANCH   5   6
ATOM      6  C   UNL A   1      44.828  22.419  23.993  1.00  0.00     0.202 C 
BRANCH   6   7
ATOM      7  C   UNL A   1      46.107  22.786  24.739  1.00  0.00     0.261 C 
BRANCH   7   8
ATOM      8  O   UNL A   1      46.145  24.147  25.192  1.00  0.00    -0.460 OA
BRANCH   8   9
ATOM      9  C   UNL A   1      46.424  24.640  26.421  1.00  0.00     0.338 C 
ATOM     10  O   UNL A   1      47.293  24.071  27.083  1.00  0.00    -0.246 OA
BRANCH   9  11
ATOM     11  C   UNL A   1      45.757  25.828  27.045  1.00  0.00     0.060 A 
ATOM     12  C   UNL A   1      46.377  27.026  27.401  1.00  0.00     0.016 A 
ATOM     13  C   UNL A   1      44.369  25.728  27.254  1.00  0.00     0.016 A 
ATOM     14  C   UNL A   1      45.684  28.063  27.998  1.00  0.00     0.010 A 
ATOM     15  C   UNL A   1      43.657  26.756  27.876  1.00  0.00     0.010 A 
ATOM     16  C   UNL A   1      44.339  27.900  28.297  1.00  0.00    -0.014 A 
BRANCH  16  17
ATOM     17  C   UNL A   1      43.808  28.793  29.336  1.00  0.00     0.031 A 
ATOM     18  C   UNL A   1      43.680  28.214  30.715  1.00  0.00     0.074 A 
ATOM     19  C   UNL A   1      43.688  30.108  29.095  1.00  0.00     0.049 A 
ATOM     20  N   UNL A   1      43.252  28.769  31.814  1.00  0.00    -0.248 NA
ATOM     21  C   UNL A   1      44.125  26.817  30.882  1.00  0.00     0.031 C 
ATOM     22  C   UNL A   1      44.013  30.769  27.829  1.00  0.00     0.029 A 
ATOM     23  N   UNL A   1      43.317  31.129  29.922  1.00  0.00    -0.354 N 
ATOM     24  C   UNL A   1      43.327  27.775  32.783  1.00  0.00     0.074 A 
ATOM     25  C   UNL A   1      43.849  26.587  32.154  1.00  0.00     0.031 C 
ATOM     26  C   UNL A   1      43.849  32.095  27.975  1.00  0.00     0.029 A 
ATOM     27  C   UNL A   1      43.335  32.358  29.314  1.00  0.00     0.049 A 
ATOM     28  H   UNL A   1      43.061  30.995  30.864  1.00  0.00     0.167 HD
ATOM     29  C   UNL A   1      42.969  27.852  34.083  1.00  0.00     0.031 A 
ATOM     30  C   UNL A   1      42.940  33.549  29.794  1.00  0.00     0.031 A 
ATOM     31  C   UNL A   1      42.445  29.055  34.665  1.00  0.00     0.049 A 
ATOM     32  C   UNL A   1      42.411  33.583  31.202  1.00  0.00     0.074 A 
ATOM     33  C   UNL A   1      41.955  29.266  35.937  1.00  0.00     0.029 A 
ATOM     34  N   UNL A   1      42.348  30.263  33.982  1.00  0.00    -0.354 N 
ATOM     35  N   UNL A   1      42.369  32.616  32.092  1.00  0.00    -0.248 NA
ATOM     36  C   UNL A   1      41.865  34.860  31.670  1.00  0.00     0.031 C 
ATOM     37  C   UNL A   1      41.504  30.590  36.004  1.00  0.00     0.029 A 
ATOM     38  C   UNL A   1      41.784  31.222  34.799  1.00  0.00     0.049 A 
ATOM     39  H   UNL A   1      42.639  30.412  33.053  1.00  0.00     0.167 HD
ATOM     40  C   UNL A   1      41.820  33.175  33.236  1.00  0.00     0.074 A 
ATOM     41  C   UNL A   1      41.558  34.569  32.927  1.00  0.00     0.031 C 
ATOM     42  C   UNL A   1      41.554  32.599  34.437  1.00  0.00     0.031 A 
BRANCH  29  43
ATOM     43  C   UNL A   1      43.013  26.575  34.875  1.00  0.00    -0.014 A 
ATOM     44  C   UNL A   1      44.182  26.125  35.510  1.00  0.00     0.009 A 
ATOM     45  C   UNL A   1      41.869  25.761  34.909  1.00  0.00     0.009 A 
ATOM     46  C   UNL A   1      44.219  24.862  36.112  1.00  0.00     0.001 A 
ATOM     47  C   UNL A   1      41.900  24.515  35.538  1.00  0.00     0.001 A 
ATOM     48  C   UNL A   1      43.079  24.059  36.125  1.00  0.00     0.000 A 
ENDBRANCH  29  43
BRANCH  30  49
ATOM     49  C   UNL A   1      42.965  34.762  28.933  1.00  0.00    -0.014 A 
ATOM     50  C   UNL A   1      41.803  35.226  28.300  1.00  0.00     0.009 A 
ATOM     51  C   UNL A   1      44.166  35.463  28.728  1.00  0.00     0.009 A 
ATOM     52  C   UNL A   1      41.848  36.346  27.463  1.00  0.00     0.001 A 
ATOM     53  C   UNL A   1      44.203  36.600  27.918  1.00  0.00     0.001 A 
ATOM     54  C   UNL A   1      43.046  37.035  27.277  1.00  0.00     0.000 A 
ENDBRANCH  30  49
BRANCH  42  55
ATOM     55  C   UNL A   1      41.016  33.500  35.508  1.00  0.00    -0.014 A 
ATOM     56  C   UNL A   1      39.642  33.750  35.637  1.00  0.00     0.009 A 
ATOM     57  C   UNL A   1      41.908  34.065  36.432  1.00  0.00     0.009 A 
ATOM     58  C   UNL A   1      39.176  34.586  36.650  1.00  0.00     0.001 A 
ATOM     59  C   UNL A   1      41.435  34.868  37.467  1.00  0.00     0.001 A 
ATOM     60  C   UNL A   1      40.071  35.139  37.568  1.00  0.00     0.000 A 
ENDBRANCH  42  55
ENDBRANCH  16  17
ENDBRANCH   9  11
ENDBRANCH   8   9
ENDBRANCH   7   8
ENDBRANCH   6   7
ENDBRANCH   5   6
ENDBRANCH   4   5
ENDBRANCH   3   4
ENDBRANCH   2   3
ENDBRANCH   1   2
BRANCH   1  61
ATOM     61  C   UNL A   1      40.785  20.147  26.578  1.00  0.00     0.188 C 
BRANCH  61  62
ATOM     62  O   UNL A   1      40.860  20.700  27.882  1.00  0.00    -0.376 OA
BRANCH  62  63
ATOM     63  C   UNL A   1      41.367  22.025  27.978  1.00  0.00     0.202 C 
BRANCH  63  64
ATOM     64  C   UNL A   1      40.862  23.067  26.960  1.00  0.00     0.261 C 
BRANCH  64  65
ATOM     65  O   UNL A   1      40.807  24.438  27.395  1.00  0.00    -0.460 OA
BRANCH  65  66
ATOM     66  C   UNL A   1      39.643  25.098  27.253  1.00  0.00     0.338 C 
ATOM     67  O   UNL A   1      38.570  24.617  26.900  1.00  0.00    -0.246 OA
BRANCH  66  68
ATOM     68  C   UNL A   1      39.796  26.462  27.808  1.00  0.00     0.060 A 
ATOM     69  C   UNL A   1      40.453  27.443  27.045  1.00  0.00     0.016 A 
ATOM     70  C   UNL A   1      39.293  26.779  29.071  1.00  0.00     0.020 A 
ATOM     71  C   UNL A   1      40.495  28.760  27.491  1.00  0.00     0.001 A 
ATOM     72  C   UNL A   1      39.537  28.051  29.603  1.00  0.00    -0.030 A 
ATOM     73  C   UNL A   1      40.025  29.065  28.763  1.00  0.00     0.005 A 
BRANCH  72  74
ATOM     74  C   UNL A   1      39.381  28.284  31.081  1.00  0.00     0.195 C 
BRANCH  74  75
ATOM     75  S   UNL A   1      37.818  29.164  31.442  1.00  0.00     0.239 S 
ATOM     76  O   UNL A   1      36.937  29.099  30.290  1.00  0.00    -0.206 OA
ATOM     77  O   UNL A   1      37.318  28.630  32.696  1.00  0.00    -0.206 OA
BRANCH  75  78
ATOM     78  N   UNL A   1      38.062  30.781  31.714  1.00  0.00    -0.251 N 
ATOM     79  H   UNL A   1      38.978  31.139  31.771  1.00  0.00     0.183 HD
BRANCH  78  80
ATOM     80  C   UNL A   1      36.972  31.634  31.861  1.00  0.00     0.236 A 
ATOM     81  N   UNL A   1      36.652  31.987  33.110  1.00  0.00    -0.221 NA
ATOM     82  N   UNL A   1      36.253  31.845  30.758  1.00  0.00    -0.221 NA
ATOM     83  C   UNL A   1      35.444  32.571  33.250  1.00  0.00     0.117 A 
ATOM     84  C   UNL A   1      35.079  32.482  30.951  1.00  0.00     0.117 A 
ATOM     85  C   UNL A   1      34.607  32.844  32.194  1.00  0.00     0.040 A 
ENDBRANCH  78  80
ENDBRANCH  75  78
ENDBRANCH  74  75
ENDBRANCH  72  74
ENDBRANCH  66  68
ENDBRANCH  65  66
ENDBRANCH  64  65
ENDBRANCH  63  64
ENDBRANCH  62  63
ENDBRANCH  61  62
ENDBRANCH   1  61
TORSDOF 24
ENDMDL
MODEL 3
REMARK VINA RESULT:      -9.3      0.929      5.830
REMARK SMILES O=C(OCCOCCOCCOCCOC(=O)c1cccc(CS(=O)(=O)Nc2ncccn2)c1)c1ccc(-c2c3nc(c(-c4ccccc4)c4ccc([nH]4)c(-c4ccccc4)c4nc(c(-c5ccccc5)c5ccc2[nH]5)C=C4)C=C3)cc1
REMARK SMILES IDX 10 1 9 2 8 3 7 4 6 5 5 6 4 7 3 8 2 9 1 10 35 11 36 12 82 13
REMARK SMILES IDX 37 14 81 15 38 16 39 17 40 18 75 19 41 20 80 21 74 22 76 23
REMARK SMILES IDX 42 24 79 25 73 26 72 27 43 29 65 30 50 31 64 32 51 33 54 34
REMARK SMILES IDX 63 35 77 36 52 37 53 38 62 40 78 41 55 42 44 43 45 44 49 45
REMARK SMILES IDX 46 46 48 47 47 48 66 49 67 50 71 51 68 52 70 53 69 54 56 55
REMARK SMILES IDX 57 56 61 57 58 58 60 59 59 60 11 61 12 62 13 63 14 64 15 65
REMARK SMILES IDX 16 66 17 67 18 68 19 69 34 70 20 71 22 72 21 73 23 74 24 75
REMARK SMILES IDX 25 76 26 77 27 78 28 80 29 81 33 82 30 83 32 84 31 85
REMARK H PARENT 76 28 54 39 27 79
REMARK Flexibility Score: inf
ROOT
ATOM      1  C   UNL A   1      34.400  31.289  28.113  1.00  0.00     0.188 C 
ENDROOT
BRANCH   1   2
ATOM      2  O   UNL A   1      34.622  32.610  27.643  1.00  0.00    -0.377 OA
BRANCH   2   3
ATOM      3  C   UNL A   1      33.793  33.621  28.200  1.00  0.00     0.188 C 
BRANCH   3   4
ATOM      4  C   UNL A   1      34.399  34.418  29.356  1.00  0.00     0.188 C 
BRANCH   4   5
ATOM      5  O   UNL A   1      33.776  34.136  30.610  1.00  0.00    -0.376 OA
BRANCH   5   6
ATOM      6  C   UNL A   1      34.361  34.731  31.770  1.00  0.00     0.202 C 
BRANCH   6   7
ATOM      7  C   UNL A   1      34.343  33.863  33.023  1.00  0.00     0.261 C 
BRANCH   7   8
ATOM      8  O   UNL A   1      34.940  32.571  32.845  1.00  0.00    -0.460 OA
BRANCH   8   9
ATOM      9  C   UNL A   1      36.168  32.129  33.207  1.00  0.00     0.338 C 
ATOM     10  O   UNL A   1      36.583  32.443  34.323  1.00  0.00    -0.246 OA
BRANCH   9  11
ATOM     11  C   UNL A   1      37.066  31.284  32.357  1.00  0.00     0.060 A 
ATOM     12  C   UNL A   1      38.048  30.407  32.817  1.00  0.00     0.016 A 
ATOM     13  C   UNL A   1      36.867  31.365  30.966  1.00  0.00     0.016 A 
ATOM     14  C   UNL A   1      38.850  29.684  31.954  1.00  0.00     0.010 A 
ATOM     15  C   UNL A   1      37.683  30.659  30.078  1.00  0.00     0.010 A 
ATOM     16  C   UNL A   1      38.713  29.863  30.585  1.00  0.00    -0.014 A 
BRANCH  16  17
ATOM     17  C   UNL A   1      39.874  29.472  29.774  1.00  0.00     0.031 A 
ATOM     18  C   UNL A   1      40.998  30.464  29.694  1.00  0.00     0.074 A 
ATOM     19  C   UNL A   1      40.003  28.206  29.350  1.00  0.00     0.049 A 
ATOM     20  N   UNL A   1      42.136  30.383  29.063  1.00  0.00    -0.248 NA
ATOM     21  C   UNL A   1      40.824  31.715  30.458  1.00  0.00     0.031 C 
ATOM     22  C   UNL A   1      39.037  27.130  29.593  1.00  0.00     0.029 A 
ATOM     23  N   UNL A   1      41.023  27.597  28.678  1.00  0.00    -0.354 N 
ATOM     24  C   UNL A   1      42.782  31.589  29.311  1.00  0.00     0.074 A 
ATOM     25  C   UNL A   1      41.924  32.381  30.155  1.00  0.00     0.031 C 
ATOM     26  C   UNL A   1      39.529  25.984  29.095  1.00  0.00     0.029 A 
ATOM     27  C   UNL A   1      40.798  26.266  28.435  1.00  0.00     0.049 A 
ATOM     28  H   UNL A   1      41.841  28.067  28.395  1.00  0.00     0.167 HD
ATOM     29  C   UNL A   1      43.985  31.998  28.850  1.00  0.00     0.031 A 
ATOM     30  C   UNL A   1      41.535  25.396  27.723  1.00  0.00     0.031 A 
ATOM     31  C   UNL A   1      44.802  31.177  28.004  1.00  0.00     0.049 A 
ATOM     32  C   UNL A   1      42.803  25.916  27.101  1.00  0.00     0.074 A 
ATOM     33  C   UNL A   1      45.998  31.481  27.386  1.00  0.00     0.029 A 
ATOM     34  N   UNL A   1      44.485  29.866  27.661  1.00  0.00    -0.354 N 
ATOM     35  N   UNL A   1      43.365  27.096  27.235  1.00  0.00    -0.248 NA
ATOM     36  C   UNL A   1      43.530  24.995  26.222  1.00  0.00     0.031 C 
ATOM     37  C   UNL A   1      46.372  30.372  26.616  1.00  0.00     0.029 A 
ATOM     38  C   UNL A   1      45.450  29.353  26.818  1.00  0.00     0.049 A 
ATOM     39  H   UNL A   1      43.689  29.378  27.972  1.00  0.00     0.167 HD
ATOM     40  C   UNL A   1      44.529  27.052  26.483  1.00  0.00     0.074 A 
ATOM     41  C   UNL A   1      44.595  25.721  25.907  1.00  0.00     0.031 C 
ATOM     42  C   UNL A   1      45.465  28.015  26.281  1.00  0.00     0.031 A 
BRANCH  29  43
ATOM     43  C   UNL A   1      44.379  33.417  29.152  1.00  0.00    -0.014 A 
ATOM     44  C   UNL A   1      44.168  34.465  28.242  1.00  0.00     0.009 A 
ATOM     45  C   UNL A   1      45.060  33.689  30.350  1.00  0.00     0.009 A 
ATOM     46  C   UNL A   1      44.680  35.741  28.501  1.00  0.00     0.001 A 
ATOM     47  C   UNL A   1      45.543  34.970  30.620  1.00  0.00     0.001 A 
ATOM     48  C   UNL A   1      45.367  35.992  29.688  1.00  0.00     0.000 A 
ENDBRANCH  29  43
BRANCH  30  49
ATOM     49  C   UNL A   1      41.068  24.000  27.509  1.00  0.00    -0.014 A 
ATOM     50  C   UNL A   1      41.658  22.926  28.191  1.00  0.00     0.009 A 
ATOM     51  C   UNL A   1      40.027  23.730  26.605  1.00  0.00     0.009 A 
ATOM     52  C   UNL A   1      41.235  21.614  27.954  1.00  0.00     0.001 A 
ATOM     53  C   UNL A   1      39.583  22.423  26.393  1.00  0.00     0.001 A 
ATOM     54  C   UNL A   1      40.195  21.364  27.059  1.00  0.00     0.000 A 
ENDBRANCH  30  49
BRANCH  42  55
ATOM     55  C   UNL A   1      46.658  27.628  25.459  1.00  0.00    -0.014 A 
ATOM     56  C   UNL A   1      46.737  27.927  24.091  1.00  0.00     0.009 A 
ATOM     57  C   UNL A   1      47.742  26.996  26.090  1.00  0.00     0.009 A 
ATOM     58  C   UNL A   1      47.867  27.561  23.360  1.00  0.00     0.001 A 
ATOM     59  C   UNL A   1      48.884  26.666  25.364  1.00  0.00     0.001 A 
ATOM     60  C   UNL A   1      48.941  26.937  23.998  1.00  0.00     0.000 A 
ENDBRANCH  42  55
ENDBRANCH  16  17
ENDBRANCH   9  11
ENDBRANCH   8   9
ENDBRANCH   7   8
ENDBRANCH   6   7
ENDBRANCH   5   6
ENDBRANCH   4   5
ENDBRANCH   3   4
ENDBRANCH   2   3
ENDBRANCH   1   2
BRANCH   1  61
ATOM     61  C   UNL A   1      34.476  30.111  27.107  1.00  0.00     0.188 C 
BRANCH  61  62
ATOM     62  O   UNL A   1      33.318  29.290  27.072  1.00  0.00    -0.376 OA
BRANCH  62  63
ATOM     63  C   UNL A   1      32.424  29.507  25.989  1.00  0.00     0.202 C 
BRANCH  63  64
ATOM     64  C   UNL A   1      33.007  29.519  24.562  1.00  0.00     0.261 C 
BRANCH  64  65
ATOM     65  O   UNL A   1      33.860  28.420  24.190  1.00  0.00    -0.460 OA
BRANCH  65  66
ATOM     66  C   UNL A   1      33.653  27.838  22.995  1.00  0.00     0.338 C 
ATOM     67  O   UNL A   1      34.224  28.110  21.942  1.00  0.00    -0.246 OA
BRANCH  66  68
ATOM     68  C   UNL A   1      32.784  26.654  23.183  1.00  0.00     0.060 A 
ATOM     69  C   UNL A   1      32.324  25.956  22.053  1.00  0.00     0.016 A 
ATOM     70  C   UNL A   1      32.426  26.228  24.462  1.00  0.00     0.020 A 
ATOM     71  C   UNL A   1      31.616  24.769  22.209  1.00  0.00     0.001 A 
ATOM     72  C   UNL A   1      31.530  25.161  24.600  1.00  0.00    -0.030 A 
ATOM     73  C   UNL A   1      31.231  24.366  23.482  1.00  0.00     0.005 A 
BRANCH  72  74
ATOM     74  C   UNL A   1      30.816  24.950  25.908  1.00  0.00     0.195 C 
BRANCH  74  75
ATOM     75  S   UNL A   1      31.040  23.235  26.505  1.00  0.00     0.239 S 
ATOM     76  O   UNL A   1      30.210  23.007  27.674  1.00  0.00    -0.206 OA
ATOM     77  O   UNL A   1      30.836  22.365  25.361  1.00  0.00    -0.206 OA
BRANCH  75  78
ATOM     78  N   UNL A   1      32.593  22.950  27.010  1.00  0.00    -0.251 N 
ATOM     79  H   UNL A   1      32.774  22.739  27.955  1.00  0.00     0.183 HD
BRANCH  78  80
ATOM     80  C   UNL A   1      33.642  23.008  26.097  1.00  0.00     0.236 A 
ATOM     81  N   UNL A   1      34.494  24.030  26.228  1.00  0.00    -0.221 NA
ATOM     82  N   UNL A   1      33.568  22.151  25.079  1.00  0.00    -0.221 NA
ATOM     83  C   UNL A   1      35.321  24.226  25.181  1.00  0.00     0.117 A 
ATOM     84  C   UNL A   1      34.455  22.361  24.085  1.00  0.00     0.117 A 
ATOM     85  C   UNL A   1      35.344  23.414  24.071  1.00  0.00     0.040 A 
ENDBRANCH  78  80
ENDBRANCH  75  78
ENDBRANCH  74  75
ENDBRANCH  72  74
ENDBRANCH  66  68
ENDBRANCH  65  66
ENDBRANCH  64  65
ENDBRANCH  63  64
ENDBRANCH  62  63
ENDBRANCH  61  62
ENDBRANCH   1  61
TORSDOF 24
ENDMDL
