MODEL 1
REMARK VINA RESULT:     -10.4      0.000      0.000
REMARK SMILES O=C(OCCOCCOCCOCCOC(=O)[C@H]1[C@H]2CC[C@H](CC2)[C@@H]1C(=O)Nc1ccc(Cc2ccncc2)cc1)c1ccc(-c2c3nc(c(-c4ccccc4)c4ccc([nH]4)c(-c4ccccc4)c4nc(c(-c5ccccc5)c5ccc2[nH]5)C=C4)C=C3)cc1
REMARK SMILES IDX 10 1 9 2 8 3 7 4 6 5 5 6 4 7 3 8 2 9 1 10 42 11 43 12 89 13
REMARK SMILES IDX 44 14 88 15 45 16 46 17 47 18 82 19 48 20 87 21 81 22 83 23
REMARK SMILES IDX 49 24 86 25 80 26 79 27 50 29 72 30 57 31 71 32 58 33 61 34
REMARK SMILES IDX 70 35 84 36 59 37 60 38 69 40 85 41 62 42 51 43 52 44 56 45
REMARK SMILES IDX 53 46 55 47 54 48 73 49 74 50 78 51 75 52 77 53 76 54 63 55
REMARK SMILES IDX 64 56 68 57 65 58 67 59 66 60 11 61 12 62 13 63 14 64 15 65
REMARK SMILES IDX 16 66 17 67 18 68 19 69 25 70 24 71 20 72 22 73 23 74 21 75
REMARK SMILES IDX 26 76 27 77 28 78 29 80 30 81 41 82 31 83 40 84 32 85 33 86
REMARK SMILES IDX 34 87 35 88 39 89 36 90 38 91 37 92
REMARK H PARENT 83 28 61 39 28 79
REMARK Flexibility Score: inf
ROOT
ATOM      1  C   UNL A   1      35.187  31.510  28.245  1.00  0.00     0.188 C 
ENDROOT
BRANCH   1   2
ATOM      2  O   UNL A   1      35.130  32.821  27.680  1.00  0.00    -0.377 OA
BRANCH   2   3
ATOM      3  C   UNL A   1      34.755  33.874  28.563  1.00  0.00     0.188 C 
BRANCH   3   4
ATOM      4  C   UNL A   1      35.725  34.022  29.717  1.00  0.00     0.188 C 
BRANCH   4   5
ATOM      5  O   UNL A   1      34.973  34.302  30.883  1.00  0.00    -0.376 OA
BRANCH   5   6
ATOM      6  C   UNL A   1      35.436  33.701  32.081  1.00  0.00     0.202 C 
BRANCH   6   7
ATOM      7  C   UNL A   1      35.281  32.188  31.943  1.00  0.00     0.261 C 
BRANCH   7   8
ATOM      8  O   UNL A   1      36.556  31.519  31.982  1.00  0.00    -0.460 OA
BRANCH   8   9
ATOM      9  C   UNL A   1      36.901  30.350  31.385  1.00  0.00     0.338 C 
ATOM     10  O   UNL A   1      36.053  29.450  31.353  1.00  0.00    -0.246 OA
BRANCH   9  11
ATOM     11  C   UNL A   1      38.210  30.076  30.691  1.00  0.00     0.060 A 
ATOM     12  C   UNL A   1      38.491  30.240  29.328  1.00  0.00     0.016 A 
ATOM     13  C   UNL A   1      39.279  29.698  31.526  1.00  0.00     0.016 A 
ATOM     14  C   UNL A   1      39.777  30.072  28.816  1.00  0.00     0.010 A 
ATOM     15  C   UNL A   1      40.567  29.496  31.019  1.00  0.00     0.010 A 
ATOM     16  C   UNL A   1      40.815  29.681  29.656  1.00  0.00    -0.014 A 
BRANCH  16  17
ATOM     17  C   UNL A   1      42.098  29.280  29.054  1.00  0.00     0.031 A 
ATOM     18  C   UNL A   1      42.214  27.869  28.562  1.00  0.00     0.074 A 
ATOM     19  C   UNL A   1      43.088  30.173  28.883  1.00  0.00     0.049 A 
ATOM     20  N   UNL A   1      43.252  27.242  28.080  1.00  0.00    -0.248 NA
ATOM     21  C   UNL A   1      40.984  27.057  28.605  1.00  0.00     0.031 C 
ATOM     22  C   UNL A   1      43.012  31.598  29.212  1.00  0.00     0.029 A 
ATOM     23  N   UNL A   1      44.353  30.013  28.383  1.00  0.00    -0.354 N 
ATOM     24  C   UNL A   1      42.810  25.956  27.801  1.00  0.00     0.074 A 
ATOM     25  C   UNL A   1      41.410  25.891  28.147  1.00  0.00     0.031 C 
ATOM     26  C   UNL A   1      44.189  32.179  28.915  1.00  0.00     0.029 A 
ATOM     27  C   UNL A   1      45.115  31.156  28.437  1.00  0.00     0.049 A 
ATOM     28  H   UNL A   1      44.686  29.160  28.018  1.00  0.00     0.167 HD
ATOM     29  C   UNL A   1      43.525  24.916  27.318  1.00  0.00     0.031 A 
ATOM     30  C   UNL A   1      46.426  31.329  28.179  1.00  0.00     0.031 A 
ATOM     31  C   UNL A   1      44.921  25.005  26.999  1.00  0.00     0.049 A 
ATOM     32  C   UNL A   1      47.226  30.122  27.750  1.00  0.00     0.074 A 
ATOM     33  C   UNL A   1      45.766  24.018  26.533  1.00  0.00     0.029 A 
ATOM     34  N   UNL A   1      45.676  26.162  27.129  1.00  0.00    -0.354 N 
ATOM     35  N   UNL A   1      46.811  28.900  27.505  1.00  0.00    -0.248 NA
ATOM     36  C   UNL A   1      48.673  30.309  27.584  1.00  0.00     0.031 C 
ATOM     37  C   UNL A   1      47.051  24.561  26.445  1.00  0.00     0.029 A 
ATOM     38  C   UNL A   1      46.991  25.903  26.795  1.00  0.00     0.049 A 
ATOM     39  H   UNL A   1      45.328  27.036  27.418  1.00  0.00     0.167 HD
ATOM     40  C   UNL A   1      47.941  28.178  27.147  1.00  0.00     0.074 A 
ATOM     41  C   UNL A   1      49.054  29.106  27.175  1.00  0.00     0.031 C 
ATOM     42  C   UNL A   1      48.061  26.865  26.835  1.00  0.00     0.031 A 
BRANCH  29  43
ATOM     43  C   UNL A   1      42.832  23.590  27.205  1.00  0.00    -0.014 A 
ATOM     44  C   UNL A   1      42.290  23.136  25.993  1.00  0.00     0.009 A 
ATOM     45  C   UNL A   1      42.728  22.776  28.344  1.00  0.00     0.009 A 
ATOM     46  C   UNL A   1      41.637  21.902  25.932  1.00  0.00     0.001 A 
ATOM     47  C   UNL A   1      42.096  21.534  28.275  1.00  0.00     0.001 A 
ATOM     48  C   UNL A   1      41.545  21.102  27.071  1.00  0.00     0.000 A 
ENDBRANCH  29  43
BRANCH  30  49
ATOM     49  C   UNL A   1      47.092  32.641  28.415  1.00  0.00    -0.014 A 
ATOM     50  C   UNL A   1      47.632  32.972  29.667  1.00  0.00     0.009 A 
ATOM     51  C   UNL A   1      47.132  33.607  27.394  1.00  0.00     0.009 A 
ATOM     52  C   UNL A   1      48.158  34.248  29.902  1.00  0.00     0.001 A 
ATOM     53  C   UNL A   1      47.692  34.867  27.618  1.00  0.00     0.001 A 
ATOM     54  C   UNL A   1      48.190  35.192  28.877  1.00  0.00     0.000 A 
ENDBRANCH  30  49
BRANCH  42  55
ATOM     55  C   UNL A   1      49.435  26.369  26.489  1.00  0.00    -0.014 A 
ATOM     56  C   UNL A   1      49.899  26.395  25.165  1.00  0.00     0.009 A 
ATOM     57  C   UNL A   1      50.297  25.944  27.512  1.00  0.00     0.009 A 
ATOM     58  C   UNL A   1      51.198  25.981  24.869  1.00  0.00     0.001 A 
ATOM     59  C   UNL A   1      51.606  25.562  27.216  1.00  0.00     0.001 A 
ATOM     60  C   UNL A   1      52.052  25.574  25.895  1.00  0.00     0.000 A 
ENDBRANCH  42  55
ENDBRANCH  16  17
ENDBRANCH   9  11
ENDBRANCH   8   9
ENDBRANCH   7   8
ENDBRANCH   6   7
ENDBRANCH   5   6
ENDBRANCH   4   5
ENDBRANCH   3   4
ENDBRANCH   2   3
ENDBRANCH   1   2
BRANCH   1  61
ATOM     61  C   UNL A   1      34.790  30.442  27.227  1.00  0.00     0.188 C 
BRANCH  61  62
ATOM     62  O   UNL A   1      33.401  30.323  26.924  1.00  0.00    -0.376 OA
BRANCH  62  63
ATOM     63  C   UNL A   1      33.009  29.222  26.112  1.00  0.00     0.202 C 
BRANCH  63  64
ATOM     64  C   UNL A   1      33.194  27.825  26.721  1.00  0.00     0.261 C 
BRANCH  64  65
ATOM     65  O   UNL A   1      34.026  26.960  25.911  1.00  0.00    -0.463 OA
BRANCH  65  66
ATOM     66  C   UNL A   1      33.610  26.761  24.650  1.00  0.00     0.310 C 
ATOM     67  O   UNL A   1      34.057  27.415  23.705  1.00  0.00    -0.252 OA
BRANCH  66  68
ATOM     68  C   UNL A   1      32.608  25.618  24.392  1.00  0.00     0.115 C 
ATOM     69  C   UNL A   1      31.601  24.912  25.346  1.00  0.00     0.004 C 
ATOM     70  C   UNL A   1      31.884  26.013  23.098  1.00  0.00     0.096 C 
ATOM     71  C   UNL A   1      30.512  25.851  25.851  1.00  0.00     0.005 C 
ATOM     72  C   UNL A   1      30.841  23.813  24.525  1.00  0.00     0.005 C 
ATOM     73  C   UNL A   1      30.341  25.938  23.332  1.00  0.00     0.002 C 
ATOM     74  C   UNL A   1      29.969  26.646  24.665  1.00  0.00     0.005 C 
ATOM     75  C   UNL A   1      29.944  24.465  23.464  1.00  0.00     0.005 C 
BRANCH  70  76
ATOM     76  C   UNL A   1      32.333  25.342  21.773  1.00  0.00     0.228 C 
ATOM     77  O   UNL A   1      32.209  25.993  20.725  1.00  0.00    -0.274 OA
ATOM     78  N   UNL A   1      33.062  24.184  21.674  1.00  0.00    -0.326 N 
ATOM     79  H   UNL A   1      33.617  24.144  20.862  1.00  0.00     0.169 HD
BRANCH  78  80
ATOM     80  C   UNL A   1      33.183  23.044  22.485  1.00  0.00     0.041 A 
ATOM     81  C   UNL A   1      34.185  23.012  23.451  1.00  0.00     0.026 A 
ATOM     82  C   UNL A   1      32.355  21.928  22.335  1.00  0.00     0.026 A 
ATOM     83  C   UNL A   1      34.231  21.968  24.386  1.00  0.00     0.006 A 
ATOM     84  C   UNL A   1      32.403  20.876  23.264  1.00  0.00     0.006 A 
ATOM     85  C   UNL A   1      33.308  20.914  24.333  1.00  0.00    -0.043 A 
BRANCH  85  86
ATOM     86  C   UNL A   1      33.230  19.900  25.455  1.00  0.00     0.071 C 
BRANCH  86  87
ATOM     87  C   UNL A   1      33.281  18.449  25.062  1.00  0.00    -0.041 A 
ATOM     88  C   UNL A   1      34.015  18.028  23.953  1.00  0.00     0.024 A 
ATOM     89  C   UNL A   1      32.651  17.480  25.849  1.00  0.00     0.024 A 
ATOM     90  C   UNL A   1      34.068  16.672  23.669  1.00  0.00     0.111 A 
ATOM     91  C   UNL A   1      32.767  16.148  25.487  1.00  0.00     0.111 A 
ATOM     92  N   UNL A   1      33.458  15.723  24.409  1.00  0.00    -0.265 NA
ENDBRANCH  86  87
ENDBRANCH  85  86
ENDBRANCH  78  80
ENDBRANCH  70  76
ENDBRANCH  66  68
ENDBRANCH  65  66
ENDBRANCH  64  65
ENDBRANCH  63  64
ENDBRANCH  62  63
ENDBRANCH  61  62
ENDBRANCH   1  61
TORSDOF 24
ENDMDL
MODEL 2
REMARK VINA RESULT:     -10.0      3.750      6.638
REMARK SMILES O=C(OCCOCCOCCOCCOC(=O)[C@H]1[C@H]2CC[C@H](CC2)[C@@H]1C(=O)Nc1ccc(Cc2ccncc2)cc1)c1ccc(-c2c3nc(c(-c4ccccc4)c4ccc([nH]4)c(-c4ccccc4)c4nc(c(-c5ccccc5)c5ccc2[nH]5)C=C4)C=C3)cc1
REMARK SMILES IDX 10 1 9 2 8 3 7 4 6 5 5 6 4 7 3 8 2 9 1 10 42 11 43 12 89 13
REMARK SMILES IDX 44 14 88 15 45 16 46 17 47 18 82 19 48 20 87 21 81 22 83 23
REMARK SMILES IDX 49 24 86 25 80 26 79 27 50 29 72 30 57 31 71 32 58 33 61 34
REMARK SMILES IDX 70 35 84 36 59 37 60 38 69 40 85 41 62 42 51 43 52 44 56 45
REMARK SMILES IDX 53 46 55 47 54 48 73 49 74 50 78 51 75 52 77 53 76 54 63 55
REMARK SMILES IDX 64 56 68 57 65 58 67 59 66 60 11 61 12 62 13 63 14 64 15 65
REMARK SMILES IDX 16 66 17 67 18 68 19 69 25 70 24 71 20 72 22 73 23 74 21 75
REMARK SMILES IDX 26 76 27 77 28 78 29 80 30 81 41 82 31 83 40 84 32 85 33 86
REMARK SMILES IDX 34 87 35 88 39 89 36 90 38 91 37 92
REMARK H PARENT 83 28 61 39 28 79
REMARK Flexibility Score: inf
ROOT
ATOM      1  C   UNL A   1      34.443  33.845  29.469  1.00  0.00     0.188 C 
ENDROOT
BRANCH   1   2
ATOM      2  O   UNL A   1      33.746  33.870  30.716  1.00  0.00    -0.377 OA
BRANCH   2   3
ATOM      3  C   UNL A   1      34.340  33.140  31.786  1.00  0.00     0.188 C 
BRANCH   3   4
ATOM      4  C   UNL A   1      34.309  33.913  33.088  1.00  0.00     0.188 C 
BRANCH   4   5
ATOM      5  O   UNL A   1      35.059  33.185  34.044  1.00  0.00    -0.376 OA
BRANCH   5   6
ATOM      6  C   UNL A   1      36.428  32.984  33.737  1.00  0.00     0.202 C 
BRANCH   6   7
ATOM      7  C   UNL A   1      37.178  34.279  34.041  1.00  0.00     0.261 C 
BRANCH   7   8
ATOM      8  O   UNL A   1      37.655  34.909  32.836  1.00  0.00    -0.460 OA
BRANCH   8   9
ATOM      9  C   UNL A   1      38.054  34.310  31.685  1.00  0.00     0.338 C 
ATOM     10  O   UNL A   1      37.235  33.592  31.099  1.00  0.00    -0.246 OA
BRANCH   9  11
ATOM     11  C   UNL A   1      39.393  34.499  31.020  1.00  0.00     0.060 A 
ATOM     12  C   UNL A   1      40.651  34.469  31.637  1.00  0.00     0.016 A 
ATOM     13  C   UNL A   1      39.368  34.634  29.619  1.00  0.00     0.016 A 
ATOM     14  C   UNL A   1      41.833  34.534  30.901  1.00  0.00     0.010 A 
ATOM     15  C   UNL A   1      40.546  34.733  28.872  1.00  0.00     0.010 A 
ATOM     16  C   UNL A   1      41.785  34.685  29.519  1.00  0.00    -0.014 A 
BRANCH  16  17
ATOM     17  C   UNL A   1      43.032  34.992  28.797  1.00  0.00     0.031 A 
ATOM     18  C   UNL A   1      43.969  33.853  28.531  1.00  0.00     0.074 A 
ATOM     19  C   UNL A   1      43.271  36.229  28.329  1.00  0.00     0.049 A 
ATOM     20  N   UNL A   1      45.162  33.868  28.002  1.00  0.00    -0.248 NA
ATOM     21  C   UNL A   1      43.487  32.509  28.899  1.00  0.00     0.031 C 
ATOM     22  C   UNL A   1      42.353  37.366  28.427  1.00  0.00     0.029 A 
ATOM     23  N   UNL A   1      44.360  36.736  27.669  1.00  0.00    -0.354 N 
ATOM     24  C   UNL A   1      45.586  32.545  28.010  1.00  0.00     0.074 A 
ATOM     25  C   UNL A   1      44.522  31.750  28.578  1.00  0.00     0.031 C 
ATOM     26  C   UNL A   1      42.926  38.442  27.858  1.00  0.00     0.029 A 
ATOM     27  C   UNL A   1      44.271  38.084  27.415  1.00  0.00     0.049 A 
ATOM     28  H   UNL A   1      45.132  36.187  27.402  1.00  0.00     0.167 HD
ATOM     29  C   UNL A   1      46.773  32.049  27.599  1.00  0.00     0.031 A 
ATOM     30  C   UNL A   1      45.200  38.931  26.930  1.00  0.00     0.031 A 
ATOM     31  C   UNL A   1      47.819  32.867  27.055  1.00  0.00     0.049 A 
ATOM     32  C   UNL A   1      46.557  38.366  26.585  1.00  0.00     0.074 A 
ATOM     33  C   UNL A   1      49.078  32.491  26.630  1.00  0.00     0.029 A 
ATOM     34  N   UNL A   1      47.718  34.239  26.873  1.00  0.00    -0.354 N 
ATOM     35  N   UNL A   1      46.964  37.117  26.612  1.00  0.00    -0.248 NA
ATOM     36  C   UNL A   1      47.588  39.325  26.166  1.00  0.00     0.031 C 
ATOM     37  C   UNL A   1      49.765  33.649  26.254  1.00  0.00     0.029 A 
ATOM     38  C   UNL A   1      48.911  34.735  26.384  1.00  0.00     0.049 A 
ATOM     39  H   UNL A   1      46.918  34.778  27.065  1.00  0.00     0.167 HD
ATOM     40  C   UNL A   1      48.291  37.140  26.205  1.00  0.00     0.074 A 
ATOM     41  C   UNL A   1      48.611  38.522  25.905  1.00  0.00     0.031 C 
ATOM     42  C   UNL A   1      49.177  36.120  26.098  1.00  0.00     0.031 A 
BRANCH  29  43
ATOM     43  C   UNL A   1      47.027  30.586  27.815  1.00  0.00    -0.014 A 
ATOM     44  C   UNL A   1      46.642  29.618  26.874  1.00  0.00     0.009 A 
ATOM     45  C   UNL A   1      47.673  30.172  28.991  1.00  0.00     0.009 A 
ATOM     46  C   UNL A   1      46.879  28.263  27.119  1.00  0.00     0.001 A 
ATOM     47  C   UNL A   1      47.930  28.821  29.223  1.00  0.00     0.001 A 
ATOM     48  C   UNL A   1      47.527  27.867  28.290  1.00  0.00     0.000 A 
ENDBRANCH  29  43
BRANCH  30  49
ATOM     49  C   UNL A   1      44.937  40.395  26.840  1.00  0.00    -0.014 A 
ATOM     50  C   UNL A   1      44.396  40.971  25.680  1.00  0.00     0.009 A 
ATOM     51  C   UNL A   1      45.292  41.243  27.904  1.00  0.00     0.009 A 
ATOM     52  C   UNL A   1      44.254  42.359  25.573  1.00  0.00     0.001 A 
ATOM     53  C   UNL A   1      45.116  42.625  27.810  1.00  0.00     0.001 A 
ATOM     54  C   UNL A   1      44.612  43.184  26.638  1.00  0.00     0.000 A 
ENDBRANCH  30  49
BRANCH  42  55
ATOM     55  C   UNL A   1      50.560  36.464  25.626  1.00  0.00    -0.014 A 
ATOM     56  C   UNL A   1      50.909  36.351  24.272  1.00  0.00     0.009 A 
ATOM     57  C   UNL A   1      51.495  36.980  26.537  1.00  0.00     0.009 A 
ATOM     58  C   UNL A   1      52.183  36.726  23.843  1.00  0.00     0.001 A 
ATOM     59  C   UNL A   1      52.755  37.385  26.099  1.00  0.00     0.001 A 
ATOM     60  C   UNL A   1      53.100  37.251  24.755  1.00  0.00     0.000 A 
ENDBRANCH  42  55
ENDBRANCH  16  17
ENDBRANCH   9  11
ENDBRANCH   8   9
ENDBRANCH   7   8
ENDBRANCH   6   7
ENDBRANCH   5   6
ENDBRANCH   4   5
ENDBRANCH   3   4
ENDBRANCH   2   3
ENDBRANCH   1   2
BRANCH   1  61
ATOM     61  C   UNL A   1      33.789  32.883  28.479  1.00  0.00     0.188 C 
BRANCH  61  62
ATOM     62  O   UNL A   1      34.186  31.515  28.550  1.00  0.00    -0.376 OA
BRANCH  62  63
ATOM     63  C   UNL A   1      34.219  30.787  27.328  1.00  0.00     0.202 C 
BRANCH  63  64
ATOM     64  C   UNL A   1      33.602  29.381  27.355  1.00  0.00     0.261 C 
BRANCH  64  65
ATOM     65  O   UNL A   1      32.168  29.387  27.155  1.00  0.00    -0.463 OA
BRANCH  65  66
ATOM     66  C   UNL A   1      31.637  28.243  26.696  1.00  0.00     0.310 C 
ATOM     67  O   UNL A   1      31.348  27.309  27.449  1.00  0.00    -0.252 OA
BRANCH  66  68
ATOM     68  C   UNL A   1      31.307  28.152  25.193  1.00  0.00     0.115 C 
ATOM     69  C   UNL A   1      31.760  29.037  23.996  1.00  0.00     0.004 C 
ATOM     70  C   UNL A   1      31.512  26.674  24.833  1.00  0.00     0.096 C 
ATOM     71  C   UNL A   1      33.262  28.964  23.745  1.00  0.00     0.005 C 
ATOM     72  C   UNL A   1      31.103  28.466  22.691  1.00  0.00     0.005 C 
ATOM     73  C   UNL A   1      32.451  26.577  23.588  1.00  0.00     0.002 C 
ATOM     74  C   UNL A   1      33.688  27.498  23.780  1.00  0.00     0.005 C 
ATOM     75  C   UNL A   1      31.682  27.083  22.364  1.00  0.00     0.005 C 
BRANCH  70  76
ATOM     76  C   UNL A   1      30.260  25.765  24.724  1.00  0.00     0.228 C 
ATOM     77  O   UNL A   1      29.145  26.307  24.781  1.00  0.00    -0.274 OA
ATOM     78  N   UNL A   1      30.263  24.447  24.345  1.00  0.00    -0.326 N 
ATOM     79  H   UNL A   1      29.426  24.166  23.911  1.00  0.00     0.169 HD
BRANCH  78  80
ATOM     80  C   UNL A   1      31.209  23.413  24.447  1.00  0.00     0.041 A 
ATOM     81  C   UNL A   1      31.861  22.986  23.293  1.00  0.00     0.026 A 
ATOM     82  C   UNL A   1      31.492  22.775  25.658  1.00  0.00     0.026 A 
ATOM     83  C   UNL A   1      32.925  22.078  23.380  1.00  0.00     0.006 A 
ATOM     84  C   UNL A   1      32.552  21.859  25.748  1.00  0.00     0.006 A 
ATOM     85  C   UNL A   1      33.316  21.543  24.616  1.00  0.00    -0.043 A 
BRANCH  85  86
ATOM     86  C   UNL A   1      34.585  20.725  24.737  1.00  0.00     0.071 C 
BRANCH  86  87
ATOM     87  C   UNL A   1      35.842  21.473  25.085  1.00  0.00    -0.041 A 
ATOM     88  C   UNL A   1      35.799  22.809  25.485  1.00  0.00     0.024 A 
ATOM     89  C   UNL A   1      37.078  20.818  25.087  1.00  0.00     0.024 A 
ATOM     90  C   UNL A   1      36.984  23.432  25.843  1.00  0.00     0.111 A 
ATOM     91  C   UNL A   1      38.206  21.524  25.468  1.00  0.00     0.111 A 
ATOM     92  N   UNL A   1      38.188  22.821  25.841  1.00  0.00    -0.265 NA
ENDBRANCH  86  87
ENDBRANCH  85  86
ENDBRANCH  78  80
ENDBRANCH  70  76
ENDBRANCH  66  68
ENDBRANCH  65  66
ENDBRANCH  64  65
ENDBRANCH  63  64
ENDBRANCH  62  63
ENDBRANCH  61  62
ENDBRANCH   1  61
TORSDOF 24
ENDMDL
MODEL 3
REMARK VINA RESULT:      -9.9      4.443     10.282
REMARK SMILES O=C(OCCOCCOCCOCCOC(=O)[C@H]1[C@H]2CC[C@H](CC2)[C@@H]1C(=O)Nc1ccc(Cc2ccncc2)cc1)c1ccc(-c2c3nc(c(-c4ccccc4)c4ccc([nH]4)c(-c4ccccc4)c4nc(c(-c5ccccc5)c5ccc2[nH]5)C=C4)C=C3)cc1
REMARK SMILES IDX 10 1 9 2 8 3 7 4 6 5 5 6 4 7 3 8 2 9 1 10 42 11 43 12 89 13
REMARK SMILES IDX 44 14 88 15 45 16 46 17 47 18 82 19 48 20 87 21 81 22 83 23
REMARK SMILES IDX 49 24 86 25 80 26 79 27 50 29 72 30 57 31 71 32 58 33 61 34
REMARK SMILES IDX 70 35 84 36 59 37 60 38 69 40 85 41 62 42 51 43 52 44 56 45
REMARK SMILES IDX 53 46 55 47 54 48 73 49 74 50 78 51 75 52 77 53 76 54 63 55
REMARK SMILES IDX 64 56 68 57 65 58 67 59 66 60 11 61 12 62 13 63 14 64 15 65
REMARK SMILES IDX 16 66 17 67 18 68 19 69 25 70 24 71 20 72 22 73 23 74 21 75
REMARK SMILES IDX 26 76 27 77 28 78 29 80 30 81 41 82 31 83 40 84 32 85 33 86
REMARK SMILES IDX 34 87 35 88 39 89 36 90 38 91 37 92
REMARK H PARENT 83 28 61 39 28 79
REMARK Flexibility Score: inf
ROOT
ATOM      1  C   UNL A   1      40.639  23.229  26.862  1.00  0.00     0.188 C 
ENDROOT
BRANCH   1   2
ATOM      2  O   UNL A   1      40.569  21.828  27.131  1.00  0.00    -0.377 OA
BRANCH   2   3
ATOM      3  C   UNL A   1      41.720  21.060  26.789  1.00  0.00     0.188 C 
BRANCH   3   4
ATOM      4  C   UNL A   1      42.608  21.780  25.796  1.00  0.00     0.188 C 
BRANCH   4   5
ATOM      5  O   UNL A   1      43.897  21.898  26.372  1.00  0.00    -0.376 OA
BRANCH   5   6
ATOM      6  C   UNL A   1      44.013  22.807  27.454  1.00  0.00     0.202 C 
BRANCH   6   7
ATOM      7  C   UNL A   1      45.204  23.721  27.180  1.00  0.00     0.261 C 
BRANCH   7   8
ATOM      8  O   UNL A   1      44.866  24.768  26.249  1.00  0.00    -0.460 OA
BRANCH   8   9
ATOM      9  C   UNL A   1      43.719  25.491  26.193  1.00  0.00     0.338 C 
ATOM     10  O   UNL A   1      42.944  25.267  25.255  1.00  0.00    -0.246 OA
BRANCH   9  11
ATOM     11  C   UNL A   1      43.270  26.501  27.218  1.00  0.00     0.060 A 
ATOM     12  C   UNL A   1      43.547  27.875  27.223  1.00  0.00     0.016 A 
ATOM     13  C   UNL A   1      42.414  26.014  28.224  1.00  0.00     0.016 A 
ATOM     14  C   UNL A   1      42.976  28.737  28.158  1.00  0.00     0.010 A 
ATOM     15  C   UNL A   1      41.861  26.864  29.188  1.00  0.00     0.010 A 
ATOM     16  C   UNL A   1      42.147  28.232  29.154  1.00  0.00    -0.014 A 
BRANCH  16  17
ATOM     17  C   UNL A   1      41.754  29.119  30.264  1.00  0.00     0.031 A 
ATOM     18  C   UNL A   1      42.636  29.135  31.475  1.00  0.00     0.074 A 
ATOM     19  C   UNL A   1      40.693  29.936  30.150  1.00  0.00     0.049 A 
ATOM     20  N   UNL A   1      42.470  29.750  32.613  1.00  0.00    -0.248 NA
ATOM     21  C   UNL A   1      43.888  28.360  31.383  1.00  0.00     0.031 C 
ATOM     22  C   UNL A   1      39.858  30.082  28.956  1.00  0.00     0.029 A 
ATOM     23  N   UNL A   1      40.140  30.807  31.052  1.00  0.00    -0.354 N 
ATOM     24  C   UNL A   1      43.573  29.406  33.384  1.00  0.00     0.074 A 
ATOM     25  C   UNL A   1      44.412  28.545  32.585  1.00  0.00     0.031 C 
ATOM     26  C   UNL A   1      38.889  30.981  29.207  1.00  0.00     0.029 A 
ATOM     27  C   UNL A   1      38.999  31.422  30.595  1.00  0.00     0.049 A 
ATOM     28  H   UNL A   1      40.523  30.975  31.944  1.00  0.00     0.167 HD
ATOM     29  C   UNL A   1      43.842  29.764  34.659  1.00  0.00     0.031 A 
ATOM     30  C   UNL A   1      38.123  32.208  31.251  1.00  0.00     0.031 A 
ATOM     31  C   UNL A   1      42.979  30.608  35.435  1.00  0.00     0.049 A 
ATOM     32  C   UNL A   1      38.392  32.498  32.709  1.00  0.00     0.074 A 
ATOM     33  C   UNL A   1      43.124  31.019  36.745  1.00  0.00     0.029 A 
ATOM     34  N   UNL A   1      41.798  31.160  34.960  1.00  0.00    -0.354 N 
ATOM     35  N   UNL A   1      39.426  32.155  33.443  1.00  0.00    -0.248 NA
ATOM     36  C   UNL A   1      37.367  33.261  33.433  1.00  0.00     0.031 C 
ATOM     37  C   UNL A   1      41.992  31.767  37.085  1.00  0.00     0.029 A 
ATOM     38  C   UNL A   1      41.177  31.874  35.967  1.00  0.00     0.049 A 
ATOM     39  H   UNL A   1      41.454  31.058  34.044  1.00  0.00     0.167 HD
ATOM     40  C   UNL A   1      39.180  32.669  34.709  1.00  0.00     0.074 A 
ATOM     41  C   UNL A   1      37.916  33.374  34.635  1.00  0.00     0.031 C 
ATOM     42  C   UNL A   1      39.920  32.562  35.840  1.00  0.00     0.031 A 
BRANCH  29  43
ATOM     43  C   UNL A   1      45.057  29.167  35.306  1.00  0.00    -0.014 A 
ATOM     44  C   UNL A   1      46.292  29.833  35.324  1.00  0.00     0.009 A 
ATOM     45  C   UNL A   1      44.955  27.907  35.916  1.00  0.00     0.009 A 
ATOM     46  C   UNL A   1      47.405  29.236  35.921  1.00  0.00     0.001 A 
ATOM     47  C   UNL A   1      46.062  27.323  36.532  1.00  0.00     0.001 A 
ATOM     48  C   UNL A   1      47.288  27.986  36.528  1.00  0.00     0.000 A 
ENDBRANCH  29  43
BRANCH  30  49
ATOM     49  C   UNL A   1      36.872  32.684  30.596  1.00  0.00    -0.014 A 
ATOM     50  C   UNL A   1      35.666  31.979  30.724  1.00  0.00     0.009 A 
ATOM     51  C   UNL A   1      36.896  33.824  29.773  1.00  0.00     0.009 A 
ATOM     52  C   UNL A   1      34.527  32.380  30.017  1.00  0.00     0.001 A 
ATOM     53  C   UNL A   1      35.749  34.245  29.097  1.00  0.00     0.001 A 
ATOM     54  C   UNL A   1      34.569  33.513  29.206  1.00  0.00     0.000 A 
ENDBRANCH  30  49
BRANCH  42  55
ATOM     55  C   UNL A   1      39.384  33.232  37.071  1.00  0.00    -0.014 A 
ATOM     56  C   UNL A   1      38.574  32.533  37.979  1.00  0.00     0.009 A 
ATOM     57  C   UNL A   1      39.759  34.553  37.361  1.00  0.00     0.009 A 
ATOM     58  C   UNL A   1      38.129  33.156  39.145  1.00  0.00     0.001 A 
ATOM     59  C   UNL A   1      39.340  35.161  38.544  1.00  0.00     0.001 A 
ATOM     60  C   UNL A   1      38.520  34.465  39.431  1.00  0.00     0.000 A 
ENDBRANCH  42  55
ENDBRANCH  16  17
ENDBRANCH   9  11
ENDBRANCH   8   9
ENDBRANCH   7   8
ENDBRANCH   6   7
ENDBRANCH   5   6
ENDBRANCH   4   5
ENDBRANCH   3   4
ENDBRANCH   2   3
ENDBRANCH   1   2
BRANCH   1  61
ATOM     61  C   UNL A   1      39.428  23.970  27.426  1.00  0.00     0.188 C 
BRANCH  61  62
ATOM     62  O   UNL A   1      38.500  24.503  26.483  1.00  0.00    -0.376 OA
BRANCH  62  63
ATOM     63  C   UNL A   1      37.458  23.640  26.042  1.00  0.00     0.202 C 
BRANCH  63  64
ATOM     64  C   UNL A   1      36.105  24.301  25.743  1.00  0.00     0.261 C 
BRANCH  64  65
ATOM     65  O   UNL A   1      35.636  24.047  24.397  1.00  0.00    -0.463 OA
BRANCH  65  66
ATOM     66  C   UNL A   1      35.661  22.765  24.000  1.00  0.00     0.310 C 
ATOM     67  O   UNL A   1      36.658  22.265  23.471  1.00  0.00    -0.252 OA
BRANCH  66  68
ATOM     68  C   UNL A   1      34.429  21.890  24.302  1.00  0.00     0.115 C 
ATOM     69  C   UNL A   1      34.163  20.866  25.443  1.00  0.00     0.004 C 
ATOM     70  C   UNL A   1      33.232  22.844  24.192  1.00  0.00     0.096 C 
ATOM     71  C   UNL A   1      34.131  21.516  26.822  1.00  0.00     0.005 C 
ATOM     72  C   UNL A   1      32.725  20.273  25.241  1.00  0.00     0.005 C 
ATOM     73  C   UNL A   1      32.360  22.722  25.483  1.00  0.00     0.002 C 
ATOM     74  C   UNL A   1      33.267  22.774  26.745  1.00  0.00     0.005 C 
ATOM     75  C   UNL A   1      31.664  21.358  25.469  1.00  0.00     0.005 C 
BRANCH  70  76
ATOM     76  C   UNL A   1      32.393  22.819  22.887  1.00  0.00     0.228 C 
ATOM     77  O   UNL A   1      32.454  21.803  22.179  1.00  0.00    -0.274 OA
ATOM     78  N   UNL A   1      31.416  23.722  22.552  1.00  0.00    -0.326 N 
ATOM     79  H   UNL A   1      30.719  23.341  21.971  1.00  0.00     0.169 HD
BRANCH  78  80
ATOM     80  C   UNL A   1      31.200  25.075  22.861  1.00  0.00     0.041 A 
ATOM     81  C   UNL A   1      30.403  25.394  23.957  1.00  0.00     0.026 A 
ATOM     82  C   UNL A   1      31.730  26.112  22.088  1.00  0.00     0.026 A 
ATOM     83  C   UNL A   1      30.303  26.721  24.394  1.00  0.00     0.006 A 
ATOM     84  C   UNL A   1      31.624  27.445  22.517  1.00  0.00     0.006 A 
ATOM     85  C   UNL A   1      30.954  27.756  23.708  1.00  0.00    -0.043 A 
BRANCH  85  86
ATOM     86  C   UNL A   1      31.012  29.153  24.291  1.00  0.00     0.071 C 
BRANCH  86  87
ATOM     87  C   UNL A   1      32.093  29.420  25.302  1.00  0.00    -0.041 A 
ATOM     88  C   UNL A   1      31.931  30.392  26.291  1.00  0.00     0.024 A 
ATOM     89  C   UNL A   1      33.256  28.644  25.318  1.00  0.00     0.024 A 
ATOM     90  C   UNL A   1      32.939  30.559  27.227  1.00  0.00     0.111 A 
ATOM     91  C   UNL A   1      34.204  28.883  26.299  1.00  0.00     0.111 A 
ATOM     92  N   UNL A   1      34.073  29.829  27.253  1.00  0.00    -0.265 NA
ENDBRANCH  86  87
ENDBRANCH  85  86
ENDBRANCH  78  80
ENDBRANCH  70  76
ENDBRANCH  66  68
ENDBRANCH  65  66
ENDBRANCH  64  65
ENDBRANCH  63  64
ENDBRANCH  62  63
ENDBRANCH  61  62
ENDBRANCH   1  61
TORSDOF 24
ENDMDL
