MODEL 1
REMARK VINA RESULT:      -9.1      0.000      0.000
REMARK SMILES CC1(C)CCSC[C@@]1(Nc1ccccc1Br)C(=O)OCCOCCOCCOCCOC(=O)c1ccc(-c2c3nc(c(-c4ccccc4)c4ccc([nH]4)c(-c4ccccc4)c4nc(c(-c5ccccc5)c5ccc2[nH]5)C=C4)C=C3)cc1
REMARK SMILES IDX 25 1 24 2 23 3 22 4 21 5 20 6 19 7 17 8 18 9 8 10 1 11 2 12
REMARK SMILES IDX 3 13 4 14 5 15 7 16 6 17 9 18 10 20 11 21 15 22 12 23 14 24
REMARK SMILES IDX 16 25 13 26 26 27 27 28 28 29 29 30 30 31 31 32 32 33 33 34
REMARK SMILES IDX 34 35 35 36 81 37 36 38 80 39 37 40 38 41 39 42 74 43 40 44
REMARK SMILES IDX 79 45 73 46 75 47 41 48 78 49 72 50 71 51 42 53 64 54 49 55
REMARK SMILES IDX 63 56 50 57 53 58 62 59 76 60 51 61 52 62 61 64 77 65 54 66
REMARK SMILES IDX 43 67 44 68 48 69 45 70 47 71 46 72 65 73 66 74 70 75 67 76
REMARK SMILES IDX 69 77 68 78 55 79 56 80 60 81 57 82 59 83 58 84
REMARK H PARENT 9 19 75 52 53 63
REMARK Flexibility Score: inf
ROOT
ATOM      1  O   UNL A   1      33.892  32.120  28.157  1.00  0.00    -0.377 OA
ENDROOT
BRANCH   1   2
ATOM      2  C   UNL A   1      33.645  30.899  27.467  1.00  0.00     0.188 C 
BRANCH   2   3
ATOM      3  C   UNL A   1      32.241  30.937  26.947  1.00  0.00     0.188 C 
BRANCH   3   4
ATOM      4  O   UNL A   1      31.766  29.825  26.213  1.00  0.00    -0.376 OA
BRANCH   4   5
ATOM      5  C   UNL A   1      31.929  28.606  26.953  1.00  0.00     0.202 C 
BRANCH   5   6
ATOM      6  C   UNL A   1      32.935  27.504  26.482  1.00  0.00     0.261 C 
BRANCH   6   7
ATOM      7  O   UNL A   1      32.625  26.144  26.873  1.00  0.00    -0.461 OA
BRANCH   7   8
ATOM      8  C   UNL A   1      31.639  25.474  26.194  1.00  0.00     0.333 C 
ATOM      9  O   UNL A   1      30.463  25.500  26.541  1.00  0.00    -0.249 OA
BRANCH   8  10
ATOM     10  C   UNL A   1      32.168  24.734  24.887  1.00  0.00     0.150 C 
ATOM     11  C   UNL A   1      33.796  23.412  26.486  1.00  0.00     0.014 C 
ATOM     12  C   UNL A   1      33.667  24.114  25.103  1.00  0.00     0.000 C 
ATOM     13  C   UNL A   1      34.845  25.133  25.043  1.00  0.00     0.014 C 
ATOM     14  C   UNL A   1      34.025  23.073  23.999  1.00  0.00     0.020 C 
ATOM     15  C   UNL A   1      33.116  21.862  23.936  1.00  0.00     0.070 C 
ATOM     16  C   UNL A   1      31.113  23.607  24.667  1.00  0.00     0.110 C 
ATOM     17  S   UNL A   1      31.470  22.343  23.398  1.00  0.00    -0.159 SA
BRANCH  10  18
ATOM     18  N   UNL A   1      32.184  25.675  23.690  1.00  0.00    -0.368 N 
ATOM     19  H   UNL A   1      32.777  25.393  22.958  1.00  0.00     0.161 HD
BRANCH  18  20
ATOM     20  C   UNL A   1      31.497  26.876  23.453  1.00  0.00     0.049 A 
ATOM     21  C   UNL A   1      30.087  26.806  23.463  1.00  0.00     0.027 A 
ATOM     22  C   UNL A   1      32.039  28.114  23.024  1.00  0.00     0.041 A 
ATOM     23  C   UNL A   1      29.264  27.873  23.071  1.00  0.00     0.002 A 
ATOM     24  C   UNL A   1      31.207  29.164  22.573  1.00  0.00     0.018 A 
ATOM     25  Br  UNL A   1      33.877  28.575  22.947  1.00  0.00    -0.049 Br
ATOM     26  C   UNL A   1      29.825  29.049  22.602  1.00  0.00     0.001 A 
ENDBRANCH  18  20
ENDBRANCH  10  18
ENDBRANCH   8  10
ENDBRANCH   7   8
ENDBRANCH   6   7
ENDBRANCH   5   6
ENDBRANCH   4   5
ENDBRANCH   3   4
ENDBRANCH   2   3
ENDBRANCH   1   2
BRANCH   1  27
ATOM     27  C   UNL A   1      33.125  33.185  27.631  1.00  0.00     0.188 C 
BRANCH  27  28
ATOM     28  C   UNL A   1      32.977  34.371  28.593  1.00  0.00     0.188 C 
BRANCH  28  29
ATOM     29  O   UNL A   1      33.790  35.542  28.476  1.00  0.00    -0.376 OA
BRANCH  29  30
ATOM     30  C   UNL A   1      33.528  36.733  29.206  1.00  0.00     0.202 C 
BRANCH  30  31
ATOM     31  C   UNL A   1      32.969  36.481  30.605  1.00  0.00     0.261 C 
BRANCH  31  32
ATOM     32  O   UNL A   1      33.970  36.040  31.529  1.00  0.00    -0.460 OA
BRANCH  32  33
ATOM     33  C   UNL A   1      33.687  34.877  32.162  1.00  0.00     0.338 C 
ATOM     34  O   UNL A   1      32.662  34.568  32.750  1.00  0.00    -0.246 OA
BRANCH  33  35
ATOM     35  C   UNL A   1      34.785  33.931  31.911  1.00  0.00     0.060 A 
ATOM     36  C   UNL A   1      34.749  32.682  32.551  1.00  0.00     0.016 A 
ATOM     37  C   UNL A   1      35.819  34.258  31.030  1.00  0.00     0.016 A 
ATOM     38  C   UNL A   1      35.781  31.775  32.355  1.00  0.00     0.010 A 
ATOM     39  C   UNL A   1      36.873  33.368  30.863  1.00  0.00     0.010 A 
ATOM     40  C   UNL A   1      36.876  32.152  31.571  1.00  0.00    -0.014 A 
BRANCH  40  41
ATOM     41  C   UNL A   1      38.150  31.434  31.746  1.00  0.00     0.031 A 
ATOM     42  C   UNL A   1      39.048  31.899  32.857  1.00  0.00     0.074 A 
ATOM     43  C   UNL A   1      38.477  30.397  30.963  1.00  0.00     0.049 A 
ATOM     44  N   UNL A   1      40.237  31.479  33.196  1.00  0.00    -0.248 NA
ATOM     45  C   UNL A   1      38.531  32.993  33.700  1.00  0.00     0.031 C 
ATOM     46  C   UNL A   1      37.640  29.834  29.905  1.00  0.00     0.029 A 
ATOM     47  N   UNL A   1      39.613  29.634  30.944  1.00  0.00    -0.354 N 
ATOM     48  C   UNL A   1      40.610  32.261  34.282  1.00  0.00     0.074 A 
ATOM     49  C   UNL A   1      39.543  33.205  34.523  1.00  0.00     0.031 C 
ATOM     50  C   UNL A   1      38.299  28.810  29.333  1.00  0.00     0.029 A 
ATOM     51  C   UNL A   1      39.611  28.679  29.961  1.00  0.00     0.049 A 
ATOM     52  H   UNL A   1      40.358  29.760  31.576  1.00  0.00     0.167 HD
ATOM     53  C   UNL A   1      41.742  32.193  35.017  1.00  0.00     0.031 A 
ATOM     54  C   UNL A   1      40.580  27.814  29.607  1.00  0.00     0.031 A 
ATOM     55  C   UNL A   1      42.807  31.270  34.742  1.00  0.00     0.049 A 
ATOM     56  C   UNL A   1      41.878  27.830  30.371  1.00  0.00     0.074 A 
ATOM     57  C   UNL A   1      44.008  31.111  35.406  1.00  0.00     0.029 A 
ATOM     58  N   UNL A   1      42.795  30.353  33.700  1.00  0.00    -0.354 N 
ATOM     59  N   UNL A   1      42.223  28.563  31.404  1.00  0.00    -0.248 NA
ATOM     60  C   UNL A   1      42.915  26.892  29.924  1.00  0.00     0.031 C 
ATOM     61  C   UNL A   1      44.750  30.139  34.728  1.00  0.00     0.029 A 
ATOM     62  C   UNL A   1      43.981  29.641  33.686  1.00  0.00     0.049 A 
ATOM     63  H   UNL A   1      42.053  30.226  33.066  1.00  0.00     0.167 HD
ATOM     64  C   UNL A   1      43.503  28.151  31.753  1.00  0.00     0.074 A 
ATOM     65  C   UNL A   1      43.864  27.094  30.827  1.00  0.00     0.031 C 
ATOM     66  C   UNL A   1      44.309  28.597  32.749  1.00  0.00     0.031 A 
BRANCH  53  67
ATOM     67  C   UNL A   1      41.891  33.180  36.143  1.00  0.00    -0.014 A 
ATOM     68  C   UNL A   1      42.581  34.392  35.970  1.00  0.00     0.009 A 
ATOM     69  C   UNL A   1      41.346  32.886  37.401  1.00  0.00     0.009 A 
ATOM     70  C   UNL A   1      42.758  35.266  37.044  1.00  0.00     0.001 A 
ATOM     71  C   UNL A   1      41.493  33.777  38.465  1.00  0.00     0.001 A 
ATOM     72  C   UNL A   1      42.210  34.960  38.290  1.00  0.00     0.000 A 
ENDBRANCH  53  67
BRANCH  54  73
ATOM     73  C   UNL A   1      40.364  26.872  28.478  1.00  0.00    -0.014 A 
ATOM     74  C   UNL A   1      39.667  25.672  28.674  1.00  0.00     0.009 A 
ATOM     75  C   UNL A   1      40.865  27.164  27.198  1.00  0.00     0.009 A 
ATOM     76  C   UNL A   1      39.497  24.770  27.621  1.00  0.00     0.001 A 
ATOM     77  C   UNL A   1      40.668  26.275  26.139  1.00  0.00     0.001 A 
ATOM     78  C   UNL A   1      39.993  25.074  26.353  1.00  0.00     0.000 A 
ENDBRANCH  54  73
BRANCH  66  79
ATOM     79  C   UNL A   1      45.635  27.908  32.915  1.00  0.00    -0.014 A 
ATOM     80  C   UNL A   1      45.773  26.757  33.706  1.00  0.00     0.009 A 
ATOM     81  C   UNL A   1      46.758  28.403  32.231  1.00  0.00     0.009 A 
ATOM     82  C   UNL A   1      47.018  26.140  33.840  1.00  0.00     0.001 A 
ATOM     83  C   UNL A   1      47.992  27.763  32.337  1.00  0.00     0.001 A 
ATOM     84  C   UNL A   1      48.124  26.639  33.152  1.00  0.00     0.000 A 
ENDBRANCH  66  79
ENDBRANCH  40  41
ENDBRANCH  33  35
ENDBRANCH  32  33
ENDBRANCH  31  32
ENDBRANCH  30  31
ENDBRANCH  29  30
ENDBRANCH  28  29
ENDBRANCH  27  28
ENDBRANCH   1  27
TORSDOF 22
ENDMDL
MODEL 2
REMARK VINA RESULT:      -8.5      5.252      7.759
REMARK SMILES CC1(C)CCSC[C@@]1(Nc1ccccc1Br)C(=O)OCCOCCOCCOCCOC(=O)c1ccc(-c2c3nc(c(-c4ccccc4)c4ccc([nH]4)c(-c4ccccc4)c4nc(c(-c5ccccc5)c5ccc2[nH]5)C=C4)C=C3)cc1
REMARK SMILES IDX 25 1 24 2 23 3 22 4 21 5 20 6 19 7 17 8 18 9 8 10 1 11 2 12
REMARK SMILES IDX 3 13 4 14 5 15 7 16 6 17 9 18 10 20 11 21 15 22 12 23 14 24
REMARK SMILES IDX 16 25 13 26 26 27 27 28 28 29 29 30 30 31 31 32 32 33 33 34
REMARK SMILES IDX 34 35 35 36 81 37 36 38 80 39 37 40 38 41 39 42 74 43 40 44
REMARK SMILES IDX 79 45 73 46 75 47 41 48 78 49 72 50 71 51 42 53 64 54 49 55
REMARK SMILES IDX 63 56 50 57 53 58 62 59 76 60 51 61 52 62 61 64 77 65 54 66
REMARK SMILES IDX 43 67 44 68 48 69 45 70 47 71 46 72 65 73 66 74 70 75 67 76
REMARK SMILES IDX 69 77 68 78 55 79 56 80 60 81 57 82 59 83 58 84
REMARK H PARENT 9 19 75 52 53 63
REMARK Flexibility Score: inf
ROOT
ATOM      1  O   UNL A   1      34.184  33.406  29.675  1.00  0.00    -0.377 OA
ENDROOT
BRANCH   1   2
ATOM      2  C   UNL A   1      34.117  33.256  28.261  1.00  0.00     0.188 C 
BRANCH   2   3
ATOM      3  C   UNL A   1      34.435  31.831  27.931  1.00  0.00     0.188 C 
BRANCH   3   4
ATOM      4  O   UNL A   1      33.372  30.899  27.884  1.00  0.00    -0.376 OA
BRANCH   4   5
ATOM      5  C   UNL A   1      33.584  29.921  26.853  1.00  0.00     0.202 C 
BRANCH   5   6
ATOM      6  C   UNL A   1      33.996  28.453  27.205  1.00  0.00     0.261 C 
BRANCH   6   7
ATOM      7  O   UNL A   1      33.769  27.460  26.175  1.00  0.00    -0.461 OA
BRANCH   7   8
ATOM      8  C   UNL A   1      32.584  26.768  26.180  1.00  0.00     0.333 C 
ATOM      9  O   UNL A   1      31.858  26.708  27.167  1.00  0.00    -0.249 OA
BRANCH   8  10
ATOM     10  C   UNL A   1      32.226  26.126  24.767  1.00  0.00     0.150 C 
ATOM     11  C   UNL A   1      30.791  28.294  24.324  1.00  0.00     0.014 C 
ATOM     12  C   UNL A   1      30.844  26.748  24.149  1.00  0.00     0.000 C 
ATOM     13  C   UNL A   1      29.516  26.214  24.765  1.00  0.00     0.014 C 
ATOM     14  C   UNL A   1      30.699  26.431  22.630  1.00  0.00     0.020 C 
ATOM     15  C   UNL A   1      31.798  26.987  21.747  1.00  0.00     0.070 C 
ATOM     16  C   UNL A   1      33.459  26.496  23.888  1.00  0.00     0.110 C 
ATOM     17  S   UNL A   1      33.357  26.164  22.095  1.00  0.00    -0.159 SA
BRANCH  10  18
ATOM     18  N   UNL A   1      32.092  24.613  24.869  1.00  0.00    -0.368 N 
ATOM     19  H   UNL A   1      31.406  24.225  24.279  1.00  0.00     0.161 HD
BRANCH  18  20
ATOM     20  C   UNL A   1      32.778  23.677  25.659  1.00  0.00     0.049 A 
ATOM     21  C   UNL A   1      32.165  23.317  26.879  1.00  0.00     0.027 A 
ATOM     22  C   UNL A   1      34.093  23.184  25.473  1.00  0.00     0.041 A 
ATOM     23  C   UNL A   1      32.802  22.534  27.854  1.00  0.00     0.002 A 
ATOM     24  C   UNL A   1      34.753  22.449  26.484  1.00  0.00     0.018 A 
ATOM     25  Br  UNL A   1      35.181  23.422  23.936  1.00  0.00    -0.049 Br
ATOM     26  C   UNL A   1      34.110  22.118  27.667  1.00  0.00     0.001 A 
ENDBRANCH  18  20
ENDBRANCH  10  18
ENDBRANCH   8  10
ENDBRANCH   7   8
ENDBRANCH   6   7
ENDBRANCH   5   6
ENDBRANCH   4   5
ENDBRANCH   3   4
ENDBRANCH   2   3
ENDBRANCH   1   2
BRANCH   1  27
ATOM     27  C   UNL A   1      33.731  34.680  30.090  1.00  0.00     0.188 C 
BRANCH  27  28
ATOM     28  C   UNL A   1      34.074  35.010  31.549  1.00  0.00     0.188 C 
BRANCH  28  29
ATOM     29  O   UNL A   1      33.435  34.345  32.642  1.00  0.00    -0.376 OA
BRANCH  29  30
ATOM     30  C   UNL A   1      33.888  33.098  33.152  1.00  0.00     0.202 C 
BRANCH  30  31
ATOM     31  C   UNL A   1      35.255  33.176  33.829  1.00  0.00     0.261 C 
BRANCH  31  32
ATOM     32  O   UNL A   1      36.338  33.140  32.893  1.00  0.00    -0.460 OA
BRANCH  32  33
ATOM     33  C   UNL A   1      36.620  31.911  32.398  1.00  0.00     0.338 C 
ATOM     34  O   UNL A   1      35.879  30.945  32.308  1.00  0.00    -0.246 OA
BRANCH  33  35
ATOM     35  C   UNL A   1      37.972  31.942  31.819  1.00  0.00     0.060 A 
ATOM     36  C   UNL A   1      39.033  32.387  32.623  1.00  0.00     0.016 A 
ATOM     37  C   UNL A   1      38.196  31.504  30.511  1.00  0.00     0.016 A 
ATOM     38  C   UNL A   1      40.317  32.451  32.101  1.00  0.00     0.010 A 
ATOM     39  C   UNL A   1      39.474  31.604  29.974  1.00  0.00     0.010 A 
ATOM     40  C   UNL A   1      40.519  32.130  30.755  1.00  0.00    -0.014 A 
BRANCH  40  41
ATOM     41  C   UNL A   1      41.722  32.643  30.080  1.00  0.00     0.031 A 
ATOM     42  C   UNL A   1      42.897  31.711  29.977  1.00  0.00     0.074 A 
ATOM     43  C   UNL A   1      41.757  33.878  29.561  1.00  0.00     0.049 A 
ATOM     44  N   UNL A   1      44.085  31.923  29.481  1.00  0.00    -0.248 NA
ATOM     45  C   UNL A   1      42.699  30.350  30.512  1.00  0.00     0.031 C 
ATOM     46  C   UNL A   1      40.645  34.828  29.554  1.00  0.00     0.029 A 
ATOM     47  N   UNL A   1      42.777  34.541  28.936  1.00  0.00    -0.354 N 
ATOM     48  C   UNL A   1      44.776  30.730  29.652  1.00  0.00     0.074 A 
ATOM     49  C   UNL A   1      43.891  29.810  30.330  1.00  0.00     0.031 C 
ATOM     50  C   UNL A   1      41.050  35.961  28.954  1.00  0.00     0.029 A 
ATOM     51  C   UNL A   1      42.454  35.823  28.575  1.00  0.00     0.049 A 
ATOM     52  H   UNL A   1      43.659  34.136  28.764  1.00  0.00     0.167 HD
ATOM     53  C   UNL A   1      46.037  30.426  29.272  1.00  0.00     0.031 A 
ATOM     54  C   UNL A   1      43.225  36.776  28.019  1.00  0.00     0.031 A 
ATOM     55  C   UNL A   1      46.914  31.363  28.629  1.00  0.00     0.049 A 
ATOM     56  C   UNL A   1      44.661  36.450  27.702  1.00  0.00     0.074 A 
ATOM     57  C   UNL A   1      48.216  31.180  28.205  1.00  0.00     0.029 A 
ATOM     58  N   UNL A   1      46.571  32.675  28.329  1.00  0.00    -0.354 N 
ATOM     59  N   UNL A   1      45.308  35.317  27.856  1.00  0.00    -0.248 NA
ATOM     60  C   UNL A   1      45.470  37.533  27.130  1.00  0.00     0.031 C 
ATOM     61  C   UNL A   1      48.682  32.400  27.705  1.00  0.00     0.029 A 
ATOM     62  C   UNL A   1      47.647  33.322  27.749  1.00  0.00     0.049 A 
ATOM     63  H   UNL A   1      45.692  33.083  28.502  1.00  0.00     0.167 HD
ATOM     64  C   UNL A   1      46.588  35.540  27.365  1.00  0.00     0.074 A 
ATOM     65  C   UNL A   1      46.619  36.913  26.898  1.00  0.00     0.031 C 
ATOM     66  C   UNL A   1      47.644  34.691  27.298  1.00  0.00     0.031 A 
BRANCH  53  67
ATOM     67  C   UNL A   1      46.539  29.046  29.596  1.00  0.00    -0.014 A 
ATOM     68  C   UNL A   1      46.366  27.973  28.704  1.00  0.00     0.009 A 
ATOM     69  C   UNL A   1      47.183  28.810  30.819  1.00  0.00     0.009 A 
ATOM     70  C   UNL A   1      46.789  26.688  29.049  1.00  0.00     0.001 A 
ATOM     71  C   UNL A   1      47.636  27.531  31.149  1.00  0.00     0.001 A 
ATOM     72  C   UNL A   1      47.427  26.469  30.270  1.00  0.00     0.000 A 
ENDBRANCH  53  67
BRANCH  54  73
ATOM     73  C   UNL A   1      42.662  38.121  27.734  1.00  0.00    -0.014 A 
ATOM     74  C   UNL A   1      42.784  39.158  28.670  1.00  0.00     0.009 A 
ATOM     75  C   UNL A   1      41.989  38.373  26.527  1.00  0.00     0.009 A 
ATOM     76  C   UNL A   1      42.222  40.412  28.416  1.00  0.00     0.001 A 
ATOM     77  C   UNL A   1      41.455  39.635  26.262  1.00  0.00     0.001 A 
ATOM     78  C   UNL A   1      41.563  40.651  27.211  1.00  0.00     0.000 A 
ENDBRANCH  54  73
BRANCH  66  79
ATOM     79  C   UNL A   1      48.900  35.210  26.655  1.00  0.00    -0.014 A 
ATOM     80  C   UNL A   1      49.907  35.834  27.407  1.00  0.00     0.009 A 
ATOM     81  C   UNL A   1      49.091  35.032  25.275  1.00  0.00     0.009 A 
ATOM     82  C   UNL A   1      51.063  36.305  26.782  1.00  0.00     0.001 A 
ATOM     83  C   UNL A   1      50.263  35.470  24.659  1.00  0.00     0.001 A 
ATOM     84  C   UNL A   1      51.243  36.117  25.411  1.00  0.00     0.000 A 
ENDBRANCH  66  79
ENDBRANCH  40  41
ENDBRANCH  33  35
ENDBRANCH  32  33
ENDBRANCH  31  32
ENDBRANCH  30  31
ENDBRANCH  29  30
ENDBRANCH  28  29
ENDBRANCH  27  28
ENDBRANCH   1  27
TORSDOF 22
ENDMDL
MODEL 3
REMARK VINA RESULT:      -8.4      1.959      3.243
REMARK SMILES CC1(C)CCSC[C@@]1(Nc1ccccc1Br)C(=O)OCCOCCOCCOCCOC(=O)c1ccc(-c2c3nc(c(-c4ccccc4)c4ccc([nH]4)c(-c4ccccc4)c4nc(c(-c5ccccc5)c5ccc2[nH]5)C=C4)C=C3)cc1
REMARK SMILES IDX 25 1 24 2 23 3 22 4 21 5 20 6 19 7 17 8 18 9 8 10 1 11 2 12
REMARK SMILES IDX 3 13 4 14 5 15 7 16 6 17 9 18 10 20 11 21 15 22 12 23 14 24
REMARK SMILES IDX 16 25 13 26 26 27 27 28 28 29 29 30 30 31 31 32 32 33 33 34
REMARK SMILES IDX 34 35 35 36 81 37 36 38 80 39 37 40 38 41 39 42 74 43 40 44
REMARK SMILES IDX 79 45 73 46 75 47 41 48 78 49 72 50 71 51 42 53 64 54 49 55
REMARK SMILES IDX 63 56 50 57 53 58 62 59 76 60 51 61 52 62 61 64 77 65 54 66
REMARK SMILES IDX 43 67 44 68 48 69 45 70 47 71 46 72 65 73 66 74 70 75 67 76
REMARK SMILES IDX 69 77 68 78 55 79 56 80 60 81 57 82 59 83 58 84
REMARK H PARENT 9 19 75 52 53 63
REMARK Flexibility Score: inf
ROOT
ATOM      1  O   UNL A   1      34.071  32.114  28.419  1.00  0.00    -0.377 OA
ENDROOT
BRANCH   1   2
ATOM      2  C   UNL A   1      33.854  30.967  27.603  1.00  0.00     0.188 C 
BRANCH   2   3
ATOM      3  C   UNL A   1      32.434  31.001  27.127  1.00  0.00     0.188 C 
BRANCH   3   4
ATOM      4  O   UNL A   1      32.036  30.074  26.135  1.00  0.00    -0.376 OA
BRANCH   4   5
ATOM      5  C   UNL A   1      31.914  28.751  26.681  1.00  0.00     0.202 C 
BRANCH   5   6
ATOM      6  C   UNL A   1      33.015  27.669  26.427  1.00  0.00     0.261 C 
BRANCH   6   7
ATOM      7  O   UNL A   1      32.659  26.303  26.754  1.00  0.00    -0.461 OA
BRANCH   7   8
ATOM      8  C   UNL A   1      31.597  25.727  26.102  1.00  0.00     0.333 C 
ATOM      9  O   UNL A   1      30.436  25.880  26.468  1.00  0.00    -0.249 OA
BRANCH   8  10
ATOM     10  C   UNL A   1      32.025  24.916  24.801  1.00  0.00     0.150 C 
ATOM     11  C   UNL A   1      33.692  23.598  26.362  1.00  0.00     0.014 C 
ATOM     12  C   UNL A   1      33.511  24.249  24.960  1.00  0.00     0.000 C 
ATOM     13  C   UNL A   1      34.719  25.219  24.792  1.00  0.00     0.014 C 
ATOM     14  C   UNL A   1      33.768  23.151  23.884  1.00  0.00     0.020 C 
ATOM     15  C   UNL A   1      32.814  21.974  23.922  1.00  0.00     0.070 C 
ATOM     16  C   UNL A   1      30.920  23.822  24.687  1.00  0.00     0.110 C 
ATOM     17  S   UNL A   1      31.159  22.495  23.455  1.00  0.00    -0.159 SA
BRANCH  10  18
ATOM     18  N   UNL A   1      32.006  25.807  23.567  1.00  0.00    -0.368 N 
ATOM     19  H   UNL A   1      32.499  25.444  22.795  1.00  0.00     0.161 HD
BRANCH  18  20
ATOM     20  C   UNL A   1      31.409  27.057  23.340  1.00  0.00     0.049 A 
ATOM     21  C   UNL A   1      29.997  27.090  23.358  1.00  0.00     0.027 A 
ATOM     22  C   UNL A   1      32.038  28.254  22.916  1.00  0.00     0.041 A 
ATOM     23  C   UNL A   1      29.253  28.217  22.978  1.00  0.00     0.002 A 
ATOM     24  C   UNL A   1      31.283  29.365  22.476  1.00  0.00     0.018 A 
ATOM     25  Br  UNL A   1      33.905  28.579  22.831  1.00  0.00    -0.049 Br
ATOM     26  C   UNL A   1      29.897  29.352  22.513  1.00  0.00     0.001 A 
ENDBRANCH  18  20
ENDBRANCH  10  18
ENDBRANCH   8  10
ENDBRANCH   7   8
ENDBRANCH   6   7
ENDBRANCH   5   6
ENDBRANCH   4   5
ENDBRANCH   3   4
ENDBRANCH   2   3
ENDBRANCH   1   2
BRANCH   1  27
ATOM     27  C   UNL A   1      33.816  33.314  27.716  1.00  0.00     0.188 C 
BRANCH  27  28
ATOM     28  C   UNL A   1      33.268  34.441  28.601  1.00  0.00     0.188 C 
BRANCH  28  29
ATOM     29  O   UNL A   1      33.999  35.651  28.818  1.00  0.00    -0.376 OA
BRANCH  29  30
ATOM     30  C   UNL A   1      33.423  36.795  29.435  1.00  0.00     0.202 C 
BRANCH  30  31
ATOM     31  C   UNL A   1      32.560  36.462  30.651  1.00  0.00     0.261 C 
BRANCH  31  32
ATOM     32  O   UNL A   1      33.325  36.339  31.855  1.00  0.00    -0.460 OA
BRANCH  32  33
ATOM     33  C   UNL A   1      33.155  35.172  32.520  1.00  0.00     0.338 C 
ATOM     34  O   UNL A   1      32.109  34.649  32.872  1.00  0.00    -0.246 OA
BRANCH  33  35
ATOM     35  C   UNL A   1      34.464  34.512  32.644  1.00  0.00     0.060 A 
ATOM     36  C   UNL A   1      34.495  33.146  32.965  1.00  0.00     0.016 A 
ATOM     37  C   UNL A   1      35.644  35.224  32.413  1.00  0.00     0.016 A 
ATOM     38  C   UNL A   1      35.713  32.498  33.113  1.00  0.00     0.010 A 
ATOM     39  C   UNL A   1      36.865  34.587  32.599  1.00  0.00     0.010 A 
ATOM     40  C   UNL A   1      36.894  33.240  33.003  1.00  0.00    -0.014 A 
BRANCH  40  41
ATOM     41  C   UNL A   1      38.121  32.708  33.618  1.00  0.00     0.031 A 
ATOM     42  C   UNL A   1      38.360  33.042  35.064  1.00  0.00     0.074 A 
ATOM     43  C   UNL A   1      38.971  31.939  32.923  1.00  0.00     0.049 A 
ATOM     44  N   UNL A   1      39.376  32.746  35.828  1.00  0.00    -0.248 NA
ATOM     45  C   UNL A   1      37.305  33.823  35.737  1.00  0.00     0.031 C 
ATOM     46  C   UNL A   1      38.788  31.507  31.539  1.00  0.00     0.029 A 
ATOM     47  N   UNL A   1      40.164  31.386  33.300  1.00  0.00    -0.354 N 
ATOM     48  C   UNL A   1      39.086  33.309  37.064  1.00  0.00     0.074 A 
ATOM     49  C   UNL A   1      37.821  33.997  36.941  1.00  0.00     0.031 C 
ATOM     50  C   UNL A   1      39.843  30.755  31.179  1.00  0.00     0.029 A 
ATOM     51  C   UNL A   1      40.783  30.690  32.295  1.00  0.00     0.049 A 
ATOM     52  H   UNL A   1      40.541  31.479  34.205  1.00  0.00     0.167 HD
ATOM     53  C   UNL A   1      39.809  33.253  38.205  1.00  0.00     0.031 A 
ATOM     54  C   UNL A   1      41.988  30.089  32.286  1.00  0.00     0.031 A 
ATOM     55  C   UNL A   1      41.081  32.593  38.300  1.00  0.00     0.049 A 
ATOM     56  C   UNL A   1      42.826  30.132  33.536  1.00  0.00     0.074 A 
ATOM     57  C   UNL A   1      41.915  32.476  39.396  1.00  0.00     0.029 A 
ATOM     58  N   UNL A   1      41.706  31.945  37.243  1.00  0.00    -0.354 N 
ATOM     59  N   UNL A   1      42.544  30.657  34.706  1.00  0.00    -0.248 NA
ATOM     60  C   UNL A   1      44.146  29.493  33.464  1.00  0.00     0.031 C 
ATOM     61  C   UNL A   1      43.074  31.811  38.985  1.00  0.00     0.029 A 
ATOM     62  C   UNL A   1      42.930  31.449  37.653  1.00  0.00     0.049 A 
ATOM     63  H   UNL A   1      41.333  31.852  36.337  1.00  0.00     0.167 HD
ATOM     64  C   UNL A   1      43.635  30.380  35.521  1.00  0.00     0.074 A 
ATOM     65  C   UNL A   1      44.576  29.630  34.711  1.00  0.00     0.031 C 
ATOM     66  C   UNL A   1      43.843  30.707  36.820  1.00  0.00     0.031 A 
BRANCH  53  67
ATOM     67  C   UNL A   1      39.256  33.969  39.406  1.00  0.00    -0.014 A 
ATOM     68  C   UNL A   1      38.363  33.339  40.290  1.00  0.00     0.009 A 
ATOM     69  C   UNL A   1      39.621  35.301  39.650  1.00  0.00     0.009 A 
ATOM     70  C   UNL A   1      37.817  34.041  41.366  1.00  0.00     0.001 A 
ATOM     71  C   UNL A   1      39.100  35.991  40.747  1.00  0.00     0.001 A 
ATOM     72  C   UNL A   1      38.189  35.366  41.596  1.00  0.00     0.000 A 
ENDBRANCH  53  67
BRANCH  54  73
ATOM     73  C   UNL A   1      42.473  29.406  31.058  1.00  0.00    -0.014 A 
ATOM     74  C   UNL A   1      43.231  30.103  30.106  1.00  0.00     0.009 A 
ATOM     75  C   UNL A   1      42.172  28.054  30.826  1.00  0.00     0.009 A 
ATOM     76  C   UNL A   1      43.655  29.469  28.935  1.00  0.00     0.001 A 
ATOM     77  C   UNL A   1      42.623  27.414  29.670  1.00  0.00     0.001 A 
ATOM     78  C   UNL A   1      43.356  28.125  28.720  1.00  0.00     0.000 A 
ENDBRANCH  54  73
BRANCH  66  79
ATOM     79  C   UNL A   1      45.114  30.214  37.455  1.00  0.00    -0.014 A 
ATOM     80  C   UNL A   1      45.179  28.968  38.098  1.00  0.00     0.009 A 
ATOM     81  C   UNL A   1      46.276  30.998  37.368  1.00  0.00     0.009 A 
ATOM     82  C   UNL A   1      46.374  28.537  38.678  1.00  0.00     0.001 A 
ATOM     83  C   UNL A   1      47.477  30.547  37.915  1.00  0.00     0.001 A 
ATOM     84  C   UNL A   1      47.522  29.323  38.580  1.00  0.00     0.000 A 
ENDBRANCH  66  79
ENDBRANCH  40  41
ENDBRANCH  33  35
ENDBRANCH  32  33
ENDBRANCH  31  32
ENDBRANCH  30  31
ENDBRANCH  29  30
ENDBRANCH  28  29
ENDBRANCH  27  28
ENDBRANCH   1  27
TORSDOF 22
ENDMDL
