MODEL 1
REMARK VINA RESULT:      -9.3      0.000      0.000
REMARK SMILES CC[NH2+][C@H](C)c1cccn1Cc1ccc(C(=O)OCCOCCOCCOCCOC(=O)c2ccc(-c3c4nc(c(-c5ccccc5)c5ccc([nH]5)c(-c5ccccc5)c5nc(c(-c6ccccc6)c6ccc3[nH]6)C=C5)C=C4)cc2)cc1
REMARK SMILES IDX 22 1 21 2 20 3 19 4 18 5 16 6 17 7 15 8 12 9 13 10 82 11
REMARK SMILES IDX 14 12 81 13 11 14 10 15 6 16 7 17 8 18 9 19 4 20 5 21 3 22
REMARK SMILES IDX 2 25 1 26 23 27 24 28 25 29 26 30 27 31 28 32 29 33 30 34
REMARK SMILES IDX 31 35 32 36 33 37 34 38 80 39 35 40 79 41 36 42 37 43 38 44
REMARK SMILES IDX 73 45 39 46 78 47 72 48 74 49 40 50 77 51 71 52 70 53 41 55
REMARK SMILES IDX 63 56 48 57 62 58 49 59 52 60 61 61 75 62 50 63 51 64 60 66
REMARK SMILES IDX 76 67 53 68 42 69 43 70 47 71 44 72 46 73 45 74 64 75 65 76
REMARK SMILES IDX 69 77 66 78 68 79 67 80 54 81 55 82 59 83 56 84 58 85 57 86
REMARK H PARENT 3 23 3 24 74 54 52 65
REMARK Flexibility Score: inf
ROOT
ATOM      1  C   UNL A   1      41.948  20.540  26.502  1.00  0.00     0.188 C 
ENDROOT
BRANCH   1   2
ATOM      2  O   UNL A   1      41.147  21.447  25.753  1.00  0.00    -0.376 OA
BRANCH   2   3
ATOM      3  C   UNL A   1      39.934  21.849  26.369  1.00  0.00     0.202 C 
BRANCH   3   4
ATOM      4  C   UNL A   1      38.703  21.488  25.533  1.00  0.00     0.261 C 
BRANCH   4   5
ATOM      5  O   UNL A   1      37.602  22.396  25.691  1.00  0.00    -0.460 OA
BRANCH   5   6
ATOM      6  C   UNL A   1      36.377  21.930  25.371  1.00  0.00     0.338 C 
ATOM      7  O   UNL A   1      35.910  20.837  25.669  1.00  0.00    -0.246 OA
BRANCH   6   8
ATOM      8  C   UNL A   1      35.596  23.029  24.766  1.00  0.00     0.060 A 
ATOM      9  C   UNL A   1      34.068  25.126  23.695  1.00  0.00    -0.028 A 
ATOM     10  C   UNL A   1      34.552  25.197  25.008  1.00  0.00     0.006 A 
ATOM     11  C   UNL A   1      34.439  24.029  22.899  1.00  0.00     0.006 A 
ATOM     12  C   UNL A   1      35.304  24.151  25.546  1.00  0.00     0.016 A 
ATOM     13  C   UNL A   1      35.193  22.983  23.430  1.00  0.00     0.016 A 
BRANCH   9  14
ATOM     14  C   UNL A   1      33.068  26.139  23.170  1.00  0.00     0.157 C 
BRANCH  14  15
ATOM     15  N   UNL A   1      31.926  26.234  24.081  1.00  0.00    -0.342 N 
ATOM     16  C   UNL A   1      31.383  27.320  24.756  1.00  0.00     0.076 A 
ATOM     17  C   UNL A   1      30.572  26.771  25.753  1.00  0.00     0.029 A 
ATOM     18  C   UNL A   1      30.482  25.382  25.571  1.00  0.00     0.020 A 
ATOM     19  C   UNL A   1      31.268  25.083  24.491  1.00  0.00     0.086 A 
BRANCH  16  20
ATOM     20  C   UNL A   1      31.593  28.815  24.564  1.00  0.00     0.227 C 
ATOM     21  C   UNL A   1      32.982  29.387  24.797  1.00  0.00     0.082 C 
BRANCH  20  22
ATOM     22  N   UNL A   1      31.228  29.147  23.174  1.00  0.00    -0.339 N 
ATOM     23  H   UNL A   1      31.877  29.852  22.825  1.00  0.00     0.346 HD
ATOM     24  H   UNL A   1      31.275  28.288  22.627  1.00  0.00     0.346 HD
BRANCH  22  25
ATOM     25  C   UNL A   1      29.866  29.670  23.063  1.00  0.00     0.257 C 
ATOM     26  C   UNL A   1      29.681  30.816  24.046  1.00  0.00     0.071 C 
ENDBRANCH  22  25
ENDBRANCH  20  22
ENDBRANCH  16  20
ENDBRANCH  14  15
ENDBRANCH   9  14
ENDBRANCH   6   8
ENDBRANCH   5   6
ENDBRANCH   4   5
ENDBRANCH   3   4
ENDBRANCH   2   3
ENDBRANCH   1   2
BRANCH   1  27
ATOM     27  C   UNL A   1      41.772  19.063  26.099  1.00  0.00     0.188 C 
BRANCH  27  28
ATOM     28  O   UNL A   1      42.824  18.371  25.444  1.00  0.00    -0.377 OA
BRANCH  28  29
ATOM     29  C   UNL A   1      44.178  18.733  25.681  1.00  0.00     0.188 C 
BRANCH  29  30
ATOM     30  C   UNL A   1      45.219  18.834  24.541  1.00  0.00     0.188 C 
BRANCH  30  31
ATOM     31  O   UNL A   1      45.505  20.148  24.077  1.00  0.00    -0.376 OA
BRANCH  31  32
ATOM     32  C   UNL A   1      45.157  21.237  24.913  1.00  0.00     0.202 C 
BRANCH  32  33
ATOM     33  C   UNL A   1      44.525  22.396  24.140  1.00  0.00     0.261 C 
BRANCH  33  34
ATOM     34  O   UNL A   1      43.769  23.282  24.962  1.00  0.00    -0.460 OA
BRANCH  34  35
ATOM     35  C   UNL A   1      44.203  24.548  24.913  1.00  0.00     0.338 C 
ATOM     36  O   UNL A   1      45.336  24.957  24.688  1.00  0.00    -0.246 OA
BRANCH  35  37
ATOM     37  C   UNL A   1      43.137  25.458  25.280  1.00  0.00     0.060 A 
ATOM     38  C   UNL A   1      43.462  26.819  25.296  1.00  0.00     0.016 A 
ATOM     39  C   UNL A   1      42.112  24.899  26.045  1.00  0.00     0.016 A 
ATOM     40  C   UNL A   1      42.884  27.606  26.262  1.00  0.00     0.010 A 
ATOM     41  C   UNL A   1      41.584  25.670  27.048  1.00  0.00     0.010 A 
ATOM     42  C   UNL A   1      42.031  26.993  27.185  1.00  0.00    -0.014 A 
BRANCH  42  43
ATOM     43  C   UNL A   1      41.602  27.760  28.353  1.00  0.00     0.031 A 
ATOM     44  C   UNL A   1      42.444  27.462  29.572  1.00  0.00     0.074 A 
ATOM     45  C   UNL A   1      40.545  28.597  28.142  1.00  0.00     0.049 A 
ATOM     46  N   UNL A   1      42.203  27.729  30.814  1.00  0.00    -0.248 NA
ATOM     47  C   UNL A   1      43.733  26.735  29.398  1.00  0.00     0.031 C 
ATOM     48  C   UNL A   1      39.840  28.751  26.848  1.00  0.00     0.029 A 
ATOM     49  N   UNL A   1      39.850  29.474  28.943  1.00  0.00    -0.354 N 
ATOM     50  C   UNL A   1      43.353  27.377  31.535  1.00  0.00     0.074 A 
ATOM     51  C   UNL A   1      44.227  26.690  30.633  1.00  0.00     0.031 C 
ATOM     52  C   UNL A   1      38.798  29.597  26.967  1.00  0.00     0.029 A 
ATOM     53  C   UNL A   1      38.735  30.088  28.329  1.00  0.00     0.049 A 
ATOM     54  H   UNL A   1      40.109  29.660  29.875  1.00  0.00     0.167 HD
ATOM     55  C   UNL A   1      43.588  27.786  32.808  1.00  0.00     0.031 A 
ATOM     56  C   UNL A   1      37.802  30.919  28.876  1.00  0.00     0.031 A 
ATOM     57  C   UNL A   1      42.463  28.458  33.363  1.00  0.00     0.049 A 
ATOM     58  C   UNL A   1      38.260  31.237  30.240  1.00  0.00     0.074 A 
ATOM     59  C   UNL A   1      41.224  28.027  33.767  1.00  0.00     0.029 A 
ATOM     60  N   UNL A   1      42.426  29.825  33.231  1.00  0.00    -0.354 N 
ATOM     61  N   UNL A   1      39.285  31.985  30.519  1.00  0.00    -0.248 NA
ATOM     62  C   UNL A   1      37.577  30.637  31.389  1.00  0.00     0.031 C 
ATOM     63  C   UNL A   1      40.358  29.106  33.463  1.00  0.00     0.029 A 
ATOM     64  C   UNL A   1      41.118  30.170  32.971  1.00  0.00     0.049 A 
ATOM     65  H   UNL A   1      43.190  30.442  33.308  1.00  0.00     0.167 HD
ATOM     66  C   UNL A   1      39.595  31.609  31.804  1.00  0.00     0.074 A 
ATOM     67  C   UNL A   1      38.389  31.040  32.364  1.00  0.00     0.031 C 
ATOM     68  C   UNL A   1      40.883  31.319  32.125  1.00  0.00     0.031 A 
BRANCH  55  69
ATOM     69  C   UNL A   1      44.889  27.800  33.540  1.00  0.00    -0.014 A 
ATOM     70  C   UNL A   1      45.904  28.656  33.067  1.00  0.00     0.009 A 
ATOM     71  C   UNL A   1      45.244  26.825  34.484  1.00  0.00     0.009 A 
ATOM     72  C   UNL A   1      47.230  28.503  33.472  1.00  0.00     0.001 A 
ATOM     73  C   UNL A   1      46.569  26.694  34.915  1.00  0.00     0.001 A 
ATOM     74  C   UNL A   1      47.564  27.514  34.390  1.00  0.00     0.000 A 
ENDBRANCH  55  69
BRANCH  56  75
ATOM     75  C   UNL A   1      36.477  31.489  28.459  1.00  0.00    -0.014 A 
ATOM     76  C   UNL A   1      35.344  30.743  28.119  1.00  0.00     0.009 A 
ATOM     77  C   UNL A   1      36.292  32.895  28.523  1.00  0.00     0.009 A 
ATOM     78  C   UNL A   1      34.092  31.357  27.930  1.00  0.00     0.001 A 
ATOM     79  C   UNL A   1      35.043  33.506  28.381  1.00  0.00     0.001 A 
ATOM     80  C   UNL A   1      33.935  32.731  28.093  1.00  0.00     0.000 A 
ENDBRANCH  56  75
BRANCH  68  81
ATOM     81  C   UNL A   1      41.915  31.915  31.177  1.00  0.00    -0.014 A 
ATOM     82  C   UNL A   1      42.564  31.116  30.225  1.00  0.00     0.009 A 
ATOM     83  C   UNL A   1      42.356  33.244  31.304  1.00  0.00     0.009 A 
ATOM     84  C   UNL A   1      43.622  31.620  29.454  1.00  0.00     0.001 A 
ATOM     85  C   UNL A   1      43.405  33.757  30.532  1.00  0.00     0.001 A 
ATOM     86  C   UNL A   1      44.044  32.938  29.609  1.00  0.00     0.000 A 
ENDBRANCH  68  81
ENDBRANCH  42  43
ENDBRANCH  35  37
ENDBRANCH  34  35
ENDBRANCH  33  34
ENDBRANCH  32  33
ENDBRANCH  31  32
ENDBRANCH  30  31
ENDBRANCH  29  30
ENDBRANCH  28  29
ENDBRANCH  27  28
ENDBRANCH   1  27
TORSDOF 25
ENDMDL
MODEL 2
REMARK VINA RESULT:      -8.9      2.315      3.700
REMARK SMILES CC[NH2+][C@H](C)c1cccn1Cc1ccc(C(=O)OCCOCCOCCOCCOC(=O)c2ccc(-c3c4nc(c(-c5ccccc5)c5ccc([nH]5)c(-c5ccccc5)c5nc(c(-c6ccccc6)c6ccc3[nH]6)C=C5)C=C4)cc2)cc1
REMARK SMILES IDX 22 1 21 2 20 3 19 4 18 5 16 6 17 7 15 8 12 9 13 10 82 11
REMARK SMILES IDX 14 12 81 13 11 14 10 15 6 16 7 17 8 18 9 19 4 20 5 21 3 22
REMARK SMILES IDX 2 25 1 26 23 27 24 28 25 29 26 30 27 31 28 32 29 33 30 34
REMARK SMILES IDX 31 35 32 36 33 37 34 38 80 39 35 40 79 41 36 42 37 43 38 44
REMARK SMILES IDX 73 45 39 46 78 47 72 48 74 49 40 50 77 51 71 52 70 53 41 55
REMARK SMILES IDX 63 56 48 57 62 58 49 59 52 60 61 61 75 62 50 63 51 64 60 66
REMARK SMILES IDX 76 67 53 68 42 69 43 70 47 71 44 72 46 73 45 74 64 75 65 76
REMARK SMILES IDX 69 77 66 78 68 79 67 80 54 81 55 82 59 83 56 84 58 85 57 86
REMARK H PARENT 3 23 3 24 74 54 52 65
REMARK Flexibility Score: inf
ROOT
ATOM      1  C   UNL A   1      40.941  21.072  27.126  1.00  0.00     0.188 C 
ENDROOT
BRANCH   1   2
ATOM      2  O   UNL A   1      40.074  21.648  26.156  1.00  0.00    -0.376 OA
BRANCH   2   3
ATOM      3  C   UNL A   1      38.879  20.929  25.897  1.00  0.00     0.202 C 
BRANCH   3   4
ATOM      4  C   UNL A   1      37.874  21.739  25.073  1.00  0.00     0.261 C 
BRANCH   4   5
ATOM      5  O   UNL A   1      36.557  21.791  25.645  1.00  0.00    -0.460 OA
BRANCH   5   6
ATOM      6  C   UNL A   1      35.568  21.191  24.951  1.00  0.00     0.338 C 
ATOM      7  O   UNL A   1      35.231  20.015  25.027  1.00  0.00    -0.246 OA
BRANCH   6   8
ATOM      8  C   UNL A   1      34.810  22.226  24.217  1.00  0.00     0.060 A 
ATOM      9  C   UNL A   1      33.405  24.255  22.880  1.00  0.00    -0.028 A 
ATOM     10  C   UNL A   1      34.724  24.464  23.304  1.00  0.00     0.006 A 
ATOM     11  C   UNL A   1      32.834  22.984  23.057  1.00  0.00     0.006 A 
ATOM     12  C   UNL A   1      35.421  23.460  23.978  1.00  0.00     0.016 A 
ATOM     13  C   UNL A   1      33.528  21.976  23.726  1.00  0.00     0.016 A 
BRANCH   9  14
ATOM     14  C   UNL A   1      32.559  25.399  22.353  1.00  0.00     0.157 C 
BRANCH  14  15
ATOM     15  N   UNL A   1      32.970  26.657  22.979  1.00  0.00    -0.342 N 
ATOM     16  C   UNL A   1      32.753  27.155  24.257  1.00  0.00     0.076 A 
ATOM     17  C   UNL A   1      33.028  28.523  24.175  1.00  0.00     0.029 A 
ATOM     18  C   UNL A   1      33.576  28.815  22.916  1.00  0.00     0.020 A 
ATOM     19  C   UNL A   1      33.596  27.636  22.221  1.00  0.00     0.086 A 
BRANCH  16  20
ATOM     20  C   UNL A   1      32.277  26.462  25.526  1.00  0.00     0.227 C 
ATOM     21  C   UNL A   1      32.189  27.277  26.806  1.00  0.00     0.082 C 
BRANCH  20  22
ATOM     22  N   UNL A   1      30.925  25.932  25.270  1.00  0.00    -0.339 N 
ATOM     23  H   UNL A   1      30.251  26.690  25.370  1.00  0.00     0.346 HD
ATOM     24  H   UNL A   1      30.916  25.544  24.327  1.00  0.00     0.346 HD
BRANCH  22  25
ATOM     25  C   UNL A   1      30.561  24.858  26.195  1.00  0.00     0.257 C 
ATOM     26  C   UNL A   1      31.768  23.965  26.435  1.00  0.00     0.071 C 
ENDBRANCH  22  25
ENDBRANCH  20  22
ENDBRANCH  16  20
ENDBRANCH  14  15
ENDBRANCH   9  14
ENDBRANCH   6   8
ENDBRANCH   5   6
ENDBRANCH   4   5
ENDBRANCH   3   4
ENDBRANCH   2   3
ENDBRANCH   1   2
BRANCH   1  27
ATOM     27  C   UNL A   1      42.140  20.310  26.527  1.00  0.00     0.188 C 
BRANCH  27  28
ATOM     28  O   UNL A   1      42.796  20.805  25.370  1.00  0.00    -0.377 OA
BRANCH  28  29
ATOM     29  C   UNL A   1      43.655  21.934  25.461  1.00  0.00     0.188 C 
BRANCH  29  30
ATOM     30  C   UNL A   1      43.202  23.354  25.046  1.00  0.00     0.188 C 
BRANCH  30  31
ATOM     31  O   UNL A   1      44.241  24.304  24.847  1.00  0.00    -0.376 OA
BRANCH  31  32
ATOM     32  C   UNL A   1      44.058  25.606  25.372  1.00  0.00     0.202 C 
BRANCH  32  33
ATOM     33  C   UNL A   1      43.467  25.597  26.784  1.00  0.00     0.261 C 
BRANCH  33  34
ATOM     34  O   UNL A   1      42.365  26.486  26.944  1.00  0.00    -0.460 OA
BRANCH  34  35
ATOM     35  C   UNL A   1      41.361  25.960  27.659  1.00  0.00     0.338 C 
ATOM     36  O   UNL A   1      41.183  24.790  27.974  1.00  0.00    -0.246 OA
BRANCH  35  37
ATOM     37  C   UNL A   1      40.375  26.977  27.962  1.00  0.00     0.060 A 
ATOM     38  C   UNL A   1      40.788  28.305  27.812  1.00  0.00     0.016 A 
ATOM     39  C   UNL A   1      39.352  26.578  28.823  1.00  0.00     0.016 A 
ATOM     40  C   UNL A   1      40.309  29.231  28.705  1.00  0.00     0.010 A 
ATOM     41  C   UNL A   1      38.922  27.490  29.753  1.00  0.00     0.010 A 
ATOM     42  C   UNL A   1      39.460  28.786  29.724  1.00  0.00    -0.014 A 
BRANCH  42  43
ATOM     43  C   UNL A   1      39.137  29.704  30.813  1.00  0.00     0.031 A 
ATOM     44  C   UNL A   1      39.876  29.361  32.086  1.00  0.00     0.074 A 
ATOM     45  C   UNL A   1      38.249  30.691  30.497  1.00  0.00     0.049 A 
ATOM     46  N   UNL A   1      39.647  29.763  33.294  1.00  0.00    -0.248 NA
ATOM     47  C   UNL A   1      41.022  28.413  32.022  1.00  0.00     0.031 C 
ATOM     48  C   UNL A   1      37.622  30.862  29.165  1.00  0.00     0.029 A 
ATOM     49  N   UNL A   1      37.694  31.734  31.201  1.00  0.00    -0.354 N 
ATOM     50  C   UNL A   1      40.696  29.276  34.088  1.00  0.00     0.074 A 
ATOM     51  C   UNL A   1      41.464  28.381  33.276  1.00  0.00     0.031 C 
ATOM     52  C   UNL A   1      36.741  31.881  29.178  1.00  0.00     0.029 A 
ATOM     53  C   UNL A   1      36.723  32.481  30.496  1.00  0.00     0.049 A 
ATOM     54  H   UNL A   1      37.954  31.946  32.127  1.00  0.00     0.167 HD
ATOM     55  C   UNL A   1      40.960  29.737  35.337  1.00  0.00     0.031 A 
ATOM     56  C   UNL A   1      35.933  33.501  30.941  1.00  0.00     0.031 A 
ATOM     57  C   UNL A   1      39.953  30.634  35.793  1.00  0.00     0.049 A 
ATOM     58  C   UNL A   1      36.399  33.841  32.297  1.00  0.00     0.074 A 
ATOM     59  C   UNL A   1      38.646  30.456  36.172  1.00  0.00     0.029 A 
ATOM     60  N   UNL A   1      40.160  31.973  35.562  1.00  0.00    -0.354 N 
ATOM     61  N   UNL A   1      37.529  34.421  32.566  1.00  0.00    -0.248 NA
ATOM     62  C   UNL A   1      35.586  33.459  33.455  1.00  0.00     0.031 C 
ATOM     63  C   UNL A   1      37.992  31.640  35.754  1.00  0.00     0.029 A 
ATOM     64  C   UNL A   1      38.941  32.515  35.220  1.00  0.00     0.049 A 
ATOM     65  H   UNL A   1      41.017  32.453  35.627  1.00  0.00     0.167 HD
ATOM     66  C   UNL A   1      37.729  34.099  33.887  1.00  0.00     0.074 A 
ATOM     67  C   UNL A   1      36.426  33.792  34.434  1.00  0.00     0.031 C 
ATOM     68  C   UNL A   1      38.936  33.619  34.284  1.00  0.00     0.031 A 
BRANCH  55  69
ATOM     69  C   UNL A   1      42.220  29.585  36.123  1.00  0.00    -0.014 A 
ATOM     70  C   UNL A   1      42.946  30.750  36.439  1.00  0.00     0.009 A 
ATOM     71  C   UNL A   1      42.854  28.349  36.317  1.00  0.00     0.009 A 
ATOM     72  C   UNL A   1      44.270  30.687  36.873  1.00  0.00     0.001 A 
ATOM     73  C   UNL A   1      44.171  28.283  36.784  1.00  0.00     0.001 A 
ATOM     74  C   UNL A   1      44.886  29.452  37.036  1.00  0.00     0.000 A 
ENDBRANCH  55  69
BRANCH  56  75
ATOM     75  C   UNL A   1      34.742  34.256  30.426  1.00  0.00    -0.014 A 
ATOM     76  C   UNL A   1      33.975  35.162  31.165  1.00  0.00     0.009 A 
ATOM     77  C   UNL A   1      34.419  34.156  29.047  1.00  0.00     0.009 A 
ATOM     78  C   UNL A   1      32.999  35.968  30.550  1.00  0.00     0.001 A 
ATOM     79  C   UNL A   1      33.485  34.985  28.422  1.00  0.00     0.001 A 
ATOM     80  C   UNL A   1      32.778  35.905  29.176  1.00  0.00     0.000 A 
ENDBRANCH  56  75
BRANCH  68  81
ATOM     81  C   UNL A   1      40.085  33.951  33.342  1.00  0.00    -0.014 A 
ATOM     82  C   UNL A   1      40.355  33.150  32.224  1.00  0.00     0.009 A 
ATOM     83  C   UNL A   1      40.998  34.984  33.623  1.00  0.00     0.009 A 
ATOM     84  C   UNL A   1      41.498  33.359  31.439  1.00  0.00     0.001 A 
ATOM     85  C   UNL A   1      42.137  35.204  32.840  1.00  0.00     0.001 A 
ATOM     86  C   UNL A   1      42.391  34.383  31.748  1.00  0.00     0.000 A 
ENDBRANCH  68  81
ENDBRANCH  42  43
ENDBRANCH  35  37
ENDBRANCH  34  35
ENDBRANCH  33  34
ENDBRANCH  32  33
ENDBRANCH  31  32
ENDBRANCH  30  31
ENDBRANCH  29  30
ENDBRANCH  28  29
ENDBRANCH  27  28
ENDBRANCH   1  27
TORSDOF 25
ENDMDL
MODEL 3
REMARK VINA RESULT:      -8.5      1.851      3.110
REMARK SMILES CC[NH2+][C@H](C)c1cccn1Cc1ccc(C(=O)OCCOCCOCCOCCOC(=O)c2ccc(-c3c4nc(c(-c5ccccc5)c5ccc([nH]5)c(-c5ccccc5)c5nc(c(-c6ccccc6)c6ccc3[nH]6)C=C5)C=C4)cc2)cc1
REMARK SMILES IDX 22 1 21 2 20 3 19 4 18 5 16 6 17 7 15 8 12 9 13 10 82 11
REMARK SMILES IDX 14 12 81 13 11 14 10 15 6 16 7 17 8 18 9 19 4 20 5 21 3 22
REMARK SMILES IDX 2 25 1 26 23 27 24 28 25 29 26 30 27 31 28 32 29 33 30 34
REMARK SMILES IDX 31 35 32 36 33 37 34 38 80 39 35 40 79 41 36 42 37 43 38 44
REMARK SMILES IDX 73 45 39 46 78 47 72 48 74 49 40 50 77 51 71 52 70 53 41 55
REMARK SMILES IDX 63 56 48 57 62 58 49 59 52 60 61 61 75 62 50 63 51 64 60 66
REMARK SMILES IDX 76 67 53 68 42 69 43 70 47 71 44 72 46 73 45 74 64 75 65 76
REMARK SMILES IDX 69 77 66 78 68 79 67 80 54 81 55 82 59 83 56 84 58 85 57 86
REMARK H PARENT 3 23 3 24 74 54 52 65
REMARK Flexibility Score: inf
ROOT
ATOM      1  C   UNL A   1      37.943  20.992  25.625  1.00  0.00     0.188 C 
ENDROOT
BRANCH   1   2
ATOM      2  O   UNL A   1      36.827  21.712  25.113  1.00  0.00    -0.376 OA
BRANCH   2   3
ATOM      3  C   UNL A   1      35.702  20.925  24.753  1.00  0.00     0.202 C 
BRANCH   3   4
ATOM      4  C   UNL A   1      34.504  21.157  25.678  1.00  0.00     0.261 C 
BRANCH   4   5
ATOM      5  O   UNL A   1      34.007  22.505  25.664  1.00  0.00    -0.460 OA
BRANCH   5   6
ATOM      6  C   UNL A   1      32.667  22.660  25.670  1.00  0.00     0.338 C 
ATOM      7  O   UNL A   1      31.829  21.776  25.808  1.00  0.00    -0.246 OA
BRANCH   6   8
ATOM      8  C   UNL A   1      32.359  24.105  25.681  1.00  0.00     0.060 A 
ATOM      9  C   UNL A   1      31.732  26.841  25.622  1.00  0.00    -0.028 A 
ATOM     10  C   UNL A   1      30.800  25.888  25.190  1.00  0.00     0.006 A 
ATOM     11  C   UNL A   1      32.947  26.394  26.169  1.00  0.00     0.006 A 
ATOM     12  C   UNL A   1      31.114  24.528  25.208  1.00  0.00     0.016 A 
ATOM     13  C   UNL A   1      33.263  25.037  26.195  1.00  0.00     0.016 A 
BRANCH   9  14
ATOM     14  C   UNL A   1      31.501  28.324  25.400  1.00  0.00     0.157 C 
BRANCH  14  15
ATOM     15  N   UNL A   1      30.958  28.551  24.060  1.00  0.00    -0.342 N 
ATOM     16  C   UNL A   1      31.589  28.716  22.834  1.00  0.00     0.076 A 
ATOM     17  C   UNL A   1      30.623  29.271  21.990  1.00  0.00     0.029 A 
ATOM     18  C   UNL A   1      29.379  29.273  22.640  1.00  0.00     0.020 A 
ATOM     19  C   UNL A   1      29.596  28.759  23.890  1.00  0.00     0.086 A 
BRANCH  16  20
ATOM     20  C   UNL A   1      33.022  28.431  22.408  1.00  0.00     0.227 C 
ATOM     21  C   UNL A   1      34.099  28.383  23.478  1.00  0.00     0.082 C 
BRANCH  20  22
ATOM     22  N   UNL A   1      33.040  27.120  21.732  1.00  0.00    -0.339 N 
ATOM     23  H   UNL A   1      32.083  26.858  21.500  1.00  0.00     0.346 HD
ATOM     24  H   UNL A   1      33.618  27.210  20.896  1.00  0.00     0.346 HD
BRANCH  22  25
ATOM     25  C   UNL A   1      33.624  26.069  22.565  1.00  0.00     0.257 C 
ATOM     26  C   UNL A   1      33.100  24.715  22.114  1.00  0.00     0.071 C 
ENDBRANCH  22  25
ENDBRANCH  20  22
ENDBRANCH  16  20
ENDBRANCH  14  15
ENDBRANCH   9  14
ENDBRANCH   6   8
ENDBRANCH   5   6
ENDBRANCH   4   5
ENDBRANCH   3   4
ENDBRANCH   2   3
ENDBRANCH   1   2
BRANCH   1  27
ATOM     27  C   UNL A   1      39.130  21.882  26.040  1.00  0.00     0.188 C 
BRANCH  27  28
ATOM     28  O   UNL A   1      39.794  21.661  27.275  1.00  0.00    -0.377 OA
BRANCH  28  29
ATOM     29  C   UNL A   1      41.170  21.304  27.296  1.00  0.00     0.188 C 
BRANCH  29  30
ATOM     30  C   UNL A   1      41.987  21.086  26.001  1.00  0.00     0.188 C 
BRANCH  30  31
ATOM     31  O   UNL A   1      43.392  20.943  26.170  1.00  0.00    -0.376 OA
BRANCH  31  32
ATOM     32  C   UNL A   1      44.242  21.630  25.270  1.00  0.00     0.202 C 
BRANCH  32  33
ATOM     33  C   UNL A   1      44.709  22.982  25.812  1.00  0.00     0.261 C 
BRANCH  33  34
ATOM     34  O   UNL A   1      43.669  23.956  25.882  1.00  0.00    -0.460 OA
BRANCH  34  35
ATOM     35  C   UNL A   1      44.126  25.215  25.891  1.00  0.00     0.338 C 
ATOM     36  O   UNL A   1      44.570  25.871  24.956  1.00  0.00    -0.246 OA
BRANCH  35  37
ATOM     37  C   UNL A   1      44.138  25.735  27.243  1.00  0.00     0.060 A 
ATOM     38  C   UNL A   1      43.248  25.139  28.143  1.00  0.00     0.016 A 
ATOM     39  C   UNL A   1      44.617  27.039  27.377  1.00  0.00     0.016 A 
ATOM     40  C   UNL A   1      42.656  25.942  29.087  1.00  0.00     0.010 A 
ATOM     41  C   UNL A   1      43.979  27.853  28.278  1.00  0.00     0.010 A 
ATOM     42  C   UNL A   1      42.957  27.308  29.071  1.00  0.00    -0.014 A 
BRANCH  42  43
ATOM     43  C   UNL A   1      42.161  28.207  29.904  1.00  0.00     0.031 A 
ATOM     44  C   UNL A   1      42.786  28.429  31.262  1.00  0.00     0.074 A 
ATOM     45  C   UNL A   1      41.023  28.682  29.321  1.00  0.00     0.049 A 
ATOM     46  N   UNL A   1      42.254  28.923  32.333  1.00  0.00    -0.248 NA
ATOM     47  C   UNL A   1      44.201  28.020  31.481  1.00  0.00     0.031 C 
ATOM     48  C   UNL A   1      40.574  28.340  27.951  1.00  0.00     0.029 A 
ATOM     49  N   UNL A   1      40.022  29.531  29.737  1.00  0.00    -0.354 N 
ATOM     50  C   UNL A   1      43.284  29.050  33.275  1.00  0.00     0.074 A 
ATOM     51  C   UNL A   1      44.439  28.399  32.734  1.00  0.00     0.031 C 
ATOM     52  C   UNL A   1      39.383  28.908  27.681  1.00  0.00     0.029 A 
ATOM     53  C   UNL A   1      38.953  29.685  28.826  1.00  0.00     0.049 A 
ATOM     54  H   UNL A   1      40.049  29.996  30.605  1.00  0.00     0.167 HD
ATOM     55  C   UNL A   1      43.175  29.800  34.401  1.00  0.00     0.031 A 
ATOM     56  C   UNL A   1      37.784  30.371  28.982  1.00  0.00     0.031 A 
ATOM     57  C   UNL A   1      41.851  30.292  34.582  1.00  0.00     0.049 A 
ATOM     58  C   UNL A   1      37.889  31.113  30.250  1.00  0.00     0.074 A 
ATOM     59  C   UNL A   1      40.667  29.683  34.915  1.00  0.00     0.029 A 
ATOM     60  N   UNL A   1      41.571  31.534  34.066  1.00  0.00    -0.354 N 
ATOM     61  N   UNL A   1      38.669  32.133  30.446  1.00  0.00    -0.248 NA
ATOM     62  C   UNL A   1      37.124  30.662  31.415  1.00  0.00     0.031 C 
ATOM     63  C   UNL A   1      39.683  30.410  34.203  1.00  0.00     0.029 A 
ATOM     64  C   UNL A   1      40.300  31.474  33.541  1.00  0.00     0.049 A 
ATOM     65  H   UNL A   1      42.167  32.318  34.071  1.00  0.00     0.167 HD
ATOM     66  C   UNL A   1      38.785  32.169  31.815  1.00  0.00     0.074 A 
ATOM     67  C   UNL A   1      37.629  31.477  32.340  1.00  0.00     0.031 C 
ATOM     68  C   UNL A   1      40.014  32.290  32.380  1.00  0.00     0.031 A 
BRANCH  55  69
ATOM     69  C   UNL A   1      44.275  30.310  35.273  1.00  0.00    -0.014 A 
ATOM     70  C   UNL A   1      44.306  29.882  36.615  1.00  0.00     0.009 A 
ATOM     71  C   UNL A   1      45.097  31.387  34.912  1.00  0.00     0.009 A 
ATOM     72  C   UNL A   1      45.079  30.543  37.570  1.00  0.00     0.001 A 
ATOM     73  C   UNL A   1      45.898  32.029  35.863  1.00  0.00     0.001 A 
ATOM     74  C   UNL A   1      45.868  31.623  37.195  1.00  0.00     0.000 A 
ENDBRANCH  55  69
BRANCH  56  75
ATOM     75  C   UNL A   1      36.483  30.480  28.241  1.00  0.00    -0.014 A 
ATOM     76  C   UNL A   1      35.738  29.405  27.746  1.00  0.00     0.009 A 
ATOM     77  C   UNL A   1      35.872  31.757  28.126  1.00  0.00     0.009 A 
ATOM     78  C   UNL A   1      34.438  29.586  27.237  1.00  0.00     0.001 A 
ATOM     79  C   UNL A   1      34.565  31.937  27.665  1.00  0.00     0.001 A 
ATOM     80  C   UNL A   1      33.840  30.843  27.228  1.00  0.00     0.000 A 
ENDBRANCH  56  75
BRANCH  68  81
ATOM     81  C   UNL A   1      41.076  32.871  31.455  1.00  0.00    -0.014 A 
ATOM     82  C   UNL A   1      41.145  34.250  31.214  1.00  0.00     0.009 A 
ATOM     83  C   UNL A   1      41.935  32.047  30.706  1.00  0.00     0.009 A 
ATOM     84  C   UNL A   1      42.017  34.776  30.250  1.00  0.00     0.001 A 
ATOM     85  C   UNL A   1      42.815  32.565  29.748  1.00  0.00     0.001 A 
ATOM     86  C   UNL A   1      42.850  33.935  29.516  1.00  0.00     0.000 A 
ENDBRANCH  68  81
ENDBRANCH  42  43
ENDBRANCH  35  37
ENDBRANCH  34  35
ENDBRANCH  33  34
ENDBRANCH  32  33
ENDBRANCH  31  32
ENDBRANCH  30  31
ENDBRANCH  29  30
ENDBRANCH  28  29
ENDBRANCH  27  28
ENDBRANCH   1  27
TORSDOF 25
ENDMDL
