MODEL 1
REMARK VINA RESULT:      -6.9      0.000      0.000
REMARK SMILES C[C@@H]1CC[C@@](C(=O)OCCOCCOCCOCCOC(=O)c2ccc(-c3c4nc(c(-c5ccccc5)c5ccc([nH]5)c(-c5ccccc5)c5nc(c(-c6ccccc6)c6ccc3[nH]6)C=C5)C=C4)cc2)([C@@H]2CCC[C@H](S(C)(=O)=O)C2)C1
REMARK SMILES IDX 14 1 13 2 12 3 11 4 10 5 9 6 8 7 6 8 7 9 5 10 1 11 2 12 3 13
REMARK SMILES IDX 81 14 4 15 71 16 72 17 80 18 73 19 75 20 74 21 76 22 77 23
REMARK SMILES IDX 78 24 79 25 15 26 16 27 17 28 18 29 19 30 20 31 21 32 22 33
REMARK SMILES IDX 23 34 24 35 70 36 25 37 69 38 26 39 27 40 28 41 63 42 29 43
REMARK SMILES IDX 68 44 62 45 64 46 30 47 67 48 61 49 60 50 31 52 53 53 38 54
REMARK SMILES IDX 52 55 39 56 42 57 51 58 65 59 40 60 41 61 50 63 66 64 43 65
REMARK SMILES IDX 32 66 33 67 37 68 34 69 36 70 35 71 54 72 55 73 59 74 56 75
REMARK SMILES IDX 58 76 57 77 44 78 45 79 49 80 46 81 48 82 47 83
REMARK H PARENT 64 51 42 62
REMARK Flexibility Score: inf
ROOT
ATOM      1  O   UNL A   1      36.057  35.056  33.621  1.00  0.00    -0.377 OA
ENDROOT
BRANCH   1   2
ATOM      2  C   UNL A   1      36.603  34.201  34.597  1.00  0.00     0.188 C 
BRANCH   2   3
ATOM      3  C   UNL A   1      37.905  33.456  34.288  1.00  0.00     0.188 C 
BRANCH   3   4
ATOM      4  O   UNL A   1      38.016  32.874  32.995  1.00  0.00    -0.376 OA
BRANCH   4   5
ATOM      5  C   UNL A   1      37.846  31.473  32.817  1.00  0.00     0.202 C 
BRANCH   5   6
ATOM      6  C   UNL A   1      37.958  30.460  33.973  1.00  0.00     0.261 C 
BRANCH   6   7
ATOM      7  O   UNL A   1      39.201  29.729  34.062  1.00  0.00    -0.463 OA
BRANCH   7   8
ATOM      8  C   UNL A   1      40.042  30.095  35.060  1.00  0.00     0.312 C 
ATOM      9  O   UNL A   1      39.721  30.052  36.244  1.00  0.00    -0.252 OA
BRANCH   8  10
ATOM     10  C   UNL A   1      41.418  30.654  34.594  1.00  0.00     0.071 C 
ATOM     11  C   UNL A   1      42.399  27.580  34.047  1.00  0.00     0.007 C 
ATOM     12  C   UNL A   1      42.809  28.932  33.452  1.00  0.00    -0.013 C 
ATOM     13  C   UNL A   1      43.697  29.699  34.411  1.00  0.00     0.004 C 
ATOM     14  C   UNL A   1      41.654  29.928  33.234  1.00  0.00     0.022 C 
ATOM     15  C   UNL A   1      42.702  30.296  35.401  1.00  0.00     0.019 C 
BRANCH  10  16
ATOM     16  C   UNL A   1      41.219  32.235  34.523  1.00  0.00     0.008 C 
ATOM     17  C   UNL A   1      41.489  32.891  33.162  1.00  0.00     0.005 C 
ATOM     18  C   UNL A   1      42.070  32.955  35.604  1.00  0.00     0.024 C 
ATOM     19  C   UNL A   1      41.250  34.404  33.228  1.00  0.00     0.002 C 
ATOM     20  C   UNL A   1      41.960  34.484  35.645  1.00  0.00     0.108 C 
ATOM     21  C   UNL A   1      42.150  35.083  34.256  1.00  0.00     0.020 C 
BRANCH  20  22
ATOM     22  S   UNL A   1      43.190  35.109  36.830  1.00  0.00     0.150 S 
ATOM     23  C   UNL A   1      43.432  33.788  37.993  1.00  0.00     0.158 C 
ATOM     24  O   UNL A   1      44.441  35.282  36.115  1.00  0.00    -0.229 OA
ATOM     25  O   UNL A   1      42.608  36.226  37.551  1.00  0.00    -0.229 OA
ENDBRANCH  20  22
ENDBRANCH  10  16
ENDBRANCH   8  10
ENDBRANCH   7   8
ENDBRANCH   6   7
ENDBRANCH   5   6
ENDBRANCH   4   5
ENDBRANCH   3   4
ENDBRANCH   2   3
ENDBRANCH   1   2
BRANCH   1  26
ATOM     26  C   UNL A   1      34.676  34.903  33.400  1.00  0.00     0.188 C 
BRANCH  26  27
ATOM     27  C   UNL A   1      34.250  33.435  33.310  1.00  0.00     0.188 C 
BRANCH  27  28
ATOM     28  O   UNL A   1      33.999  32.798  32.056  1.00  0.00    -0.376 OA
BRANCH  28  29
ATOM     29  C   UNL A   1      34.956  32.861  31.007  1.00  0.00     0.202 C 
BRANCH  29  30
ATOM     30  C   UNL A   1      34.322  32.930  29.607  1.00  0.00     0.261 C 
BRANCH  30  31
ATOM     31  O   UNL A   1      35.117  32.363  28.551  1.00  0.00    -0.460 OA
BRANCH  31  32
ATOM     32  C   UNL A   1      34.947  31.037  28.328  1.00  0.00     0.338 C 
ATOM     33  O   UNL A   1      33.921  30.454  28.013  1.00  0.00    -0.246 OA
BRANCH  32  34
ATOM     34  C   UNL A   1      36.262  30.363  28.400  1.00  0.00     0.060 A 
ATOM     35  C   UNL A   1      36.695  29.871  29.640  1.00  0.00     0.016 A 
ATOM     36  C   UNL A   1      37.057  30.206  27.263  1.00  0.00     0.016 A 
ATOM     37  C   UNL A   1      37.928  29.230  29.748  1.00  0.00     0.010 A 
ATOM     38  C   UNL A   1      38.314  29.603  27.380  1.00  0.00     0.010 A 
ATOM     39  C   UNL A   1      38.764  29.139  28.629  1.00  0.00    -0.014 A 
BRANCH  39  40
ATOM     40  C   UNL A   1      40.190  28.782  28.821  1.00  0.00     0.031 A 
ATOM     41  C   UNL A   1      40.617  27.387  28.455  1.00  0.00     0.074 A 
ATOM     42  C   UNL A   1      41.087  29.670  29.283  1.00  0.00     0.049 A 
ATOM     43  N   UNL A   1      41.794  26.827  28.553  1.00  0.00    -0.248 NA
ATOM     44  C   UNL A   1      39.572  26.505  27.904  1.00  0.00     0.031 C 
ATOM     45  C   UNL A   1      40.807  31.063  29.629  1.00  0.00     0.029 A 
ATOM     46  N   UNL A   1      42.426  29.519  29.548  1.00  0.00    -0.354 N 
ATOM     47  C   UNL A   1      41.630  25.528  28.085  1.00  0.00     0.074 A 
ATOM     48  C   UNL A   1      40.240  25.377  27.717  1.00  0.00     0.031 C 
ATOM     49  C   UNL A   1      41.938  31.633  30.082  1.00  0.00     0.029 A 
ATOM     50  C   UNL A   1      43.011  30.641  30.085  1.00  0.00     0.049 A 
ATOM     51  H   UNL A   1      42.920  28.687  29.371  1.00  0.00     0.167 HD
ATOM     52  C   UNL A   1      42.553  24.548  27.975  1.00  0.00     0.031 A 
ATOM     53  C   UNL A   1      44.263  30.829  30.548  1.00  0.00     0.031 A 
ATOM     54  C   UNL A   1      43.931  24.693  28.351  1.00  0.00     0.049 A 
ATOM     55  C   UNL A   1      45.255  29.695  30.478  1.00  0.00     0.074 A 
ATOM     56  C   UNL A   1      44.951  23.763  28.251  1.00  0.00     0.029 A 
ATOM     57  N   UNL A   1      44.478  25.834  28.912  1.00  0.00    -0.354 N 
ATOM     58  N   UNL A   1      45.100  28.488  29.987  1.00  0.00    -0.248 NA
ATOM     59  C   UNL A   1      46.597  29.952  31.021  1.00  0.00     0.031 C 
ATOM     60  C   UNL A   1      46.104  24.324  28.809  1.00  0.00     0.029 A 
ATOM     61  C   UNL A   1      45.814  25.622  29.199  1.00  0.00     0.049 A 
ATOM     62  H   UNL A   1      43.988  26.671  29.082  1.00  0.00     0.167 HD
ATOM     63  C   UNL A   1      46.330  27.856  30.135  1.00  0.00     0.074 A 
ATOM     64  C   UNL A   1      47.224  28.817  30.746  1.00  0.00     0.031 C 
ATOM     65  C   UNL A   1      46.688  26.594  29.799  1.00  0.00     0.031 A 
BRANCH  52  66
ATOM     66  C   UNL A   1      42.093  23.213  27.464  1.00  0.00    -0.014 A 
ATOM     67  C   UNL A   1      42.187  22.878  26.105  1.00  0.00     0.009 A 
ATOM     68  C   UNL A   1      41.604  22.261  28.371  1.00  0.00     0.009 A 
ATOM     69  C   UNL A   1      41.782  21.617  25.662  1.00  0.00     0.001 A 
ATOM     70  C   UNL A   1      41.223  20.993  27.928  1.00  0.00     0.001 A 
ATOM     71  C   UNL A   1      41.308  20.674  26.574  1.00  0.00     0.000 A 
ENDBRANCH  52  66
BRANCH  53  72
ATOM     72  C   UNL A   1      44.651  32.124  31.169  1.00  0.00    -0.014 A 
ATOM     73  C   UNL A   1      44.868  32.228  32.552  1.00  0.00     0.009 A 
ATOM     74  C   UNL A   1      44.746  33.283  30.382  1.00  0.00     0.009 A 
ATOM     75  C   UNL A   1      45.134  33.468  33.137  1.00  0.00     0.001 A 
ATOM     76  C   UNL A   1      45.043  34.517  30.965  1.00  0.00     0.001 A 
ATOM     77  C   UNL A   1      45.224  34.611  32.343  1.00  0.00     0.000 A 
ENDBRANCH  53  72
BRANCH  65  78
ATOM     78  C   UNL A   1      48.115  26.188  30.044  1.00  0.00    -0.014 A 
ATOM     79  C   UNL A   1      49.096  26.336  29.052  1.00  0.00     0.009 A 
ATOM     80  C   UNL A   1      48.490  25.705  31.308  1.00  0.00     0.009 A 
ATOM     81  C   UNL A   1      50.421  25.977  29.313  1.00  0.00     0.001 A 
ATOM     82  C   UNL A   1      49.820  25.378  31.575  1.00  0.00     0.001 A 
ATOM     83  C   UNL A   1      50.782  25.505  30.575  1.00  0.00     0.000 A 
ENDBRANCH  65  78
ENDBRANCH  39  40
ENDBRANCH  32  34
ENDBRANCH  31  32
ENDBRANCH  30  31
ENDBRANCH  29  30
ENDBRANCH  28  29
ENDBRANCH  27  28
ENDBRANCH  26  27
ENDBRANCH   1  26
TORSDOF 22
ENDMDL
MODEL 2
REMARK VINA RESULT:      -6.9      5.813     11.934
REMARK SMILES C[C@@H]1CC[C@@](C(=O)OCCOCCOCCOCCOC(=O)c2ccc(-c3c4nc(c(-c5ccccc5)c5ccc([nH]5)c(-c5ccccc5)c5nc(c(-c6ccccc6)c6ccc3[nH]6)C=C5)C=C4)cc2)([C@@H]2CCC[C@H](S(C)(=O)=O)C2)C1
REMARK SMILES IDX 14 1 13 2 12 3 11 4 10 5 9 6 8 7 6 8 7 9 5 10 1 11 2 12 3 13
REMARK SMILES IDX 81 14 4 15 71 16 72 17 80 18 73 19 75 20 74 21 76 22 77 23
REMARK SMILES IDX 78 24 79 25 15 26 16 27 17 28 18 29 19 30 20 31 21 32 22 33
REMARK SMILES IDX 23 34 24 35 70 36 25 37 69 38 26 39 27 40 28 41 63 42 29 43
REMARK SMILES IDX 68 44 62 45 64 46 30 47 67 48 61 49 60 50 31 52 53 53 38 54
REMARK SMILES IDX 52 55 39 56 42 57 51 58 65 59 40 60 41 61 50 63 66 64 43 65
REMARK SMILES IDX 32 66 33 67 37 68 34 69 36 70 35 71 54 72 55 73 59 74 56 75
REMARK SMILES IDX 58 76 57 77 44 78 45 79 49 80 46 81 48 82 47 83
REMARK H PARENT 64 51 42 62
REMARK Flexibility Score: inf
ROOT
ATOM      1  O   UNL A   1      32.285  28.235  25.572  1.00  0.00    -0.377 OA
ENDROOT
BRANCH   1   2
ATOM      2  C   UNL A   1      33.486  28.226  24.838  1.00  0.00     0.188 C 
BRANCH   2   3
ATOM      3  C   UNL A   1      33.436  28.487  23.330  1.00  0.00     0.188 C 
BRANCH   3   4
ATOM      4  O   UNL A   1      32.515  27.708  22.577  1.00  0.00    -0.376 OA
BRANCH   4   5
ATOM      5  C   UNL A   1      32.932  26.503  21.949  1.00  0.00     0.202 C 
BRANCH   5   6
ATOM      6  C   UNL A   1      33.554  25.324  22.723  1.00  0.00     0.261 C 
BRANCH   6   7
ATOM      7  O   UNL A   1      33.067  24.009  22.380  1.00  0.00    -0.463 OA
BRANCH   7   8
ATOM      8  C   UNL A   1      32.105  23.496  23.186  1.00  0.00     0.312 C 
ATOM      9  O   UNL A   1      30.928  23.837  23.109  1.00  0.00    -0.252 OA
BRANCH   8  10
ATOM     10  C   UNL A   1      32.611  22.506  24.274  1.00  0.00     0.071 C 
ATOM     11  C   UNL A   1      31.882  24.746  26.546  1.00  0.00     0.007 C 
ATOM     12  C   UNL A   1      31.979  23.216  26.576  1.00  0.00    -0.013 C 
ATOM     13  C   UNL A   1      33.427  22.766  26.600  1.00  0.00     0.004 C 
ATOM     14  C   UNL A   1      31.452  22.502  25.317  1.00  0.00     0.022 C 
ATOM     15  C   UNL A   1      33.850  22.888  25.139  1.00  0.00     0.019 C 
BRANCH  10  16
ATOM     16  C   UNL A   1      32.865  21.134  23.500  1.00  0.00     0.008 C 
ATOM     17  C   UNL A   1      31.873  20.796  22.379  1.00  0.00     0.005 C 
ATOM     18  C   UNL A   1      32.932  19.938  24.488  1.00  0.00     0.024 C 
ATOM     19  C   UNL A   1      32.238  19.464  21.712  1.00  0.00     0.002 C 
ATOM     20  C   UNL A   1      33.180  18.559  23.867  1.00  0.00     0.108 C 
ATOM     21  C   UNL A   1      32.229  18.304  22.703  1.00  0.00     0.020 C 
BRANCH  20  22
ATOM     22  S   UNL A   1      33.006  17.307  25.175  1.00  0.00     0.150 S 
ATOM     23  C   UNL A   1      34.598  16.527  25.289  1.00  0.00     0.158 C 
ATOM     24  O   UNL A   1      32.784  18.007  26.426  1.00  0.00    -0.229 OA
ATOM     25  O   UNL A   1      32.058  16.303  24.728  1.00  0.00    -0.229 OA
ENDBRANCH  20  22
ENDBRANCH  10  16
ENDBRANCH   8  10
ENDBRANCH   7   8
ENDBRANCH   6   7
ENDBRANCH   5   6
ENDBRANCH   4   5
ENDBRANCH   3   4
ENDBRANCH   2   3
ENDBRANCH   1   2
BRANCH   1  26
ATOM     26  C   UNL A   1      32.368  28.833  26.843  1.00  0.00     0.188 C 
BRANCH  26  27
ATOM     27  C   UNL A   1      31.821  30.263  26.861  1.00  0.00     0.188 C 
BRANCH  27  28
ATOM     28  O   UNL A   1      32.666  31.392  27.093  1.00  0.00    -0.376 OA
BRANCH  28  29
ATOM     29  C   UNL A   1      32.108  32.681  27.313  1.00  0.00     0.202 C 
BRANCH  29  30
ATOM     30  C   UNL A   1      33.146  33.726  27.757  1.00  0.00     0.261 C 
BRANCH  30  31
ATOM     31  O   UNL A   1      32.611  34.840  28.494  1.00  0.00    -0.460 OA
BRANCH  31  32
ATOM     32  C   UNL A   1      33.322  35.228  29.579  1.00  0.00     0.338 C 
ATOM     33  O   UNL A   1      33.072  36.137  30.355  1.00  0.00    -0.246 OA
BRANCH  32  34
ATOM     34  C   UNL A   1      34.439  34.280  29.788  1.00  0.00     0.060 A 
ATOM     35  C   UNL A   1      34.221  33.157  30.599  1.00  0.00     0.016 A 
ATOM     36  C   UNL A   1      35.683  34.484  29.186  1.00  0.00     0.016 A 
ATOM     37  C   UNL A   1      35.248  32.241  30.819  1.00  0.00     0.010 A 
ATOM     38  C   UNL A   1      36.727  33.589  29.443  1.00  0.00     0.010 A 
ATOM     39  C   UNL A   1      36.519  32.480  30.283  1.00  0.00    -0.014 A 
BRANCH  39  40
ATOM     40  C   UNL A   1      37.675  31.710  30.799  1.00  0.00     0.031 A 
ATOM     41  C   UNL A   1      38.183  32.048  32.174  1.00  0.00     0.074 A 
ATOM     42  C   UNL A   1      38.247  30.725  30.086  1.00  0.00     0.049 A 
ATOM     43  N   UNL A   1      39.189  31.540  32.836  1.00  0.00    -0.248 NA
ATOM     44  C   UNL A   1      37.455  33.105  32.901  1.00  0.00     0.031 C 
ATOM     45  C   UNL A   1      37.819  30.273  28.762  1.00  0.00     0.029 A 
ATOM     46  N   UNL A   1      39.326  29.929  30.381  1.00  0.00    -0.354 N 
ATOM     47  C   UNL A   1      39.220  32.218  34.049  1.00  0.00     0.074 A 
ATOM     48  C   UNL A   1      38.144  33.182  34.029  1.00  0.00     0.031 C 
ATOM     49  C   UNL A   1      38.643  29.292  28.351  1.00  0.00     0.029 A 
ATOM     50  C   UNL A   1      39.671  29.069  29.367  1.00  0.00     0.049 A 
ATOM     51  H   UNL A   1      39.808  29.971  31.238  1.00  0.00     0.167 HD
ATOM     52  C   UNL A   1      40.070  32.054  35.086  1.00  0.00     0.031 A 
ATOM     53  C   UNL A   1      40.713  28.220  29.265  1.00  0.00     0.031 A 
ATOM     54  C   UNL A   1      41.147  31.104  35.103  1.00  0.00     0.049 A 
ATOM     55  C   UNL A   1      41.689  28.109  30.410  1.00  0.00     0.074 A 
ATOM     56  C   UNL A   1      42.048  30.846  36.121  1.00  0.00     0.029 A 
ATOM     57  N   UNL A   1      41.477  30.271  34.048  1.00  0.00    -0.354 N 
ATOM     58  N   UNL A   1      41.678  28.719  31.571  1.00  0.00    -0.248 NA
ATOM     59  C   UNL A   1      42.819  27.184  30.231  1.00  0.00     0.031 C 
ATOM     60  C   UNL A   1      42.962  29.894  35.658  1.00  0.00     0.029 A 
ATOM     61  C   UNL A   1      42.592  29.520  34.376  1.00  0.00     0.049 A 
ATOM     62  H   UNL A   1      40.992  30.220  33.194  1.00  0.00     0.167 HD
ATOM     63  C   UNL A   1      42.777  28.232  32.269  1.00  0.00     0.074 A 
ATOM     64  C   UNL A   1      43.424  27.264  31.408  1.00  0.00     0.031 C 
ATOM     65  C   UNL A   1      43.215  28.556  33.509  1.00  0.00     0.031 A 
BRANCH  52  66
ATOM     66  C   UNL A   1      39.898  32.953  36.276  1.00  0.00    -0.014 A 
ATOM     67  C   UNL A   1      39.049  32.608  37.337  1.00  0.00     0.009 A 
ATOM     68  C   UNL A   1      40.639  34.142  36.353  1.00  0.00     0.009 A 
ATOM     69  C   UNL A   1      38.932  33.447  38.447  1.00  0.00     0.001 A 
ATOM     70  C   UNL A   1      40.538  34.967  37.474  1.00  0.00     0.001 A 
ATOM     71  C   UNL A   1      39.681  34.621  38.518  1.00  0.00     0.000 A 
ENDBRANCH  52  66
BRANCH  53  72
ATOM     72  C   UNL A   1      40.931  27.437  28.018  1.00  0.00    -0.014 A 
ATOM     73  C   UNL A   1      41.728  27.940  26.978  1.00  0.00     0.009 A 
ATOM     74  C   UNL A   1      40.286  26.203  27.839  1.00  0.00     0.009 A 
ATOM     75  C   UNL A   1      41.844  27.242  25.774  1.00  0.00     0.001 A 
ATOM     76  C   UNL A   1      40.429  25.492  26.645  1.00  0.00     0.001 A 
ATOM     77  C   UNL A   1      41.197  26.018  25.609  1.00  0.00     0.000 A 
ENDBRANCH  53  72
BRANCH  65  78
ATOM     78  C   UNL A   1      44.426  27.833  34.029  1.00  0.00    -0.014 A 
ATOM     79  C   UNL A   1      45.716  28.358  33.864  1.00  0.00     0.009 A 
ATOM     80  C   UNL A   1      44.263  26.636  34.744  1.00  0.00     0.009 A 
ATOM     81  C   UNL A   1      46.823  27.680  34.380  1.00  0.00     0.001 A 
ATOM     82  C   UNL A   1      45.368  25.978  35.286  1.00  0.00     0.001 A 
ATOM     83  C   UNL A   1      46.648  26.496  35.095  1.00  0.00     0.000 A 
ENDBRANCH  65  78
ENDBRANCH  39  40
ENDBRANCH  32  34
ENDBRANCH  31  32
ENDBRANCH  30  31
ENDBRANCH  29  30
ENDBRANCH  28  29
ENDBRANCH  27  28
ENDBRANCH  26  27
ENDBRANCH   1  26
TORSDOF 22
ENDMDL
MODEL 3
REMARK VINA RESULT:      -6.7      4.211     10.058
REMARK SMILES C[C@@H]1CC[C@@](C(=O)OCCOCCOCCOCCOC(=O)c2ccc(-c3c4nc(c(-c5ccccc5)c5ccc([nH]5)c(-c5ccccc5)c5nc(c(-c6ccccc6)c6ccc3[nH]6)C=C5)C=C4)cc2)([C@@H]2CCC[C@H](S(C)(=O)=O)C2)C1
REMARK SMILES IDX 14 1 13 2 12 3 11 4 10 5 9 6 8 7 6 8 7 9 5 10 1 11 2 12 3 13
REMARK SMILES IDX 81 14 4 15 71 16 72 17 80 18 73 19 75 20 74 21 76 22 77 23
REMARK SMILES IDX 78 24 79 25 15 26 16 27 17 28 18 29 19 30 20 31 21 32 22 33
REMARK SMILES IDX 23 34 24 35 70 36 25 37 69 38 26 39 27 40 28 41 63 42 29 43
REMARK SMILES IDX 68 44 62 45 64 46 30 47 67 48 61 49 60 50 31 52 53 53 38 54
REMARK SMILES IDX 52 55 39 56 42 57 51 58 65 59 40 60 41 61 50 63 66 64 43 65
REMARK SMILES IDX 32 66 33 67 37 68 34 69 36 70 35 71 54 72 55 73 59 74 56 75
REMARK SMILES IDX 58 76 57 77 44 78 45 79 49 80 46 81 48 82 47 83
REMARK H PARENT 64 51 42 62
REMARK Flexibility Score: inf
ROOT
ATOM      1  O   UNL A   1      34.023  33.141  31.532  1.00  0.00    -0.377 OA
ENDROOT
BRANCH   1   2
ATOM      2  C   UNL A   1      34.828  33.367  30.400  1.00  0.00     0.188 C 
BRANCH   2   3
ATOM      3  C   UNL A   1      35.802  32.274  29.951  1.00  0.00     0.188 C 
BRANCH   3   4
ATOM      4  O   UNL A   1      35.238  31.150  29.287  1.00  0.00    -0.376 OA
BRANCH   4   5
ATOM      5  C   UNL A   1      35.172  31.108  27.867  1.00  0.00     0.202 C 
BRANCH   5   6
ATOM      6  C   UNL A   1      33.895  30.717  27.097  1.00  0.00     0.261 C 
BRANCH   6   7
ATOM      7  O   UNL A   1      33.946  29.472  26.368  1.00  0.00    -0.463 OA
BRANCH   7   8
ATOM      8  C   UNL A   1      32.975  28.569  26.651  1.00  0.00     0.312 C 
ATOM      9  O   UNL A   1      32.507  28.434  27.778  1.00  0.00    -0.252 OA
BRANCH   8  10
ATOM     10  C   UNL A   1      32.555  27.655  25.464  1.00  0.00     0.071 C 
ATOM     11  C   UNL A   1      30.649  30.079  24.368  1.00  0.00     0.007 C 
ATOM     12  C   UNL A   1      31.354  28.906  23.677  1.00  0.00    -0.013 C 
ATOM     13  C   UNL A   1      30.613  27.607  23.925  1.00  0.00     0.004 C 
ATOM     14  C   UNL A   1      32.757  28.573  24.220  1.00  0.00     0.022 C 
ATOM     15  C   UNL A   1      31.066  27.214  25.328  1.00  0.00     0.019 C 
BRANCH  10  16
ATOM     16  C   UNL A   1      33.513  26.383  25.563  1.00  0.00     0.008 C 
ATOM     17  C   UNL A   1      34.131  25.897  24.245  1.00  0.00     0.005 C 
ATOM     18  C   UNL A   1      32.790  25.190  26.247  1.00  0.00     0.024 C 
ATOM     19  C   UNL A   1      35.036  24.682  24.482  1.00  0.00     0.002 C 
ATOM     20  C   UNL A   1      33.610  23.905  26.409  1.00  0.00     0.108 C 
ATOM     21  C   UNL A   1      34.275  23.510  25.095  1.00  0.00     0.020 C 
BRANCH  20  22
ATOM     22  S   UNL A   1      32.504  22.601  27.031  1.00  0.00     0.150 S 
ATOM     23  C   UNL A   1      31.911  21.762  25.582  1.00  0.00     0.158 C 
ATOM     24  O   UNL A   1      33.316  21.652  27.771  1.00  0.00    -0.229 OA
ATOM     25  O   UNL A   1      31.364  23.231  27.670  1.00  0.00    -0.229 OA
ENDBRANCH  20  22
ENDBRANCH  10  16
ENDBRANCH   8  10
ENDBRANCH   7   8
ENDBRANCH   6   7
ENDBRANCH   5   6
ENDBRANCH   4   5
ENDBRANCH   3   4
ENDBRANCH   2   3
ENDBRANCH   1   2
BRANCH   1  26
ATOM     26  C   UNL A   1      34.113  34.125  32.534  1.00  0.00     0.188 C 
BRANCH  26  27
ATOM     27  C   UNL A   1      35.527  34.697  32.675  1.00  0.00     0.188 C 
BRANCH  27  28
ATOM     28  O   UNL A   1      36.151  34.862  33.949  1.00  0.00    -0.376 OA
BRANCH  28  29
ATOM     29  C   UNL A   1      35.854  33.976  35.021  1.00  0.00     0.202 C 
BRANCH  29  30
ATOM     30  C   UNL A   1      37.048  33.738  35.962  1.00  0.00     0.261 C 
BRANCH  30  31
ATOM     31  O   UNL A   1      38.195  33.126  35.346  1.00  0.00    -0.460 OA
BRANCH  31  32
ATOM     32  C   UNL A   1      38.379  31.811  35.612  1.00  0.00     0.338 C 
ATOM     33  O   UNL A   1      37.990  31.179  36.581  1.00  0.00    -0.246 OA
BRANCH  32  34
ATOM     34  C   UNL A   1      39.045  31.174  34.454  1.00  0.00     0.060 A 
ATOM     35  C   UNL A   1      39.782  30.000  34.669  1.00  0.00     0.016 A 
ATOM     36  C   UNL A   1      38.939  31.714  33.171  1.00  0.00     0.016 A 
ATOM     37  C   UNL A   1      40.424  29.370  33.604  1.00  0.00     0.010 A 
ATOM     38  C   UNL A   1      39.620  31.107  32.110  1.00  0.00     0.010 A 
ATOM     39  C   UNL A   1      40.387  29.949  32.330  1.00  0.00    -0.014 A 
BRANCH  39  40
ATOM     40  C   UNL A   1      41.341  29.481  31.297  1.00  0.00     0.031 A 
ATOM     41  C   UNL A   1      42.625  30.248  31.134  1.00  0.00     0.074 A 
ATOM     42  C   UNL A   1      41.094  28.398  30.541  1.00  0.00     0.049 A 
ATOM     43  N   UNL A   1      43.605  30.055  30.291  1.00  0.00    -0.248 NA
ATOM     44  C   UNL A   1      42.830  31.387  32.047  1.00  0.00     0.031 C 
ATOM     45  C   UNL A   1      39.909  27.546  30.635  1.00  0.00     0.029 A 
ATOM     46  N   UNL A   1      41.835  27.835  29.531  1.00  0.00    -0.354 N 
ATOM     47  C   UNL A   1      44.536  31.050  30.565  1.00  0.00     0.074 A 
ATOM     48  C   UNL A   1      44.001  31.853  31.641  1.00  0.00     0.031 C 
ATOM     49  C   UNL A   1      39.994  26.580  29.703  1.00  0.00     0.029 A 
ATOM     50  C   UNL A   1      41.223  26.762  28.930  1.00  0.00     0.049 A 
ATOM     51  H   UNL A   1      42.721  28.169  29.262  1.00  0.00     0.167 HD
ATOM     52  C   UNL A   1      45.729  31.278  29.972  1.00  0.00     0.031 A 
ATOM     53  C   UNL A   1      41.603  26.031  27.864  1.00  0.00     0.031 A 
ATOM     54  C   UNL A   1      46.257  30.489  28.895  1.00  0.00     0.049 A 
ATOM     55  C   UNL A   1      42.906  26.352  27.175  1.00  0.00     0.074 A 
ATOM     56  C   UNL A   1      47.471  30.625  28.245  1.00  0.00     0.029 A 
ATOM     57  N   UNL A   1      45.596  29.427  28.300  1.00  0.00    -0.354 N 
ATOM     58  N   UNL A   1      43.800  27.263  27.477  1.00  0.00    -0.248 NA
ATOM     59  C   UNL A   1      43.255  25.537  26.002  1.00  0.00     0.031 C 
ATOM     60  C   UNL A   1      47.518  29.680  27.215  1.00  0.00     0.029 A 
ATOM     61  C   UNL A   1      46.360  28.920  27.265  1.00  0.00     0.049 A 
ATOM     62  H   UNL A   1      44.714  29.086  28.573  1.00  0.00     0.167 HD
ATOM     63  C   UNL A   1      44.826  27.111  26.552  1.00  0.00     0.074 A 
ATOM     64  C   UNL A   1      44.453  26.010  25.689  1.00  0.00     0.031 C 
ATOM     65  C   UNL A   1      45.975  27.819  26.424  1.00  0.00     0.031 A 
BRANCH  52  66
ATOM     66  C   UNL A   1      46.529  32.456  30.447  1.00  0.00    -0.014 A 
ATOM     67  C   UNL A   1      46.438  33.704  29.814  1.00  0.00     0.009 A 
ATOM     68  C   UNL A   1      47.348  32.321  31.578  1.00  0.00     0.009 A 
ATOM     69  C   UNL A   1      47.170  34.792  30.295  1.00  0.00     0.001 A 
ATOM     70  C   UNL A   1      48.059  33.416  32.071  1.00  0.00     0.001 A 
ATOM     71  C   UNL A   1      47.972  34.649  31.427  1.00  0.00     0.000 A 
ENDBRANCH  52  66
BRANCH  53  72
ATOM     72  C   UNL A   1      40.724  24.952  27.335  1.00  0.00    -0.014 A 
ATOM     73  C   UNL A   1      39.571  25.256  26.595  1.00  0.00     0.009 A 
ATOM     74  C   UNL A   1      41.006  23.608  27.626  1.00  0.00     0.009 A 
ATOM     75  C   UNL A   1      38.701  24.240  26.190  1.00  0.00     0.001 A 
ATOM     76  C   UNL A   1      40.151  22.592  27.193  1.00  0.00     0.001 A 
ATOM     77  C   UNL A   1      38.993  22.909  26.487  1.00  0.00     0.000 A 
ENDBRANCH  53  72
BRANCH  65  78
ATOM     78  C   UNL A   1      46.931  27.402  25.341  1.00  0.00    -0.014 A 
ATOM     79  C   UNL A   1      47.886  26.399  25.558  1.00  0.00     0.009 A 
ATOM     80  C   UNL A   1      46.832  27.986  24.068  1.00  0.00     0.009 A 
ATOM     81  C   UNL A   1      48.746  26.010  24.528  1.00  0.00     0.001 A 
ATOM     82  C   UNL A   1      47.671  27.574  23.032  1.00  0.00     0.001 A 
ATOM     83  C   UNL A   1      48.633  26.593  23.266  1.00  0.00     0.000 A 
ENDBRANCH  65  78
ENDBRANCH  39  40
ENDBRANCH  32  34
ENDBRANCH  31  32
ENDBRANCH  30  31
ENDBRANCH  29  30
ENDBRANCH  28  29
ENDBRANCH  27  28
ENDBRANCH  26  27
ENDBRANCH   1  26
TORSDOF 22
ENDMDL
