MODEL 1
REMARK VINA RESULT:     -10.3      0.000      0.000
REMARK SMILES CSc1ccc(C=C2C(C)=C(CC(=O)OCCOCCOCCOCCOC(=O)c3ccc(-c4c5nc(c(-c6ccccc6)c6ccc([nH]6)c(-c6ccccc6)c6nc(c(-c7ccccc7)c7ccc4[nH]7)C=C6)C=C5)cc3)c3cc(F)ccc32)cc1
REMARK SMILES IDX 20 1 19 2 18 3 17 4 16 5 15 6 13 7 14 8 12 9 11 10 7 11 8 12
REMARK SMILES IDX 9 13 84 14 10 15 78 16 83 17 79 18 82 19 80 20 81 21 6 22
REMARK SMILES IDX 3 23 4 24 86 25 5 26 85 27 2 28 1 29 21 30 22 31 23 32 24 33
REMARK SMILES IDX 25 34 26 35 27 36 28 37 29 38 30 39 31 40 77 41 32 42 76 43
REMARK SMILES IDX 33 44 34 45 35 46 70 47 36 48 75 49 69 50 71 51 37 52 74 53
REMARK SMILES IDX 68 54 67 55 38 57 60 58 45 59 59 60 46 61 49 62 58 63 72 64
REMARK SMILES IDX 47 65 48 66 57 68 73 69 50 70 39 71 40 72 44 73 41 74 43 75
REMARK SMILES IDX 42 76 61 77 62 78 66 79 63 80 65 81 64 82 51 83 52 84 56 85
REMARK SMILES IDX 53 86 55 87 54 88
REMARK H PARENT 71 56 49 67
REMARK Flexibility Score: inf
ROOT
ATOM      1  C   UNL A   1      31.703  22.668  26.154  1.00  0.00     0.188 C 
ENDROOT
BRANCH   1   2
ATOM      2  C   UNL A   1      31.004  24.010  26.340  1.00  0.00     0.188 C 
BRANCH   2   3
ATOM      3  O   UNL A   1      30.210  24.425  25.259  1.00  0.00    -0.376 OA
BRANCH   3   4
ATOM      4  C   UNL A   1      29.688  25.733  25.161  1.00  0.00     0.202 C 
BRANCH   4   5
ATOM      5  C   UNL A   1      29.090  26.415  23.908  1.00  0.00     0.261 C 
BRANCH   5   6
ATOM      6  O   UNL A   1      29.438  27.768  23.599  1.00  0.00    -0.463 OA
BRANCH   6   7
ATOM      7  C   UNL A   1      30.325  27.997  22.599  1.00  0.00     0.310 C 
ATOM      8  O   UNL A   1      30.375  29.039  21.959  1.00  0.00    -0.252 OA
BRANCH   7   9
ATOM      9  C   UNL A   1      31.219  26.785  22.315  1.00  0.00     0.159 C 
BRANCH   9  10
ATOM     10  C   UNL A   1      32.629  26.816  22.863  1.00  0.00    -0.025 C 
ATOM     11  C   UNL A   1      32.336  27.908  25.912  1.00  0.00     0.017 C 
ATOM     12  C   UNL A   1      33.168  27.334  25.014  1.00  0.00    -0.014 C 
ATOM     13  C   UNL A   1      33.165  27.825  23.610  1.00  0.00    -0.039 C 
ATOM     14  C   UNL A   1      33.493  25.893  24.863  1.00  0.00    -0.010 A 
ATOM     15  C   UNL A   1      34.663  28.216  23.418  1.00  0.00     0.045 C 
ATOM     16  C   UNL A   1      33.157  25.587  23.522  1.00  0.00    -0.011 A 
ATOM     17  C   UNL A   1      34.493  25.182  25.514  1.00  0.00     0.012 A 
ATOM     18  C   UNL A   1      33.753  24.531  22.839  1.00  0.00     0.048 A 
ATOM     19  C   UNL A   1      35.168  24.182  24.794  1.00  0.00     0.040 A 
ATOM     20  C   UNL A   1      34.795  23.869  23.480  1.00  0.00     0.123 A 
ATOM     21  F   UNL A   1      35.550  23.016  22.772  1.00  0.00    -0.207 F 
BRANCH  11  22
ATOM     22  C   UNL A   1      32.942  28.960  26.794  1.00  0.00    -0.025 A 
ATOM     23  C   UNL A   1      34.351  31.165  27.789  1.00  0.00     0.007 A 
ATOM     24  C   UNL A   1      33.006  31.292  27.480  1.00  0.00     0.015 A 
ATOM     25  C   UNL A   1      34.918  29.888  27.839  1.00  0.00     0.015 A 
ATOM     26  C   UNL A   1      32.300  30.176  27.053  1.00  0.00     0.009 A 
ATOM     27  C   UNL A   1      34.215  28.783  27.331  1.00  0.00     0.009 A 
BRANCH  23  28
ATOM     28  S   UNL A   1      35.318  32.660  27.828  1.00  0.00    -0.130 SA
ATOM     29  C   UNL A   1      34.057  33.877  28.216  1.00  0.00     0.091 C 
ENDBRANCH  23  28
ENDBRANCH  11  22
ENDBRANCH   9  10
ENDBRANCH   7   9
ENDBRANCH   6   7
ENDBRANCH   5   6
ENDBRANCH   4   5
ENDBRANCH   3   4
ENDBRANCH   2   3
ENDBRANCH   1   2
BRANCH   1  30
ATOM     30  O   UNL A   1      31.660  21.923  24.958  1.00  0.00    -0.377 OA
BRANCH  30  31
ATOM     31  C   UNL A   1      32.249  20.652  25.026  1.00  0.00     0.188 C 
BRANCH  31  32
ATOM     32  C   UNL A   1      33.674  20.773  25.555  1.00  0.00     0.188 C 
BRANCH  32  33
ATOM     33  O   UNL A   1      34.731  20.586  24.631  1.00  0.00    -0.376 OA
BRANCH  33  34
ATOM     34  C   UNL A   1      36.033  20.149  25.004  1.00  0.00     0.202 C 
BRANCH  34  35
ATOM     35  C   UNL A   1      37.399  20.841  24.773  1.00  0.00     0.261 C 
BRANCH  35  36
ATOM     36  O   UNL A   1      37.926  21.704  25.773  1.00  0.00    -0.460 OA
BRANCH  36  37
ATOM     37  C   UNL A   1      39.181  21.430  26.187  1.00  0.00     0.338 C 
ATOM     38  O   UNL A   1      39.814  20.412  26.033  1.00  0.00    -0.246 OA
BRANCH  37  39
ATOM     39  C   UNL A   1      39.734  22.701  26.691  1.00  0.00     0.060 A 
ATOM     40  C   UNL A   1      39.204  23.890  26.176  1.00  0.00     0.016 A 
ATOM     41  C   UNL A   1      40.727  22.719  27.673  1.00  0.00     0.016 A 
ATOM     42  C   UNL A   1      39.667  25.110  26.643  1.00  0.00     0.010 A 
ATOM     43  C   UNL A   1      41.231  23.946  28.104  1.00  0.00     0.010 A 
ATOM     44  C   UNL A   1      40.720  25.139  27.564  1.00  0.00    -0.014 A 
BRANCH  44  45
ATOM     45  C   UNL A   1      41.446  26.411  27.731  1.00  0.00     0.031 A 
ATOM     46  C   UNL A   1      40.799  27.469  28.575  1.00  0.00     0.074 A 
ATOM     47  C   UNL A   1      42.671  26.587  27.216  1.00  0.00     0.049 A 
ATOM     48  N   UNL A   1      41.246  28.650  28.915  1.00  0.00    -0.248 NA
ATOM     49  C   UNL A   1      39.466  27.147  29.114  1.00  0.00     0.031 C 
ATOM     50  C   UNL A   1      43.411  25.599  26.433  1.00  0.00     0.029 A 
ATOM     51  N   UNL A   1      43.510  27.667  27.285  1.00  0.00    -0.354 N 
ATOM     52  C   UNL A   1      40.247  29.210  29.701  1.00  0.00     0.074 A 
ATOM     53  C   UNL A   1      39.160  28.259  29.759  1.00  0.00     0.031 C 
ATOM     54  C   UNL A   1      44.597  26.126  26.085  1.00  0.00     0.029 A 
ATOM     55  C   UNL A   1      44.681  27.494  26.595  1.00  0.00     0.049 A 
ATOM     56  H   UNL A   1      43.292  28.489  27.782  1.00  0.00     0.167 HD
ATOM     57  C   UNL A   1      40.237  30.412  30.320  1.00  0.00     0.031 A 
ATOM     58  C   UNL A   1      45.695  28.354  26.387  1.00  0.00     0.031 A 
ATOM     59  C   UNL A   1      41.308  31.366  30.220  1.00  0.00     0.049 A 
ATOM     60  C   UNL A   1      45.629  29.723  27.011  1.00  0.00     0.074 A 
ATOM     61  C   UNL A   1      41.410  32.615  30.802  1.00  0.00     0.029 A 
ATOM     62  N   UNL A   1      42.458  31.178  29.465  1.00  0.00    -0.354 N 
ATOM     63  N   UNL A   1      44.696  30.239  27.776  1.00  0.00    -0.248 NA
ATOM     64  C   UNL A   1      46.763  30.621  26.755  1.00  0.00     0.031 C 
ATOM     65  C   UNL A   1      42.587  33.212  30.341  1.00  0.00     0.029 A 
ATOM     66  C   UNL A   1      43.259  32.303  29.536  1.00  0.00     0.049 A 
ATOM     67  H   UNL A   1      42.673  30.363  28.955  1.00  0.00     0.167 HD
ATOM     68  C   UNL A   1      45.140  31.512  28.113  1.00  0.00     0.074 A 
ATOM     69  C   UNL A   1      46.434  31.681  27.481  1.00  0.00     0.031 C 
ATOM     70  C   UNL A   1      44.537  32.453  28.883  1.00  0.00     0.031 A 
BRANCH  57  71
ATOM     71  C   UNL A   1      38.994  30.773  31.086  1.00  0.00    -0.014 A 
ATOM     72  C   UNL A   1      37.971  31.550  30.516  1.00  0.00     0.009 A 
ATOM     73  C   UNL A   1      38.863  30.358  32.421  1.00  0.00     0.009 A 
ATOM     74  C   UNL A   1      36.875  31.950  31.283  1.00  0.00     0.001 A 
ATOM     75  C   UNL A   1      37.749  30.728  33.174  1.00  0.00     0.001 A 
ATOM     76  C   UNL A   1      36.763  31.536  32.610  1.00  0.00     0.000 A 
ENDBRANCH  57  71
BRANCH  58  77
ATOM     77  C   UNL A   1      46.840  27.945  25.532  1.00  0.00    -0.014 A 
ATOM     78  C   UNL A   1      47.983  27.354  26.088  1.00  0.00     0.009 A 
ATOM     79  C   UNL A   1      46.777  28.123  24.139  1.00  0.00     0.009 A 
ATOM     80  C   UNL A   1      49.044  26.960  25.268  1.00  0.00     0.001 A 
ATOM     81  C   UNL A   1      47.826  27.701  23.321  1.00  0.00     0.001 A 
ATOM     82  C   UNL A   1      48.960  27.125  23.886  1.00  0.00     0.000 A 
ENDBRANCH  58  77
BRANCH  70  83
ATOM     83  C   UNL A   1      45.286  33.740  29.111  1.00  0.00    -0.014 A 
ATOM     84  C   UNL A   1      46.317  33.832  30.059  1.00  0.00     0.009 A 
ATOM     85  C   UNL A   1      44.984  34.863  28.325  1.00  0.00     0.009 A 
ATOM     86  C   UNL A   1      47.001  35.037  30.241  1.00  0.00     0.001 A 
ATOM     87  C   UNL A   1      45.693  36.053  28.484  1.00  0.00     0.001 A 
ATOM     88  C   UNL A   1      46.693  36.143  29.450  1.00  0.00     0.000 A 
ENDBRANCH  70  83
ENDBRANCH  44  45
ENDBRANCH  37  39
ENDBRANCH  36  37
ENDBRANCH  35  36
ENDBRANCH  34  35
ENDBRANCH  33  34
ENDBRANCH  32  33
ENDBRANCH  31  32
ENDBRANCH  30  31
ENDBRANCH   1  30
TORSDOF 23
ENDMDL
MODEL 2
REMARK VINA RESULT:      -9.9      0.474      5.595
REMARK SMILES CSc1ccc(C=C2C(C)=C(CC(=O)OCCOCCOCCOCCOC(=O)c3ccc(-c4c5nc(c(-c6ccccc6)c6ccc([nH]6)c(-c6ccccc6)c6nc(c(-c7ccccc7)c7ccc4[nH]7)C=C6)C=C5)cc3)c3cc(F)ccc32)cc1
REMARK SMILES IDX 20 1 19 2 18 3 17 4 16 5 15 6 13 7 14 8 12 9 11 10 7 11 8 12
REMARK SMILES IDX 9 13 84 14 10 15 78 16 83 17 79 18 82 19 80 20 81 21 6 22
REMARK SMILES IDX 3 23 4 24 86 25 5 26 85 27 2 28 1 29 21 30 22 31 23 32 24 33
REMARK SMILES IDX 25 34 26 35 27 36 28 37 29 38 30 39 31 40 77 41 32 42 76 43
REMARK SMILES IDX 33 44 34 45 35 46 70 47 36 48 75 49 69 50 71 51 37 52 74 53
REMARK SMILES IDX 68 54 67 55 38 57 60 58 45 59 59 60 46 61 49 62 58 63 72 64
REMARK SMILES IDX 47 65 48 66 57 68 73 69 50 70 39 71 40 72 44 73 41 74 43 75
REMARK SMILES IDX 42 76 61 77 62 78 66 79 63 80 65 81 64 82 51 83 52 84 56 85
REMARK SMILES IDX 53 86 55 87 54 88
REMARK H PARENT 71 56 49 67
REMARK Flexibility Score: inf
ROOT
ATOM      1  C   UNL A   1      31.789  22.066  25.757  1.00  0.00     0.188 C 
ENDROOT
BRANCH   1   2
ATOM      2  C   UNL A   1      30.784  23.179  26.035  1.00  0.00     0.188 C 
BRANCH   2   3
ATOM      3  O   UNL A   1      30.465  23.983  24.930  1.00  0.00    -0.376 OA
BRANCH   3   4
ATOM      4  C   UNL A   1      29.999  25.309  25.067  1.00  0.00     0.202 C 
BRANCH   4   5
ATOM      5  C   UNL A   1      29.328  26.187  23.986  1.00  0.00     0.261 C 
BRANCH   5   6
ATOM      6  O   UNL A   1      29.615  27.588  23.927  1.00  0.00    -0.463 OA
BRANCH   6   7
ATOM      7  C   UNL A   1      30.195  28.083  22.806  1.00  0.00     0.310 C 
ATOM      8  O   UNL A   1      29.915  29.171  22.318  1.00  0.00    -0.252 OA
BRANCH   7   9
ATOM      9  C   UNL A   1      31.197  27.108  22.178  1.00  0.00     0.159 C 
BRANCH   9  10
ATOM     10  C   UNL A   1      32.597  27.080  22.752  1.00  0.00    -0.025 C 
ATOM     11  C   UNL A   1      32.284  28.131  25.814  1.00  0.00     0.017 C 
ATOM     12  C   UNL A   1      33.112  27.544  24.921  1.00  0.00    -0.014 C 
ATOM     13  C   UNL A   1      33.152  28.057  23.526  1.00  0.00    -0.039 C 
ATOM     14  C   UNL A   1      33.391  26.095  24.751  1.00  0.00    -0.010 A 
ATOM     15  C   UNL A   1      34.666  28.400  23.368  1.00  0.00     0.045 C 
ATOM     16  C   UNL A   1      33.069  25.823  23.399  1.00  0.00    -0.011 A 
ATOM     17  C   UNL A   1      34.353  25.340  25.408  1.00  0.00     0.012 A 
ATOM     18  C   UNL A   1      33.641  24.759  22.709  1.00  0.00     0.048 A 
ATOM     19  C   UNL A   1      35.006  24.329  24.683  1.00  0.00     0.040 A 
ATOM     20  C   UNL A   1      34.647  24.051  23.357  1.00  0.00     0.123 A 
ATOM     21  F   UNL A   1      35.386  23.184  22.648  1.00  0.00    -0.207 F 
BRANCH  11  22
ATOM     22  C   UNL A   1      32.909  29.147  26.725  1.00  0.00    -0.025 A 
ATOM     23  C   UNL A   1      34.423  31.246  27.793  1.00  0.00     0.007 A 
ATOM     24  C   UNL A   1      33.121  31.479  27.379  1.00  0.00     0.015 A 
ATOM     25  C   UNL A   1      34.873  29.927  27.906  1.00  0.00     0.015 A 
ATOM     26  C   UNL A   1      32.356  30.418  26.915  1.00  0.00     0.009 A 
ATOM     27  C   UNL A   1      34.118  28.874  27.361  1.00  0.00     0.009 A 
BRANCH  23  28
ATOM     28  S   UNL A   1      35.509  32.654  27.885  1.00  0.00    -0.130 SA
ATOM     29  C   UNL A   1      34.326  33.990  28.083  1.00  0.00     0.091 C 
ENDBRANCH  23  28
ENDBRANCH  11  22
ENDBRANCH   9  10
ENDBRANCH   7   9
ENDBRANCH   6   7
ENDBRANCH   5   6
ENDBRANCH   4   5
ENDBRANCH   3   4
ENDBRANCH   2   3
ENDBRANCH   1   2
BRANCH   1  30
ATOM     30  O   UNL A   1      31.537  20.981  24.894  1.00  0.00    -0.377 OA
BRANCH  30  31
ATOM     31  C   UNL A   1      32.558  20.022  24.826  1.00  0.00     0.188 C 
BRANCH  31  32
ATOM     32  C   UNL A   1      33.913  20.718  24.748  1.00  0.00     0.188 C 
BRANCH  32  33
ATOM     33  O   UNL A   1      35.056  19.903  24.566  1.00  0.00    -0.376 OA
BRANCH  33  34
ATOM     34  C   UNL A   1      36.281  20.098  25.265  1.00  0.00     0.202 C 
BRANCH  34  35
ATOM     35  C   UNL A   1      37.555  20.849  24.810  1.00  0.00     0.261 C 
BRANCH  35  36
ATOM     36  O   UNL A   1      38.099  21.873  25.634  1.00  0.00    -0.460 OA
BRANCH  36  37
ATOM     37  C   UNL A   1      39.328  21.635  26.138  1.00  0.00     0.338 C 
ATOM     38  O   UNL A   1      40.025  20.661  25.981  1.00  0.00    -0.246 OA
BRANCH  37  39
ATOM     39  C   UNL A   1      39.767  22.897  26.762  1.00  0.00     0.060 A 
ATOM     40  C   UNL A   1      39.115  24.074  26.376  1.00  0.00     0.016 A 
ATOM     41  C   UNL A   1      40.775  22.914  27.730  1.00  0.00     0.016 A 
ATOM     42  C   UNL A   1      39.470  25.281  26.958  1.00  0.00     0.010 A 
ATOM     43  C   UNL A   1      41.168  24.135  28.277  1.00  0.00     0.010 A 
ATOM     44  C   UNL A   1      40.534  25.320  27.866  1.00  0.00    -0.014 A 
BRANCH  44  45
ATOM     45  C   UNL A   1      41.138  26.634  28.153  1.00  0.00     0.031 A 
ATOM     46  C   UNL A   1      42.475  26.927  27.540  1.00  0.00     0.074 A 
ATOM     47  C   UNL A   1      40.484  27.561  28.868  1.00  0.00     0.049 A 
ATOM     48  N   UNL A   1      43.195  28.016  27.597  1.00  0.00    -0.248 NA
ATOM     49  C   UNL A   1      43.080  25.841  26.748  1.00  0.00     0.031 C 
ATOM     50  C   UNL A   1      39.156  27.397  29.455  1.00  0.00     0.029 A 
ATOM     51  N   UNL A   1      40.856  28.833  29.212  1.00  0.00    -0.354 N 
ATOM     52  C   UNL A   1      44.337  27.743  26.855  1.00  0.00     0.074 A 
ATOM     53  C   UNL A   1      44.231  26.379  26.388  1.00  0.00     0.031 C 
ATOM     54  C   UNL A   1      38.826  28.529  30.099  1.00  0.00     0.029 A 
ATOM     55  C   UNL A   1      39.933  29.480  29.992  1.00  0.00     0.049 A 
ATOM     56  H   UNL A   1      41.705  29.243  28.927  1.00  0.00     0.167 HD
ATOM     57  C   UNL A   1      45.382  28.558  26.586  1.00  0.00     0.031 A 
ATOM     58  C   UNL A   1      39.990  30.695  30.566  1.00  0.00     0.031 A 
ATOM     59  C   UNL A   1      45.494  29.899  27.091  1.00  0.00     0.049 A 
ATOM     60  C   UNL A   1      41.201  31.558  30.329  1.00  0.00     0.074 A 
ATOM     61  C   UNL A   1      46.505  30.818  26.886  1.00  0.00     0.029 A 
ATOM     62  N   UNL A   1      44.563  30.503  27.925  1.00  0.00    -0.354 N 
ATOM     63  N   UNL A   1      42.266  31.307  29.605  1.00  0.00    -0.248 NA
ATOM     64  C   UNL A   1      41.209  32.877  30.977  1.00  0.00     0.031 C 
ATOM     65  C   UNL A   1      46.221  31.952  27.655  1.00  0.00     0.029 A 
ATOM     66  C   UNL A   1      44.994  31.770  28.274  1.00  0.00     0.049 A 
ATOM     67  H   UNL A   1      43.719  30.091  28.224  1.00  0.00     0.167 HD
ATOM     68  C   UNL A   1      43.061  32.444  29.689  1.00  0.00     0.074 A 
ATOM     69  C   UNL A   1      42.345  33.390  30.522  1.00  0.00     0.031 C 
ATOM     70  C   UNL A   1      44.269  32.688  29.120  1.00  0.00     0.031 A 
BRANCH  57  71
ATOM     71  C   UNL A   1      46.507  27.977  25.774  1.00  0.00    -0.014 A 
ATOM     72  C   UNL A   1      47.615  27.358  26.378  1.00  0.00     0.009 A 
ATOM     73  C   UNL A   1      46.474  28.087  24.375  1.00  0.00     0.009 A 
ATOM     74  C   UNL A   1      48.689  26.916  25.603  1.00  0.00     0.001 A 
ATOM     75  C   UNL A   1      47.532  27.610  23.600  1.00  0.00     0.001 A 
ATOM     76  C   UNL A   1      48.645  27.040  24.215  1.00  0.00     0.000 A 
ENDBRANCH  57  71
BRANCH  58  77
ATOM     77  C   UNL A   1      38.873  31.148  31.436  1.00  0.00    -0.014 A 
ATOM     78  C   UNL A   1      37.741  31.773  30.893  1.00  0.00     0.009 A 
ATOM     79  C   UNL A   1      38.926  30.927  32.823  1.00  0.00     0.009 A 
ATOM     80  C   UNL A   1      36.691  32.177  31.723  1.00  0.00     0.001 A 
ATOM     81  C   UNL A   1      37.863  31.305  33.645  1.00  0.00     0.001 A 
ATOM     82  C   UNL A   1      36.750  31.935  33.095  1.00  0.00     0.000 A 
ENDBRANCH  58  77
BRANCH  70  83
ATOM     83  C   UNL A   1      44.879  34.044  29.356  1.00  0.00    -0.014 A 
ATOM     84  C   UNL A   1      44.598  35.133  28.516  1.00  0.00     0.009 A 
ATOM     85  C   UNL A   1      45.711  34.242  30.470  1.00  0.00     0.009 A 
ATOM     86  C   UNL A   1      45.172  36.383  28.766  1.00  0.00     0.001 A 
ATOM     87  C   UNL A   1      46.253  35.499  30.737  1.00  0.00     0.001 A 
ATOM     88  C   UNL A   1      45.993  36.566  29.879  1.00  0.00     0.000 A 
ENDBRANCH  70  83
ENDBRANCH  44  45
ENDBRANCH  37  39
ENDBRANCH  36  37
ENDBRANCH  35  36
ENDBRANCH  34  35
ENDBRANCH  33  34
ENDBRANCH  32  33
ENDBRANCH  31  32
ENDBRANCH  30  31
ENDBRANCH   1  30
TORSDOF 23
ENDMDL
MODEL 3
REMARK VINA RESULT:      -9.4      2.493      3.820
REMARK SMILES CSc1ccc(C=C2C(C)=C(CC(=O)OCCOCCOCCOCCOC(=O)c3ccc(-c4c5nc(c(-c6ccccc6)c6ccc([nH]6)c(-c6ccccc6)c6nc(c(-c7ccccc7)c7ccc4[nH]7)C=C6)C=C5)cc3)c3cc(F)ccc32)cc1
REMARK SMILES IDX 20 1 19 2 18 3 17 4 16 5 15 6 13 7 14 8 12 9 11 10 7 11 8 12
REMARK SMILES IDX 9 13 84 14 10 15 78 16 83 17 79 18 82 19 80 20 81 21 6 22
REMARK SMILES IDX 3 23 4 24 86 25 5 26 85 27 2 28 1 29 21 30 22 31 23 32 24 33
REMARK SMILES IDX 25 34 26 35 27 36 28 37 29 38 30 39 31 40 77 41 32 42 76 43
REMARK SMILES IDX 33 44 34 45 35 46 70 47 36 48 75 49 69 50 71 51 37 52 74 53
REMARK SMILES IDX 68 54 67 55 38 57 60 58 45 59 59 60 46 61 49 62 58 63 72 64
REMARK SMILES IDX 47 65 48 66 57 68 73 69 50 70 39 71 40 72 44 73 41 74 43 75
REMARK SMILES IDX 42 76 61 77 62 78 66 79 63 80 65 81 64 82 51 83 52 84 56 85
REMARK SMILES IDX 53 86 55 87 54 88
REMARK H PARENT 71 56 49 67
REMARK Flexibility Score: inf
ROOT
ATOM      1  C   UNL A   1      34.402  20.379  25.042  1.00  0.00     0.188 C 
ENDROOT
BRANCH   1   2
ATOM      2  C   UNL A   1      32.910  20.338  24.729  1.00  0.00     0.188 C 
BRANCH   2   3
ATOM      3  O   UNL A   1      32.561  20.752  23.434  1.00  0.00    -0.376 OA
BRANCH   3   4
ATOM      4  C   UNL A   1      32.367  22.110  23.100  1.00  0.00     0.202 C 
BRANCH   4   5
ATOM      5  C   UNL A   1      33.085  22.917  21.993  1.00  0.00     0.261 C 
BRANCH   5   6
ATOM      6  O   UNL A   1      34.194  23.757  22.329  1.00  0.00    -0.463 OA
BRANCH   6   7
ATOM      7  C   UNL A   1      34.009  25.100  22.341  1.00  0.00     0.310 C 
ATOM      8  O   UNL A   1      33.624  25.744  21.374  1.00  0.00    -0.252 OA
BRANCH   7   9
ATOM      9  C   UNL A   1      34.393  25.737  23.682  1.00  0.00     0.159 C 
BRANCH   9  10
ATOM     10  C   UNL A   1      33.270  26.087  24.634  1.00  0.00    -0.025 C 
ATOM     11  C   UNL A   1      30.764  26.913  22.734  1.00  0.00     0.017 C 
ATOM     12  C   UNL A   1      31.149  26.611  23.994  1.00  0.00    -0.014 C 
ATOM     13  C   UNL A   1      32.432  27.157  24.508  1.00  0.00    -0.039 C 
ATOM     14  C   UNL A   1      31.039  25.304  24.692  1.00  0.00    -0.010 A 
ATOM     15  C   UNL A   1      31.954  27.917  25.784  1.00  0.00     0.045 C 
ATOM     16  C   UNL A   1      32.363  24.995  25.087  1.00  0.00    -0.011 A 
ATOM     17  C   UNL A   1      29.959  24.831  25.427  1.00  0.00     0.012 A 
ATOM     18  C   UNL A   1      32.629  24.156  26.165  1.00  0.00     0.048 A 
ATOM     19  C   UNL A   1      30.228  24.068  26.576  1.00  0.00     0.040 A 
ATOM     20  C   UNL A   1      31.544  23.741  26.929  1.00  0.00     0.123 A 
ATOM     21  F   UNL A   1      31.775  23.139  28.105  1.00  0.00    -0.207 F 
BRANCH  11  22
ATOM     22  C   UNL A   1      29.777  28.035  22.596  1.00  0.00    -0.025 A 
ATOM     23  C   UNL A   1      28.236  30.338  22.994  1.00  0.00     0.007 A 
ATOM     24  C   UNL A   1      29.387  30.406  22.226  1.00  0.00     0.015 A 
ATOM     25  C   UNL A   1      27.728  29.083  23.345  1.00  0.00     0.015 A 
ATOM     26  C   UNL A   1      30.106  29.247  21.977  1.00  0.00     0.009 A 
ATOM     27  C   UNL A   1      28.506  27.929  23.155  1.00  0.00     0.009 A 
BRANCH  23  28
ATOM     28  S   UNL A   1      27.644  31.859  23.706  1.00  0.00    -0.130 SA
ATOM     29  C   UNL A   1      28.658  33.062  22.841  1.00  0.00     0.091 C 
ENDBRANCH  23  28
ENDBRANCH  11  22
ENDBRANCH   9  10
ENDBRANCH   7   9
ENDBRANCH   6   7
ENDBRANCH   5   6
ENDBRANCH   4   5
ENDBRANCH   3   4
ENDBRANCH   2   3
ENDBRANCH   1   2
BRANCH   1  30
ATOM     30  O   UNL A   1      35.020  21.410  25.779  1.00  0.00    -0.377 OA
BRANCH  30  31
ATOM     31  C   UNL A   1      35.559  22.452  25.012  1.00  0.00     0.188 C 
BRANCH  31  32
ATOM     32  C   UNL A   1      36.896  22.018  24.421  1.00  0.00     0.188 C 
BRANCH  32  33
ATOM     33  O   UNL A   1      37.815  21.378  25.287  1.00  0.00    -0.376 OA
BRANCH  33  34
ATOM     34  C   UNL A   1      38.094  19.982  25.247  1.00  0.00     0.202 C 
BRANCH  34  35
ATOM     35  C   UNL A   1      39.463  19.260  25.252  1.00  0.00     0.261 C 
BRANCH  35  36
ATOM     36  O   UNL A   1      40.299  19.349  26.399  1.00  0.00    -0.460 OA
BRANCH  36  37
ATOM     37  C   UNL A   1      41.586  19.681  26.166  1.00  0.00     0.338 C 
ATOM     38  O   UNL A   1      42.407  19.079  25.515  1.00  0.00    -0.246 OA
BRANCH  37  39
ATOM     39  C   UNL A   1      41.758  21.050  26.687  1.00  0.00     0.060 A 
ATOM     40  C   UNL A   1      41.901  22.086  25.757  1.00  0.00     0.016 A 
ATOM     41  C   UNL A   1      41.743  21.309  28.060  1.00  0.00     0.016 A 
ATOM     42  C   UNL A   1      42.032  23.394  26.196  1.00  0.00     0.010 A 
ATOM     43  C   UNL A   1      41.928  22.618  28.504  1.00  0.00     0.010 A 
ATOM     44  C   UNL A   1      42.102  23.654  27.570  1.00  0.00    -0.014 A 
BRANCH  44  45
ATOM     45  C   UNL A   1      42.634  24.963  27.990  1.00  0.00     0.031 A 
ATOM     46  C   UNL A   1      41.642  26.044  28.299  1.00  0.00     0.074 A 
ATOM     47  C   UNL A   1      43.950  25.156  28.167  1.00  0.00     0.049 A 
ATOM     48  N   UNL A   1      41.846  27.261  28.730  1.00  0.00    -0.248 NA
ATOM     49  C   UNL A   1      40.223  25.702  28.098  1.00  0.00     0.031 C 
ATOM     50  C   UNL A   1      44.990  24.152  27.953  1.00  0.00     0.029 A 
ATOM     51  N   UNL A   1      44.629  26.273  28.576  1.00  0.00    -0.354 N 
ATOM     52  C   UNL A   1      40.583  27.828  28.845  1.00  0.00     0.074 A 
ATOM     53  C   UNL A   1      39.625  26.838  28.407  1.00  0.00     0.031 C 
ATOM     54  C   UNL A   1      46.184  24.705  28.226  1.00  0.00     0.029 A 
ATOM     55  C   UNL A   1      45.989  26.105  28.602  1.00  0.00     0.049 A 
ATOM     56  H   UNL A   1      44.184  27.114  28.827  1.00  0.00     0.167 HD
ATOM     57  C   UNL A   1      40.252  29.066  29.279  1.00  0.00     0.031 A 
ATOM     58  C   UNL A   1      46.962  26.991  28.881  1.00  0.00     0.031 A 
ATOM     59  C   UNL A   1      41.218  30.055  29.672  1.00  0.00     0.049 A 
ATOM     60  C   UNL A   1      46.579  28.392  29.278  1.00  0.00     0.074 A 
ATOM     61  C   UNL A   1      41.001  31.341  30.128  1.00  0.00     0.029 A 
ATOM     62  N   UNL A   1      42.593  29.867  29.633  1.00  0.00    -0.354 N 
ATOM     63  N   UNL A   1      45.384  28.917  29.412  1.00  0.00    -0.248 NA
ATOM     64  C   UNL A   1      47.681  29.319  29.575  1.00  0.00     0.031 C 
ATOM     65  C   UNL A   1      42.246  31.956  30.295  1.00  0.00     0.029 A 
ATOM     66  C   UNL A   1      43.239  31.027  30.021  1.00  0.00     0.049 A 
ATOM     67  H   UNL A   1      43.042  29.031  29.369  1.00  0.00     0.167 HD
ATOM     68  C   UNL A   1      45.587  30.226  29.833  1.00  0.00     0.074 A 
ATOM     69  C   UNL A   1      47.021  30.408  29.946  1.00  0.00     0.031 C 
ATOM     70  C   UNL A   1      44.670  31.188  30.110  1.00  0.00     0.031 A 
BRANCH  57  71
ATOM     71  C   UNL A   1      38.790  29.422  29.267  1.00  0.00    -0.014 A 
ATOM     72  C   UNL A   1      38.193  30.063  28.168  1.00  0.00     0.009 A 
ATOM     73  C   UNL A   1      38.005  29.145  30.396  1.00  0.00     0.009 A 
ATOM     74  C   UNL A   1      36.858  30.469  28.225  1.00  0.00     0.001 A 
ATOM     75  C   UNL A   1      36.661  29.518  30.436  1.00  0.00     0.001 A 
ATOM     76  C   UNL A   1      36.093  30.193  29.357  1.00  0.00     0.000 A 
ENDBRANCH  57  71
BRANCH  58  77
ATOM     77  C   UNL A   1      48.385  26.577  28.771  1.00  0.00    -0.014 A 
ATOM     78  C   UNL A   1      49.081  26.075  29.880  1.00  0.00     0.009 A 
ATOM     79  C   UNL A   1      49.047  26.658  27.534  1.00  0.00     0.009 A 
ATOM     80  C   UNL A   1      50.414  25.675  29.755  1.00  0.00     0.001 A 
ATOM     81  C   UNL A   1      50.370  26.229  27.406  1.00  0.00     0.001 A 
ATOM     82  C   UNL A   1      51.053  25.743  28.517  1.00  0.00     0.000 A 
ENDBRANCH  58  77
BRANCH  70  83
ATOM     83  C   UNL A   1      45.191  32.516  30.593  1.00  0.00    -0.014 A 
ATOM     84  C   UNL A   1      45.510  32.733  31.943  1.00  0.00     0.009 A 
ATOM     85  C   UNL A   1      45.409  33.549  29.668  1.00  0.00     0.009 A 
ATOM     86  C   UNL A   1      46.001  33.974  32.359  1.00  0.00     0.001 A 
ATOM     87  C   UNL A   1      45.933  34.774  30.081  1.00  0.00     0.001 A 
ATOM     88  C   UNL A   1      46.218  34.989  31.428  1.00  0.00     0.000 A 
ENDBRANCH  70  83
ENDBRANCH  44  45
ENDBRANCH  37  39
ENDBRANCH  36  37
ENDBRANCH  35  36
ENDBRANCH  34  35
ENDBRANCH  33  34
ENDBRANCH  32  33
ENDBRANCH  31  32
ENDBRANCH  30  31
ENDBRANCH   1  30
TORSDOF 23
ENDMDL
