MODEL 1
REMARK VINA RESULT:      -7.8      0.000      0.000
REMARK SMILES O=C1OC(c2ccc(Cl)cc2)=N/C1=C/Nc1ccc(O)c(C(=O)OCCOCCOCCOCCOC(=O)c2ccc(-c3c4nc(c(-c5ccccc5)c5ccc([nH]5)c(-c5ccccc5)c5nc(c(-c6ccccc6)c6ccc3[nH]6)C=C5)C=C4)cc2)c1
REMARK SMILES IDX 29 1 28 2 27 3 26 4 25 5 24 6 22 7 23 8 21 9 16 10 17 11
REMARK SMILES IDX 87 12 18 13 19 14 15 15 14 17 1 18 2 19 3 20 13 21 4 22
REMARK SMILES IDX 12 23 5 24 6 25 11 26 7 27 10 28 8 29 9 30 20 31 30 33 31 34
REMARK SMILES IDX 32 35 33 36 34 37 35 38 36 39 37 40 38 41 39 42 40 43 86 44
REMARK SMILES IDX 41 45 85 46 42 47 43 48 44 49 79 50 45 51 84 52 78 53 80 54
REMARK SMILES IDX 46 55 83 56 77 57 76 58 47 60 69 61 54 62 68 63 55 64 58 65
REMARK SMILES IDX 67 66 81 67 56 68 57 69 66 71 82 72 59 73 48 74 49 75 53 76
REMARK SMILES IDX 50 77 52 78 51 79 70 80 71 81 75 82 72 83 74 84 73 85 60 86
REMARK SMILES IDX 61 87 65 88 62 89 64 90 63 91
REMARK H PARENT 15 16 20 32 80 59 58 70
REMARK Flexibility Score: inf
ROOT
ATOM      1  C   UNL A   1      38.240  31.626  36.787  1.00  0.00     0.188 C 
ENDROOT
BRANCH   1   2
ATOM      2  C   UNL A   1      38.385  30.810  35.475  1.00  0.00     0.188 C 
BRANCH   2   3
ATOM      3  O   UNL A   1      37.499  31.184  34.436  1.00  0.00    -0.376 OA
BRANCH   3   4
ATOM      4  C   UNL A   1      37.530  30.487  33.208  1.00  0.00     0.202 C 
BRANCH   4   5
ATOM      5  C   UNL A   1      36.436  30.794  32.179  1.00  0.00     0.261 C 
BRANCH   5   6
ATOM      6  O   UNL A   1      36.263  29.801  31.167  1.00  0.00    -0.460 OA
BRANCH   6   7
ATOM      7  C   UNL A   1      36.621  30.140  29.908  1.00  0.00     0.342 C 
ATOM      8  O   UNL A   1      36.011  30.886  29.161  1.00  0.00    -0.246 OA
BRANCH   7   9
ATOM      9  C   UNL A   1      38.001  29.662  29.657  1.00  0.00     0.103 A 
ATOM     10  C   UNL A   1      39.433  27.758  29.158  1.00  0.00     0.039 A 
ATOM     11  C   UNL A   1      40.534  28.623  29.129  1.00  0.00     0.030 A 
ATOM     12  C   UNL A   1      38.169  28.286  29.431  1.00  0.00     0.045 A 
ATOM     13  C   UNL A   1      40.371  29.999  29.311  1.00  0.00     0.049 A 
ATOM     14  C   UNL A   1      39.103  30.517  29.569  1.00  0.00     0.130 A 
BRANCH  10  15
ATOM     15  N   UNL A   1      39.596  26.377  29.000  1.00  0.00    -0.360 N 
ATOM     16  H   UNL A   1      38.836  25.793  29.226  1.00  0.00     0.166 HD
BRANCH  15  17
ATOM     17  C   UNL A   1      40.751  25.787  28.551  1.00  0.00     0.119 C 
ATOM     18  O   UNL A   1      38.635  24.259  27.019  1.00  0.00    -0.244 OA
ATOM     19  C   UNL A   1      39.828  24.066  26.983  1.00  0.00     0.365 C 
ATOM     20  O   UNL A   1      40.505  23.138  26.240  1.00  0.00    -0.402 OA
ATOM     21  C   UNL A   1      40.924  24.758  27.716  1.00  0.00     0.168 C 
ATOM     22  C   UNL A   1      41.809  23.277  26.570  1.00  0.00     0.231 C 
ATOM     23  N   UNL A   1      42.135  24.193  27.420  1.00  0.00    -0.204 NA
BRANCH  22  24
ATOM     24  C   UNL A   1      42.712  22.312  25.954  1.00  0.00     0.037 A 
ATOM     25  C   UNL A   1      43.719  22.740  25.086  1.00  0.00     0.015 A 
ATOM     26  C   UNL A   1      42.580  20.960  26.288  1.00  0.00     0.015 A 
ATOM     27  C   UNL A   1      44.605  21.802  24.552  1.00  0.00     0.021 A 
ATOM     28  C   UNL A   1      43.457  20.025  25.737  1.00  0.00     0.021 A 
ATOM     29  C   UNL A   1      44.469  20.451  24.876  1.00  0.00     0.041 A 
ATOM     30  Cl  UNL A   1      45.564  19.300  24.216  1.00  0.00    -0.084 Cl
ENDBRANCH  22  24
ENDBRANCH  15  17
ENDBRANCH  10  15
BRANCH  14  31
ATOM     31  O   UNL A   1      38.963  31.864  29.742  1.00  0.00    -0.507 OA
ATOM     32  H   UNL A   1      38.706  32.405  29.020  1.00  0.00     0.293 HD
ENDBRANCH  14  31
ENDBRANCH   7   9
ENDBRANCH   6   7
ENDBRANCH   5   6
ENDBRANCH   4   5
ENDBRANCH   3   4
ENDBRANCH   2   3
ENDBRANCH   1   2
BRANCH   1  33
ATOM     33  O   UNL A   1      37.295  31.308  37.807  1.00  0.00    -0.377 OA
BRANCH  33  34
ATOM     34  C   UNL A   1      37.038  32.238  38.850  1.00  0.00     0.188 C 
BRANCH  34  35
ATOM     35  C   UNL A   1      37.406  31.824  40.290  1.00  0.00     0.188 C 
BRANCH  35  36
ATOM     36  O   UNL A   1      38.742  32.139  40.641  1.00  0.00    -0.376 OA
BRANCH  36  37
ATOM     37  C   UNL A   1      39.448  33.067  39.841  1.00  0.00     0.202 C 
BRANCH  37  38
ATOM     38  C   UNL A   1      39.427  34.561  40.203  1.00  0.00     0.261 C 
BRANCH  38  39
ATOM     39  O   UNL A   1      40.386  35.410  39.557  1.00  0.00    -0.460 OA
BRANCH  39  40
ATOM     40  C   UNL A   1      39.977  36.123  38.487  1.00  0.00     0.338 C 
ATOM     41  O   UNL A   1      39.383  37.184  38.486  1.00  0.00    -0.246 OA
BRANCH  40  42
ATOM     42  C   UNL A   1      40.548  35.471  37.289  1.00  0.00     0.060 A 
ATOM     43  C   UNL A   1      39.694  35.061  36.256  1.00  0.00     0.016 A 
ATOM     44  C   UNL A   1      41.927  35.283  37.185  1.00  0.00     0.016 A 
ATOM     45  C   UNL A   1      40.218  34.429  35.127  1.00  0.00     0.010 A 
ATOM     46  C   UNL A   1      42.448  34.627  36.068  1.00  0.00     0.010 A 
ATOM     47  C   UNL A   1      41.591  34.166  35.052  1.00  0.00    -0.014 A 
BRANCH  47  48
ATOM     48  C   UNL A   1      42.108  33.220  34.035  1.00  0.00     0.031 A 
ATOM     49  C   UNL A   1      42.439  33.761  32.671  1.00  0.00     0.074 A 
ATOM     50  C   UNL A   1      42.287  31.915  34.309  1.00  0.00     0.049 A 
ATOM     51  N   UNL A   1      42.827  33.126  31.596  1.00  0.00    -0.248 NA
ATOM     52  C   UNL A   1      42.309  35.218  32.500  1.00  0.00     0.031 C 
ATOM     53  C   UNL A   1      42.059  31.280  35.605  1.00  0.00     0.029 A 
ATOM     54  N   UNL A   1      42.696  30.889  33.495  1.00  0.00    -0.354 N 
ATOM     55  C   UNL A   1      42.973  34.103  30.618  1.00  0.00     0.074 A 
ATOM     56  C   UNL A   1      42.603  35.366  31.218  1.00  0.00     0.031 C 
ATOM     57  C   UNL A   1      42.322  29.966  35.494  1.00  0.00     0.029 A 
ATOM     58  C   UNL A   1      42.695  29.663  34.114  1.00  0.00     0.049 A 
ATOM     59  H   UNL A   1      42.966  31.020  32.557  1.00  0.00     0.167 HD
ATOM     60  C   UNL A   1      43.378  33.962  29.335  1.00  0.00     0.031 A 
ATOM     61  C   UNL A   1      42.937  28.437  33.611  1.00  0.00     0.031 A 
ATOM     62  C   UNL A   1      43.727  32.703  28.735  1.00  0.00     0.049 A 
ATOM     63  C   UNL A   1      43.296  28.293  32.153  1.00  0.00     0.074 A 
ATOM     64  C   UNL A   1      44.159  32.454  27.445  1.00  0.00     0.029 A 
ATOM     65  N   UNL A   1      43.672  31.479  29.384  1.00  0.00    -0.354 N 
ATOM     66  N   UNL A   1      43.448  29.223  31.241  1.00  0.00    -0.248 NA
ATOM     67  C   UNL A   1      43.524  26.927  31.659  1.00  0.00     0.031 C 
ATOM     68  C   UNL A   1      44.301  31.071  27.293  1.00  0.00     0.029 A 
ATOM     69  C   UNL A   1      44.034  30.467  28.512  1.00  0.00     0.049 A 
ATOM     70  H   UNL A   1      43.416  31.349  30.326  1.00  0.00     0.167 HD
ATOM     71  C   UNL A   1      43.824  28.559  30.079  1.00  0.00     0.074 A 
ATOM     72  C   UNL A   1      43.889  27.150  30.405  1.00  0.00     0.031 C 
ATOM     73  C   UNL A   1      44.098  29.069  28.852  1.00  0.00     0.031 A 
BRANCH  60  74
ATOM     74  C   UNL A   1      43.422  35.201  28.483  1.00  0.00    -0.014 A 
ATOM     75  C   UNL A   1      44.583  35.982  28.380  1.00  0.00     0.009 A 
ATOM     76  C   UNL A   1      42.284  35.578  27.754  1.00  0.00     0.009 A 
ATOM     77  C   UNL A   1      44.593  37.135  27.592  1.00  0.00     0.001 A 
ATOM     78  C   UNL A   1      42.305  36.712  26.940  1.00  0.00     0.001 A 
ATOM     79  C   UNL A   1      43.456  37.496  26.869  1.00  0.00     0.000 A 
ENDBRANCH  60  74
BRANCH  61  80
ATOM     80  C   UNL A   1      42.825  27.235  34.482  1.00  0.00    -0.014 A 
ATOM     81  C   UNL A   1      43.969  26.643  35.039  1.00  0.00     0.009 A 
ATOM     82  C   UNL A   1      41.573  26.652  34.732  1.00  0.00     0.009 A 
ATOM     83  C   UNL A   1      43.864  25.478  35.804  1.00  0.00     0.001 A 
ATOM     84  C   UNL A   1      41.467  25.506  35.524  1.00  0.00     0.001 A 
ATOM     85  C   UNL A   1      42.613  24.914  36.049  1.00  0.00     0.000 A 
ENDBRANCH  61  80
BRANCH  73  86
ATOM     86  C   UNL A   1      44.548  28.110  27.783  1.00  0.00    -0.014 A 
ATOM     87  C   UNL A   1      45.875  27.661  27.706  1.00  0.00     0.009 A 
ATOM     88  C   UNL A   1      43.608  27.609  26.868  1.00  0.00     0.009 A 
ATOM     89  C   UNL A   1      46.257  26.756  26.712  1.00  0.00     0.001 A 
ATOM     90  C   UNL A   1      43.985  26.679  25.898  1.00  0.00     0.001 A 
ATOM     91  C   UNL A   1      45.311  26.262  25.814  1.00  0.00     0.000 A 
ENDBRANCH  73  86
ENDBRANCH  47  48
ENDBRANCH  40  42
ENDBRANCH  39  40
ENDBRANCH  38  39
ENDBRANCH  37  38
ENDBRANCH  36  37
ENDBRANCH  35  36
ENDBRANCH  34  35
ENDBRANCH  33  34
ENDBRANCH   1  33
TORSDOF 24
ENDMDL
MODEL 2
REMARK VINA RESULT:      -7.4      5.922     10.898
REMARK SMILES O=C1OC(c2ccc(Cl)cc2)=N/C1=C/Nc1ccc(O)c(C(=O)OCCOCCOCCOCCOC(=O)c2ccc(-c3c4nc(c(-c5ccccc5)c5ccc([nH]5)c(-c5ccccc5)c5nc(c(-c6ccccc6)c6ccc3[nH]6)C=C5)C=C4)cc2)c1
REMARK SMILES IDX 29 1 28 2 27 3 26 4 25 5 24 6 22 7 23 8 21 9 16 10 17 11
REMARK SMILES IDX 87 12 18 13 19 14 15 15 14 17 1 18 2 19 3 20 13 21 4 22
REMARK SMILES IDX 12 23 5 24 6 25 11 26 7 27 10 28 8 29 9 30 20 31 30 33 31 34
REMARK SMILES IDX 32 35 33 36 34 37 35 38 36 39 37 40 38 41 39 42 40 43 86 44
REMARK SMILES IDX 41 45 85 46 42 47 43 48 44 49 79 50 45 51 84 52 78 53 80 54
REMARK SMILES IDX 46 55 83 56 77 57 76 58 47 60 69 61 54 62 68 63 55 64 58 65
REMARK SMILES IDX 67 66 81 67 56 68 57 69 66 71 82 72 59 73 48 74 49 75 53 76
REMARK SMILES IDX 50 77 52 78 51 79 70 80 71 81 75 82 72 83 74 84 73 85 60 86
REMARK SMILES IDX 61 87 65 88 62 89 64 90 63 91
REMARK H PARENT 15 16 20 32 80 59 58 70
REMARK Flexibility Score: inf
ROOT
ATOM      1  C   UNL A   1      37.843  30.154  30.466  1.00  0.00     0.188 C 
ENDROOT
BRANCH   1   2
ATOM      2  C   UNL A   1      37.737  29.743  31.959  1.00  0.00     0.188 C 
BRANCH   2   3
ATOM      3  O   UNL A   1      36.504  30.056  32.580  1.00  0.00    -0.376 OA
BRANCH   3   4
ATOM      4  C   UNL A   1      35.947  31.344  32.419  1.00  0.00     0.202 C 
BRANCH   4   5
ATOM      5  C   UNL A   1      36.486  32.476  33.301  1.00  0.00     0.261 C 
BRANCH   5   6
ATOM      6  O   UNL A   1      36.226  33.795  32.816  1.00  0.00    -0.460 OA
BRANCH   6   7
ATOM      7  C   UNL A   1      35.212  34.474  33.399  1.00  0.00     0.342 C 
ATOM      8  O   UNL A   1      35.039  34.622  34.597  1.00  0.00    -0.246 OA
BRANCH   7   9
ATOM      9  C   UNL A   1      34.475  35.223  32.355  1.00  0.00     0.103 A 
ATOM     10  C   UNL A   1      33.823  35.337  30.013  1.00  0.00     0.039 A 
ATOM     11  C   UNL A   1      33.100  36.503  30.295  1.00  0.00     0.030 A 
ATOM     12  C   UNL A   1      34.515  34.707  31.049  1.00  0.00     0.045 A 
ATOM     13  C   UNL A   1      33.020  37.002  31.598  1.00  0.00     0.049 A 
ATOM     14  C   UNL A   1      33.704  36.357  32.627  1.00  0.00     0.130 A 
BRANCH  10  15
ATOM     15  N   UNL A   1      33.925  34.850  28.705  1.00  0.00    -0.360 N 
ATOM     16  H   UNL A   1      34.683  35.155  28.156  1.00  0.00     0.166 HD
BRANCH  15  17
ATOM     17  C   UNL A   1      33.032  33.973  28.141  1.00  0.00     0.119 C 
ATOM     18  O   UNL A   1      35.394  32.171  28.720  1.00  0.00    -0.244 OA
ATOM     19  C   UNL A   1      34.361  31.850  28.177  1.00  0.00     0.365 C 
ATOM     20  O   UNL A   1      34.005  30.612  27.717  1.00  0.00    -0.402 OA
ATOM     21  C   UNL A   1      33.169  32.677  27.843  1.00  0.00     0.168 C 
ATOM     22  C   UNL A   1      32.785  30.762  27.154  1.00  0.00     0.231 C 
ATOM     23  N   UNL A   1      32.231  31.929  27.184  1.00  0.00    -0.204 NA
BRANCH  22  24
ATOM     24  C   UNL A   1      32.247  29.569  26.512  1.00  0.00     0.037 A 
ATOM     25  C   UNL A   1      31.901  28.450  27.273  1.00  0.00     0.015 A 
ATOM     26  C   UNL A   1      32.039  29.588  25.129  1.00  0.00     0.015 A 
ATOM     27  C   UNL A   1      31.336  27.341  26.640  1.00  0.00     0.021 A 
ATOM     28  C   UNL A   1      31.492  28.468  24.499  1.00  0.00     0.021 A 
ATOM     29  C   UNL A   1      31.137  27.353  25.258  1.00  0.00     0.041 A 
ATOM     30  Cl  UNL A   1      30.440  25.984  24.484  1.00  0.00    -0.084 Cl
ENDBRANCH  22  24
ENDBRANCH  15  17
ENDBRANCH  10  15
BRANCH  14  31
ATOM     31  O   UNL A   1      33.612  36.856  33.894  1.00  0.00    -0.507 OA
ATOM     32  H   UNL A   1      32.978  37.517  34.093  1.00  0.00     0.293 HD
ENDBRANCH  14  31
ENDBRANCH   7   9
ENDBRANCH   6   7
ENDBRANCH   5   6
ENDBRANCH   4   5
ENDBRANCH   3   4
ENDBRANCH   2   3
ENDBRANCH   1   2
BRANCH   1  33
ATOM     33  O   UNL A   1      37.082  29.539  29.428  1.00  0.00    -0.377 OA
BRANCH  33  34
ATOM     34  C   UNL A   1      37.736  29.036  28.273  1.00  0.00     0.188 C 
BRANCH  34  35
ATOM     35  C   UNL A   1      39.278  29.014  28.271  1.00  0.00     0.188 C 
BRANCH  35  36
ATOM     36  O   UNL A   1      39.823  27.742  27.962  1.00  0.00    -0.376 OA
BRANCH  36  37
ATOM     37  C   UNL A   1      40.504  27.582  26.733  1.00  0.00     0.202 C 
BRANCH  37  38
ATOM     38  C   UNL A   1      41.072  26.206  26.347  1.00  0.00     0.261 C 
BRANCH  38  39
ATOM     39  O   UNL A   1      41.989  26.157  25.245  1.00  0.00    -0.460 OA
BRANCH  39  40
ATOM     40  C   UNL A   1      42.775  27.234  25.031  1.00  0.00     0.338 C 
ATOM     41  O   UNL A   1      42.519  28.218  24.364  1.00  0.00    -0.246 OA
BRANCH  40  42
ATOM     42  C   UNL A   1      43.954  27.091  25.912  1.00  0.00     0.060 A 
ATOM     43  C   UNL A   1      44.636  25.868  25.957  1.00  0.00     0.016 A 
ATOM     44  C   UNL A   1      44.389  28.174  26.678  1.00  0.00     0.016 A 
ATOM     45  C   UNL A   1      45.740  25.714  26.798  1.00  0.00     0.010 A 
ATOM     46  C   UNL A   1      45.477  28.012  27.538  1.00  0.00     0.010 A 
ATOM     47  C   UNL A   1      46.134  26.771  27.627  1.00  0.00    -0.014 A 
BRANCH  47  48
ATOM     48  C   UNL A   1      47.076  26.522  28.743  1.00  0.00     0.031 A 
ATOM     49  C   UNL A   1      48.547  26.678  28.473  1.00  0.00     0.074 A 
ATOM     50  C   UNL A   1      46.645  26.174  29.969  1.00  0.00     0.049 A 
ATOM     51  N   UNL A   1      49.567  26.441  29.256  1.00  0.00    -0.248 NA
ATOM     52  C   UNL A   1      48.915  27.163  27.132  1.00  0.00     0.031 C 
ATOM     53  C   UNL A   1      45.247  26.047  30.373  1.00  0.00     0.029 A 
ATOM     54  N   UNL A   1      47.355  25.852  31.098  1.00  0.00    -0.354 N 
ATOM     55  C   UNL A   1      50.695  26.733  28.499  1.00  0.00     0.074 A 
ATOM     56  C   UNL A   1      50.237  27.136  27.188  1.00  0.00     0.031 C 
ATOM     57  C   UNL A   1      45.202  25.662  31.661  1.00  0.00     0.029 A 
ATOM     58  C   UNL A   1      46.565  25.476  32.156  1.00  0.00     0.049 A 
ATOM     59  H   UNL A   1      48.338  25.889  31.145  1.00  0.00     0.167 HD
ATOM     60  C   UNL A   1      51.997  26.673  28.863  1.00  0.00     0.031 A 
ATOM     61  C   UNL A   1      46.908  25.007  33.371  1.00  0.00     0.031 A 
ATOM     62  C   UNL A   1      52.451  26.255  30.161  1.00  0.00     0.049 A 
ATOM     63  C   UNL A   1      48.367  24.859  33.723  1.00  0.00     0.074 A 
ATOM     64  C   UNL A   1      53.749  26.168  30.633  1.00  0.00     0.029 A 
ATOM     65  N   UNL A   1      51.621  25.843  31.191  1.00  0.00    -0.354 N 
ATOM     66  N   UNL A   1      49.426  25.154  33.008  1.00  0.00    -0.248 NA
ATOM     67  C   UNL A   1      48.676  24.318  35.055  1.00  0.00     0.031 C 
ATOM     68  C   UNL A   1      53.707  25.638  31.926  1.00  0.00     0.029 A 
ATOM     69  C   UNL A   1      52.379  25.471  32.287  1.00  0.00     0.049 A 
ATOM     70  H   UNL A   1      50.637  25.819  31.150  1.00  0.00     0.167 HD
ATOM     71  C   UNL A   1      50.522  24.871  33.815  1.00  0.00     0.074 A 
ATOM     72  C   UNL A   1      49.999  24.392  35.077  1.00  0.00     0.031 C 
ATOM     73  C   UNL A   1      51.844  25.001  33.539  1.00  0.00     0.031 A 
BRANCH  60  74
ATOM     74  C   UNL A   1      53.023  27.028  27.822  1.00  0.00    -0.014 A 
ATOM     75  C   UNL A   1      53.498  28.341  27.675  1.00  0.00     0.009 A 
ATOM     76  C   UNL A   1      53.538  26.023  26.988  1.00  0.00     0.009 A 
ATOM     77  C   UNL A   1      54.442  28.646  26.691  1.00  0.00     0.001 A 
ATOM     78  C   UNL A   1      54.506  26.323  26.028  1.00  0.00     0.001 A 
ATOM     79  C   UNL A   1      54.948  27.636  25.873  1.00  0.00     0.000 A 
ENDBRANCH  60  74
BRANCH  61  80
ATOM     80  C   UNL A   1      45.855  24.615  34.347  1.00  0.00    -0.014 A 
ATOM     81  C   UNL A   1      45.366  25.538  35.285  1.00  0.00     0.009 A 
ATOM     82  C   UNL A   1      45.357  23.303  34.368  1.00  0.00     0.009 A 
ATOM     83  C   UNL A   1      44.422  25.146  36.240  1.00  0.00     0.001 A 
ATOM     84  C   UNL A   1      44.390  22.923  35.302  1.00  0.00     0.001 A 
ATOM     85  C   UNL A   1      43.932  23.841  36.244  1.00  0.00     0.000 A 
ENDBRANCH  61  80
BRANCH  73  86
ATOM     86  C   UNL A   1      52.820  24.675  34.638  1.00  0.00    -0.014 A 
ATOM     87  C   UNL A   1      53.340  23.382  34.802  1.00  0.00     0.009 A 
ATOM     88  C   UNL A   1      53.265  25.698  35.490  1.00  0.00     0.009 A 
ATOM     89  C   UNL A   1      54.259  23.115  35.820  1.00  0.00     0.001 A 
ATOM     90  C   UNL A   1      54.208  25.436  36.484  1.00  0.00     0.001 A 
ATOM     91  C   UNL A   1      54.697  24.143  36.655  1.00  0.00     0.000 A 
ENDBRANCH  73  86
ENDBRANCH  47  48
ENDBRANCH  40  42
ENDBRANCH  39  40
ENDBRANCH  38  39
ENDBRANCH  37  38
ENDBRANCH  36  37
ENDBRANCH  35  36
ENDBRANCH  34  35
ENDBRANCH  33  34
ENDBRANCH   1  33
TORSDOF 24
ENDMDL
MODEL 3
REMARK VINA RESULT:      -7.3      4.439      9.828
REMARK SMILES O=C1OC(c2ccc(Cl)cc2)=N/C1=C/Nc1ccc(O)c(C(=O)OCCOCCOCCOCCOC(=O)c2ccc(-c3c4nc(c(-c5ccccc5)c5ccc([nH]5)c(-c5ccccc5)c5nc(c(-c6ccccc6)c6ccc3[nH]6)C=C5)C=C4)cc2)c1
REMARK SMILES IDX 29 1 28 2 27 3 26 4 25 5 24 6 22 7 23 8 21 9 16 10 17 11
REMARK SMILES IDX 87 12 18 13 19 14 15 15 14 17 1 18 2 19 3 20 13 21 4 22
REMARK SMILES IDX 12 23 5 24 6 25 11 26 7 27 10 28 8 29 9 30 20 31 30 33 31 34
REMARK SMILES IDX 32 35 33 36 34 37 35 38 36 39 37 40 38 41 39 42 40 43 86 44
REMARK SMILES IDX 41 45 85 46 42 47 43 48 44 49 79 50 45 51 84 52 78 53 80 54
REMARK SMILES IDX 46 55 83 56 77 57 76 58 47 60 69 61 54 62 68 63 55 64 58 65
REMARK SMILES IDX 67 66 81 67 56 68 57 69 66 71 82 72 59 73 48 74 49 75 53 76
REMARK SMILES IDX 50 77 52 78 51 79 70 80 71 81 75 82 72 83 74 84 73 85 60 86
REMARK SMILES IDX 61 87 65 88 62 89 64 90 63 91
REMARK H PARENT 15 16 20 32 80 59 58 70
REMARK Flexibility Score: inf
ROOT
ATOM      1  C   UNL A   1      37.810  30.090  30.154  1.00  0.00     0.188 C 
ENDROOT
BRANCH   1   2
ATOM      2  C   UNL A   1      37.613  29.588  31.609  1.00  0.00     0.188 C 
BRANCH   2   3
ATOM      3  O   UNL A   1      36.389  29.964  32.212  1.00  0.00    -0.376 OA
BRANCH   3   4
ATOM      4  C   UNL A   1      35.948  31.303  32.120  1.00  0.00     0.202 C 
BRANCH   4   5
ATOM      5  C   UNL A   1      36.697  32.365  32.932  1.00  0.00     0.261 C 
BRANCH   5   6
ATOM      6  O   UNL A   1      36.509  33.710  32.487  1.00  0.00    -0.460 OA
BRANCH   6   7
ATOM      7  C   UNL A   1      35.630  34.467  33.180  1.00  0.00     0.342 C 
ATOM      8  O   UNL A   1      35.696  34.746  34.366  1.00  0.00    -0.246 OA
BRANCH   7   9
ATOM      9  C   UNL A   1      34.699  35.115  32.227  1.00  0.00     0.103 A 
ATOM     10  C   UNL A   1      33.826  35.165  29.956  1.00  0.00     0.039 A 
ATOM     11  C   UNL A   1      32.971  36.209  30.333  1.00  0.00     0.030 A 
ATOM     12  C   UNL A   1      34.694  34.629  30.909  1.00  0.00     0.045 A 
ATOM     13  C   UNL A   1      32.939  36.671  31.650  1.00  0.00     0.049 A 
ATOM     14  C   UNL A   1      33.800  36.119  32.597  1.00  0.00     0.130 A 
BRANCH  10  15
ATOM     15  N   UNL A   1      33.877  34.717  28.631  1.00  0.00    -0.360 N 
ATOM     16  H   UNL A   1      34.611  35.042  28.061  1.00  0.00     0.166 HD
BRANCH  15  17
ATOM     17  C   UNL A   1      32.966  33.852  28.078  1.00  0.00     0.119 C 
ATOM     18  O   UNL A   1      35.324  32.026  28.591  1.00  0.00    -0.244 OA
ATOM     19  C   UNL A   1      34.278  31.718  28.067  1.00  0.00     0.365 C 
ATOM     20  O   UNL A   1      33.902  30.488  27.604  1.00  0.00    -0.402 OA
ATOM     21  C   UNL A   1      33.086  32.558  27.765  1.00  0.00     0.168 C 
ATOM     22  C   UNL A   1      32.672  30.653  27.067  1.00  0.00     0.231 C 
ATOM     23  N   UNL A   1      32.128  31.824  27.119  1.00  0.00    -0.204 NA
BRANCH  22  24
ATOM     24  C   UNL A   1      32.111  29.470  26.425  1.00  0.00     0.037 A 
ATOM     25  C   UNL A   1      31.930  28.290  27.150  1.00  0.00     0.015 A 
ATOM     26  C   UNL A   1      31.713  29.558  25.087  1.00  0.00     0.015 A 
ATOM     27  C   UNL A   1      31.340  27.188  26.526  1.00  0.00     0.021 A 
ATOM     28  C   UNL A   1      31.142  28.448  24.464  1.00  0.00     0.021 A 
ATOM     29  C   UNL A   1      30.951  27.270  25.187  1.00  0.00     0.041 A 
ATOM     30  Cl  UNL A   1      30.224  25.911  24.425  1.00  0.00    -0.084 Cl
ENDBRANCH  22  24
ENDBRANCH  15  17
ENDBRANCH  10  15
BRANCH  14  31
ATOM     31  O   UNL A   1      33.753  36.581  33.881  1.00  0.00    -0.507 OA
ATOM     32  H   UNL A   1      32.931  36.644  34.327  1.00  0.00     0.293 HD
ENDBRANCH  14  31
ENDBRANCH   7   9
ENDBRANCH   6   7
ENDBRANCH   5   6
ENDBRANCH   4   5
ENDBRANCH   3   4
ENDBRANCH   2   3
ENDBRANCH   1   2
BRANCH   1  33
ATOM     33  O   UNL A   1      37.306  29.399  29.012  1.00  0.00    -0.377 OA
BRANCH  33  34
ATOM     34  C   UNL A   1      38.163  28.553  28.260  1.00  0.00     0.188 C 
BRANCH  34  35
ATOM     35  C   UNL A   1      39.596  28.327  28.788  1.00  0.00     0.188 C 
BRANCH  35  36
ATOM     36  O   UNL A   1      39.972  26.961  28.827  1.00  0.00    -0.376 OA
BRANCH  36  37
ATOM     37  C   UNL A   1      41.217  26.590  28.267  1.00  0.00     0.202 C 
BRANCH  37  38
ATOM     38  C   UNL A   1      42.423  26.337  29.186  1.00  0.00     0.261 C 
BRANCH  38  39
ATOM     39  O   UNL A   1      43.721  26.302  28.575  1.00  0.00    -0.460 OA
BRANCH  39  40
ATOM     40  C   UNL A   1      43.928  27.076  27.489  1.00  0.00     0.338 C 
ATOM     41  O   UNL A   1      43.899  26.739  26.321  1.00  0.00    -0.246 OA
BRANCH  40  42
ATOM     42  C   UNL A   1      44.017  28.474  27.965  1.00  0.00     0.060 A 
ATOM     43  C   UNL A   1      44.931  28.800  28.976  1.00  0.00     0.016 A 
ATOM     44  C   UNL A   1      43.207  29.459  27.398  1.00  0.00     0.016 A 
ATOM     45  C   UNL A   1      45.013  30.111  29.446  1.00  0.00     0.010 A 
ATOM     46  C   UNL A   1      43.270  30.765  27.887  1.00  0.00     0.010 A 
ATOM     47  C   UNL A   1      44.149  31.088  28.937  1.00  0.00    -0.014 A 
BRANCH  47  48
ATOM     48  C   UNL A   1      43.996  32.381  29.644  1.00  0.00     0.031 A 
ATOM     49  C   UNL A   1      44.707  33.581  29.081  1.00  0.00     0.074 A 
ATOM     50  C   UNL A   1      43.244  32.497  30.754  1.00  0.00     0.049 A 
ATOM     51  N   UNL A   1      44.794  34.796  29.558  1.00  0.00    -0.248 NA
ATOM     52  C   UNL A   1      45.418  33.379  27.809  1.00  0.00     0.031 C 
ATOM     53  C   UNL A   1      42.461  31.425  31.365  1.00  0.00     0.029 A 
ATOM     54  N   UNL A   1      43.029  33.580  31.567  1.00  0.00    -0.354 N 
ATOM     55  C   UNL A   1      45.582  35.496  28.652  1.00  0.00     0.074 A 
ATOM     56  C   UNL A   1      45.971  34.566  27.615  1.00  0.00     0.031 C 
ATOM     57  C   UNL A   1      41.859  31.905  32.468  1.00  0.00     0.029 A 
ATOM     58  C   UNL A   1      42.247  33.300  32.661  1.00  0.00     0.049 A 
ATOM     59  H   UNL A   1      43.401  34.474  31.384  1.00  0.00     0.167 HD
ATOM     60  C   UNL A   1      45.948  36.798  28.679  1.00  0.00     0.031 A 
ATOM     61  C   UNL A   1      41.912  34.077  33.709  1.00  0.00     0.031 A 
ATOM     62  C   UNL A   1      45.576  37.717  29.720  1.00  0.00     0.049 A 
ATOM     63  C   UNL A   1      42.410  35.499  33.766  1.00  0.00     0.074 A 
ATOM     64  C   UNL A   1      45.888  39.060  29.836  1.00  0.00     0.029 A 
ATOM     65  N   UNL A   1      44.817  37.384  30.831  1.00  0.00    -0.354 N 
ATOM     66  N   UNL A   1      43.140  36.157  32.898  1.00  0.00    -0.248 NA
ATOM     67  C   UNL A   1      42.031  36.286  34.949  1.00  0.00     0.031 C 
ATOM     68  C   UNL A   1      45.376  39.523  31.052  1.00  0.00     0.029 A 
ATOM     69  C   UNL A   1      44.676  38.488  31.654  1.00  0.00     0.049 A 
ATOM     70  H   UNL A   1      44.434  36.494  31.008  1.00  0.00     0.167 HD
ATOM     71  C   UNL A   1      43.274  37.443  33.410  1.00  0.00     0.074 A 
ATOM     72  C   UNL A   1      42.541  37.474  34.658  1.00  0.00     0.031 C 
ATOM     73  C   UNL A   1      43.939  38.505  32.891  1.00  0.00     0.031 A 
BRANCH  60  74
ATOM     74  C   UNL A   1      46.835  37.291  27.569  1.00  0.00    -0.014 A 
ATOM     75  C   UNL A   1      46.316  37.993  26.470  1.00  0.00     0.009 A 
ATOM     76  C   UNL A   1      48.218  37.066  27.637  1.00  0.00     0.009 A 
ATOM     77  C   UNL A   1      47.160  38.428  25.445  1.00  0.00     0.001 A 
ATOM     78  C   UNL A   1      49.065  37.531  26.629  1.00  0.00     0.001 A 
ATOM     79  C   UNL A   1      48.533  38.201  25.529  1.00  0.00     0.000 A 
ENDBRANCH  60  74
BRANCH  61  80
ATOM     80  C   UNL A   1      41.079  33.525  34.813  1.00  0.00    -0.014 A 
ATOM     81  C   UNL A   1      39.683  33.673  34.802  1.00  0.00     0.009 A 
ATOM     82  C   UNL A   1      41.680  32.877  35.903  1.00  0.00     0.009 A 
ATOM     83  C   UNL A   1      38.912  33.210  35.872  1.00  0.00     0.001 A 
ATOM     84  C   UNL A   1      40.905  32.385  36.955  1.00  0.00     0.001 A 
ATOM     85  C   UNL A   1      39.523  32.561  36.944  1.00  0.00     0.000 A 
ENDBRANCH  61  80
BRANCH  73  86
ATOM     86  C   UNL A   1      43.862  39.809  33.640  1.00  0.00    -0.014 A 
ATOM     87  C   UNL A   1      44.778  40.133  34.652  1.00  0.00     0.009 A 
ATOM     88  C   UNL A   1      42.883  40.751  33.284  1.00  0.00     0.009 A 
ATOM     89  C   UNL A   1      44.690  41.360  35.316  1.00  0.00     0.001 A 
ATOM     90  C   UNL A   1      42.820  41.988  33.924  1.00  0.00     0.001 A 
ATOM     91  C   UNL A   1      43.716  42.288  34.947  1.00  0.00     0.000 A 
ENDBRANCH  73  86
ENDBRANCH  47  48
ENDBRANCH  40  42
ENDBRANCH  39  40
ENDBRANCH  38  39
ENDBRANCH  37  38
ENDBRANCH  36  37
ENDBRANCH  35  36
ENDBRANCH  34  35
ENDBRANCH  33  34
ENDBRANCH   1  33
TORSDOF 24
ENDMDL
