MODEL 1
REMARK VINA RESULT:      -8.5      0.000      0.000
REMARK SMILES CC(C)(C)[NH2+]CCC(=O)N1CCO[C@@H](CC(=O)OCCOCCOCCOCCOC(=O)c2ccc(-c3c4nc(c(-c5ccccc5)c5ccc([nH]5)c(-c5ccccc5)c5nc(c(-c6ccccc6)c6ccc3[nH]6)C=C5)C=C4)cc2)C1
REMARK SMILES IDX 22 1 21 2 20 3 19 4 18 5 16 6 17 7 15 8 14 9 10 10 11 11
REMARK SMILES IDX 81 12 12 13 13 14 8 15 9 16 7 17 6 18 5 19 2 22 1 23 3 24
REMARK SMILES IDX 4 25 23 26 24 27 25 28 26 29 27 30 28 31 29 32 30 33 31 34
REMARK SMILES IDX 32 35 33 36 34 37 80 38 35 39 79 40 36 41 37 42 38 43 73 44
REMARK SMILES IDX 39 45 78 46 72 47 74 48 40 49 77 50 71 51 70 52 41 54 63 55
REMARK SMILES IDX 48 56 62 57 49 58 52 59 61 60 75 61 50 62 51 63 60 65 76 66
REMARK SMILES IDX 53 67 42 68 43 69 47 70 44 71 46 72 45 73 64 74 65 75 69 76
REMARK SMILES IDX 66 77 68 78 67 79 54 80 55 81 59 82 56 83 58 84 57 85
REMARK H PARENT 5 20 5 21 74 53 52 64
REMARK Flexibility Score: inf
ROOT
ATOM      1  C   UNL A   1      31.540  23.268  26.803  1.00  0.00     0.188 C 
ENDROOT
BRANCH   1   2
ATOM      2  O   UNL A   1      32.417  22.604  27.680  1.00  0.00    -0.376 OA
BRANCH   2   3
ATOM      3  C   UNL A   1      33.410  21.708  27.210  1.00  0.00     0.202 C 
BRANCH   3   4
ATOM      4  C   UNL A   1      34.811  22.093  26.703  1.00  0.00     0.261 C 
BRANCH   4   5
ATOM      5  O   UNL A   1      35.117  23.483  26.566  1.00  0.00    -0.463 OA
BRANCH   5   6
ATOM      6  C   UNL A   1      36.193  23.774  25.806  1.00  0.00     0.308 C 
ATOM      7  O   UNL A   1      37.344  23.817  26.230  1.00  0.00    -0.252 OA
BRANCH   6   8
ATOM      8  C   UNL A   1      35.900  24.003  24.350  1.00  0.00     0.156 C 
BRANCH   8   9
ATOM      9  C   UNL A   1      34.489  24.118  23.786  1.00  0.00     0.148 C 
ATOM     10  N   UNL A   1      32.680  25.300  22.625  1.00  0.00    -0.338 N 
ATOM     11  C   UNL A   1      32.634  24.268  21.600  1.00  0.00     0.148 C 
ATOM     12  C   UNL A   1      34.031  25.470  23.198  1.00  0.00     0.152 C 
ATOM     13  C   UNL A   1      33.135  22.947  22.189  1.00  0.00     0.182 C 
ATOM     14  O   UNL A   1      34.450  23.100  22.737  1.00  0.00    -0.374 OA
BRANCH  10  15
ATOM     15  C   UNL A   1      31.730  26.278  22.814  1.00  0.00     0.228 C 
ATOM     16  O   UNL A   1      30.661  26.002  23.374  1.00  0.00    -0.275 OA
BRANCH  15  17
ATOM     17  C   UNL A   1      31.831  27.624  22.081  1.00  0.00     0.161 C 
BRANCH  17  18
ATOM     18  C   UNL A   1      31.446  28.991  22.651  1.00  0.00     0.270 C 
BRANCH  18  19
ATOM     19  N   UNL A   1      30.535  29.882  21.934  1.00  0.00    -0.342 N 
ATOM     20  H   UNL A   1      30.959  30.809  21.963  1.00  0.00     0.346 HD
ATOM     21  H   UNL A   1      30.437  29.413  21.034  1.00  0.00     0.346 HD
BRANCH  19  22
ATOM     22  C   UNL A   1      29.136  30.055  22.349  1.00  0.00     0.088 C 
ATOM     23  C   UNL A   1      28.523  28.746  22.861  1.00  0.00     0.078 C 
ATOM     24  C   UNL A   1      28.260  30.654  21.247  1.00  0.00     0.078 C 
ATOM     25  C   UNL A   1      29.171  31.054  23.528  1.00  0.00     0.078 C 
ENDBRANCH  19  22
ENDBRANCH  18  19
ENDBRANCH  17  18
ENDBRANCH  15  17
ENDBRANCH  10  15
ENDBRANCH   8   9
ENDBRANCH   6   8
ENDBRANCH   5   6
ENDBRANCH   4   5
ENDBRANCH   3   4
ENDBRANCH   2   3
ENDBRANCH   1   2
BRANCH   1  26
ATOM     26  C   UNL A   1      31.873  24.740  26.516  1.00  0.00     0.188 C 
BRANCH  26  27
ATOM     27  O   UNL A   1      30.818  25.681  26.552  1.00  0.00    -0.377 OA
BRANCH  27  28
ATOM     28  C   UNL A   1      31.059  27.019  26.987  1.00  0.00     0.188 C 
BRANCH  28  29
ATOM     29  C   UNL A   1      32.029  27.968  26.245  1.00  0.00     0.188 C 
BRANCH  29  30
ATOM     30  O   UNL A   1      31.486  29.226  25.882  1.00  0.00    -0.376 OA
BRANCH  30  31
ATOM     31  C   UNL A   1      32.307  30.368  26.065  1.00  0.00     0.202 C 
BRANCH  31  32
ATOM     32  C   UNL A   1      33.688  30.110  26.683  1.00  0.00     0.261 C 
BRANCH  32  33
ATOM     33  O   UNL A   1      33.796  30.350  28.097  1.00  0.00    -0.460 OA
BRANCH  33  34
ATOM     34  C   UNL A   1      34.787  31.177  28.497  1.00  0.00     0.338 C 
ATOM     35  O   UNL A   1      34.673  32.321  28.890  1.00  0.00    -0.246 OA
BRANCH  34  36
ATOM     36  C   UNL A   1      36.047  30.406  28.555  1.00  0.00     0.060 A 
ATOM     37  C   UNL A   1      36.382  29.758  29.751  1.00  0.00     0.016 A 
ATOM     38  C   UNL A   1      36.909  30.355  27.458  1.00  0.00     0.016 A 
ATOM     39  C   UNL A   1      37.601  29.092  29.867  1.00  0.00     0.010 A 
ATOM     40  C   UNL A   1      38.139  29.701  27.583  1.00  0.00     0.010 A 
ATOM     41  C   UNL A   1      38.509  29.098  28.799  1.00  0.00    -0.014 A 
BRANCH  41  42
ATOM     42  C   UNL A   1      39.903  28.639  29.022  1.00  0.00     0.031 A 
ATOM     43  C   UNL A   1      40.879  29.585  29.670  1.00  0.00     0.074 A 
ATOM     44  C   UNL A   1      40.291  27.392  28.697  1.00  0.00     0.049 A 
ATOM     45  N   UNL A   1      42.148  29.413  29.942  1.00  0.00    -0.248 NA
ATOM     46  C   UNL A   1      40.353  30.903  30.062  1.00  0.00     0.031 C 
ATOM     47  C   UNL A   1      39.436  26.364  28.107  1.00  0.00     0.029 A 
ATOM     48  N   UNL A   1      41.517  26.784  28.819  1.00  0.00    -0.354 N 
ATOM     49  C   UNL A   1      42.574  30.603  30.523  1.00  0.00     0.074 A 
ATOM     50  C   UNL A   1      41.436  31.496  30.542  1.00  0.00     0.031 C 
ATOM     51  C   UNL A   1      40.167  25.252  27.913  1.00  0.00     0.029 A 
ATOM     52  C   UNL A   1      41.547  25.502  28.326  1.00  0.00     0.049 A 
ATOM     53  H   UNL A   1      42.300  27.225  29.222  1.00  0.00     0.167 HD
ATOM     54  C   UNL A   1      43.801  30.922  30.997  1.00  0.00     0.031 A 
ATOM     55  C   UNL A   1      42.576  24.642  28.194  1.00  0.00     0.031 A 
ATOM     56  C   UNL A   1      44.936  30.039  30.973  1.00  0.00     0.049 A 
ATOM     57  C   UNL A   1      43.951  25.054  28.660  1.00  0.00     0.074 A 
ATOM     58  C   UNL A   1      46.213  30.267  31.452  1.00  0.00     0.029 A 
ATOM     59  N   UNL A   1      44.933  28.764  30.430  1.00  0.00    -0.354 N 
ATOM     60  N   UNL A   1      44.333  26.166  29.238  1.00  0.00    -0.248 NA
ATOM     61  C   UNL A   1      45.036  24.081  28.459  1.00  0.00     0.031 C 
ATOM     62  C   UNL A   1      47.002  29.157  31.138  1.00  0.00     0.029 A 
ATOM     63  C   UNL A   1      46.197  28.208  30.529  1.00  0.00     0.049 A 
ATOM     64  H   UNL A   1      44.149  28.321  30.032  1.00  0.00     0.167 HD
ATOM     65  C   UNL A   1      45.691  26.016  29.496  1.00  0.00     0.074 A 
ATOM     66  C   UNL A   1      46.061  24.697  29.031  1.00  0.00     0.031 C 
ATOM     67  C   UNL A   1      46.554  26.892  30.066  1.00  0.00     0.031 A 
BRANCH  54  68
ATOM     68  C   UNL A   1      43.995  32.307  31.550  1.00  0.00    -0.014 A 
ATOM     69  C   UNL A   1      43.921  32.567  32.927  1.00  0.00     0.009 A 
ATOM     70  C   UNL A   1      44.312  33.360  30.677  1.00  0.00     0.009 A 
ATOM     71  C   UNL A   1      44.135  33.858  33.415  1.00  0.00     0.001 A 
ATOM     72  C   UNL A   1      44.555  34.643  31.169  1.00  0.00     0.001 A 
ATOM     73  C   UNL A   1      44.459  34.893  32.537  1.00  0.00     0.000 A 
ENDBRANCH  54  68
BRANCH  55  74
ATOM     74  C   UNL A   1      42.369  23.314  27.554  1.00  0.00    -0.014 A 
ATOM     75  C   UNL A   1      42.691  23.105  26.204  1.00  0.00     0.009 A 
ATOM     76  C   UNL A   1      41.796  22.259  28.282  1.00  0.00     0.009 A 
ATOM     77  C   UNL A   1      42.411  21.881  25.589  1.00  0.00     0.001 A 
ATOM     78  C   UNL A   1      41.551  21.025  27.675  1.00  0.00     0.001 A 
ATOM     79  C   UNL A   1      41.846  20.841  26.326  1.00  0.00     0.000 A 
ENDBRANCH  55  74
BRANCH  67  80
ATOM     80  C   UNL A   1      47.976  26.439  30.261  1.00  0.00    -0.014 A 
ATOM     81  C   UNL A   1      48.377  25.748  31.414  1.00  0.00     0.009 A 
ATOM     82  C   UNL A   1      48.922  26.674  29.248  1.00  0.00     0.009 A 
ATOM     83  C   UNL A   1      49.703  25.337  31.567  1.00  0.00     0.001 A 
ATOM     84  C   UNL A   1      50.238  26.231  29.389  1.00  0.00     0.001 A 
ATOM     85  C   UNL A   1      50.630  25.574  30.553  1.00  0.00     0.000 A 
ENDBRANCH  67  80
ENDBRANCH  41  42
ENDBRANCH  34  36
ENDBRANCH  33  34
ENDBRANCH  32  33
ENDBRANCH  31  32
ENDBRANCH  30  31
ENDBRANCH  29  30
ENDBRANCH  28  29
ENDBRANCH  27  28
ENDBRANCH  26  27
ENDBRANCH   1  26
TORSDOF 26
ENDMDL
MODEL 2
REMARK VINA RESULT:      -8.4      2.384      7.262
REMARK SMILES CC(C)(C)[NH2+]CCC(=O)N1CCO[C@@H](CC(=O)OCCOCCOCCOCCOC(=O)c2ccc(-c3c4nc(c(-c5ccccc5)c5ccc([nH]5)c(-c5ccccc5)c5nc(c(-c6ccccc6)c6ccc3[nH]6)C=C5)C=C4)cc2)C1
REMARK SMILES IDX 22 1 21 2 20 3 19 4 18 5 16 6 17 7 15 8 14 9 10 10 11 11
REMARK SMILES IDX 81 12 12 13 13 14 8 15 9 16 7 17 6 18 5 19 2 22 1 23 3 24
REMARK SMILES IDX 4 25 23 26 24 27 25 28 26 29 27 30 28 31 29 32 30 33 31 34
REMARK SMILES IDX 32 35 33 36 34 37 80 38 35 39 79 40 36 41 37 42 38 43 73 44
REMARK SMILES IDX 39 45 78 46 72 47 74 48 40 49 77 50 71 51 70 52 41 54 63 55
REMARK SMILES IDX 48 56 62 57 49 58 52 59 61 60 75 61 50 62 51 63 60 65 76 66
REMARK SMILES IDX 53 67 42 68 43 69 47 70 44 71 46 72 45 73 64 74 65 75 69 76
REMARK SMILES IDX 66 77 68 78 67 79 54 80 55 81 59 82 56 83 58 84 57 85
REMARK H PARENT 5 20 5 21 74 53 52 64
REMARK Flexibility Score: inf
ROOT
ATOM      1  C   UNL A   1      32.701  22.378  26.972  1.00  0.00     0.188 C 
ENDROOT
BRANCH   1   2
ATOM      2  O   UNL A   1      33.429  23.481  26.487  1.00  0.00    -0.376 OA
BRANCH   2   3
ATOM      3  C   UNL A   1      34.820  23.622  26.720  1.00  0.00     0.202 C 
BRANCH   3   4
ATOM      4  C   UNL A   1      35.890  23.928  25.657  1.00  0.00     0.261 C 
BRANCH   4   5
ATOM      5  O   UNL A   1      35.459  24.476  24.409  1.00  0.00    -0.463 OA
BRANCH   5   6
ATOM      6  C   UNL A   1      35.269  23.585  23.413  1.00  0.00     0.308 C 
ATOM      7  O   UNL A   1      36.176  23.076  22.762  1.00  0.00    -0.252 OA
BRANCH   6   8
ATOM      8  C   UNL A   1      33.837  23.204  23.166  1.00  0.00     0.156 C 
BRANCH   8   9
ATOM      9  C   UNL A   1      32.775  24.190  22.692  1.00  0.00     0.148 C 
ATOM     10  N   UNL A   1      31.395  26.204  22.919  1.00  0.00    -0.338 N 
ATOM     11  C   UNL A   1      31.958  26.755  21.696  1.00  0.00     0.148 C 
ATOM     12  C   UNL A   1      32.344  25.331  23.638  1.00  0.00     0.152 C 
ATOM     13  C   UNL A   1      32.421  25.610  20.792  1.00  0.00     0.182 C 
ATOM     14  O   UNL A   1      33.352  24.765  21.477  1.00  0.00    -0.374 OA
BRANCH  10  15
ATOM     15  C   UNL A   1      30.282  26.686  23.572  1.00  0.00     0.228 C 
ATOM     16  O   UNL A   1      29.260  25.992  23.646  1.00  0.00    -0.275 OA
BRANCH  15  17
ATOM     17  C   UNL A   1      30.171  28.172  23.942  1.00  0.00     0.161 C 
BRANCH  17  18
ATOM     18  C   UNL A   1      31.308  29.060  24.453  1.00  0.00     0.270 C 
BRANCH  18  19
ATOM     19  N   UNL A   1      32.313  28.545  25.381  1.00  0.00    -0.342 N 
ATOM     20  H   UNL A   1      32.087  27.562  25.533  1.00  0.00     0.346 HD
ATOM     21  H   UNL A   1      33.186  28.782  24.910  1.00  0.00     0.346 HD
BRANCH  19  22
ATOM     22  C   UNL A   1      32.509  29.132  26.714  1.00  0.00     0.088 C 
ATOM     23  C   UNL A   1      31.986  30.571  26.790  1.00  0.00     0.078 C 
ATOM     24  C   UNL A   1      33.966  29.075  27.179  1.00  0.00     0.078 C 
ATOM     25  C   UNL A   1      31.665  28.269  27.679  1.00  0.00     0.078 C 
ENDBRANCH  19  22
ENDBRANCH  18  19
ENDBRANCH  17  18
ENDBRANCH  15  17
ENDBRANCH  10  15
ENDBRANCH   8   9
ENDBRANCH   6   8
ENDBRANCH   5   6
ENDBRANCH   4   5
ENDBRANCH   3   4
ENDBRANCH   2   3
ENDBRANCH   1   2
BRANCH   1  26
ATOM     26  C   UNL A   1      33.326  21.000  26.707  1.00  0.00     0.188 C 
BRANCH  26  27
ATOM     27  O   UNL A   1      33.318  20.510  25.380  1.00  0.00    -0.377 OA
BRANCH  27  28
ATOM     28  C   UNL A   1      34.467  19.853  24.846  1.00  0.00     0.188 C 
BRANCH  28  29
ATOM     29  C   UNL A   1      35.891  20.444  24.972  1.00  0.00     0.188 C 
BRANCH  29  30
ATOM     30  O   UNL A   1      36.945  19.499  24.934  1.00  0.00    -0.376 OA
BRANCH  30  31
ATOM     31  C   UNL A   1      38.266  19.987  25.105  1.00  0.00     0.202 C 
BRANCH  31  32
ATOM     32  C   UNL A   1      38.398  21.497  25.343  1.00  0.00     0.261 C 
BRANCH  32  33
ATOM     33  O   UNL A   1      39.138  21.884  26.514  1.00  0.00    -0.460 OA
BRANCH  33  34
ATOM     34  C   UNL A   1      40.386  22.362  26.312  1.00  0.00     0.338 C 
ATOM     35  O   UNL A   1      41.284  21.828  25.692  1.00  0.00    -0.246 OA
BRANCH  34  36
ATOM     36  C   UNL A   1      40.444  23.749  26.821  1.00  0.00     0.060 A 
ATOM     37  C   UNL A   1      41.163  24.702  26.088  1.00  0.00     0.016 A 
ATOM     38  C   UNL A   1      39.834  24.097  28.027  1.00  0.00     0.016 A 
ATOM     39  C   UNL A   1      41.308  25.998  26.582  1.00  0.00     0.010 A 
ATOM     40  C   UNL A   1      39.996  25.393  28.529  1.00  0.00     0.010 A 
ATOM     41  C   UNL A   1      40.765  26.339  27.828  1.00  0.00    -0.014 A 
BRANCH  41  42
ATOM     42  C   UNL A   1      41.160  27.618  28.471  1.00  0.00     0.031 A 
ATOM     43  C   UNL A   1      40.109  28.676  28.678  1.00  0.00     0.074 A 
ATOM     44  C   UNL A   1      42.417  27.828  28.903  1.00  0.00     0.049 A 
ATOM     45  N   UNL A   1      40.225  29.874  29.195  1.00  0.00    -0.248 NA
ATOM     46  C   UNL A   1      38.744  28.338  28.245  1.00  0.00     0.031 C 
ATOM     47  C   UNL A   1      43.518  26.871  28.804  1.00  0.00     0.029 A 
ATOM     48  N   UNL A   1      42.977  28.926  29.511  1.00  0.00    -0.354 N 
ATOM     49  C   UNL A   1      38.954  30.435  29.134  1.00  0.00     0.074 A 
ATOM     50  C   UNL A   1      38.088  29.458  28.511  1.00  0.00     0.031 C 
ATOM     51  C   UNL A   1      44.624  27.427  29.330  1.00  0.00     0.029 A 
ATOM     52  C   UNL A   1      44.320  28.790  29.763  1.00  0.00     0.049 A 
ATOM     53  H   UNL A   1      42.463  29.732  29.744  1.00  0.00     0.167 HD
ATOM     54  C   UNL A   1      38.545  31.653  29.559  1.00  0.00     0.031 A 
ATOM     55  C   UNL A   1      45.209  29.676  30.257  1.00  0.00     0.031 A 
ATOM     56  C   UNL A   1      39.405  32.630  30.172  1.00  0.00     0.049 A 
ATOM     57  C   UNL A   1      44.740  31.055  30.651  1.00  0.00     0.074 A 
ATOM     58  C   UNL A   1      39.075  33.883  30.657  1.00  0.00     0.029 A 
ATOM     59  N   UNL A   1      40.766  32.468  30.374  1.00  0.00    -0.354 N 
ATOM     60  N   UNL A   1      43.531  31.560  30.621  1.00  0.00    -0.248 NA
ATOM     61  C   UNL A   1      45.764  31.983  31.154  1.00  0.00     0.031 C 
ATOM     62  C   UNL A   1      40.248  34.507  31.089  1.00  0.00     0.029 A 
ATOM     63  C   UNL A   1      41.297  33.613  30.943  1.00  0.00     0.049 A 
ATOM     64  H   UNL A   1      41.279  31.659  30.147  1.00  0.00     0.167 HD
ATOM     65  C   UNL A   1      43.644  32.851  31.127  1.00  0.00     0.074 A 
ATOM     66  C   UNL A   1      45.035  33.042  31.476  1.00  0.00     0.031 C 
ATOM     67  C   UNL A   1      42.683  33.792  31.289  1.00  0.00     0.031 A 
BRANCH  54  68
ATOM     68  C   UNL A   1      37.103  32.021  29.339  1.00  0.00    -0.014 A 
ATOM     69  C   UNL A   1      36.660  32.561  28.122  1.00  0.00     0.009 A 
ATOM     70  C   UNL A   1      36.165  31.769  30.352  1.00  0.00     0.009 A 
ATOM     71  C   UNL A   1      35.310  32.866  27.935  1.00  0.00     0.001 A 
ATOM     72  C   UNL A   1      34.812  32.047  30.152  1.00  0.00     0.001 A 
ATOM     73  C   UNL A   1      34.386  32.602  28.946  1.00  0.00     0.000 A 
ENDBRANCH  54  68
BRANCH  55  74
ATOM     74  C   UNL A   1      46.647  29.312  30.373  1.00  0.00    -0.014 A 
ATOM     75  C   UNL A   1      47.539  29.548  29.315  1.00  0.00     0.009 A 
ATOM     76  C   UNL A   1      47.126  28.678  31.530  1.00  0.00     0.009 A 
ATOM     77  C   UNL A   1      48.869  29.123  29.399  1.00  0.00     0.001 A 
ATOM     78  C   UNL A   1      48.464  28.287  31.627  1.00  0.00     0.001 A 
ATOM     79  C   UNL A   1      49.330  28.497  30.557  1.00  0.00     0.000 A 
ENDBRANCH  55  74
BRANCH  67  80
ATOM     80  C   UNL A   1      43.090  35.102  31.908  1.00  0.00    -0.014 A 
ATOM     81  C   UNL A   1      43.538  36.178  31.127  1.00  0.00     0.009 A 
ATOM     82  C   UNL A   1      42.984  35.274  33.299  1.00  0.00     0.009 A 
ATOM     83  C   UNL A   1      43.908  37.383  31.728  1.00  0.00     0.001 A 
ATOM     84  C   UNL A   1      43.321  36.490  33.893  1.00  0.00     0.001 A 
ATOM     85  C   UNL A   1      43.794  37.540  33.109  1.00  0.00     0.000 A 
ENDBRANCH  67  80
ENDBRANCH  41  42
ENDBRANCH  34  36
ENDBRANCH  33  34
ENDBRANCH  32  33
ENDBRANCH  31  32
ENDBRANCH  30  31
ENDBRANCH  29  30
ENDBRANCH  28  29
ENDBRANCH  27  28
ENDBRANCH  26  27
ENDBRANCH   1  26
TORSDOF 26
ENDMDL
MODEL 3
REMARK VINA RESULT:      -8.3      2.513      7.548
REMARK SMILES CC(C)(C)[NH2+]CCC(=O)N1CCO[C@@H](CC(=O)OCCOCCOCCOCCOC(=O)c2ccc(-c3c4nc(c(-c5ccccc5)c5ccc([nH]5)c(-c5ccccc5)c5nc(c(-c6ccccc6)c6ccc3[nH]6)C=C5)C=C4)cc2)C1
REMARK SMILES IDX 22 1 21 2 20 3 19 4 18 5 16 6 17 7 15 8 14 9 10 10 11 11
REMARK SMILES IDX 81 12 12 13 13 14 8 15 9 16 7 17 6 18 5 19 2 22 1 23 3 24
REMARK SMILES IDX 4 25 23 26 24 27 25 28 26 29 27 30 28 31 29 32 30 33 31 34
REMARK SMILES IDX 32 35 33 36 34 37 80 38 35 39 79 40 36 41 37 42 38 43 73 44
REMARK SMILES IDX 39 45 78 46 72 47 74 48 40 49 77 50 71 51 70 52 41 54 63 55
REMARK SMILES IDX 48 56 62 57 49 58 52 59 61 60 75 61 50 62 51 63 60 65 76 66
REMARK SMILES IDX 53 67 42 68 43 69 47 70 44 71 46 72 45 73 64 74 65 75 69 76
REMARK SMILES IDX 66 77 68 78 67 79 54 80 55 81 59 82 56 83 58 84 57 85
REMARK H PARENT 5 20 5 21 74 53 52 64
REMARK Flexibility Score: inf
ROOT
ATOM      1  C   UNL A   1      32.613  22.301  26.731  1.00  0.00     0.188 C 
ENDROOT
BRANCH   1   2
ATOM      2  O   UNL A   1      33.400  23.463  26.618  1.00  0.00    -0.376 OA
BRANCH   2   3
ATOM      3  C   UNL A   1      34.802  23.440  26.820  1.00  0.00     0.202 C 
BRANCH   3   4
ATOM      4  C   UNL A   1      35.876  23.668  25.741  1.00  0.00     0.261 C 
BRANCH   4   5
ATOM      5  O   UNL A   1      35.480  24.301  24.522  1.00  0.00    -0.463 OA
BRANCH   5   6
ATOM      6  C   UNL A   1      35.402  23.495  23.442  1.00  0.00     0.308 C 
ATOM      7  O   UNL A   1      36.376  23.019  22.866  1.00  0.00    -0.252 OA
BRANCH   6   8
ATOM      8  C   UNL A   1      34.006  23.163  22.997  1.00  0.00     0.156 C 
BRANCH   8   9
ATOM      9  C   UNL A   1      32.907  24.207  22.833  1.00  0.00     0.148 C 
ATOM     10  N   UNL A   1      31.660  26.205  23.518  1.00  0.00    -0.338 N 
ATOM     11  C   UNL A   1      32.002  26.873  22.271  1.00  0.00     0.148 C 
ATOM     12  C   UNL A   1      32.699  25.250  23.952  1.00  0.00     0.152 C 
ATOM     13  C   UNL A   1      32.249  25.822  21.186  1.00  0.00     0.182 C 
ATOM     14  O   UNL A   1      33.264  24.897  21.594  1.00  0.00    -0.374 OA
BRANCH  10  15
ATOM     15  C   UNL A   1      30.706  26.632  24.414  1.00  0.00     0.228 C 
ATOM     16  O   UNL A   1      29.815  27.409  24.046  1.00  0.00    -0.275 OA
BRANCH  15  17
ATOM     17  C   UNL A   1      30.893  26.415  25.923  1.00  0.00     0.161 C 
BRANCH  17  18
ATOM     18  C   UNL A   1      31.758  27.267  26.855  1.00  0.00     0.270 C 
BRANCH  18  19
ATOM     19  N   UNL A   1      31.591  28.718  26.928  1.00  0.00    -0.342 N 
ATOM     20  H   UNL A   1      30.746  28.937  26.400  1.00  0.00     0.346 HD
ATOM     21  H   UNL A   1      31.601  28.887  27.933  1.00  0.00     0.346 HD
BRANCH  19  22
ATOM     22  C   UNL A   1      32.628  29.640  26.447  1.00  0.00     0.088 C 
ATOM     23  C   UNL A   1      32.826  29.542  24.929  1.00  0.00     0.078 C 
ATOM     24  C   UNL A   1      33.966  29.457  27.167  1.00  0.00     0.078 C 
ATOM     25  C   UNL A   1      32.105  31.059  26.765  1.00  0.00     0.078 C 
ENDBRANCH  19  22
ENDBRANCH  18  19
ENDBRANCH  17  18
ENDBRANCH  15  17
ENDBRANCH  10  15
ENDBRANCH   8   9
ENDBRANCH   6   8
ENDBRANCH   5   6
ENDBRANCH   4   5
ENDBRANCH   3   4
ENDBRANCH   2   3
ENDBRANCH   1   2
BRANCH   1  26
ATOM     26  C   UNL A   1      33.350  20.973  26.501  1.00  0.00     0.188 C 
BRANCH  26  27
ATOM     27  O   UNL A   1      33.636  20.593  25.169  1.00  0.00    -0.377 OA
BRANCH  27  28
ATOM     28  C   UNL A   1      34.796  19.815  24.874  1.00  0.00     0.188 C 
BRANCH  28  29
ATOM     29  C   UNL A   1      36.229  20.383  25.007  1.00  0.00     0.188 C 
BRANCH  29  30
ATOM     30  O   UNL A   1      37.266  19.418  25.007  1.00  0.00    -0.376 OA
BRANCH  30  31
ATOM     31  C   UNL A   1      38.568  19.859  25.355  1.00  0.00     0.202 C 
BRANCH  31  32
ATOM     32  C   UNL A   1      38.757  21.378  25.454  1.00  0.00     0.261 C 
BRANCH  32  33
ATOM     33  O   UNL A   1      39.510  21.843  26.588  1.00  0.00    -0.460 OA
BRANCH  33  34
ATOM     34  C   UNL A   1      40.652  22.515  26.324  1.00  0.00     0.338 C 
ATOM     35  O   UNL A   1      41.568  22.153  25.612  1.00  0.00    -0.246 OA
BRANCH  34  36
ATOM     36  C   UNL A   1      40.544  23.870  26.905  1.00  0.00     0.060 A 
ATOM     37  C   UNL A   1      41.473  24.844  26.514  1.00  0.00     0.016 A 
ATOM     38  C   UNL A   1      39.566  24.167  27.856  1.00  0.00     0.016 A 
ATOM     39  C   UNL A   1      41.451  26.106  27.103  1.00  0.00     0.010 A 
ATOM     40  C   UNL A   1      39.558  25.430  28.459  1.00  0.00     0.010 A 
ATOM     41  C   UNL A   1      40.523  26.393  28.114  1.00  0.00    -0.014 A 
BRANCH  41  42
ATOM     42  C   UNL A   1      40.687  27.625  28.927  1.00  0.00     0.031 A 
ATOM     43  C   UNL A   1      41.933  27.780  29.759  1.00  0.00     0.074 A 
ATOM     44  C   UNL A   1      39.771  28.610  28.901  1.00  0.00     0.049 A 
ATOM     45  N   UNL A   1      42.281  28.754  30.562  1.00  0.00    -0.248 NA
ATOM     46  C   UNL A   1      42.919  26.690  29.673  1.00  0.00     0.031 C 
ATOM     47  C   UNL A   1      38.544  28.606  28.106  1.00  0.00     0.029 A 
ATOM     48  N   UNL A   1      39.735  29.808  29.572  1.00  0.00    -0.354 N 
ATOM     49  C   UNL A   1      43.515  28.387  31.086  1.00  0.00     0.074 A 
ATOM     50  C   UNL A   1      43.845  27.093  30.530  1.00  0.00     0.031 C 
ATOM     51  C   UNL A   1      37.873  29.748  28.339  1.00  0.00     0.029 A 
ATOM     52  C   UNL A   1      38.600  30.542  29.328  1.00  0.00     0.049 A 
ATOM     53  H   UNL A   1      40.457  30.113  30.169  1.00  0.00     0.167 HD
ATOM     54  C   UNL A   1      44.303  29.066  31.953  1.00  0.00     0.031 A 
ATOM     55  C   UNL A   1      38.180  31.705  29.867  1.00  0.00     0.031 A 
ATOM     56  C   UNL A   1      43.974  30.349  32.514  1.00  0.00     0.049 A 
ATOM     57  C   UNL A   1      39.043  32.402  30.889  1.00  0.00     0.074 A 
ATOM     58  C   UNL A   1      44.722  31.125  33.382  1.00  0.00     0.029 A 
ATOM     59  N   UNL A   1      42.798  31.039  32.272  1.00  0.00    -0.354 N 
ATOM     60  N   UNL A   1      40.222  32.063  31.350  1.00  0.00    -0.248 NA
ATOM     61  C   UNL A   1      38.514  33.650  31.460  1.00  0.00     0.031 C 
ATOM     62  C   UNL A   1      43.968  32.252  33.720  1.00  0.00     0.029 A 
ATOM     63  C   UNL A   1      42.782  32.214  33.003  1.00  0.00     0.049 A 
ATOM     64  H   UNL A   1      42.079  30.738  31.670  1.00  0.00     0.167 HD
ATOM     65  C   UNL A   1      40.588  33.067  32.240  1.00  0.00     0.074 A 
ATOM     66  C   UNL A   1      39.515  34.039  32.237  1.00  0.00     0.031 C 
ATOM     67  C   UNL A   1      41.711  33.176  32.991  1.00  0.00     0.031 A 
BRANCH  54  68
ATOM     68  C   UNL A   1      45.588  28.414  32.385  1.00  0.00    -0.014 A 
ATOM     69  C   UNL A   1      45.721  27.816  33.647  1.00  0.00     0.009 A 
ATOM     70  C   UNL A   1      46.665  28.353  31.487  1.00  0.00     0.009 A 
ATOM     71  C   UNL A   1      46.917  27.192  34.010  1.00  0.00     0.001 A 
ATOM     72  C   UNL A   1      47.849  27.703  31.841  1.00  0.00     0.001 A 
ATOM     73  C   UNL A   1      47.976  27.129  33.105  1.00  0.00     0.000 A 
ENDBRANCH  54  68
BRANCH  55  74
ATOM     74  C   UNL A   1      36.858  32.274  29.489  1.00  0.00    -0.014 A 
ATOM     75  C   UNL A   1      36.672  32.910  28.251  1.00  0.00     0.009 A 
ATOM     76  C   UNL A   1      35.784  32.228  30.391  1.00  0.00     0.009 A 
ATOM     77  C   UNL A   1      35.451  33.518  27.942  1.00  0.00     0.001 A 
ATOM     78  C   UNL A   1      34.554  32.804  30.066  1.00  0.00     0.001 A 
ATOM     79  C   UNL A   1      34.393  33.460  28.848  1.00  0.00     0.000 A 
ENDBRANCH  55  74
BRANCH  67  80
ATOM     80  C   UNL A   1      41.860  34.408  33.843  1.00  0.00    -0.014 A 
ATOM     81  C   UNL A   1      41.488  34.417  35.195  1.00  0.00     0.009 A 
ATOM     82  C   UNL A   1      42.424  35.569  33.288  1.00  0.00     0.009 A 
ATOM     83  C   UNL A   1      41.640  35.574  35.963  1.00  0.00     0.001 A 
ATOM     84  C   UNL A   1      42.607  36.713  34.066  1.00  0.00     0.001 A 
ATOM     85  C   UNL A   1      42.204  36.718  35.399  1.00  0.00     0.000 A 
ENDBRANCH  67  80
ENDBRANCH  41  42
ENDBRANCH  34  36
ENDBRANCH  33  34
ENDBRANCH  32  33
ENDBRANCH  31  32
ENDBRANCH  30  31
ENDBRANCH  29  30
ENDBRANCH  28  29
ENDBRANCH  27  28
ENDBRANCH  26  27
ENDBRANCH   1  26
TORSDOF 26
ENDMDL
