MODEL 1
REMARK VINA RESULT:      -8.9      0.000      0.000
REMARK SMILES Cc1ccc(NC(=O)Cn2c(CCC(=O)OCCOCCOCCOCCOC(=O)c3ccc(-c4c5nc(c(-c6ccccc6)c6ccc([nH]6)c(-c6ccccc6)c6nc(c(-c7ccccc7)c7ccc4[nH]7)C=C6)C=C5)cc3)ccc2-c2ccccc2)cc1
REMARK SMILES IDX 20 1 19 2 18 3 17 4 16 5 14 6 15 7 13 8 12 9 11 10 10 11
REMARK SMILES IDX 81 12 79 13 80 14 9 15 7 16 6 17 8 19 5 20 1 21 2 22 3 23
REMARK SMILES IDX 89 24 4 25 88 26 82 27 83 28 87 29 84 30 86 31 85 32 21 33
REMARK SMILES IDX 22 34 23 35 24 36 25 37 26 38 27 39 28 40 29 41 30 42 31 43
REMARK SMILES IDX 32 44 78 45 33 46 77 47 34 48 35 49 36 50 71 51 37 52 76 53
REMARK SMILES IDX 70 54 72 55 38 56 75 57 69 58 68 59 39 61 61 62 46 63 60 64
REMARK SMILES IDX 47 65 50 66 59 67 73 68 48 69 49 70 58 72 74 73 51 74 40 75
REMARK SMILES IDX 41 76 45 77 42 78 44 79 43 80 62 81 63 82 67 83 64 84 66 85
REMARK SMILES IDX 65 86 52 87 53 88 57 89 54 90 56 91 55 92
REMARK H PARENT 6 18 72 60 50 71
REMARK Flexibility Score: inf
ROOT
ATOM      1  C   UNL A   1      33.685  28.778  25.829  1.00  0.00     0.188 C 
ENDROOT
BRANCH   1   2
ATOM      2  O   UNL A   1      32.801  28.732  24.708  1.00  0.00    -0.376 OA
BRANCH   2   3
ATOM      3  C   UNL A   1      33.298  29.348  23.512  1.00  0.00     0.202 C 
BRANCH   3   4
ATOM      4  C   UNL A   1      33.567  28.433  22.307  1.00  0.00     0.261 C 
BRANCH   4   5
ATOM      5  O   UNL A   1      32.680  27.281  22.146  1.00  0.00    -0.463 OA
BRANCH   5   6
ATOM      6  C   UNL A   1      33.276  26.052  22.007  1.00  0.00     0.306 C 
ATOM      7  O   UNL A   1      33.222  25.342  21.005  1.00  0.00    -0.252 OA
BRANCH   6   8
ATOM      8  C   UNL A   1      34.023  25.589  23.255  1.00  0.00     0.129 C 
BRANCH   8   9
ATOM      9  C   UNL A   1      33.255  25.130  24.495  1.00  0.00     0.066 C 
BRANCH   9  10
ATOM     10  C   UNL A   1      33.791  23.913  25.211  1.00  0.00     0.019 A 
ATOM     11  N   UNL A   1      34.263  22.750  24.634  1.00  0.00    -0.335 N 
ATOM     12  C   UNL A   1      35.052  22.069  25.557  1.00  0.00     0.049 A 
ATOM     13  C   UNL A   1      33.812  23.656  26.574  1.00  0.00     0.024 A 
ATOM     14  C   UNL A   1      34.586  22.492  26.790  1.00  0.00     0.029 A 
BRANCH  11  15
ATOM     15  C   UNL A   1      33.937  22.204  23.324  1.00  0.00     0.222 C 
BRANCH  15  16
ATOM     16  C   UNL A   1      32.520  21.724  23.158  1.00  0.00     0.244 C 
ATOM     17  N   UNL A   1      31.997  20.543  23.501  1.00  0.00    -0.325 N 
ATOM     18  H   UNL A   1      31.013  20.559  23.514  1.00  0.00     0.169 HD
ATOM     19  O   UNL A   1      31.650  22.433  22.647  1.00  0.00    -0.273 OA
BRANCH  17  20
ATOM     20  C   UNL A   1      32.505  19.311  23.840  1.00  0.00     0.041 A 
ATOM     21  C   UNL A   1      33.476  15.423  25.307  1.00  0.00     0.044 C 
ATOM     22  C   UNL A   1      33.181  16.799  24.805  1.00  0.00    -0.051 A 
ATOM     23  C   UNL A   1      33.219  17.066  23.430  1.00  0.00     0.005 A 
ATOM     24  C   UNL A   1      32.841  17.811  25.701  1.00  0.00     0.005 A 
ATOM     25  C   UNL A   1      32.892  18.328  22.945  1.00  0.00     0.026 A 
ATOM     26  C   UNL A   1      32.516  19.066  25.217  1.00  0.00     0.026 A 
ENDBRANCH  17  20
ENDBRANCH  15  16
ENDBRANCH  11  15
BRANCH  12  27
ATOM     27  C   UNL A   1      36.140  21.122  25.252  1.00  0.00    -0.002 A 
ATOM     28  C   UNL A   1      35.869  19.775  24.981  1.00  0.00     0.010 A 
ATOM     29  C   UNL A   1      37.482  21.512  25.386  1.00  0.00     0.010 A 
ATOM     30  C   UNL A   1      36.909  18.842  24.863  1.00  0.00     0.001 A 
ATOM     31  C   UNL A   1      38.521  20.579  25.279  1.00  0.00     0.001 A 
ATOM     32  C   UNL A   1      38.234  19.241  25.024  1.00  0.00     0.000 A 
ENDBRANCH  12  27
ENDBRANCH   9  10
ENDBRANCH   8   9
ENDBRANCH   6   8
ENDBRANCH   5   6
ENDBRANCH   4   5
ENDBRANCH   3   4
ENDBRANCH   2   3
ENDBRANCH   1   2
BRANCH   1  33
ATOM     33  C   UNL A   1      33.393  29.824  26.936  1.00  0.00     0.188 C 
BRANCH  33  34
ATOM     34  O   UNL A   1      34.486  30.447  27.599  1.00  0.00    -0.377 OA
BRANCH  34  35
ATOM     35  C   UNL A   1      34.490  31.859  27.730  1.00  0.00     0.188 C 
BRANCH  35  36
ATOM     36  C   UNL A   1      34.165  32.434  29.099  1.00  0.00     0.188 C 
BRANCH  36  37
ATOM     37  O   UNL A   1      35.172  33.245  29.680  1.00  0.00    -0.376 OA
BRANCH  37  38
ATOM     38  C   UNL A   1      35.815  32.744  30.849  1.00  0.00     0.202 C 
BRANCH  38  39
ATOM     39  C   UNL A   1      37.018  33.536  31.419  1.00  0.00     0.261 C 
BRANCH  39  40
ATOM     40  O   UNL A   1      38.194  33.475  30.574  1.00  0.00    -0.460 OA
BRANCH  40  41
ATOM     41  C   UNL A   1      39.402  33.525  31.235  1.00  0.00     0.338 C 
ATOM     42  O   UNL A   1      39.631  34.228  32.189  1.00  0.00    -0.246 OA
BRANCH  41  43
ATOM     43  C   UNL A   1      40.486  32.749  30.503  1.00  0.00     0.060 A 
ATOM     44  C   UNL A   1      40.325  31.384  30.196  1.00  0.00     0.016 A 
ATOM     45  C   UNL A   1      41.735  33.295  30.262  1.00  0.00     0.016 A 
ATOM     46  C   UNL A   1      41.416  30.562  29.743  1.00  0.00     0.010 A 
ATOM     47  C   UNL A   1      42.804  32.475  29.845  1.00  0.00     0.010 A 
ATOM     48  C   UNL A   1      42.712  31.076  29.598  1.00  0.00    -0.014 A 
BRANCH  48  49
ATOM     49  C   UNL A   1      44.007  30.283  29.398  1.00  0.00     0.031 A 
ATOM     50  C   UNL A   1      44.503  29.616  30.618  1.00  0.00     0.074 A 
ATOM     51  C   UNL A   1      44.811  29.783  28.401  1.00  0.00     0.049 A 
ATOM     52  N   UNL A   1      44.338  28.347  30.835  1.00  0.00    -0.248 NA
ATOM     53  C   UNL A   1      45.250  30.344  31.634  1.00  0.00     0.031 C 
ATOM     54  C   UNL A   1      44.584  29.829  26.966  1.00  0.00     0.029 A 
ATOM     55  N   UNL A   1      46.007  28.995  28.509  1.00  0.00    -0.354 N 
ATOM     56  C   UNL A   1      45.138  28.059  31.913  1.00  0.00     0.074 A 
ATOM     57  C   UNL A   1      45.436  29.351  32.503  1.00  0.00     0.031 C 
ATOM     58  C   UNL A   1      45.465  29.006  26.351  1.00  0.00     0.029 A 
ATOM     59  C   UNL A   1      46.388  28.379  27.323  1.00  0.00     0.049 A 
ATOM     60  H   UNL A   1      46.512  28.900  29.349  1.00  0.00     0.167 HD
ATOM     61  C   UNL A   1      45.674  26.818  32.104  1.00  0.00     0.031 A 
ATOM     62  C   UNL A   1      47.144  27.263  27.045  1.00  0.00     0.031 A 
ATOM     63  C   UNL A   1      45.032  25.707  31.351  1.00  0.00     0.049 A 
ATOM     64  C   UNL A   1      46.067  26.294  26.698  1.00  0.00     0.074 A 
ATOM     65  C   UNL A   1      44.689  24.396  31.651  1.00  0.00     0.029 A 
ATOM     66  N   UNL A   1      44.527  25.890  30.065  1.00  0.00    -0.354 N 
ATOM     67  N   UNL A   1      45.402  25.831  27.701  1.00  0.00    -0.248 NA
ATOM     68  C   UNL A   1      45.639  25.777  25.412  1.00  0.00     0.031 C 
ATOM     69  C   UNL A   1      44.019  23.806  30.530  1.00  0.00     0.029 A 
ATOM     70  C   UNL A   1      43.900  24.757  29.535  1.00  0.00     0.049 A 
ATOM     71  H   UNL A   1      44.604  26.740  29.574  1.00  0.00     0.167 HD
ATOM     72  C   UNL A   1      44.374  25.104  27.233  1.00  0.00     0.074 A 
ATOM     73  C   UNL A   1      44.565  25.060  25.795  1.00  0.00     0.031 C 
ATOM     74  C   UNL A   1      43.426  24.751  28.129  1.00  0.00     0.031 A 
BRANCH  61  75
ATOM     75  C   UNL A   1      46.905  26.626  33.005  1.00  0.00    -0.014 A 
ATOM     76  C   UNL A   1      46.768  26.071  34.286  1.00  0.00     0.009 A 
ATOM     77  C   UNL A   1      48.247  26.858  32.619  1.00  0.00     0.009 A 
ATOM     78  C   UNL A   1      47.864  25.859  35.142  1.00  0.00     0.001 A 
ATOM     79  C   UNL A   1      49.346  26.689  33.474  1.00  0.00     0.001 A 
ATOM     80  C   UNL A   1      49.151  26.194  34.746  1.00  0.00     0.000 A 
ENDBRANCH  61  75
BRANCH  62  81
ATOM     81  C   UNL A   1      48.247  26.483  27.774  1.00  0.00    -0.014 A 
ATOM     82  C   UNL A   1      48.865  27.095  28.873  1.00  0.00     0.009 A 
ATOM     83  C   UNL A   1      48.975  25.418  27.177  1.00  0.00     0.009 A 
ATOM     84  C   UNL A   1      50.167  26.730  29.284  1.00  0.00     0.001 A 
ATOM     85  C   UNL A   1      50.290  25.091  27.548  1.00  0.00     0.001 A 
ATOM     86  C   UNL A   1      50.895  25.761  28.597  1.00  0.00     0.000 A 
ENDBRANCH  62  81
BRANCH  74  87
ATOM     87  C   UNL A   1      42.042  24.451  27.640  1.00  0.00    -0.014 A 
ATOM     88  C   UNL A   1      41.219  25.438  27.055  1.00  0.00     0.009 A 
ATOM     89  C   UNL A   1      41.452  23.209  27.862  1.00  0.00     0.009 A 
ATOM     90  C   UNL A   1      39.909  25.174  26.640  1.00  0.00     0.001 A 
ATOM     91  C   UNL A   1      40.121  22.948  27.500  1.00  0.00     0.001 A 
ATOM     92  C   UNL A   1      39.357  23.924  26.869  1.00  0.00     0.000 A 
ENDBRANCH  74  87
ENDBRANCH  48  49
ENDBRANCH  41  43
ENDBRANCH  40  41
ENDBRANCH  39  40
ENDBRANCH  38  39
ENDBRANCH  37  38
ENDBRANCH  36  37
ENDBRANCH  35  36
ENDBRANCH  34  35
ENDBRANCH  33  34
ENDBRANCH   1  33
TORSDOF 26
ENDMDL
MODEL 2
REMARK VINA RESULT:      -8.9      7.858     11.877
REMARK SMILES Cc1ccc(NC(=O)Cn2c(CCC(=O)OCCOCCOCCOCCOC(=O)c3ccc(-c4c5nc(c(-c6ccccc6)c6ccc([nH]6)c(-c6ccccc6)c6nc(c(-c7ccccc7)c7ccc4[nH]7)C=C6)C=C5)cc3)ccc2-c2ccccc2)cc1
REMARK SMILES IDX 20 1 19 2 18 3 17 4 16 5 14 6 15 7 13 8 12 9 11 10 10 11
REMARK SMILES IDX 81 12 79 13 80 14 9 15 7 16 6 17 8 19 5 20 1 21 2 22 3 23
REMARK SMILES IDX 89 24 4 25 88 26 82 27 83 28 87 29 84 30 86 31 85 32 21 33
REMARK SMILES IDX 22 34 23 35 24 36 25 37 26 38 27 39 28 40 29 41 30 42 31 43
REMARK SMILES IDX 32 44 78 45 33 46 77 47 34 48 35 49 36 50 71 51 37 52 76 53
REMARK SMILES IDX 70 54 72 55 38 56 75 57 69 58 68 59 39 61 61 62 46 63 60 64
REMARK SMILES IDX 47 65 50 66 59 67 73 68 48 69 49 70 58 72 74 73 51 74 40 75
REMARK SMILES IDX 41 76 45 77 42 78 44 79 43 80 62 81 63 82 67 83 64 84 66 85
REMARK SMILES IDX 65 86 52 87 53 88 57 89 54 90 56 91 55 92
REMARK H PARENT 6 18 72 60 50 71
REMARK Flexibility Score: inf
ROOT
ATOM      1  C   UNL A   1      34.021  28.866  25.803  1.00  0.00     0.188 C 
ENDROOT
BRANCH   1   2
ATOM      2  O   UNL A   1      33.285  28.501  24.636  1.00  0.00    -0.376 OA
BRANCH   2   3
ATOM      3  C   UNL A   1      33.966  28.712  23.391  1.00  0.00     0.202 C 
BRANCH   3   4
ATOM      4  C   UNL A   1      33.937  27.566  22.368  1.00  0.00     0.261 C 
BRANCH   4   5
ATOM      5  O   UNL A   1      32.966  26.498  22.605  1.00  0.00    -0.463 OA
BRANCH   5   6
ATOM      6  C   UNL A   1      33.469  25.250  22.877  1.00  0.00     0.306 C 
ATOM      7  O   UNL A   1      33.083  24.199  22.368  1.00  0.00    -0.252 OA
BRANCH   6   8
ATOM      8  C   UNL A   1      34.574  25.250  23.930  1.00  0.00     0.129 C 
BRANCH   8   9
ATOM      9  C   UNL A   1      34.337  24.625  25.305  1.00  0.00     0.066 C 
BRANCH   9  10
ATOM     10  C   UNL A   1      34.639  23.152  25.440  1.00  0.00     0.019 A 
ATOM     11  N   UNL A   1      33.730  22.112  25.405  1.00  0.00    -0.335 N 
ATOM     12  C   UNL A   1      34.404  20.925  25.125  1.00  0.00     0.049 A 
ATOM     13  C   UNL A   1      35.848  22.545  25.745  1.00  0.00     0.024 A 
ATOM     14  C   UNL A   1      35.697  21.149  25.565  1.00  0.00     0.029 A 
BRANCH  11  15
ATOM     15  C   UNL A   1      32.308  22.152  25.714  1.00  0.00     0.222 C 
BRANCH  15  16
ATOM     16  C   UNL A   1      31.933  22.962  26.927  1.00  0.00     0.244 C 
ATOM     17  N   UNL A   1      31.286  24.130  26.978  1.00  0.00    -0.325 N 
ATOM     18  H   UNL A   1      30.951  24.332  27.881  1.00  0.00     0.169 HD
ATOM     19  O   UNL A   1      32.217  22.592  28.068  1.00  0.00    -0.273 OA
BRANCH  17  20
ATOM     20  C   UNL A   1      30.975  25.116  26.071  1.00  0.00     0.041 A 
ATOM     21  C   UNL A   1      29.356  27.838  23.211  1.00  0.00     0.044 C 
ATOM     22  C   UNL A   1      29.963  26.881  24.184  1.00  0.00    -0.051 A 
ATOM     23  C   UNL A   1      30.570  27.360  25.353  1.00  0.00     0.005 A 
ATOM     24  C   UNL A   1      29.901  25.509  23.945  1.00  0.00     0.005 A 
ATOM     25  C   UNL A   1      31.089  26.477  26.294  1.00  0.00     0.026 A 
ATOM     26  C   UNL A   1      30.417  24.632  24.882  1.00  0.00     0.026 A 
ENDBRANCH  17  20
ENDBRANCH  15  16
ENDBRANCH  11  15
BRANCH  12  27
ATOM     27  C   UNL A   1      33.835  19.722  24.492  1.00  0.00    -0.002 A 
ATOM     28  C   UNL A   1      34.418  18.463  24.679  1.00  0.00     0.010 A 
ATOM     29  C   UNL A   1      32.794  19.835  23.556  1.00  0.00     0.010 A 
ATOM     30  C   UNL A   1      33.985  17.352  23.942  1.00  0.00     0.001 A 
ATOM     31  C   UNL A   1      32.367  18.728  22.811  1.00  0.00     0.001 A 
ATOM     32  C   UNL A   1      32.968  17.487  23.000  1.00  0.00     0.000 A 
ENDBRANCH  12  27
ENDBRANCH   9  10
ENDBRANCH   8   9
ENDBRANCH   6   8
ENDBRANCH   5   6
ENDBRANCH   4   5
ENDBRANCH   3   4
ENDBRANCH   2   3
ENDBRANCH   1   2
BRANCH   1  33
ATOM     33  C   UNL A   1      33.406  29.941  26.738  1.00  0.00     0.188 C 
BRANCH  33  34
ATOM     34  O   UNL A   1      34.274  30.734  27.538  1.00  0.00    -0.377 OA
BRANCH  34  35
ATOM     35  C   UNL A   1      33.986  32.114  27.695  1.00  0.00     0.188 C 
BRANCH  35  36
ATOM     36  C   UNL A   1      34.444  32.781  28.982  1.00  0.00     0.188 C 
BRANCH  36  37
ATOM     37  O   UNL A   1      35.844  32.963  29.115  1.00  0.00    -0.376 OA
BRANCH  37  38
ATOM     38  C   UNL A   1      36.337  33.288  30.411  1.00  0.00     0.202 C 
BRANCH  38  39
ATOM     39  C   UNL A   1      37.698  32.692  30.848  1.00  0.00     0.261 C 
BRANCH  39  40
ATOM     40  O   UNL A   1      37.577  31.700  31.898  1.00  0.00    -0.460 OA
BRANCH  40  41
ATOM     41  C   UNL A   1      38.643  31.624  32.768  1.00  0.00     0.338 C 
ATOM     42  O   UNL A   1      39.743  31.227  32.469  1.00  0.00    -0.246 OA
BRANCH  41  43
ATOM     43  C   UNL A   1      38.228  31.900  34.205  1.00  0.00     0.060 A 
ATOM     44  C   UNL A   1      37.280  32.894  34.512  1.00  0.00     0.016 A 
ATOM     45  C   UNL A   1      38.883  31.315  35.276  1.00  0.00     0.016 A 
ATOM     46  C   UNL A   1      37.056  33.357  35.856  1.00  0.00     0.010 A 
ATOM     47  C   UNL A   1      38.676  31.796  36.586  1.00  0.00     0.010 A 
ATOM     48  C   UNL A   1      37.789  32.851  36.939  1.00  0.00    -0.014 A 
BRANCH  48  49
ATOM     49  C   UNL A   1      37.864  33.425  38.357  1.00  0.00     0.031 A 
ATOM     50  C   UNL A   1      37.445  32.484  39.414  1.00  0.00     0.074 A 
ATOM     51  C   UNL A   1      38.390  34.487  39.054  1.00  0.00     0.049 A 
ATOM     52  N   UNL A   1      38.296  31.845  40.156  1.00  0.00    -0.248 NA
ATOM     53  C   UNL A   1      36.038  32.252  39.713  1.00  0.00     0.031 C 
ATOM     54  C   UNL A   1      39.241  35.551  38.547  1.00  0.00     0.029 A 
ATOM     55  N   UNL A   1      38.339  34.763  40.462  1.00  0.00    -0.354 N 
ATOM     56  C   UNL A   1      37.547  31.285  41.162  1.00  0.00     0.074 A 
ATOM     57  C   UNL A   1      36.181  31.343  40.677  1.00  0.00     0.031 C 
ATOM     58  C   UNL A   1      39.751  36.246  39.591  1.00  0.00     0.029 A 
ATOM     59  C   UNL A   1      39.243  35.732  40.881  1.00  0.00     0.049 A 
ATOM     60  H   UNL A   1      37.720  34.307  41.075  1.00  0.00     0.167 HD
ATOM     61  C   UNL A   1      38.073  31.027  42.396  1.00  0.00     0.031 A 
ATOM     62  C   UNL A   1      39.834  36.002  42.095  1.00  0.00     0.031 A 
ATOM     63  C   UNL A   1      39.557  30.982  42.477  1.00  0.00     0.049 A 
ATOM     64  C   UNL A   1      41.197  35.453  41.853  1.00  0.00     0.074 A 
ATOM     65  C   UNL A   1      40.474  30.174  43.134  1.00  0.00     0.029 A 
ATOM     66  N   UNL A   1      40.358  31.827  41.710  1.00  0.00    -0.354 N 
ATOM     67  N   UNL A   1      41.283  34.167  41.879  1.00  0.00    -0.248 NA
ATOM     68  C   UNL A   1      42.455  36.127  41.593  1.00  0.00     0.031 C 
ATOM     69  C   UNL A   1      41.804  30.570  42.779  1.00  0.00     0.029 A 
ATOM     70  C   UNL A   1      41.731  31.603  41.864  1.00  0.00     0.049 A 
ATOM     71  H   UNL A   1      39.990  32.519  41.113  1.00  0.00     0.167 HD
ATOM     72  C   UNL A   1      42.519  33.813  41.491  1.00  0.00     0.074 A 
ATOM     73  C   UNL A   1      43.243  35.062  41.349  1.00  0.00     0.031 C 
ATOM     74  C   UNL A   1      42.715  32.504  41.216  1.00  0.00     0.031 A 
BRANCH  61  75
ATOM     75  C   UNL A   1      37.155  30.856  43.618  1.00  0.00    -0.014 A 
ATOM     76  C   UNL A   1      36.072  31.725  43.821  1.00  0.00     0.009 A 
ATOM     77  C   UNL A   1      37.224  29.795  44.552  1.00  0.00     0.009 A 
ATOM     78  C   UNL A   1      35.194  31.601  44.913  1.00  0.00     0.001 A 
ATOM     79  C   UNL A   1      36.382  29.680  45.667  1.00  0.00     0.001 A 
ATOM     80  C   UNL A   1      35.365  30.594  45.852  1.00  0.00     0.000 A 
ENDBRANCH  61  75
BRANCH  62  81
ATOM     81  C   UNL A   1      39.483  35.731  43.565  1.00  0.00    -0.014 A 
ATOM     82  C   UNL A   1      38.270  35.085  43.839  1.00  0.00     0.009 A 
ATOM     83  C   UNL A   1      40.053  36.450  44.649  1.00  0.00     0.009 A 
ATOM     84  C   UNL A   1      37.622  35.234  45.087  1.00  0.00     0.001 A 
ATOM     85  C   UNL A   1      39.386  36.645  45.870  1.00  0.00     0.001 A 
ATOM     86  C   UNL A   1      38.157  36.045  46.085  1.00  0.00     0.000 A 
ENDBRANCH  62  81
BRANCH  74  87
ATOM     87  C   UNL A   1      43.825  32.117  40.287  1.00  0.00    -0.014 A 
ATOM     88  C   UNL A   1      43.702  32.216  38.884  1.00  0.00     0.009 A 
ATOM     89  C   UNL A   1      44.985  31.511  40.764  1.00  0.00     0.009 A 
ATOM     90  C   UNL A   1      44.717  31.811  38.012  1.00  0.00     0.001 A 
ATOM     91  C   UNL A   1      45.988  31.052  39.896  1.00  0.00     0.001 A 
ATOM     92  C   UNL A   1      45.864  31.221  38.521  1.00  0.00     0.000 A 
ENDBRANCH  74  87
ENDBRANCH  48  49
ENDBRANCH  41  43
ENDBRANCH  40  41
ENDBRANCH  39  40
ENDBRANCH  38  39
ENDBRANCH  37  38
ENDBRANCH  36  37
ENDBRANCH  35  36
ENDBRANCH  34  35
ENDBRANCH  33  34
ENDBRANCH   1  33
TORSDOF 26
ENDMDL
MODEL 3
REMARK VINA RESULT:      -8.5      9.623     13.915
REMARK SMILES Cc1ccc(NC(=O)Cn2c(CCC(=O)OCCOCCOCCOCCOC(=O)c3ccc(-c4c5nc(c(-c6ccccc6)c6ccc([nH]6)c(-c6ccccc6)c6nc(c(-c7ccccc7)c7ccc4[nH]7)C=C6)C=C5)cc3)ccc2-c2ccccc2)cc1
REMARK SMILES IDX 20 1 19 2 18 3 17 4 16 5 14 6 15 7 13 8 12 9 11 10 10 11
REMARK SMILES IDX 81 12 79 13 80 14 9 15 7 16 6 17 8 19 5 20 1 21 2 22 3 23
REMARK SMILES IDX 89 24 4 25 88 26 82 27 83 28 87 29 84 30 86 31 85 32 21 33
REMARK SMILES IDX 22 34 23 35 24 36 25 37 26 38 27 39 28 40 29 41 30 42 31 43
REMARK SMILES IDX 32 44 78 45 33 46 77 47 34 48 35 49 36 50 71 51 37 52 76 53
REMARK SMILES IDX 70 54 72 55 38 56 75 57 69 58 68 59 39 61 61 62 46 63 60 64
REMARK SMILES IDX 47 65 50 66 59 67 73 68 48 69 49 70 58 72 74 73 51 74 40 75
REMARK SMILES IDX 41 76 45 77 42 78 44 79 43 80 62 81 63 82 67 83 64 84 66 85
REMARK SMILES IDX 65 86 52 87 53 88 57 89 54 90 56 91 55 92
REMARK H PARENT 6 18 72 60 50 71
REMARK Flexibility Score: inf
ROOT
ATOM      1  C   UNL A   1      34.441  35.227  31.649  1.00  0.00     0.188 C 
ENDROOT
BRANCH   1   2
ATOM      2  O   UNL A   1      33.473  34.579  30.824  1.00  0.00    -0.376 OA
BRANCH   2   3
ATOM      3  C   UNL A   1      33.580  34.859  29.421  1.00  0.00     0.202 C 
BRANCH   3   4
ATOM      4  C   UNL A   1      33.550  33.661  28.459  1.00  0.00     0.261 C 
BRANCH   4   5
ATOM      5  O   UNL A   1      34.530  32.602  28.698  1.00  0.00    -0.463 OA
BRANCH   5   6
ATOM      6  C   UNL A   1      34.464  31.498  27.883  1.00  0.00     0.306 C 
ATOM      7  O   UNL A   1      35.407  30.764  27.599  1.00  0.00    -0.252 OA
BRANCH   6   8
ATOM      8  C   UNL A   1      33.075  31.250  27.300  1.00  0.00     0.129 C 
BRANCH   8   9
ATOM      9  C   UNL A   1      32.901  30.403  26.039  1.00  0.00     0.066 C 
BRANCH   9  10
ATOM     10  C   UNL A   1      32.458  28.973  26.240  1.00  0.00     0.019 A 
ATOM     11  N   UNL A   1      32.765  27.889  25.441  1.00  0.00    -0.335 N 
ATOM     12  C   UNL A   1      32.559  26.716  26.162  1.00  0.00     0.049 A 
ATOM     13  C   UNL A   1      31.567  28.471  27.176  1.00  0.00     0.024 A 
ATOM     14  C   UNL A   1      31.617  27.058  27.116  1.00  0.00     0.029 A 
BRANCH  11  15
ATOM     15  C   UNL A   1      33.138  27.889  24.033  1.00  0.00     0.222 C 
BRANCH  15  16
ATOM     16  C   UNL A   1      32.007  27.664  23.065  1.00  0.00     0.244 C 
ATOM     17  N   UNL A   1      31.453  26.508  22.690  1.00  0.00    -0.325 N 
ATOM     18  H   UNL A   1      30.586  26.637  22.243  1.00  0.00     0.169 HD
ATOM     19  O   UNL A   1      31.452  28.601  22.485  1.00  0.00    -0.273 OA
BRANCH  17  20
ATOM     20  C   UNL A   1      31.805  25.181  22.778  1.00  0.00     0.041 A 
ATOM     21  C   UNL A   1      32.233  20.936  22.761  1.00  0.00     0.044 C 
ATOM     22  C   UNL A   1      32.098  22.422  22.814  1.00  0.00    -0.051 A 
ATOM     23  C   UNL A   1      33.099  23.237  22.269  1.00  0.00     0.005 A 
ATOM     24  C   UNL A   1      30.963  23.001  23.380  1.00  0.00     0.005 A 
ATOM     25  C   UNL A   1      32.960  24.621  22.261  1.00  0.00     0.026 A 
ATOM     26  C   UNL A   1      30.825  24.377  23.371  1.00  0.00     0.026 A 
ENDBRANCH  17  20
ENDBRANCH  15  16
ENDBRANCH  11  15
BRANCH  12  27
ATOM     27  C   UNL A   1      33.221  25.418  25.936  1.00  0.00    -0.002 A 
ATOM     28  C   UNL A   1      32.641  24.224  26.381  1.00  0.00     0.010 A 
ATOM     29  C   UNL A   1      34.525  25.366  25.416  1.00  0.00     0.010 A 
ATOM     30  C   UNL A   1      33.348  23.015  26.321  1.00  0.00     0.001 A 
ATOM     31  C   UNL A   1      35.236  24.161  25.366  1.00  0.00     0.001 A 
ATOM     32  C   UNL A   1      34.649  22.985  25.825  1.00  0.00     0.000 A 
ENDBRANCH  12  27
ENDBRANCH   9  10
ENDBRANCH   8   9
ENDBRANCH   6   8
ENDBRANCH   5   6
ENDBRANCH   4   5
ENDBRANCH   3   4
ENDBRANCH   2   3
ENDBRANCH   1   2
BRANCH   1  33
ATOM     33  C   UNL A   1      35.713  34.426  32.032  1.00  0.00     0.188 C 
BRANCH  33  34
ATOM     34  O   UNL A   1      36.445  33.766  31.006  1.00  0.00    -0.377 OA
BRANCH  34  35
ATOM     35  C   UNL A   1      37.725  33.237  31.312  1.00  0.00     0.188 C 
BRANCH  35  36
ATOM     36  C   UNL A   1      37.790  31.787  31.765  1.00  0.00     0.188 C 
BRANCH  36  37
ATOM     37  O   UNL A   1      37.627  31.570  33.157  1.00  0.00    -0.376 OA
BRANCH  37  38
ATOM     38  C   UNL A   1      38.703  30.941  33.846  1.00  0.00     0.202 C 
BRANCH  38  39
ATOM     39  C   UNL A   1      39.578  31.808  34.786  1.00  0.00     0.261 C 
BRANCH  39  40
ATOM     40  O   UNL A   1      39.572  33.215  34.434  1.00  0.00    -0.460 OA
BRANCH  40  41
ATOM     41  C   UNL A   1      38.596  33.973  35.043  1.00  0.00     0.338 C 
ATOM     42  O   UNL A   1      37.938  34.818  34.486  1.00  0.00    -0.246 OA
BRANCH  41  43
ATOM     43  C   UNL A   1      38.578  33.775  36.551  1.00  0.00     0.060 A 
ATOM     44  C   UNL A   1      37.591  32.984  37.171  1.00  0.00     0.016 A 
ATOM     45  C   UNL A   1      39.412  34.494  37.389  1.00  0.00     0.016 A 
ATOM     46  C   UNL A   1      37.387  32.983  38.596  1.00  0.00     0.010 A 
ATOM     47  C   UNL A   1      39.186  34.508  38.781  1.00  0.00     0.010 A 
ATOM     48  C   UNL A   1      38.154  33.789  39.448  1.00  0.00    -0.014 A 
BRANCH  48  49
ATOM     49  C   UNL A   1      37.880  34.104  40.922  1.00  0.00     0.031 A 
ATOM     50  C   UNL A   1      36.889  33.213  41.557  1.00  0.00     0.074 A 
ATOM     51  C   UNL A   1      38.391  34.828  41.973  1.00  0.00     0.049 A 
ATOM     52  N   UNL A   1      37.230  32.234  42.337  1.00  0.00    -0.248 NA
ATOM     53  C   UNL A   1      35.458  33.414  41.375  1.00  0.00     0.031 C 
ATOM     54  C   UNL A   1      39.613  35.616  42.002  1.00  0.00     0.029 A 
ATOM     55  N   UNL A   1      37.929  34.906  43.330  1.00  0.00    -0.354 N 
ATOM     56  C   UNL A   1      36.060  31.815  42.921  1.00  0.00     0.074 A 
ATOM     57  C   UNL A   1      35.013  32.383  42.093  1.00  0.00     0.031 C 
ATOM     58  C   UNL A   1      39.892  35.952  43.283  1.00  0.00     0.029 A 
ATOM     59  C   UNL A   1      38.852  35.458  44.211  1.00  0.00     0.049 A 
ATOM     60  H   UNL A   1      37.039  34.596  43.613  1.00  0.00     0.167 HD
ATOM     61  C   UNL A   1      36.037  31.230  44.155  1.00  0.00     0.031 A 
ATOM     62  C   UNL A   1      39.034  35.348  45.571  1.00  0.00     0.031 A 
ATOM     63  C   UNL A   1      37.335  30.693  44.647  1.00  0.00     0.049 A 
ATOM     64  C   UNL A   1      40.201  34.424  45.608  1.00  0.00     0.074 A 
ATOM     65  C   UNL A   1      37.720  29.546  45.327  1.00  0.00     0.029 A 
ATOM     66  N   UNL A   1      38.543  31.328  44.368  1.00  0.00    -0.354 N 
ATOM     67  N   UNL A   1      39.931  33.190  45.350  1.00  0.00    -0.248 NA
ATOM     68  C   UNL A   1      41.601  34.680  45.890  1.00  0.00     0.031 C 
ATOM     69  C   UNL A   1      39.145  29.532  45.475  1.00  0.00     0.029 A 
ATOM     70  C   UNL A   1      39.667  30.649  44.852  1.00  0.00     0.049 A 
ATOM     71  H   UNL A   1      38.601  32.178  43.874  1.00  0.00     0.167 HD
ATOM     72  C   UNL A   1      41.086  32.510  45.261  1.00  0.00     0.074 A 
ATOM     73  C   UNL A   1      42.116  33.461  45.636  1.00  0.00     0.031 C 
ATOM     74  C   UNL A   1      41.014  31.261  44.750  1.00  0.00     0.031 A 
BRANCH  61  75
ATOM     75  C   UNL A   1      34.743  31.199  44.984  1.00  0.00    -0.014 A 
ATOM     76  C   UNL A   1      34.181  32.390  45.469  1.00  0.00     0.009 A 
ATOM     77  C   UNL A   1      33.955  30.050  45.232  1.00  0.00     0.009 A 
ATOM     78  C   UNL A   1      32.990  32.417  46.217  1.00  0.00     0.001 A 
ATOM     79  C   UNL A   1      32.788  30.054  46.008  1.00  0.00     0.001 A 
ATOM     80  C   UNL A   1      32.307  31.246  46.511  1.00  0.00     0.000 A 
ENDBRANCH  61  75
BRANCH  62  81
ATOM     81  C   UNL A   1      38.137  35.004  46.769  1.00  0.00    -0.014 A 
ATOM     82  C   UNL A   1      38.071  33.664  47.174  1.00  0.00     0.009 A 
ATOM     83  C   UNL A   1      37.064  35.828  47.203  1.00  0.00     0.009 A 
ATOM     84  C   UNL A   1      36.955  33.162  47.882  1.00  0.00     0.001 A 
ATOM     85  C   UNL A   1      35.929  35.321  47.858  1.00  0.00     0.001 A 
ATOM     86  C   UNL A   1      35.868  33.978  48.185  1.00  0.00     0.000 A 
ENDBRANCH  62  81
BRANCH  74  87
ATOM     87  C   UNL A   1      42.234  30.665  44.115  1.00  0.00    -0.014 A 
ATOM     88  C   UNL A   1      42.712  31.091  42.856  1.00  0.00     0.009 A 
ATOM     89  C   UNL A   1      42.879  29.568  44.680  1.00  0.00     0.009 A 
ATOM     90  C   UNL A   1      43.822  30.506  42.238  1.00  0.00     0.001 A 
ATOM     91  C   UNL A   1      43.960  28.938  44.045  1.00  0.00     0.001 A 
ATOM     92  C   UNL A   1      44.446  29.421  42.834  1.00  0.00     0.000 A 
ENDBRANCH  74  87
ENDBRANCH  48  49
ENDBRANCH  41  43
ENDBRANCH  40  41
ENDBRANCH  39  40
ENDBRANCH  38  39
ENDBRANCH  37  38
ENDBRANCH  36  37
ENDBRANCH  35  36
ENDBRANCH  34  35
ENDBRANCH  33  34
ENDBRANCH   1  33
TORSDOF 26
ENDMDL
