MODEL 1
REMARK VINA RESULT:     -10.1      0.000      0.000
REMARK SMILES COc1cccc(C(=O)N2[C@@H](C(=O)OCCOCCOCCOCCOC(=O)c3ccc(-c4c5nc(c(-c6ccccc6)c6ccc([nH]6)c(-c6ccccc6)c6nc(c(-c7ccccc7)c7ccc4[nH]7)C=C6)C=C5)cc3)CS[C@@H]2c2ccccc2Cl)c1
REMARK SMILES IDX 19 1 18 2 17 3 16 4 15 5 14 6 12 7 13 8 11 9 10 10 79 11
REMARK SMILES IDX 77 12 78 13 8 14 9 15 7 16 3 17 4 18 87 19 5 20 6 21 2 22
REMARK SMILES IDX 1 23 80 24 81 25 85 26 82 27 84 28 86 29 83 30 20 31 21 32
REMARK SMILES IDX 22 33 23 34 24 35 25 36 26 37 27 38 28 39 29 40 30 41 76 42
REMARK SMILES IDX 31 43 75 44 32 45 33 46 34 47 69 48 35 49 74 50 68 51 70 52
REMARK SMILES IDX 36 53 73 54 67 55 66 56 37 58 59 59 44 60 58 61 45 62 48 63
REMARK SMILES IDX 57 64 71 65 46 66 47 67 56 69 72 70 49 71 38 72 39 73 43 74
REMARK SMILES IDX 40 75 42 76 41 77 60 78 61 79 65 80 62 81 64 82 63 83 50 84
REMARK SMILES IDX 51 85 55 86 52 87 54 88 53 89
REMARK H PARENT 70 57 48 68
REMARK Flexibility Score: inf
ROOT
ATOM      1  C   UNL A   1      33.296  28.731  23.930  1.00  0.00     0.188 C 
ENDROOT
BRANCH   1   2
ATOM      2  C   UNL A   1      31.830  28.986  23.536  1.00  0.00     0.188 C 
BRANCH   2   3
ATOM      3  O   UNL A   1      31.343  28.163  22.501  1.00  0.00    -0.376 OA
BRANCH   3   4
ATOM      4  C   UNL A   1      30.862  26.862  22.750  1.00  0.00     0.202 C 
BRANCH   4   5
ATOM      5  C   UNL A   1      31.457  25.629  22.051  1.00  0.00     0.261 C 
BRANCH   5   6
ATOM      6  O   UNL A   1      31.982  24.609  22.906  1.00  0.00    -0.462 OA
BRANCH   6   7
ATOM      7  C   UNL A   1      33.027  23.893  22.439  1.00  0.00     0.329 C 
ATOM      8  O   UNL A   1      33.281  23.767  21.242  1.00  0.00    -0.250 OA
BRANCH   7   9
ATOM      9  C   UNL A   1      33.968  23.312  23.522  1.00  0.00     0.206 C 
ATOM     10  N   UNL A   1      33.597  22.493  24.715  1.00  0.00    -0.308 N 
ATOM     11  C   UNL A   1      34.615  22.525  25.759  1.00  0.00     0.176 C 
ATOM     12  C   UNL A   1      34.703  24.561  24.081  1.00  0.00     0.109 C 
ATOM     13  S   UNL A   1      34.820  24.357  25.884  1.00  0.00    -0.129 SA
BRANCH  10  14
ATOM     14  C   UNL A   1      32.483  21.660  24.727  1.00  0.00     0.255 C 
ATOM     15  O   UNL A   1      31.388  22.079  25.103  1.00  0.00    -0.269 OA
BRANCH  14  16
ATOM     16  C   UNL A   1      32.602  20.185  24.382  1.00  0.00     0.043 A 
ATOM     17  C   UNL A   1      32.802  17.806  24.947  1.00  0.00     0.119 A 
ATOM     18  C   UNL A   1      32.563  17.478  23.612  1.00  0.00     0.046 A 
ATOM     19  C   UNL A   1      32.785  19.154  25.330  1.00  0.00     0.060 A 
ATOM     20  C   UNL A   1      32.321  18.475  22.670  1.00  0.00     0.005 A 
ATOM     21  C   UNL A   1      32.352  19.819  23.051  1.00  0.00     0.014 A 
BRANCH  17  22
ATOM     22  O   UNL A   1      33.008  16.721  25.753  1.00  0.00    -0.497 OA
ATOM     23  C   UNL A   1      34.149  15.899  25.542  1.00  0.00     0.278 C 
ENDBRANCH  17  22
ENDBRANCH  14  16
ENDBRANCH  10  14
BRANCH  11  24
ATOM     24  C   UNL A   1      35.989  21.895  25.480  1.00  0.00     0.003 A 
ATOM     25  C   UNL A   1      35.981  20.616  24.859  1.00  0.00     0.008 A 
ATOM     26  C   UNL A   1      37.254  22.428  25.779  1.00  0.00     0.047 A 
ATOM     27  C   UNL A   1      37.134  19.843  24.724  1.00  0.00     0.001 A 
ATOM     28  C   UNL A   1      38.407  21.631  25.682  1.00  0.00     0.021 A 
ATOM     29  Cl  UNL A   1      37.542  24.077  26.200  1.00  0.00    -0.084 Cl
ATOM     30  C   UNL A   1      38.344  20.334  25.181  1.00  0.00     0.002 A 
ENDBRANCH  11  24
ENDBRANCH   7   9
ENDBRANCH   6   7
ENDBRANCH   5   6
ENDBRANCH   4   5
ENDBRANCH   3   4
ENDBRANCH   2   3
ENDBRANCH   1   2
BRANCH   1  31
ATOM     31  O   UNL A   1      33.740  28.485  25.253  1.00  0.00    -0.377 OA
BRANCH  31  32
ATOM     32  C   UNL A   1      32.908  27.787  26.160  1.00  0.00     0.188 C 
BRANCH  32  33
ATOM     33  C   UNL A   1      32.201  28.733  27.142  1.00  0.00     0.188 C 
BRANCH  33  34
ATOM     34  O   UNL A   1      32.655  30.076  27.067  1.00  0.00    -0.376 OA
BRANCH  34  35
ATOM     35  C   UNL A   1      31.763  31.101  26.645  1.00  0.00     0.202 C 
BRANCH  35  36
ATOM     36  C   UNL A   1      31.929  32.594  26.986  1.00  0.00     0.261 C 
BRANCH  36  37
ATOM     37  O   UNL A   1      33.220  33.076  27.357  1.00  0.00    -0.460 OA
BRANCH  37  38
ATOM     38  C   UNL A   1      33.303  34.005  28.317  1.00  0.00     0.338 C 
ATOM     39  O   UNL A   1      32.505  34.893  28.576  1.00  0.00    -0.246 OA
BRANCH  38  40
ATOM     40  C   UNL A   1      34.474  33.639  29.132  1.00  0.00     0.060 A 
ATOM     41  C   UNL A   1      35.714  34.211  28.830  1.00  0.00     0.016 A 
ATOM     42  C   UNL A   1      34.339  32.745  30.200  1.00  0.00     0.016 A 
ATOM     43  C   UNL A   1      36.840  33.835  29.550  1.00  0.00     0.010 A 
ATOM     44  C   UNL A   1      35.470  32.365  30.922  1.00  0.00     0.010 A 
ATOM     45  C   UNL A   1      36.733  32.860  30.551  1.00  0.00    -0.014 A 
BRANCH  45  46
ATOM     46  C   UNL A   1      37.968  32.169  30.982  1.00  0.00     0.031 A 
ATOM     47  C   UNL A   1      38.517  32.502  32.344  1.00  0.00     0.074 A 
ATOM     48  C   UNL A   1      38.525  31.205  30.232  1.00  0.00     0.049 A 
ATOM     49  N   UNL A   1      39.537  31.987  32.979  1.00  0.00    -0.248 NA
ATOM     50  C   UNL A   1      37.823  33.567  33.089  1.00  0.00     0.031 C 
ATOM     51  C   UNL A   1      38.051  30.775  28.918  1.00  0.00     0.029 A 
ATOM     52  N   UNL A   1      39.605  30.400  30.486  1.00  0.00    -0.354 N 
ATOM     53  C   UNL A   1      39.615  32.677  34.183  1.00  0.00     0.074 A 
ATOM     54  C   UNL A   1      38.573  33.676  34.171  1.00  0.00     0.031 C 
ATOM     55  C   UNL A   1      38.832  29.770  28.483  1.00  0.00     0.029 A 
ATOM     56  C   UNL A   1      39.874  29.511  29.475  1.00  0.00     0.049 A 
ATOM     57  H   UNL A   1      40.137  30.455  31.311  1.00  0.00     0.167 HD
ATOM     58  C   UNL A   1      40.468  32.486  35.217  1.00  0.00     0.031 A 
ATOM     59  C   UNL A   1      40.856  28.596  29.367  1.00  0.00     0.031 A 
ATOM     60  C   UNL A   1      41.502  31.489  35.217  1.00  0.00     0.049 A 
ATOM     61  C   UNL A   1      41.824  28.428  30.507  1.00  0.00     0.074 A 
ATOM     62  C   UNL A   1      42.411  31.188  36.214  1.00  0.00     0.029 A 
ATOM     63  N   UNL A   1      41.768  30.634  34.157  1.00  0.00    -0.354 N 
ATOM     64  N   UNL A   1      41.869  29.063  31.655  1.00  0.00    -0.248 NA
ATOM     65  C   UNL A   1      42.864  27.405  30.344  1.00  0.00     0.031 C 
ATOM     66  C   UNL A   1      43.272  30.199  35.729  1.00  0.00     0.029 A 
ATOM     67  C   UNL A   1      42.849  29.827  34.463  1.00  0.00     0.049 A 
ATOM     68  H   UNL A   1      41.262  30.606  33.313  1.00  0.00     0.167 HD
ATOM     69  C   UNL A   1      42.924  28.499  32.362  1.00  0.00     0.074 A 
ATOM     70  C   UNL A   1      43.478  27.458  31.518  1.00  0.00     0.031 C 
ATOM     71  C   UNL A   1      43.390  28.806  33.599  1.00  0.00     0.031 A 
BRANCH  58  72
ATOM     72  C   UNL A   1      40.342  33.418  36.393  1.00  0.00    -0.014 A 
ATOM     73  C   UNL A   1      41.249  34.469  36.607  1.00  0.00     0.009 A 
ATOM     74  C   UNL A   1      39.306  33.222  37.318  1.00  0.00     0.009 A 
ATOM     75  C   UNL A   1      41.153  35.266  37.751  1.00  0.00     0.001 A 
ATOM     76  C   UNL A   1      39.189  34.044  38.441  1.00  0.00     0.001 A 
ATOM     77  C   UNL A   1      40.121  35.055  38.664  1.00  0.00     0.000 A 
ENDBRANCH  58  72
BRANCH  59  78
ATOM     78  C   UNL A   1      40.965  27.777  28.130  1.00  0.00    -0.014 A 
ATOM     79  C   UNL A   1      41.679  28.240  27.015  1.00  0.00     0.009 A 
ATOM     80  C   UNL A   1      40.365  26.509  28.070  1.00  0.00     0.009 A 
ATOM     81  C   UNL A   1      41.776  27.455  25.862  1.00  0.00     0.001 A 
ATOM     82  C   UNL A   1      40.491  25.714  26.929  1.00  0.00     0.001 A 
ATOM     83  C   UNL A   1      41.190  26.191  25.822  1.00  0.00     0.000 A 
ENDBRANCH  59  78
BRANCH  71  84
ATOM     84  C   UNL A   1      44.531  27.980  34.127  1.00  0.00    -0.014 A 
ATOM     85  C   UNL A   1      45.868  28.367  33.944  1.00  0.00     0.009 A 
ATOM     86  C   UNL A   1      44.257  26.811  34.855  1.00  0.00     0.009 A 
ATOM     87  C   UNL A   1      46.905  27.575  34.439  1.00  0.00     0.001 A 
ATOM     88  C   UNL A   1      45.294  26.042  35.381  1.00  0.00     0.001 A 
ATOM     89  C   UNL A   1      46.618  26.417  35.162  1.00  0.00     0.000 A 
ENDBRANCH  71  84
ENDBRANCH  45  46
ENDBRANCH  38  40
ENDBRANCH  37  38
ENDBRANCH  36  37
ENDBRANCH  35  36
ENDBRANCH  34  35
ENDBRANCH  33  34
ENDBRANCH  32  33
ENDBRANCH  31  32
ENDBRANCH   1  31
TORSDOF 24
ENDMDL
MODEL 2
REMARK VINA RESULT:      -9.8      1.279      5.665
REMARK SMILES COc1cccc(C(=O)N2[C@@H](C(=O)OCCOCCOCCOCCOC(=O)c3ccc(-c4c5nc(c(-c6ccccc6)c6ccc([nH]6)c(-c6ccccc6)c6nc(c(-c7ccccc7)c7ccc4[nH]7)C=C6)C=C5)cc3)CS[C@@H]2c2ccccc2Cl)c1
REMARK SMILES IDX 19 1 18 2 17 3 16 4 15 5 14 6 12 7 13 8 11 9 10 10 79 11
REMARK SMILES IDX 77 12 78 13 8 14 9 15 7 16 3 17 4 18 87 19 5 20 6 21 2 22
REMARK SMILES IDX 1 23 80 24 81 25 85 26 82 27 84 28 86 29 83 30 20 31 21 32
REMARK SMILES IDX 22 33 23 34 24 35 25 36 26 37 27 38 28 39 29 40 30 41 76 42
REMARK SMILES IDX 31 43 75 44 32 45 33 46 34 47 69 48 35 49 74 50 68 51 70 52
REMARK SMILES IDX 36 53 73 54 67 55 66 56 37 58 59 59 44 60 58 61 45 62 48 63
REMARK SMILES IDX 57 64 71 65 46 66 47 67 56 69 72 70 49 71 38 72 39 73 43 74
REMARK SMILES IDX 40 75 42 76 41 77 60 78 61 79 65 80 62 81 64 82 63 83 50 84
REMARK SMILES IDX 51 85 55 86 52 87 54 88 53 89
REMARK H PARENT 70 57 48 68
REMARK Flexibility Score: inf
ROOT
ATOM      1  C   UNL A   1      33.540  28.068  24.337  1.00  0.00     0.188 C 
ENDROOT
BRANCH   1   2
ATOM      2  C   UNL A   1      32.511  28.736  23.408  1.00  0.00     0.188 C 
BRANCH   2   3
ATOM      3  O   UNL A   1      31.360  27.966  23.148  1.00  0.00    -0.376 OA
BRANCH   3   4
ATOM      4  C   UNL A   1      30.522  27.508  24.186  1.00  0.00     0.202 C 
BRANCH   4   5
ATOM      5  C   UNL A   1      29.937  26.087  24.189  1.00  0.00     0.261 C 
BRANCH   5   6
ATOM      6  O   UNL A   1      30.771  25.061  24.734  1.00  0.00    -0.462 OA
BRANCH   6   7
ATOM      7  C   UNL A   1      31.677  24.499  23.905  1.00  0.00     0.329 C 
ATOM      8  O   UNL A   1      31.697  24.696  22.691  1.00  0.00    -0.250 OA
BRANCH   7   9
ATOM      9  C   UNL A   1      32.774  23.656  24.597  1.00  0.00     0.206 C 
ATOM     10  N   UNL A   1      32.849  22.169  24.717  1.00  0.00    -0.308 N 
ATOM     11  C   UNL A   1      33.710  21.733  25.810  1.00  0.00     0.176 C 
ATOM     12  C   UNL A   1      32.790  24.195  26.054  1.00  0.00     0.109 C 
ATOM     13  S   UNL A   1      32.980  22.764  27.159  1.00  0.00    -0.129 SA
BRANCH  10  14
ATOM     14  C   UNL A   1      32.294  21.318  23.766  1.00  0.00     0.255 C 
ATOM     15  O   UNL A   1      31.492  21.744  22.933  1.00  0.00    -0.269 OA
BRANCH  14  16
ATOM     16  C   UNL A   1      32.572  19.825  23.789  1.00  0.00     0.043 A 
ATOM     17  C   UNL A   1      32.837  17.657  24.905  1.00  0.00     0.119 A 
ATOM     18  C   UNL A   1      32.855  17.027  23.661  1.00  0.00     0.046 A 
ATOM     19  C   UNL A   1      32.661  19.045  24.964  1.00  0.00     0.060 A 
ATOM     20  C   UNL A   1      32.710  17.768  22.490  1.00  0.00     0.005 A 
ATOM     21  C   UNL A   1      32.582  19.158  22.554  1.00  0.00     0.014 A 
BRANCH  17  22
ATOM     22  O   UNL A   1      32.976  16.797  25.961  1.00  0.00    -0.497 OA
ATOM     23  C   UNL A   1      32.489  15.467  25.846  1.00  0.00     0.278 C 
ENDBRANCH  17  22
ENDBRANCH  14  16
ENDBRANCH  10  14
BRANCH  11  24
ATOM     24  C   UNL A   1      35.219  22.023  25.732  1.00  0.00     0.003 A 
ATOM     25  C   UNL A   1      35.649  23.264  26.275  1.00  0.00     0.008 A 
ATOM     26  C   UNL A   1      36.220  21.212  25.174  1.00  0.00     0.047 A 
ATOM     27  C   UNL A   1      36.947  23.747  26.102  1.00  0.00     0.001 A 
ATOM     28  C   UNL A   1      37.514  21.718  24.962  1.00  0.00     0.021 A 
ATOM     29  Cl  UNL A   1      36.016  19.545  24.777  1.00  0.00    -0.084 Cl
ATOM     30  C   UNL A   1      37.869  22.990  25.400  1.00  0.00     0.002 A 
ENDBRANCH  11  24
ENDBRANCH   7   9
ENDBRANCH   6   7
ENDBRANCH   5   6
ENDBRANCH   4   5
ENDBRANCH   3   4
ENDBRANCH   2   3
ENDBRANCH   1   2
BRANCH   1  31
ATOM     31  O   UNL A   1      33.938  28.583  25.595  1.00  0.00    -0.377 OA
BRANCH  31  32
ATOM     32  C   UNL A   1      33.276  28.164  26.773  1.00  0.00     0.188 C 
BRANCH  32  33
ATOM     33  C   UNL A   1      32.179  29.150  27.203  1.00  0.00     0.188 C 
BRANCH  33  34
ATOM     34  O   UNL A   1      32.549  30.513  27.060  1.00  0.00    -0.376 OA
BRANCH  34  35
ATOM     35  C   UNL A   1      31.578  31.470  26.654  1.00  0.00     0.202 C 
BRANCH  35  36
ATOM     36  C   UNL A   1      31.597  32.955  27.063  1.00  0.00     0.261 C 
BRANCH  36  37
ATOM     37  O   UNL A   1      32.846  33.646  27.091  1.00  0.00    -0.460 OA
BRANCH  37  38
ATOM     38  C   UNL A   1      33.264  34.164  28.252  1.00  0.00     0.338 C 
ATOM     39  O   UNL A   1      32.693  34.982  28.959  1.00  0.00    -0.246 OA
BRANCH  38  40
ATOM     40  C   UNL A   1      34.480  33.418  28.614  1.00  0.00     0.060 A 
ATOM     41  C   UNL A   1      34.362  32.281  29.419  1.00  0.00     0.016 A 
ATOM     42  C   UNL A   1      35.730  33.835  28.144  1.00  0.00     0.016 A 
ATOM     43  C   UNL A   1      35.502  31.597  29.818  1.00  0.00     0.010 A 
ATOM     44  C   UNL A   1      36.876  33.150  28.546  1.00  0.00     0.010 A 
ATOM     45  C   UNL A   1      36.766  32.070  29.440  1.00  0.00    -0.014 A 
BRANCH  45  46
ATOM     46  C   UNL A   1      37.939  31.613  30.216  1.00  0.00     0.031 A 
ATOM     47  C   UNL A   1      38.714  30.436  29.684  1.00  0.00     0.074 A 
ATOM     48  C   UNL A   1      38.362  32.282  31.300  1.00  0.00     0.049 A 
ATOM     49  N   UNL A   1      39.814  29.891  30.135  1.00  0.00    -0.248 NA
ATOM     50  C   UNL A   1      38.170  29.782  28.481  1.00  0.00     0.031 C 
ATOM     51  C   UNL A   1      37.712  33.457  31.875  1.00  0.00     0.029 A 
ATOM     52  N   UNL A   1      39.457  32.073  32.097  1.00  0.00    -0.354 N 
ATOM     53  C   UNL A   1      40.078  28.824  29.284  1.00  0.00     0.074 A 
ATOM     54  C   UNL A   1      39.003  28.768  28.323  1.00  0.00     0.031 C 
ATOM     55  C   UNL A   1      38.430  33.877  32.932  1.00  0.00     0.029 A 
ATOM     56  C   UNL A   1      39.571  32.982  33.119  1.00  0.00     0.049 A 
ATOM     57  H   UNL A   1      40.099  31.343  31.951  1.00  0.00     0.167 HD
ATOM     58  C   UNL A   1      41.131  27.974  29.292  1.00  0.00     0.031 A 
ATOM     59  C   UNL A   1      40.492  33.073  34.098  1.00  0.00     0.031 A 
ATOM     60  C   UNL A   1      42.194  28.037  30.256  1.00  0.00     0.049 A 
ATOM     61  C   UNL A   1      41.632  32.090  34.118  1.00  0.00     0.074 A 
ATOM     62  C   UNL A   1      43.323  27.245  30.350  1.00  0.00     0.029 A 
ATOM     63  N   UNL A   1      42.252  28.948  31.301  1.00  0.00    -0.354 N 
ATOM     64  N   UNL A   1      41.891  31.105  33.290  1.00  0.00    -0.248 NA
ATOM     65  C   UNL A   1      42.617  32.245  35.196  1.00  0.00     0.031 C 
ATOM     66  C   UNL A   1      44.028  27.631  31.495  1.00  0.00     0.029 A 
ATOM     67  C   UNL A   1      43.381  28.716  32.067  1.00  0.00     0.049 A 
ATOM     68  H   UNL A   1      41.588  29.654  31.473  1.00  0.00     0.167 HD
ATOM     69  C   UNL A   1      43.080  30.538  33.730  1.00  0.00     0.074 A 
ATOM     70  C   UNL A   1      43.499  31.305  34.888  1.00  0.00     0.031 C 
ATOM     71  C   UNL A   1      43.769  29.486  33.223  1.00  0.00     0.031 A 
BRANCH  58  72
ATOM     72  C   UNL A   1      41.135  26.876  28.261  1.00  0.00    -0.014 A 
ATOM     73  C   UNL A   1      41.707  27.052  26.991  1.00  0.00     0.009 A 
ATOM     74  C   UNL A   1      40.531  25.645  28.565  1.00  0.00     0.009 A 
ATOM     75  C   UNL A   1      41.623  26.041  26.029  1.00  0.00     0.001 A 
ATOM     76  C   UNL A   1      40.483  24.623  27.615  1.00  0.00     0.001 A 
ATOM     77  C   UNL A   1      41.015  24.827  26.344  1.00  0.00     0.000 A 
ENDBRANCH  58  72
BRANCH  59  78
ATOM     78  C   UNL A   1      40.363  34.132  35.134  1.00  0.00    -0.014 A 
ATOM     79  C   UNL A   1      41.062  35.344  35.022  1.00  0.00     0.009 A 
ATOM     80  C   UNL A   1      39.516  33.939  36.237  1.00  0.00     0.009 A 
ATOM     81  C   UNL A   1      40.926  36.331  36.003  1.00  0.00     0.001 A 
ATOM     82  C   UNL A   1      39.358  34.940  37.198  1.00  0.00     0.001 A 
ATOM     83  C   UNL A   1      40.069  36.132  37.084  1.00  0.00     0.000 A 
ENDBRANCH  59  78
BRANCH  71  84
ATOM     84  C   UNL A   1      45.068  29.127  33.893  1.00  0.00    -0.014 A 
ATOM     85  C   UNL A   1      45.131  28.162  34.910  1.00  0.00     0.009 A 
ATOM     86  C   UNL A   1      46.256  29.744  33.469  1.00  0.00     0.009 A 
ATOM     87  C   UNL A   1      46.350  27.857  35.518  1.00  0.00     0.001 A 
ATOM     88  C   UNL A   1      47.478  29.410  34.053  1.00  0.00     0.001 A 
ATOM     89  C   UNL A   1      47.522  28.477  35.086  1.00  0.00     0.000 A 
ENDBRANCH  71  84
ENDBRANCH  45  46
ENDBRANCH  38  40
ENDBRANCH  37  38
ENDBRANCH  36  37
ENDBRANCH  35  36
ENDBRANCH  34  35
ENDBRANCH  33  34
ENDBRANCH  32  33
ENDBRANCH  31  32
ENDBRANCH   1  31
TORSDOF 24
ENDMDL
MODEL 3
REMARK VINA RESULT:      -9.7      3.870      9.061
REMARK SMILES COc1cccc(C(=O)N2[C@@H](C(=O)OCCOCCOCCOCCOC(=O)c3ccc(-c4c5nc(c(-c6ccccc6)c6ccc([nH]6)c(-c6ccccc6)c6nc(c(-c7ccccc7)c7ccc4[nH]7)C=C6)C=C5)cc3)CS[C@@H]2c2ccccc2Cl)c1
REMARK SMILES IDX 19 1 18 2 17 3 16 4 15 5 14 6 12 7 13 8 11 9 10 10 79 11
REMARK SMILES IDX 77 12 78 13 8 14 9 15 7 16 3 17 4 18 87 19 5 20 6 21 2 22
REMARK SMILES IDX 1 23 80 24 81 25 85 26 82 27 84 28 86 29 83 30 20 31 21 32
REMARK SMILES IDX 22 33 23 34 24 35 25 36 26 37 27 38 28 39 29 40 30 41 76 42
REMARK SMILES IDX 31 43 75 44 32 45 33 46 34 47 69 48 35 49 74 50 68 51 70 52
REMARK SMILES IDX 36 53 73 54 67 55 66 56 37 58 59 59 44 60 58 61 45 62 48 63
REMARK SMILES IDX 57 64 71 65 46 66 47 67 56 69 72 70 49 71 38 72 39 73 43 74
REMARK SMILES IDX 40 75 42 76 41 77 60 78 61 79 65 80 62 81 64 82 63 83 50 84
REMARK SMILES IDX 51 85 55 86 52 87 54 88 53 89
REMARK H PARENT 70 57 48 68
REMARK Flexibility Score: inf
ROOT
ATOM      1  C   UNL A   1      33.399  22.275  27.560  1.00  0.00     0.188 C 
ENDROOT
BRANCH   1   2
ATOM      2  C   UNL A   1      32.417  23.311  26.986  1.00  0.00     0.188 C 
BRANCH   2   3
ATOM      3  O   UNL A   1      31.144  23.318  27.591  1.00  0.00    -0.376 OA
BRANCH   3   4
ATOM      4  C   UNL A   1      29.965  23.120  26.845  1.00  0.00     0.202 C 
BRANCH   4   5
ATOM      5  C   UNL A   1      28.816  24.141  26.856  1.00  0.00     0.261 C 
BRANCH   5   6
ATOM      6  O   UNL A   1      29.167  25.491  26.538  1.00  0.00    -0.462 OA
BRANCH   6   7
ATOM      7  C   UNL A   1      29.276  25.807  25.230  1.00  0.00     0.329 C 
ATOM      8  O   UNL A   1      28.321  26.152  24.535  1.00  0.00    -0.250 OA
BRANCH   7   9
ATOM      9  C   UNL A   1      30.717  25.807  24.667  1.00  0.00     0.206 C 
ATOM     10  N   UNL A   1      31.526  26.980  24.219  1.00  0.00    -0.308 N 
ATOM     11  C   UNL A   1      32.609  26.607  23.317  1.00  0.00     0.176 C 
ATOM     12  C   UNL A   1      30.632  24.862  23.437  1.00  0.00     0.109 C 
ATOM     13  S   UNL A   1      31.627  25.609  22.111  1.00  0.00    -0.129 SA
BRANCH  10  14
ATOM     14  C   UNL A   1      31.356  28.250  24.761  1.00  0.00     0.255 C 
ATOM     15  O   UNL A   1      31.813  28.526  25.871  1.00  0.00    -0.269 OA
BRANCH  14  16
ATOM     16  C   UNL A   1      30.514  29.299  24.056  1.00  0.00     0.043 A 
ATOM     17  C   UNL A   1      28.933  30.058  22.340  1.00  0.00     0.119 A 
ATOM     18  C   UNL A   1      28.814  31.279  23.002  1.00  0.00     0.046 A 
ATOM     19  C   UNL A   1      29.754  29.063  22.889  1.00  0.00     0.060 A 
ATOM     20  C   UNL A   1      29.507  31.515  24.186  1.00  0.00     0.005 A 
ATOM     21  C   UNL A   1      30.360  30.536  24.703  1.00  0.00     0.014 A 
BRANCH  17  22
ATOM     22  O   UNL A   1      28.181  29.972  21.201  1.00  0.00    -0.497 OA
ATOM     23  C   UNL A   1      28.022  31.121  20.380  1.00  0.00     0.278 C 
ENDBRANCH  17  22
ENDBRANCH  14  16
ENDBRANCH  10  14
BRANCH  11  24
ATOM     24  C   UNL A   1      33.760  25.738  23.851  1.00  0.00     0.003 A 
ATOM     25  C   UNL A   1      34.182  24.670  23.014  1.00  0.00     0.008 A 
ATOM     26  C   UNL A   1      34.434  25.867  25.076  1.00  0.00     0.047 A 
ATOM     27  C   UNL A   1      35.073  23.687  23.447  1.00  0.00     0.001 A 
ATOM     28  C   UNL A   1      35.297  24.854  25.527  1.00  0.00     0.021 A 
ATOM     29  Cl  UNL A   1      34.355  27.260  26.091  1.00  0.00    -0.084 Cl
ATOM     30  C   UNL A   1      35.595  23.754  24.727  1.00  0.00     0.002 A 
ENDBRANCH  11  24
ENDBRANCH   7   9
ENDBRANCH   6   7
ENDBRANCH   5   6
ENDBRANCH   4   5
ENDBRANCH   3   4
ENDBRANCH   2   3
ENDBRANCH   1   2
BRANCH   1  31
ATOM     31  O   UNL A   1      34.048  21.275  26.794  1.00  0.00    -0.377 OA
BRANCH  31  32
ATOM     32  C   UNL A   1      33.330  20.567  25.801  1.00  0.00     0.188 C 
BRANCH  32  33
ATOM     33  C   UNL A   1      34.214  20.196  24.602  1.00  0.00     0.188 C 
BRANCH  33  34
ATOM     34  O   UNL A   1      35.500  19.718  24.966  1.00  0.00    -0.376 OA
BRANCH  34  35
ATOM     35  C   UNL A   1      36.607  20.611  24.981  1.00  0.00     0.202 C 
BRANCH  35  36
ATOM     36  C   UNL A   1      38.083  20.167  24.976  1.00  0.00     0.261 C 
BRANCH  36  37
ATOM     37  O   UNL A   1      38.992  20.790  25.881  1.00  0.00    -0.460 OA
BRANCH  37  38
ATOM     38  C   UNL A   1      40.209  20.254  26.035  1.00  0.00     0.338 C 
ATOM     39  O   UNL A   1      40.597  19.152  25.674  1.00  0.00    -0.246 OA
BRANCH  38  40
ATOM     40  C   UNL A   1      41.060  21.329  26.572  1.00  0.00     0.060 A 
ATOM     41  C   UNL A   1      40.877  21.739  27.896  1.00  0.00     0.016 A 
ATOM     42  C   UNL A   1      42.045  21.917  25.770  1.00  0.00     0.016 A 
ATOM     43  C   UNL A   1      41.630  22.790  28.402  1.00  0.00     0.010 A 
ATOM     44  C   UNL A   1      42.799  22.974  26.277  1.00  0.00     0.010 A 
ATOM     45  C   UNL A   1      42.543  23.455  27.573  1.00  0.00    -0.014 A 
BRANCH  45  46
ATOM     46  C   UNL A   1      42.989  24.807  27.977  1.00  0.00     0.031 A 
ATOM     47  C   UNL A   1      41.931  25.848  28.225  1.00  0.00     0.074 A 
ATOM     48  C   UNL A   1      44.284  25.071  28.214  1.00  0.00     0.049 A 
ATOM     49  N   UNL A   1      42.056  27.077  28.654  1.00  0.00    -0.248 NA
ATOM     50  C   UNL A   1      40.540  25.450  27.945  1.00  0.00     0.031 C 
ATOM     51  C   UNL A   1      45.385  24.125  28.047  1.00  0.00     0.029 A 
ATOM     52  N   UNL A   1      44.884  26.217  28.668  1.00  0.00    -0.354 N 
ATOM     53  C   UNL A   1      40.767  27.598  28.675  1.00  0.00     0.074 A 
ATOM     54  C   UNL A   1      39.883  26.574  28.173  1.00  0.00     0.031 C 
ATOM     55  C   UNL A   1      46.532  24.727  28.407  1.00  0.00     0.029 A 
ATOM     56  C   UNL A   1      46.245  26.105  28.801  1.00  0.00     0.049 A 
ATOM     57  H   UNL A   1      44.387  27.039  28.877  1.00  0.00     0.167 HD
ATOM     58  C   UNL A   1      40.353  28.817  29.091  1.00  0.00     0.031 A 
ATOM     59  C   UNL A   1      47.154  27.019  29.192  1.00  0.00     0.031 A 
ATOM     60  C   UNL A   1      41.242  29.831  29.587  1.00  0.00     0.049 A 
ATOM     61  C   UNL A   1      46.680  28.386  29.608  1.00  0.00     0.074 A 
ATOM     62  C   UNL A   1      40.935  31.094  30.058  1.00  0.00     0.029 A 
ATOM     63  N   UNL A   1      42.620  29.693  29.669  1.00  0.00    -0.354 N 
ATOM     64  N   UNL A   1      45.456  28.859  29.656  1.00  0.00    -0.248 NA
ATOM     65  C   UNL A   1      47.710  29.338  30.042  1.00  0.00     0.031 C 
ATOM     66  C   UNL A   1      42.136  31.747  30.357  1.00  0.00     0.029 A 
ATOM     67  C   UNL A   1      43.183  30.862  30.150  1.00  0.00     0.049 A 
ATOM     68  H   UNL A   1      43.123  28.884  29.420  1.00  0.00     0.167 HD
ATOM     69  C   UNL A   1      45.566  30.152  30.150  1.00  0.00     0.074 A 
ATOM     70  C   UNL A   1      46.975  30.380  30.403  1.00  0.00     0.031 C 
ATOM     71  C   UNL A   1      44.592  31.068  30.381  1.00  0.00     0.031 A 
BRANCH  58  72
ATOM     72  C   UNL A   1      38.884  29.125  28.963  1.00  0.00    -0.014 A 
ATOM     73  C   UNL A   1      38.325  29.592  27.763  1.00  0.00     0.009 A 
ATOM     74  C   UNL A   1      38.048  28.965  30.080  1.00  0.00     0.009 A 
ATOM     75  C   UNL A   1      36.973  29.945  27.700  1.00  0.00     0.001 A 
ATOM     76  C   UNL A   1      36.691  29.282  30.003  1.00  0.00     0.001 A 
ATOM     77  C   UNL A   1      36.158  29.785  28.819  1.00  0.00     0.000 A 
ENDBRANCH  58  72
BRANCH  59  78
ATOM     78  C   UNL A   1      48.598  26.663  29.202  1.00  0.00    -0.014 A 
ATOM     79  C   UNL A   1      49.406  26.878  28.075  1.00  0.00     0.009 A 
ATOM     80  C   UNL A   1      49.182  26.121  30.359  1.00  0.00     0.009 A 
ATOM     81  C   UNL A   1      50.762  26.542  28.103  1.00  0.00     0.001 A 
ATOM     82  C   UNL A   1      50.544  25.817  30.394  1.00  0.00     0.001 A 
ATOM     83  C   UNL A   1      51.332  26.020  29.264  1.00  0.00     0.000 A 
ENDBRANCH  59  78
BRANCH  71  84
ATOM     84  C   UNL A   1      45.015  32.386  30.972  1.00  0.00    -0.014 A 
ATOM     85  C   UNL A   1      44.937  32.633  32.352  1.00  0.00     0.009 A 
ATOM     86  C   UNL A   1      45.534  33.384  30.132  1.00  0.00     0.009 A 
ATOM     87  C   UNL A   1      45.329  33.869  32.869  1.00  0.00     0.001 A 
ATOM     88  C   UNL A   1      45.960  34.603  30.657  1.00  0.00     0.001 A 
ATOM     89  C   UNL A   1      45.845  34.850  32.023  1.00  0.00     0.000 A 
ENDBRANCH  71  84
ENDBRANCH  45  46
ENDBRANCH  38  40
ENDBRANCH  37  38
ENDBRANCH  36  37
ENDBRANCH  35  36
ENDBRANCH  34  35
ENDBRANCH  33  34
ENDBRANCH  32  33
ENDBRANCH  31  32
ENDBRANCH   1  31
TORSDOF 24
ENDMDL
