MODEL 1
REMARK VINA RESULT:     -14.0      0.000      0.000
REMARK SMILES CCc1cccc(C)c1Nc1ccccc1CC(=O)OCCOCCOCCOCCOC(=O)c1ccc(-c2c3nc(c(-c4ccccc4)c4ccc([nH]4)c(-c4ccccc4)c4nc(c(-c5ccccc5)c5ccc2[nH]5)C=C4)C=C3)cc1
REMARK SMILES IDX 25 1 24 2 23 3 22 4 21 5 20 6 18 7 19 8 17 9 16 10 11 11
REMARK SMILES IDX 12 12 13 13 15 14 14 15 10 16 9 18 3 19 4 20 5 21 7 22 6 23
REMARK SMILES IDX 8 24 2 25 1 26 26 27 27 28 28 29 29 30 30 31 31 32 32 33
REMARK SMILES IDX 33 34 34 35 35 36 36 37 82 38 37 39 81 40 38 41 39 42 40 43
REMARK SMILES IDX 75 44 41 45 80 46 74 47 76 48 42 49 79 50 73 51 72 52 43 54
REMARK SMILES IDX 65 55 50 56 64 57 51 58 54 59 63 60 77 61 52 62 53 63 62 65
REMARK SMILES IDX 78 66 55 67 44 68 45 69 49 70 46 71 48 72 47 73 66 74 67 75
REMARK SMILES IDX 71 76 68 77 70 78 69 79 56 80 57 81 61 82 58 83 60 84 59 85
REMARK H PARENT 10 17 76 53 54 64
REMARK Flexibility Score: inf
ROOT
ATOM      1  C   UNL A   1      39.116  22.216  26.132  1.00  0.00     0.188 C 
ENDROOT
BRANCH   1   2
ATOM      2  C   UNL A   1      37.513  21.694  24.844  1.00  0.00     0.188 C 
BRANCH   2   3
ATOM      3  O   UNL A   1      36.618  23.423  24.182  1.00  0.00    -0.376 OA
BRANCH   3   4
ATOM      4  C   UNL A   1      35.252  24.205  24.949  1.00  0.00     0.202 C 
BRANCH   4   5
ATOM      5  C   UNL A   1      34.536  23.477  26.387  1.00  0.00     0.261 C 
BRANCH   5   6
ATOM      6  O   UNL A   1      32.884  23.118  26.513  1.00  0.00    -0.463 OA
BRANCH   6   7
ATOM      7  C   UNL A   1      31.728  23.795  26.916  1.00  0.00     0.310 C 
ATOM      8  O   UNL A   1      30.850  23.090  27.440  1.00  0.00    -0.252 OA
BRANCH   7   9
ATOM      9  C   UNL A   1      31.461  25.474  26.987  1.00  0.00     0.160 C 
BRANCH   9  10
ATOM     10  C   UNL A   1      32.178  26.969  26.498  1.00  0.00    -0.013 A 
ATOM     11  C   UNL A   1      33.507  27.413  25.546  1.00  0.00     0.042 A 
ATOM     12  C   UNL A   1      33.955  28.762  25.694  1.00  0.00     0.026 A 
ATOM     13  C   UNL A   1      33.101  29.686  26.359  1.00  0.00     0.002 A 
ATOM     14  C   UNL A   1      31.482  28.007  27.171  1.00  0.00     0.006 A 
ATOM     15  C   UNL A   1      31.898  29.332  27.027  1.00  0.00     0.000 A 
BRANCH  11  16
ATOM     16  N   UNL A   1      33.493  27.286  23.713  1.00  0.00    -0.355 N 
ATOM     17  H   UNL A   1      34.348  27.018  23.304  1.00  0.00     0.167 HD
BRANCH  16  18
ATOM     18  C   UNL A   1      32.059  27.594  22.479  1.00  0.00     0.045 A 
ATOM     19  C   UNL A   1      32.076  25.860  22.096  1.00  0.00    -0.024 A 
ATOM     20  C   UNL A   1      30.996  24.782  22.826  1.00  0.00     0.006 A 
ATOM     21  C   UNL A   1      29.872  25.215  23.916  1.00  0.00     0.001 A 
ATOM     22  C   UNL A   1      30.555  28.296  23.518  1.00  0.00    -0.027 A 
ATOM     23  C   UNL A   1      29.614  26.848  24.343  1.00  0.00     0.005 A 
ATOM     24  C   UNL A   1      30.184  29.770  23.823  1.00  0.00     0.046 C 
BRANCH  19  25
ATOM     25  C   UNL A   1      33.024  25.178  21.163  1.00  0.00     0.034 C 
ATOM     26  C   UNL A   1      32.598  25.455  19.733  1.00  0.00     0.009 C 
ENDBRANCH  19  25
ENDBRANCH  16  18
ENDBRANCH  11  16
ENDBRANCH   9  10
ENDBRANCH   7   9
ENDBRANCH   6   7
ENDBRANCH   5   6
ENDBRANCH   4   5
ENDBRANCH   3   4
ENDBRANCH   2   3
ENDBRANCH   1   2
BRANCH   1  27
ATOM     27  O   UNL A   1      39.969  21.221  26.986  1.00  0.00    -0.377 OA
BRANCH  27  28
ATOM     28  C   UNL A   1      41.284  20.831  26.621  1.00  0.00     0.188 C 
BRANCH  28  29
ATOM     29  C   UNL A   1      41.351  19.365  26.313  1.00  0.00     0.188 C 
BRANCH  29  30
ATOM     30  O   UNL A   1      42.419  19.177  25.390  1.00  0.00    -0.376 OA
BRANCH  30  31
ATOM     31  C   UNL A   1      43.286  18.111  25.742  1.00  0.00     0.202 C 
BRANCH  31  32
ATOM     32  C   UNL A   1      44.722  18.503  25.407  1.00  0.00     0.261 C 
BRANCH  32  33
ATOM     33  O   UNL A   1      44.676  19.608  24.464  1.00  0.00    -0.460 OA
BRANCH  33  34
ATOM     34  C   UNL A   1      45.431  20.690  24.810  1.00  0.00     0.338 C 
ATOM     35  O   UNL A   1      46.641  20.665  24.984  1.00  0.00    -0.246 OA
BRANCH  34  36
ATOM     36  C   UNL A   1      44.583  21.855  25.251  1.00  0.00     0.060 A 
ATOM     37  C   UNL A   1      44.126  22.767  24.279  1.00  0.00     0.016 A 
ATOM     38  C   UNL A   1      44.573  22.249  26.587  1.00  0.00     0.016 A 
ATOM     39  C   UNL A   1      43.823  24.100  24.623  1.00  0.00     0.010 A 
ATOM     40  C   UNL A   1      44.344  23.589  26.904  1.00  0.00     0.010 A 
ATOM     41  C   UNL A   1      44.007  24.551  25.933  1.00  0.00    -0.014 A 
BRANCH  41  42
ATOM     42  C   UNL A   1      44.012  25.994  26.325  1.00  0.00     0.031 A 
ATOM     43  C   UNL A   1      42.684  26.758  26.428  1.00  0.00     0.074 A 
ATOM     44  C   UNL A   1      45.135  26.505  26.911  1.00  0.00     0.049 A 
ATOM     45  N   UNL A   1      42.499  27.931  26.954  1.00  0.00    -0.248 NA
ATOM     46  C   UNL A   1      41.399  26.193  26.007  1.00  0.00     0.031 C 
ATOM     47  C   UNL A   1      45.169  27.711  27.721  1.00  0.00     0.029 A 
ATOM     48  N   UNL A   1      46.442  26.072  27.081  1.00  0.00    -0.354 N 
ATOM     49  C   UNL A   1      41.159  28.102  27.275  1.00  0.00     0.074 A 
ATOM     50  C   UNL A   1      40.507  27.019  26.578  1.00  0.00     0.031 C 
ATOM     51  C   UNL A   1      46.318  27.867  28.398  1.00  0.00     0.029 A 
ATOM     52  C   UNL A   1      47.243  27.097  27.631  1.00  0.00     0.049 A 
ATOM     53  H   UNL A   1      46.767  25.173  26.848  1.00  0.00     0.167 HD
ATOM     54  C   UNL A   1      40.776  29.045  28.205  1.00  0.00     0.031 A 
ATOM     55  C   UNL A   1      48.155  27.809  26.891  1.00  0.00     0.031 A 
ATOM     56  C   UNL A   1      41.900  29.931  28.616  1.00  0.00     0.049 A 
ATOM     57  C   UNL A   1      47.649  29.278  26.655  1.00  0.00     0.074 A 
ATOM     58  C   UNL A   1      42.425  30.351  29.834  1.00  0.00     0.029 A 
ATOM     59  N   UNL A   1      42.815  30.378  27.661  1.00  0.00    -0.354 N 
ATOM     60  N   UNL A   1      46.372  29.599  26.512  1.00  0.00    -0.248 NA
ATOM     61  C   UNL A   1      48.450  30.478  26.920  1.00  0.00     0.031 C 
ATOM     62  C   UNL A   1      43.774  30.768  29.611  1.00  0.00     0.029 A 
ATOM     63  C   UNL A   1      44.007  30.788  28.240  1.00  0.00     0.049 A 
ATOM     64  H   UNL A   1      42.635  30.399  26.693  1.00  0.00     0.167 HD
ATOM     65  C   UNL A   1      46.156  30.898  26.925  1.00  0.00     0.074 A 
ATOM     66  C   UNL A   1      47.505  31.438  27.048  1.00  0.00     0.031 C 
ATOM     67  C   UNL A   1      45.012  31.475  27.435  1.00  0.00     0.031 A 
BRANCH  54  68
ATOM     68  C   UNL A   1      39.422  29.083  28.950  1.00  0.00    -0.014 A 
ATOM     69  C   UNL A   1      38.266  29.551  28.278  1.00  0.00     0.009 A 
ATOM     70  C   UNL A   1      39.210  28.764  30.306  1.00  0.00     0.009 A 
ATOM     71  C   UNL A   1      37.014  29.714  28.904  1.00  0.00     0.001 A 
ATOM     72  C   UNL A   1      37.946  28.884  30.932  1.00  0.00     0.001 A 
ATOM     73  C   UNL A   1      36.850  29.370  30.235  1.00  0.00     0.000 A 
ENDBRANCH  54  68
BRANCH  55  74
ATOM     74  C   UNL A   1      49.034  26.848  26.145  1.00  0.00    -0.014 A 
ATOM     75  C   UNL A   1      49.641  27.418  24.993  1.00  0.00     0.009 A 
ATOM     76  C   UNL A   1      49.801  25.928  26.884  1.00  0.00     0.009 A 
ATOM     77  C   UNL A   1      51.027  27.330  24.788  1.00  0.00     0.001 A 
ATOM     78  C   UNL A   1      51.188  25.825  26.655  1.00  0.00     0.001 A 
ATOM     79  C   UNL A   1      51.809  26.581  25.660  1.00  0.00     0.000 A 
ENDBRANCH  55  74
BRANCH  67  80
ATOM     80  C   UNL A   1      44.587  32.869  27.018  1.00  0.00    -0.014 A 
ATOM     81  C   UNL A   1      44.363  33.184  25.678  1.00  0.00     0.009 A 
ATOM     82  C   UNL A   1      44.075  33.769  27.992  1.00  0.00     0.009 A 
ATOM     83  C   UNL A   1      43.638  34.327  25.330  1.00  0.00     0.001 A 
ATOM     84  C   UNL A   1      43.307  34.876  27.648  1.00  0.00     0.001 A 
ATOM     85  C   UNL A   1      43.090  35.155  26.310  1.00  0.00     0.000 A 
ENDBRANCH  67  80
ENDBRANCH  41  42
ENDBRANCH  34  36
ENDBRANCH  33  34
ENDBRANCH  32  33
ENDBRANCH  31  32
ENDBRANCH  30  31
ENDBRANCH  29  30
ENDBRANCH  28  29
ENDBRANCH  27  28
ENDBRANCH   1  27
TORSDOF 24
ENDMDL
MODEL 2
REMARK VINA RESULT:     -11.9      4.185      8.073
REMARK SMILES CCc1cccc(C)c1Nc1ccccc1CC(=O)OCCOCCOCCOCCOC(=O)c1ccc(-c2c3nc(c(-c4ccccc4)c4ccc([nH]4)c(-c4ccccc4)c4nc(c(-c5ccccc5)c5ccc2[nH]5)C=C4)C=C3)cc1
REMARK SMILES IDX 25 1 24 2 23 3 22 4 21 5 20 6 18 7 19 8 17 9 16 10 11 11
REMARK SMILES IDX 12 12 13 13 15 14 14 15 10 16 9 18 3 19 4 20 5 21 7 22 6 23
REMARK SMILES IDX 8 24 2 25 1 26 26 27 27 28 28 29 29 30 30 31 31 32 32 33
REMARK SMILES IDX 33 34 34 35 35 36 36 37 82 38 37 39 81 40 38 41 39 42 40 43
REMARK SMILES IDX 75 44 41 45 80 46 74 47 76 48 42 49 79 50 73 51 72 52 43 54
REMARK SMILES IDX 65 55 50 56 64 57 51 58 54 59 63 60 77 61 52 62 53 63 62 65
REMARK SMILES IDX 78 66 55 67 44 68 45 69 49 70 46 71 48 72 47 73 66 74 67 75
REMARK SMILES IDX 71 76 68 77 70 78 69 79 56 80 57 81 61 82 58 83 60 84 59 85
REMARK H PARENT 10 17 76 53 54 64
REMARK Flexibility Score: inf
ROOT
ATOM      1  C   UNL A   1      38.825  21.890  26.038  1.00  0.00     0.188 C 
ENDROOT
BRANCH   1   2
ATOM      2  C   UNL A   1      37.827  20.318  25.022  1.00  0.00     0.188 C 
BRANCH   2   3
ATOM      3  O   UNL A   1      35.907  20.926  24.605  1.00  0.00    -0.376 OA
BRANCH   3   4
ATOM      4  C   UNL A   1      34.629  21.101  25.789  1.00  0.00     0.202 C 
BRANCH   4   5
ATOM      5  C   UNL A   1      34.314  22.688  26.492  1.00  0.00     0.261 C 
BRANCH   5   6
ATOM      6  O   UNL A   1      32.893  23.055  27.339  1.00  0.00    -0.463 OA
BRANCH   6   7
ATOM      7  C   UNL A   1      31.688  23.709  27.061  1.00  0.00     0.310 C 
ATOM      8  O   UNL A   1      30.664  23.016  27.175  1.00  0.00    -0.252 OA
BRANCH   7   9
ATOM      9  C   UNL A   1      31.425  25.371  26.808  1.00  0.00     0.160 C 
BRANCH   9  10
ATOM     10  C   UNL A   1      32.164  26.750  26.072  1.00  0.00    -0.013 A 
ATOM     11  C   UNL A   1      33.580  27.029  25.185  1.00  0.00     0.042 A 
ATOM     12  C   UNL A   1      33.984  28.395  25.073  1.00  0.00     0.026 A 
ATOM     13  C   UNL A   1      33.046  29.406  25.422  1.00  0.00     0.002 A 
ATOM     14  C   UNL A   1      31.379  27.881  26.420  1.00  0.00     0.006 A 
ATOM     15  C   UNL A   1      31.784  29.158  26.026  1.00  0.00     0.000 A 
BRANCH  11  16
ATOM     16  N   UNL A   1      33.768  26.499  23.437  1.00  0.00    -0.355 N 
ATOM     17  H   UNL A   1      34.656  26.145  23.199  1.00  0.00     0.167 HD
BRANCH  16  18
ATOM     18  C   UNL A   1      32.492  26.532  22.007  1.00  0.00     0.045 A 
ATOM     19  C   UNL A   1      32.242  24.790  22.251  1.00  0.00    -0.024 A 
ATOM     20  C   UNL A   1      30.951  24.201  23.170  1.00  0.00     0.006 A 
ATOM     21  C   UNL A   1      29.846  25.144  23.899  1.00  0.00     0.001 A 
ATOM     22  C   UNL A   1      31.062  27.754  22.549  1.00  0.00    -0.027 A 
ATOM     23  C   UNL A   1      29.838  26.840  23.701  1.00  0.00     0.005 A 
ATOM     24  C   UNL A   1      30.925  29.276  22.279  1.00  0.00     0.046 C 
BRANCH  19  25
ATOM     25  C   UNL A   1      33.122  23.698  21.733  1.00  0.00     0.034 C 
ATOM     26  C   UNL A   1      34.083  23.272  22.827  1.00  0.00     0.009 C 
ENDBRANCH  19  25
ENDBRANCH  16  18
ENDBRANCH  11  16
ENDBRANCH   9  10
ENDBRANCH   7   9
ENDBRANCH   6   7
ENDBRANCH   5   6
ENDBRANCH   4   5
ENDBRANCH   3   4
ENDBRANCH   2   3
ENDBRANCH   1   2
BRANCH   1  27
ATOM     27  O   UNL A   1      40.014  21.727  27.042  1.00  0.00    -0.377 OA
BRANCH  27  28
ATOM     28  C   UNL A   1      40.932  20.646  26.972  1.00  0.00     0.188 C 
BRANCH  28  29
ATOM     29  C   UNL A   1      42.244  21.082  26.393  1.00  0.00     0.188 C 
BRANCH  29  30
ATOM     30  O   UNL A   1      42.251  22.506  26.390  1.00  0.00    -0.376 OA
BRANCH  30  31
ATOM     31  C   UNL A   1      43.304  23.062  25.620  1.00  0.00     0.202 C 
BRANCH  31  32
ATOM     32  C   UNL A   1      42.978  24.519  25.305  1.00  0.00     0.261 C 
BRANCH  32  33
ATOM     33  O   UNL A   1      41.701  24.835  25.922  1.00  0.00    -0.460 OA
BRANCH  33  34
ATOM     34  C   UNL A   1      41.501  26.158  26.185  1.00  0.00     0.338 C 
ATOM     35  O   UNL A   1      41.452  27.036  25.334  1.00  0.00    -0.246 OA
BRANCH  34  36
ATOM     36  C   UNL A   1      41.649  26.474  27.651  1.00  0.00     0.060 A 
ATOM     37  C   UNL A   1      40.583  26.168  28.520  1.00  0.00     0.016 A 
ATOM     38  C   UNL A   1      42.615  27.380  28.080  1.00  0.00     0.016 A 
ATOM     39  C   UNL A   1      40.403  26.881  29.723  1.00  0.00     0.010 A 
ATOM     40  C   UNL A   1      42.386  28.131  29.234  1.00  0.00     0.010 A 
ATOM     41  C   UNL A   1      41.261  27.932  30.057  1.00  0.00    -0.014 A 
BRANCH  41  42
ATOM     42  C   UNL A   1      40.977  28.932  31.132  1.00  0.00     0.031 A 
ATOM     43  C   UNL A   1      41.585  28.738  32.529  1.00  0.00     0.074 A 
ATOM     44  C   UNL A   1      40.482  30.152  30.772  1.00  0.00     0.049 A 
ATOM     45  N   UNL A   1      41.613  29.607  33.493  1.00  0.00    -0.248 NA
ATOM     46  C   UNL A   1      42.315  27.530  32.926  1.00  0.00     0.031 C 
ATOM     47  C   UNL A   1      40.556  31.349  31.593  1.00  0.00     0.029 A 
ATOM     48  N   UNL A   1      39.948  30.696  29.613  1.00  0.00    -0.354 N 
ATOM     49  C   UNL A   1      42.604  29.271  34.407  1.00  0.00     0.074 A 
ATOM     50  C   UNL A   1      42.946  27.917  34.046  1.00  0.00     0.031 C 
ATOM     51  C   UNL A   1      40.242  32.473  30.927  1.00  0.00     0.029 A 
ATOM     52  C   UNL A   1      39.434  31.989  29.855  1.00  0.00     0.049 A 
ATOM     53  H   UNL A   1      39.928  30.241  28.740  1.00  0.00     0.167 HD
ATOM     54  C   UNL A   1      43.119  30.222  35.263  1.00  0.00     0.031 A 
ATOM     55  C   UNL A   1      38.089  32.252  29.945  1.00  0.00     0.031 A 
ATOM     56  C   UNL A   1      42.362  31.503  35.217  1.00  0.00     0.049 A 
ATOM     57  C   UNL A   1      37.684  32.564  31.431  1.00  0.00     0.074 A 
ATOM     58  C   UNL A   1      42.706  32.843  35.072  1.00  0.00     0.029 A 
ATOM     59  N   UNL A   1      40.968  31.482  35.124  1.00  0.00    -0.354 N 
ATOM     60  N   UNL A   1      38.262  31.999  32.481  1.00  0.00    -0.248 NA
ATOM     61  C   UNL A   1      36.910  33.738  31.846  1.00  0.00     0.031 C 
ATOM     62  C   UNL A   1      41.554  33.545  34.600  1.00  0.00     0.029 A 
ATOM     63  C   UNL A   1      40.465  32.682  34.643  1.00  0.00     0.049 A 
ATOM     64  H   UNL A   1      40.412  30.708  35.370  1.00  0.00     0.167 HD
ATOM     65  C   UNL A   1      38.185  32.834  33.577  1.00  0.00     0.074 A 
ATOM     66  C   UNL A   1      37.221  33.846  33.157  1.00  0.00     0.031 C 
ATOM     67  C   UNL A   1      39.026  32.930  34.664  1.00  0.00     0.031 A 
BRANCH  54  68
ATOM     68  C   UNL A   1      44.457  30.118  36.029  1.00  0.00    -0.014 A 
ATOM     69  C   UNL A   1      44.591  30.741  37.295  1.00  0.00     0.009 A 
ATOM     70  C   UNL A   1      45.640  29.514  35.558  1.00  0.00     0.009 A 
ATOM     71  C   UNL A   1      45.799  30.783  38.018  1.00  0.00     0.001 A 
ATOM     72  C   UNL A   1      46.847  29.514  36.297  1.00  0.00     0.001 A 
ATOM     73  C   UNL A   1      46.930  30.158  37.523  1.00  0.00     0.000 A 
ENDBRANCH  54  68
BRANCH  55  74
ATOM     74  C   UNL A   1      37.397  31.667  28.748  1.00  0.00    -0.014 A 
ATOM     75  C   UNL A   1      37.101  30.284  28.889  1.00  0.00     0.009 A 
ATOM     76  C   UNL A   1      36.454  32.458  28.066  1.00  0.00     0.009 A 
ATOM     77  C   UNL A   1      35.805  29.796  28.661  1.00  0.00     0.001 A 
ATOM     78  C   UNL A   1      35.163  31.952  27.815  1.00  0.00     0.001 A 
ATOM     79  C   UNL A   1      34.819  30.650  28.181  1.00  0.00     0.000 A 
ENDBRANCH  55  74
BRANCH  67  80
ATOM     80  C   UNL A   1      38.477  33.114  36.065  1.00  0.00    -0.014 A 
ATOM     81  C   UNL A   1      37.997  32.030  36.799  1.00  0.00     0.009 A 
ATOM     82  C   UNL A   1      38.758  34.310  36.780  1.00  0.00     0.009 A 
ATOM     83  C   UNL A   1      37.835  32.127  38.184  1.00  0.00     0.001 A 
ATOM     84  C   UNL A   1      38.649  34.390  38.164  1.00  0.00     0.001 A 
ATOM     85  C   UNL A   1      38.184  33.292  38.867  1.00  0.00     0.000 A 
ENDBRANCH  67  80
ENDBRANCH  41  42
ENDBRANCH  34  36
ENDBRANCH  33  34
ENDBRANCH  32  33
ENDBRANCH  31  32
ENDBRANCH  30  31
ENDBRANCH  29  30
ENDBRANCH  28  29
ENDBRANCH  27  28
ENDBRANCH   1  27
TORSDOF 24
ENDMDL
