MODEL 1
REMARK VINA RESULT:      -8.4      0.000      0.000
REMARK SMILES CCCN(CCC)c1cc(C(=O)OCCOCCOCCOCCOC(=O)c2ccc(-c3c4nc(c(-c5ccccc5)c5ccc([nH]5)c(-c5ccccc5)c5nc(c(-c6ccccc6)c6ccc3[nH]6)C=C5)C=C4)cc2)cc(C(F)(F)F)c1
REMARK SMILES IDX 18 1 17 2 16 3 15 4 14 5 13 6 11 7 12 8 10 9 8 10 9 11 82 12
REMARK SMILES IDX 77 13 76 14 4 15 3 16 2 17 1 18 5 19 6 20 7 21 78 22 79 23
REMARK SMILES IDX 80 24 81 25 19 26 20 27 21 28 22 29 23 30 24 31 25 32 26 33
REMARK SMILES IDX 27 34 28 35 29 36 75 37 30 38 74 39 31 40 32 41 33 42 68 43
REMARK SMILES IDX 34 44 73 45 67 46 69 47 35 48 72 49 66 50 65 51 36 53 58 54
REMARK SMILES IDX 43 55 57 56 44 57 47 58 56 59 70 60 45 61 46 62 55 64 71 65
REMARK SMILES IDX 48 66 37 67 38 68 42 69 39 70 41 71 40 72 59 73 60 74 64 75
REMARK SMILES IDX 61 76 63 77 62 78 49 79 50 80 54 81 51 82 53 83 52 84
REMARK H PARENT 69 52 47 63
REMARK Flexibility Score: inf
ROOT
ATOM      1  C   UNL A   1      33.728  22.916  26.953  1.00  0.00     0.188 C 
ENDROOT
BRANCH   1   2
ATOM      2  C   UNL A   1      33.095  24.269  26.562  1.00  0.00     0.188 C 
BRANCH   2   3
ATOM      3  O   UNL A   1      33.838  24.977  25.585  1.00  0.00    -0.376 OA
BRANCH   3   4
ATOM      4  C   UNL A   1      34.389  24.238  24.515  1.00  0.00     0.202 C 
BRANCH   4   5
ATOM      5  C   UNL A   1      34.176  24.787  23.097  1.00  0.00     0.261 C 
BRANCH   5   6
ATOM      6  O   UNL A   1      34.025  26.209  22.991  1.00  0.00    -0.460 OA
BRANCH   6   7
ATOM      7  C   UNL A   1      32.933  26.704  22.359  1.00  0.00     0.338 C 
ATOM      8  O   UNL A   1      32.342  26.200  21.423  1.00  0.00    -0.246 OA
BRANCH   7   9
ATOM      9  C   UNL A   1      32.455  27.853  23.175  1.00  0.00     0.062 A 
ATOM     10  C   UNL A   1      30.648  29.418  23.641  1.00  0.00     0.038 A 
ATOM     11  C   UNL A   1      31.298  28.536  22.769  1.00  0.00     0.041 A 
ATOM     12  C   UNL A   1      31.204  29.609  24.913  1.00  0.00     0.039 A 
ATOM     13  C   UNL A   1      32.436  29.048  25.283  1.00  0.00     0.058 A 
ATOM     14  C   UNL A   1      33.046  28.141  24.413  1.00  0.00     0.029 A 
BRANCH  10  15
ATOM     15  N   UNL A   1      29.515  30.112  23.261  1.00  0.00    -0.372 N 
BRANCH  15  16
ATOM     16  C   UNL A   1      29.146  31.335  23.991  1.00  0.00     0.116 C 
BRANCH  16  17
ATOM     17  C   UNL A   1      29.576  32.617  23.266  1.00  0.00     0.018 C 
ATOM     18  C   UNL A   1      28.396  33.454  22.781  1.00  0.00     0.006 C 
ENDBRANCH  16  17
ENDBRANCH  15  16
BRANCH  15  19
ATOM     19  C   UNL A   1      28.605  29.586  22.237  1.00  0.00     0.116 C 
BRANCH  19  20
ATOM     20  C   UNL A   1      27.143  29.611  22.697  1.00  0.00     0.018 C 
ATOM     21  C   UNL A   1      26.776  28.367  23.489  1.00  0.00     0.006 C 
ENDBRANCH  19  20
ENDBRANCH  15  19
ENDBRANCH  10  15
BRANCH  13  22
ATOM     22  C   UNL A   1      33.081  29.419  26.592  1.00  0.00     0.416 C 
ATOM     23  F   UNL A   1      32.181  29.724  27.563  1.00  0.00    -0.166 F 
ATOM     24  F   UNL A   1      33.851  28.412  27.094  1.00  0.00    -0.166 F 
ATOM     25  F   UNL A   1      33.911  30.497  26.497  1.00  0.00    -0.166 F 
ENDBRANCH  13  22
ENDBRANCH   7   9
ENDBRANCH   6   7
ENDBRANCH   5   6
ENDBRANCH   4   5
ENDBRANCH   3   4
ENDBRANCH   2   3
ENDBRANCH   1   2
BRANCH   1  26
ATOM     26  O   UNL A   1      33.071  21.706  26.599  1.00  0.00    -0.377 OA
BRANCH  26  27
ATOM     27  C   UNL A   1      33.857  20.565  26.270  1.00  0.00     0.188 C 
BRANCH  27  28
ATOM     28  C   UNL A   1      34.345  20.350  24.817  1.00  0.00     0.188 C 
BRANCH  28  29
ATOM     29  O   UNL A   1      35.559  21.011  24.496  1.00  0.00    -0.376 OA
BRANCH  29  30
ATOM     30  C   UNL A   1      36.619  20.933  25.432  1.00  0.00     0.202 C 
BRANCH  30  31
ATOM     31  C   UNL A   1      37.905  21.702  25.104  1.00  0.00     0.261 C 
BRANCH  31  32
ATOM     32  O   UNL A   1      38.216  22.814  25.957  1.00  0.00    -0.460 OA
BRANCH  32  33
ATOM     33  C   UNL A   1      39.479  22.919  26.420  1.00  0.00     0.338 C 
ATOM     34  O   UNL A   1      40.394  22.125  26.268  1.00  0.00    -0.246 OA
BRANCH  33  35
ATOM     35  C   UNL A   1      39.622  24.273  26.992  1.00  0.00     0.060 A 
ATOM     36  C   UNL A   1      40.250  25.277  26.241  1.00  0.00     0.016 A 
ATOM     37  C   UNL A   1      39.093  24.559  28.252  1.00  0.00     0.016 A 
ATOM     38  C   UNL A   1      40.362  26.568  26.757  1.00  0.00     0.010 A 
ATOM     39  C   UNL A   1      39.232  25.843  28.779  1.00  0.00     0.010 A 
ATOM     40  C   UNL A   1      39.890  26.846  28.045  1.00  0.00    -0.014 A 
BRANCH  40  41
ATOM     41  C   UNL A   1      40.248  28.120  28.713  1.00  0.00     0.031 A 
ATOM     42  C   UNL A   1      41.623  28.244  29.306  1.00  0.00     0.074 A 
ATOM     43  C   UNL A   1      39.377  29.139  28.802  1.00  0.00     0.049 A 
ATOM     44  N   UNL A   1      42.138  29.214  30.016  1.00  0.00    -0.248 NA
ATOM     45  C   UNL A   1      42.541  27.116  29.068  1.00  0.00     0.031 C 
ATOM     46  C   UNL A   1      38.035  29.164  28.222  1.00  0.00     0.029 A 
ATOM     47  N   UNL A   1      39.495  30.352  29.432  1.00  0.00    -0.354 N 
ATOM     48  C   UNL A   1      43.431  28.808  30.321  1.00  0.00     0.074 A 
ATOM     49  C   UNL A   1      43.615  27.496  29.742  1.00  0.00     0.031 C 
ATOM     50  C   UNL A   1      37.448  30.332  28.538  1.00  0.00     0.029 A 
ATOM     51  C   UNL A   1      38.355  31.115  29.375  1.00  0.00     0.049 A 
ATOM     52  H   UNL A   1      40.320  30.647  29.882  1.00  0.00     0.167 HD
ATOM     53  C   UNL A   1      44.383  29.470  31.020  1.00  0.00     0.031 A 
ATOM     54  C   UNL A   1      38.067  32.295  29.960  1.00  0.00     0.031 A 
ATOM     55  C   UNL A   1      44.191  30.764  31.615  1.00  0.00     0.049 A 
ATOM     56  C   UNL A   1      39.108  32.965  30.822  1.00  0.00     0.074 A 
ATOM     57  C   UNL A   1      45.097  31.525  32.333  1.00  0.00     0.029 A 
ATOM     58  N   UNL A   1      43.007  31.484  31.572  1.00  0.00    -0.354 N 
ATOM     59  N   UNL A   1      40.338  32.589  31.082  1.00  0.00    -0.248 NA
ATOM     60  C   UNL A   1      38.720  34.228  31.468  1.00  0.00     0.031 C 
ATOM     61  C   UNL A   1      44.439  32.673  32.784  1.00  0.00     0.029 A 
ATOM     62  C   UNL A   1      43.146  32.663  32.283  1.00  0.00     0.049 A 
ATOM     63  H   UNL A   1      42.189  31.199  31.105  1.00  0.00     0.167 HD
ATOM     64  C   UNL A   1      40.876  33.578  31.896  1.00  0.00     0.074 A 
ATOM     65  C   UNL A   1      39.847  34.581  32.072  1.00  0.00     0.031 C 
ATOM     66  C   UNL A   1      42.113  33.652  32.448  1.00  0.00     0.031 A 
BRANCH  53  67
ATOM     67  C   UNL A   1      45.702  28.778  31.218  1.00  0.00    -0.014 A 
ATOM     68  C   UNL A   1      46.669  28.737  30.200  1.00  0.00     0.009 A 
ATOM     69  C   UNL A   1      45.991  28.177  32.454  1.00  0.00     0.009 A 
ATOM     70  C   UNL A   1      47.884  28.079  30.407  1.00  0.00     0.001 A 
ATOM     71  C   UNL A   1      47.218  27.548  32.667  1.00  0.00     0.001 A 
ATOM     72  C   UNL A   1      48.159  27.491  31.640  1.00  0.00     0.000 A 
ENDBRANCH  53  67
BRANCH  54  73
ATOM     73  C   UNL A   1      36.724  32.910  29.788  1.00  0.00    -0.014 A 
ATOM     74  C   UNL A   1      36.405  33.622  28.621  1.00  0.00     0.009 A 
ATOM     75  C   UNL A   1      35.762  32.818  30.807  1.00  0.00     0.009 A 
ATOM     76  C   UNL A   1      35.163  34.249  28.490  1.00  0.00     0.001 A 
ATOM     77  C   UNL A   1      34.510  33.418  30.660  1.00  0.00     0.001 A 
ATOM     78  C   UNL A   1      34.216  34.142  29.506  1.00  0.00     0.000 A 
ENDBRANCH  54  73
BRANCH  66  79
ATOM     79  C   UNL A   1      42.438  34.873  33.264  1.00  0.00    -0.014 A 
ATOM     80  C   UNL A   1      42.144  34.938  34.636  1.00  0.00     0.009 A 
ATOM     81  C   UNL A   1      43.101  35.954  32.661  1.00  0.00     0.009 A 
ATOM     82  C   UNL A   1      42.480  36.075  35.376  1.00  0.00     0.001 A 
ATOM     83  C   UNL A   1      43.466  37.073  33.411  1.00  0.00     0.001 A 
ATOM     84  C   UNL A   1      43.146  37.137  34.765  1.00  0.00     0.000 A 
ENDBRANCH  66  79
ENDBRANCH  40  41
ENDBRANCH  33  35
ENDBRANCH  32  33
ENDBRANCH  31  32
ENDBRANCH  30  31
ENDBRANCH  29  30
ENDBRANCH  28  29
ENDBRANCH  27  28
ENDBRANCH  26  27
ENDBRANCH   1  26
TORSDOF 26
ENDMDL
MODEL 2
REMARK VINA RESULT:      -8.0      3.038      6.911
REMARK SMILES CCCN(CCC)c1cc(C(=O)OCCOCCOCCOCCOC(=O)c2ccc(-c3c4nc(c(-c5ccccc5)c5ccc([nH]5)c(-c5ccccc5)c5nc(c(-c6ccccc6)c6ccc3[nH]6)C=C5)C=C4)cc2)cc(C(F)(F)F)c1
REMARK SMILES IDX 18 1 17 2 16 3 15 4 14 5 13 6 11 7 12 8 10 9 8 10 9 11 82 12
REMARK SMILES IDX 77 13 76 14 4 15 3 16 2 17 1 18 5 19 6 20 7 21 78 22 79 23
REMARK SMILES IDX 80 24 81 25 19 26 20 27 21 28 22 29 23 30 24 31 25 32 26 33
REMARK SMILES IDX 27 34 28 35 29 36 75 37 30 38 74 39 31 40 32 41 33 42 68 43
REMARK SMILES IDX 34 44 73 45 67 46 69 47 35 48 72 49 66 50 65 51 36 53 58 54
REMARK SMILES IDX 43 55 57 56 44 57 47 58 56 59 70 60 45 61 46 62 55 64 71 65
REMARK SMILES IDX 48 66 37 67 38 68 42 69 39 70 41 71 40 72 59 73 60 74 64 75
REMARK SMILES IDX 61 76 63 77 62 78 49 79 50 80 54 81 51 82 53 83 52 84
REMARK H PARENT 69 52 47 63
REMARK Flexibility Score: inf
ROOT
ATOM      1  C   UNL A   1      36.344  21.276  25.030  1.00  0.00     0.188 C 
ENDROOT
BRANCH   1   2
ATOM      2  C   UNL A   1      34.926  21.631  25.529  1.00  0.00     0.188 C 
BRANCH   2   3
ATOM      3  O   UNL A   1      34.716  21.322  26.896  1.00  0.00    -0.376 OA
BRANCH   3   4
ATOM      4  C   UNL A   1      33.923  22.210  27.657  1.00  0.00     0.202 C 
BRANCH   4   5
ATOM      5  C   UNL A   1      32.425  22.273  27.330  1.00  0.00     0.261 C 
BRANCH   5   6
ATOM      6  O   UNL A   1      31.819  23.569  27.411  1.00  0.00    -0.460 OA
BRANCH   6   7
ATOM      7  C   UNL A   1      30.632  23.774  26.788  1.00  0.00     0.338 C 
ATOM      8  O   UNL A   1      29.525  23.674  27.281  1.00  0.00    -0.246 OA
BRANCH   7   9
ATOM      9  C   UNL A   1      30.947  24.372  25.462  1.00  0.00     0.062 A 
ATOM     10  C   UNL A   1      31.090  26.395  24.113  1.00  0.00     0.038 A 
ATOM     11  C   UNL A   1      30.569  25.700  25.212  1.00  0.00     0.041 A 
ATOM     12  C   UNL A   1      31.975  25.713  23.269  1.00  0.00     0.039 A 
ATOM     13  C   UNL A   1      32.251  24.345  23.420  1.00  0.00     0.058 A 
ATOM     14  C   UNL A   1      31.751  23.683  24.544  1.00  0.00     0.029 A 
BRANCH  10  15
ATOM     15  N   UNL A   1      30.724  27.699  23.838  1.00  0.00    -0.372 N 
BRANCH  15  16
ATOM     16  C   UNL A   1      29.350  27.979  23.396  1.00  0.00     0.116 C 
BRANCH  16  17
ATOM     17  C   UNL A   1      29.271  29.118  22.371  1.00  0.00     0.018 C 
ATOM     18  C   UNL A   1      28.794  30.435  22.975  1.00  0.00     0.006 C 
ENDBRANCH  16  17
ENDBRANCH  15  16
BRANCH  15  19
ATOM     19  C   UNL A   1      31.710  28.786  23.850  1.00  0.00     0.116 C 
BRANCH  19  20
ATOM     20  C   UNL A   1      32.178  29.123  25.271  1.00  0.00     0.018 C 
ATOM     21  C   UNL A   1      31.619  30.452  25.752  1.00  0.00     0.006 C 
ENDBRANCH  19  20
ENDBRANCH  15  19
ENDBRANCH  10  15
BRANCH  13  22
ATOM     22  C   UNL A   1      33.068  23.612  22.389  1.00  0.00     0.416 C 
ATOM     23  F   UNL A   1      33.073  24.227  21.176  1.00  0.00    -0.166 F 
ATOM     24  F   UNL A   1      34.375  23.490  22.756  1.00  0.00    -0.166 F 
ATOM     25  F   UNL A   1      32.634  22.339  22.163  1.00  0.00    -0.166 F 
ENDBRANCH  13  22
ENDBRANCH   7   9
ENDBRANCH   6   7
ENDBRANCH   5   6
ENDBRANCH   4   5
ENDBRANCH   3   4
ENDBRANCH   2   3
ENDBRANCH   1   2
BRANCH   1  26
ATOM     26  O   UNL A   1      37.461  22.008  25.515  1.00  0.00    -0.377 OA
BRANCH  26  27
ATOM     27  C   UNL A   1      38.721  21.354  25.624  1.00  0.00     0.188 C 
BRANCH  27  28
ATOM     28  C   UNL A   1      39.835  21.954  26.515  1.00  0.00     0.188 C 
BRANCH  28  29
ATOM     29  O   UNL A   1      40.498  21.016  27.348  1.00  0.00    -0.376 OA
BRANCH  29  30
ATOM     30  C   UNL A   1      41.910  20.943  27.265  1.00  0.00     0.202 C 
BRANCH  30  31
ATOM     31  C   UNL A   1      42.549  21.212  25.896  1.00  0.00     0.261 C 
BRANCH  31  32
ATOM     32  O   UNL A   1      43.982  21.283  25.866  1.00  0.00    -0.460 OA
BRANCH  32  33
ATOM     33  C   UNL A   1      44.549  22.232  25.093  1.00  0.00     0.338 C 
ATOM     34  O   UNL A   1      44.987  22.103  23.961  1.00  0.00    -0.246 OA
BRANCH  33  35
ATOM     35  C   UNL A   1      44.374  23.522  25.789  1.00  0.00     0.060 A 
ATOM     36  C   UNL A   1      43.956  24.647  25.064  1.00  0.00     0.016 A 
ATOM     37  C   UNL A   1      44.581  23.605  27.168  1.00  0.00     0.016 A 
ATOM     38  C   UNL A   1      43.757  25.864  25.717  1.00  0.00     0.010 A 
ATOM     39  C   UNL A   1      44.409  24.830  27.814  1.00  0.00     0.010 A 
ATOM     40  C   UNL A   1      44.022  25.970  27.087  1.00  0.00    -0.014 A 
BRANCH  40  41
ATOM     41  C   UNL A   1      44.088  27.302  27.734  1.00  0.00     0.031 A 
ATOM     42  C   UNL A   1      42.804  27.919  28.213  1.00  0.00     0.074 A 
ATOM     43  C   UNL A   1      45.252  27.955  27.888  1.00  0.00     0.049 A 
ATOM     44  N   UNL A   1      42.590  29.104  28.722  1.00  0.00    -0.248 NA
ATOM     45  C   UNL A   1      41.595  27.084  28.095  1.00  0.00     0.031 C 
ATOM     46  C   UNL A   1      46.570  27.442  27.517  1.00  0.00     0.029 A 
ATOM     47  N   UNL A   1      45.505  29.207  28.390  1.00  0.00    -0.354 N 
ATOM     48  C   UNL A   1      41.225  29.163  28.972  1.00  0.00     0.074 A 
ATOM     49  C   UNL A   1      40.656  27.907  28.536  1.00  0.00     0.031 C 
ATOM     50  C   UNL A   1      47.493  28.380  27.792  1.00  0.00     0.029 A 
ATOM     51  C   UNL A   1      46.827  29.572  28.316  1.00  0.00     0.049 A 
ATOM     52  H   UNL A   1      44.806  29.787  28.768  1.00  0.00     0.167 HD
ATOM     53  C   UNL A   1      40.507  30.173  29.517  1.00  0.00     0.031 A 
ATOM     54  C   UNL A   1      47.423  30.745  28.608  1.00  0.00     0.031 A 
ATOM     55  C   UNL A   1      41.069  31.430  29.928  1.00  0.00     0.049 A 
ATOM     56  C   UNL A   1      46.587  31.892  29.117  1.00  0.00     0.074 A 
ATOM     57  C   UNL A   1      40.429  32.514  30.503  1.00  0.00     0.029 A 
ATOM     58  N   UNL A   1      42.405  31.777  29.795  1.00  0.00    -0.354 N 
ATOM     59  N   UNL A   1      45.301  31.930  29.376  1.00  0.00    -0.248 NA
ATOM     60  C   UNL A   1      47.287  33.159  29.376  1.00  0.00     0.031 C 
ATOM     61  C   UNL A   1      41.365  33.541  30.653  1.00  0.00     0.029 A 
ATOM     62  C   UNL A   1      42.603  33.072  30.242  1.00  0.00     0.049 A 
ATOM     63  H   UNL A   1      43.109  31.190  29.436  1.00  0.00     0.167 HD
ATOM     64  C   UNL A   1      45.046  33.210  29.854  1.00  0.00     0.074 A 
ATOM     65  C   UNL A   1      46.312  33.913  29.865  1.00  0.00     0.031 C 
ATOM     66  C   UNL A   1      43.869  33.757  30.248  1.00  0.00     0.031 A 
BRANCH  53  67
ATOM     67  C   UNL A   1      39.024  29.972  29.653  1.00  0.00    -0.014 A 
ATOM     68  C   UNL A   1      38.452  29.521  30.854  1.00  0.00     0.009 A 
ATOM     69  C   UNL A   1      38.182  30.262  28.568  1.00  0.00     0.009 A 
ATOM     70  C   UNL A   1      37.071  29.333  30.952  1.00  0.00     0.001 A 
ATOM     71  C   UNL A   1      36.801  30.104  28.680  1.00  0.00     0.001 A 
ATOM     72  C   UNL A   1      36.247  29.630  29.868  1.00  0.00     0.000 A 
ENDBRANCH  53  67
BRANCH  54  73
ATOM     73  C   UNL A   1      48.885  30.917  28.395  1.00  0.00    -0.014 A 
ATOM     74  C   UNL A   1      49.798  30.645  29.426  1.00  0.00     0.009 A 
ATOM     75  C   UNL A   1      49.375  31.388  27.166  1.00  0.00     0.009 A 
ATOM     76  C   UNL A   1      51.165  30.866  29.240  1.00  0.00     0.001 A 
ATOM     77  C   UNL A   1      50.745  31.577  26.972  1.00  0.00     0.001 A 
ATOM     78  C   UNL A   1      51.638  31.327  28.012  1.00  0.00     0.000 A 
ENDBRANCH  54  73
BRANCH  66  79
ATOM     79  C   UNL A   1      43.897  35.171  30.762  1.00  0.00    -0.014 A 
ATOM     80  C   UNL A   1      44.002  35.450  32.134  1.00  0.00     0.009 A 
ATOM     81  C   UNL A   1      43.873  36.240  29.852  1.00  0.00     0.009 A 
ATOM     82  C   UNL A   1      44.051  36.772  32.583  1.00  0.00     0.001 A 
ATOM     83  C   UNL A   1      43.957  37.558  30.301  1.00  0.00     0.001 A 
ATOM     84  C   UNL A   1      44.035  37.824  31.667  1.00  0.00     0.000 A 
ENDBRANCH  66  79
ENDBRANCH  40  41
ENDBRANCH  33  35
ENDBRANCH  32  33
ENDBRANCH  31  32
ENDBRANCH  30  31
ENDBRANCH  29  30
ENDBRANCH  28  29
ENDBRANCH  27  28
ENDBRANCH  26  27
ENDBRANCH   1  26
TORSDOF 26
ENDMDL
MODEL 3
REMARK VINA RESULT:      -7.8      2.403      6.303
REMARK SMILES CCCN(CCC)c1cc(C(=O)OCCOCCOCCOCCOC(=O)c2ccc(-c3c4nc(c(-c5ccccc5)c5ccc([nH]5)c(-c5ccccc5)c5nc(c(-c6ccccc6)c6ccc3[nH]6)C=C5)C=C4)cc2)cc(C(F)(F)F)c1
REMARK SMILES IDX 18 1 17 2 16 3 15 4 14 5 13 6 11 7 12 8 10 9 8 10 9 11 82 12
REMARK SMILES IDX 77 13 76 14 4 15 3 16 2 17 1 18 5 19 6 20 7 21 78 22 79 23
REMARK SMILES IDX 80 24 81 25 19 26 20 27 21 28 22 29 23 30 24 31 25 32 26 33
REMARK SMILES IDX 27 34 28 35 29 36 75 37 30 38 74 39 31 40 32 41 33 42 68 43
REMARK SMILES IDX 34 44 73 45 67 46 69 47 35 48 72 49 66 50 65 51 36 53 58 54
REMARK SMILES IDX 43 55 57 56 44 57 47 58 56 59 70 60 45 61 46 62 55 64 71 65
REMARK SMILES IDX 48 66 37 67 38 68 42 69 39 70 41 71 40 72 59 73 60 74 64 75
REMARK SMILES IDX 61 76 63 77 62 78 49 79 50 80 54 81 51 82 53 83 52 84
REMARK H PARENT 69 52 47 63
REMARK Flexibility Score: inf
ROOT
ATOM      1  C   UNL A   1      36.157  21.675  24.414  1.00  0.00     0.188 C 
ENDROOT
BRANCH   1   2
ATOM      2  C   UNL A   1      35.117  22.527  23.654  1.00  0.00     0.188 C 
BRANCH   2   3
ATOM      3  O   UNL A   1      34.259  23.261  24.509  1.00  0.00    -0.376 OA
BRANCH   3   4
ATOM      4  C   UNL A   1      33.726  24.475  24.021  1.00  0.00     0.202 C 
BRANCH   4   5
ATOM      5  C   UNL A   1      32.737  24.390  22.850  1.00  0.00     0.261 C 
BRANCH   5   6
ATOM      6  O   UNL A   1      32.161  25.632  22.424  1.00  0.00    -0.460 OA
BRANCH   6   7
ATOM      7  C   UNL A   1      32.973  26.706  22.262  1.00  0.00     0.338 C 
ATOM      8  O   UNL A   1      33.918  26.796  21.503  1.00  0.00    -0.246 OA
BRANCH   7   9
ATOM      9  C   UNL A   1      32.346  27.827  23.013  1.00  0.00     0.062 A 
ATOM     10  C   UNL A   1      30.406  29.275  23.283  1.00  0.00     0.038 A 
ATOM     11  C   UNL A   1      31.192  28.431  22.489  1.00  0.00     0.041 A 
ATOM     12  C   UNL A   1      30.824  29.511  24.599  1.00  0.00     0.039 A 
ATOM     13  C   UNL A   1      32.048  29.035  25.093  1.00  0.00     0.058 A 
ATOM     14  C   UNL A   1      32.796  28.163  24.297  1.00  0.00     0.029 A 
BRANCH  10  15
ATOM     15  N   UNL A   1      29.272  29.891  22.787  1.00  0.00    -0.372 N 
BRANCH  15  16
ATOM     16  C   UNL A   1      29.397  30.805  21.642  1.00  0.00     0.116 C 
BRANCH  16  17
ATOM     17  C   UNL A   1      28.421  31.988  21.712  1.00  0.00     0.018 C 
ATOM     18  C   UNL A   1      28.793  33.007  22.785  1.00  0.00     0.006 C 
ENDBRANCH  16  17
ENDBRANCH  15  16
BRANCH  15  19
ATOM     19  C   UNL A   1      27.975  29.754  23.458  1.00  0.00     0.116 C 
BRANCH  19  20
ATOM     20  C   UNL A   1      27.255  28.460  23.062  1.00  0.00     0.018 C 
ATOM     21  C   UNL A   1      27.792  27.257  23.818  1.00  0.00     0.006 C 
ENDBRANCH  19  20
ENDBRANCH  15  19
ENDBRANCH  10  15
BRANCH  13  22
ATOM     22  C   UNL A   1      32.540  29.457  26.452  1.00  0.00     0.416 C 
ATOM     23  F   UNL A   1      33.406  30.503  26.405  1.00  0.00    -0.166 F 
ATOM     24  F   UNL A   1      31.522  29.844  27.273  1.00  0.00    -0.166 F 
ATOM     25  F   UNL A   1      33.188  28.462  27.123  1.00  0.00    -0.166 F 
ENDBRANCH  13  22
ENDBRANCH   7   9
ENDBRANCH   6   7
ENDBRANCH   5   6
ENDBRANCH   4   5
ENDBRANCH   3   4
ENDBRANCH   2   3
ENDBRANCH   1   2
BRANCH   1  26
ATOM     26  O   UNL A   1      37.209  22.319  25.120  1.00  0.00    -0.377 OA
BRANCH  26  27
ATOM     27  C   UNL A   1      38.235  21.524  25.706  1.00  0.00     0.188 C 
BRANCH  27  28
ATOM     28  C   UNL A   1      39.389  22.197  26.489  1.00  0.00     0.188 C 
BRANCH  28  29
ATOM     29  O   UNL A   1      40.105  21.327  27.351  1.00  0.00    -0.376 OA
BRANCH  29  30
ATOM     30  C   UNL A   1      41.512  21.259  27.198  1.00  0.00     0.202 C 
BRANCH  30  31
ATOM     31  C   UNL A   1      42.082  21.543  25.802  1.00  0.00     0.261 C 
BRANCH  31  32
ATOM     32  O   UNL A   1      43.513  21.530  25.685  1.00  0.00    -0.460 OA
BRANCH  32  33
ATOM     33  C   UNL A   1      44.091  22.488  24.931  1.00  0.00     0.338 C 
ATOM     34  O   UNL A   1      44.500  22.386  23.786  1.00  0.00    -0.246 OA
BRANCH  33  35
ATOM     35  C   UNL A   1      43.971  23.758  25.676  1.00  0.00     0.060 A 
ATOM     36  C   UNL A   1      43.582  24.922  24.997  1.00  0.00     0.016 A 
ATOM     37  C   UNL A   1      44.200  23.786  27.053  1.00  0.00     0.016 A 
ATOM     38  C   UNL A   1      43.434  26.121  25.695  1.00  0.00     0.010 A 
ATOM     39  C   UNL A   1      44.081  24.992  27.744  1.00  0.00     0.010 A 
ATOM     40  C   UNL A   1      43.723  26.169  27.064  1.00  0.00    -0.014 A 
BRANCH  40  41
ATOM     41  C   UNL A   1      43.844  27.474  27.756  1.00  0.00     0.031 A 
ATOM     42  C   UNL A   1      42.586  28.132  28.249  1.00  0.00     0.074 A 
ATOM     43  C   UNL A   1      45.036  28.069  27.938  1.00  0.00     0.049 A 
ATOM     44  N   UNL A   1      42.422  29.308  28.797  1.00  0.00    -0.248 NA
ATOM     45  C   UNL A   1      41.342  27.357  28.097  1.00  0.00     0.031 C 
ATOM     46  C   UNL A   1      46.331  27.510  27.556  1.00  0.00     0.029 A 
ATOM     47  N   UNL A   1      45.341  29.290  28.483  1.00  0.00    -0.354 N 
ATOM     48  C   UNL A   1      41.059  29.420  29.042  1.00  0.00     0.074 A 
ATOM     49  C   UNL A   1      40.438  28.206  28.561  1.00  0.00     0.031 C 
ATOM     50  C   UNL A   1      47.294  28.396  27.867  1.00  0.00     0.029 A 
ATOM     51  C   UNL A   1      46.679  29.598  28.428  1.00  0.00     0.049 A 
ATOM     52  H   UNL A   1      44.666  29.889  28.877  1.00  0.00     0.167 HD
ATOM     53  C   UNL A   1      40.384  30.442  29.617  1.00  0.00     0.031 A 
ATOM     54  C   UNL A   1      47.325  30.732  28.763  1.00  0.00     0.031 A 
ATOM     55  C   UNL A   1      41.000  31.658  30.074  1.00  0.00     0.049 A 
ATOM     56  C   UNL A   1      46.537  31.898  29.306  1.00  0.00     0.074 A 
ATOM     57  C   UNL A   1      40.405  32.749  30.682  1.00  0.00     0.029 A 
ATOM     58  N   UNL A   1      42.351  31.948  29.959  1.00  0.00    -0.354 N 
ATOM     59  N   UNL A   1      45.253  31.985  29.560  1.00  0.00    -0.248 NA
ATOM     60  C   UNL A   1      47.292  33.123  29.611  1.00  0.00     0.031 C 
ATOM     61  C   UNL A   1      41.385  33.728  30.872  1.00  0.00     0.029 A 
ATOM     62  C   UNL A   1      42.603  33.217  30.451  1.00  0.00     0.049 A 
ATOM     63  H   UNL A   1      43.030  31.343  29.584  1.00  0.00     0.167 HD
ATOM     64  C   UNL A   1      45.053  33.259  30.080  1.00  0.00     0.074 A 
ATOM     65  C   UNL A   1      46.349  33.903  30.121  1.00  0.00     0.031 C 
ATOM     66  C   UNL A   1      43.899  33.845  30.487  1.00  0.00     0.031 A 
BRANCH  53  67
ATOM     67  C   UNL A   1      38.893  30.303  29.740  1.00  0.00    -0.014 A 
ATOM     68  C   UNL A   1      38.301  29.697  30.860  1.00  0.00     0.009 A 
ATOM     69  C   UNL A   1      38.064  30.811  28.726  1.00  0.00     0.009 A 
ATOM     70  C   UNL A   1      36.912  29.573  30.945  1.00  0.00     0.001 A 
ATOM     71  C   UNL A   1      36.676  30.713  28.830  1.00  0.00     0.001 A 
ATOM     72  C   UNL A   1      36.102  30.085  29.933  1.00  0.00     0.000 A 
ENDBRANCH  53  67
BRANCH  54  73
ATOM     73  C   UNL A   1      48.795  30.845  28.563  1.00  0.00    -0.014 A 
ATOM     74  C   UNL A   1      49.687  30.505  29.591  1.00  0.00     0.009 A 
ATOM     75  C   UNL A   1      49.313  31.328  27.350  1.00  0.00     0.009 A 
ATOM     76  C   UNL A   1      51.064  30.671  29.419  1.00  0.00     0.001 A 
ATOM     77  C   UNL A   1      50.691  31.462  27.170  1.00  0.00     0.001 A 
ATOM     78  C   UNL A   1      51.565  31.143  28.208  1.00  0.00     0.000 A 
ENDBRANCH  54  73
BRANCH  66  79
ATOM     79  C   UNL A   1      43.986  35.237  31.048  1.00  0.00    -0.014 A 
ATOM     80  C   UNL A   1      43.930  36.368  30.218  1.00  0.00     0.009 A 
ATOM     81  C   UNL A   1      44.070  35.420  32.438  1.00  0.00     0.009 A 
ATOM     82  C   UNL A   1      43.987  37.651  30.768  1.00  0.00     0.001 A 
ATOM     83  C   UNL A   1      44.093  36.703  32.987  1.00  0.00     0.001 A 
ATOM     84  C   UNL A   1      44.062  37.818  32.151  1.00  0.00     0.000 A 
ENDBRANCH  66  79
ENDBRANCH  40  41
ENDBRANCH  33  35
ENDBRANCH  32  33
ENDBRANCH  31  32
ENDBRANCH  30  31
ENDBRANCH  29  30
ENDBRANCH  28  29
ENDBRANCH  27  28
ENDBRANCH  26  27
ENDBRANCH   1  26
TORSDOF 26
ENDMDL
