MODEL 1
REMARK VINA RESULT:      -9.6      0.000      0.000
REMARK SMILES O=C(OCCOCCOCCOCCOC(=O)c1ccncc1-c1ccc(F)cc1F)c1ccc(-c2c3nc(c(-c4ccccc4)c4ccc([nH]4)c(-c4ccccc4)c4nc(c(-c5ccccc5)c5ccc2[nH]5)C=C4)C=C3)cc1
REMARK SMILES IDX 8 1 7 2 6 3 5 4 4 5 3 6 2 7 1 8 32 9 33 10 79 11 34 12 78 13
REMARK SMILES IDX 35 14 36 15 37 16 72 17 38 18 77 19 71 20 73 21 39 22 76 23
REMARK SMILES IDX 70 24 69 25 40 27 62 28 47 29 61 30 48 31 51 32 60 33 74 34
REMARK SMILES IDX 49 35 50 36 59 38 75 39 52 40 41 41 42 42 46 43 43 44 45 45
REMARK SMILES IDX 44 46 63 47 64 48 68 49 65 50 67 51 66 52 53 53 54 54 58 55
REMARK SMILES IDX 55 56 57 57 56 58 9 59 10 60 11 61 12 62 13 63 14 64 15 65
REMARK SMILES IDX 16 66 17 67 18 68 19 69 23 70 20 71 22 72 21 73 24 74 25 75
REMARK SMILES IDX 30 76 26 77 29 78 31 79 27 80 28 81
REMARK H PARENT 73 26 51 37
REMARK Flexibility Score: inf
ROOT
ATOM      1  C   UNL A   1      42.133  21.238  27.031  1.00  0.00     0.188 C 
ENDROOT
BRANCH   1   2
ATOM      2  C   UNL A   1      42.360  20.238  25.899  1.00  0.00     0.188 C 
BRANCH   2   3
ATOM      3  O   UNL A   1      43.671  20.406  25.360  1.00  0.00    -0.376 OA
BRANCH   3   4
ATOM      4  C   UNL A   1      44.207  21.725  25.411  1.00  0.00     0.202 C 
BRANCH   4   5
ATOM      5  C   UNL A   1      43.715  22.639  24.287  1.00  0.00     0.261 C 
BRANCH   5   6
ATOM      6  O   UNL A   1      44.418  23.891  24.263  1.00  0.00    -0.460 OA
BRANCH   6   7
ATOM      7  C   UNL A   1      44.999  24.523  25.317  1.00  0.00     0.338 C 
ATOM      8  O   UNL A   1      46.217  24.450  25.461  1.00  0.00    -0.246 OA
BRANCH   7   9
ATOM      9  C   UNL A   1      44.230  25.360  26.283  1.00  0.00     0.060 A 
ATOM     10  C   UNL A   1      44.270  26.752  26.323  1.00  0.00     0.016 A 
ATOM     11  C   UNL A   1      43.366  24.702  27.170  1.00  0.00     0.016 A 
ATOM     12  C   UNL A   1      43.602  27.472  27.295  1.00  0.00     0.010 A 
ATOM     13  C   UNL A   1      42.620  25.427  28.108  1.00  0.00     0.010 A 
ATOM     14  C   UNL A   1      42.772  26.817  28.196  1.00  0.00    -0.014 A 
BRANCH  14  15
ATOM     15  C   UNL A   1      42.201  27.618  29.294  1.00  0.00     0.031 A 
ATOM     16  C   UNL A   1      43.012  27.783  30.542  1.00  0.00     0.074 A 
ATOM     17  C   UNL A   1      41.072  28.321  29.091  1.00  0.00     0.049 A 
ATOM     18  N   UNL A   1      42.701  28.386  31.657  1.00  0.00    -0.248 NA
ATOM     19  C   UNL A   1      44.367  27.199  30.531  1.00  0.00     0.031 C 
ATOM     20  C   UNL A   1      40.297  28.341  27.844  1.00  0.00     0.029 A 
ATOM     21  N   UNL A   1      40.404  29.192  29.908  1.00  0.00    -0.354 N 
ATOM     22  C   UNL A   1      43.800  28.219  32.489  1.00  0.00     0.074 A 
ATOM     23  C   UNL A   1      44.784  27.453  31.761  1.00  0.00     0.031 C 
ATOM     24  C   UNL A   1      39.286  29.214  27.969  1.00  0.00     0.029 A 
ATOM     25  C   UNL A   1      39.285  29.739  29.327  1.00  0.00     0.049 A 
ATOM     26  H   UNL A   1      40.697  29.407  30.822  1.00  0.00     0.167 HD
ATOM     27  C   UNL A   1      43.963  28.665  33.755  1.00  0.00     0.031 A 
ATOM     28  C   UNL A   1      38.340  30.535  29.860  1.00  0.00     0.031 A 
ATOM     29  C   UNL A   1      42.963  29.424  34.452  1.00  0.00     0.049 A 
ATOM     30  C   UNL A   1      38.491  30.922  31.305  1.00  0.00     0.074 A 
ATOM     31  C   UNL A   1      42.953  29.851  35.765  1.00  0.00     0.029 A 
ATOM     32  N   UNL A   1      41.790  29.883  33.867  1.00  0.00    -0.354 N 
ATOM     33  N   UNL A   1      39.477  30.658  32.132  1.00  0.00    -0.248 NA
ATOM     34  C   UNL A   1      37.394  31.695  31.899  1.00  0.00     0.031 C 
ATOM     35  C   UNL A   1      41.752  30.536  35.985  1.00  0.00     0.029 A 
ATOM     36  C   UNL A   1      41.043  30.583  34.793  1.00  0.00     0.049 A 
ATOM     37  H   UNL A   1      41.530  29.731  32.930  1.00  0.00     0.167 HD
ATOM     38  C   UNL A   1      39.124  31.239  33.341  1.00  0.00     0.074 A 
ATOM     39  C   UNL A   1      37.850  31.899  33.126  1.00  0.00     0.031 C 
ATOM     40  C   UNL A   1      39.779  31.222  34.529  1.00  0.00     0.031 A 
BRANCH  27  41
ATOM     41  C   UNL A   1      45.226  28.262  34.460  1.00  0.00    -0.014 A 
ATOM     42  C   UNL A   1      46.362  29.087  34.463  1.00  0.00     0.009 A 
ATOM     43  C   UNL A   1      45.295  27.010  35.092  1.00  0.00     0.009 A 
ATOM     44  C   UNL A   1      47.552  28.649  35.052  1.00  0.00     0.001 A 
ATOM     45  C   UNL A   1      46.477  26.586  35.701  1.00  0.00     0.001 A 
ATOM     46  C   UNL A   1      47.607  27.401  35.670  1.00  0.00     0.000 A 
ENDBRANCH  27  41
BRANCH  28  47
ATOM     47  C   UNL A   1      37.139  30.927  29.072  1.00  0.00    -0.014 A 
ATOM     48  C   UNL A   1      36.943  32.249  28.648  1.00  0.00     0.009 A 
ATOM     49  C   UNL A   1      36.154  29.971  28.767  1.00  0.00     0.009 A 
ATOM     50  C   UNL A   1      35.774  32.612  27.969  1.00  0.00     0.001 A 
ATOM     51  C   UNL A   1      35.004  30.327  28.058  1.00  0.00     0.001 A 
ATOM     52  C   UNL A   1      34.809  31.650  27.671  1.00  0.00     0.000 A 
ENDBRANCH  28  47
BRANCH  40  53
ATOM     53  C   UNL A   1      39.131  31.966  35.658  1.00  0.00    -0.014 A 
ATOM     54  C   UNL A   1      39.392  33.327  35.875  1.00  0.00     0.009 A 
ATOM     55  C   UNL A   1      38.226  31.297  36.496  1.00  0.00     0.009 A 
ATOM     56  C   UNL A   1      38.788  33.996  36.940  1.00  0.00     0.001 A 
ATOM     57  C   UNL A   1      37.600  31.976  37.539  1.00  0.00     0.001 A 
ATOM     58  C   UNL A   1      37.890  33.321  37.767  1.00  0.00     0.000 A 
ENDBRANCH  40  53
ENDBRANCH  14  15
ENDBRANCH   7   9
ENDBRANCH   6   7
ENDBRANCH   5   6
ENDBRANCH   4   5
ENDBRANCH   3   4
ENDBRANCH   2   3
ENDBRANCH   1   2
BRANCH   1  59
ATOM     59  O   UNL A   1      40.786  21.691  27.156  1.00  0.00    -0.377 OA
BRANCH  59  60
ATOM     60  C   UNL A   1      39.799  20.970  26.426  1.00  0.00     0.188 C 
BRANCH  60  61
ATOM     61  C   UNL A   1      38.669  21.767  25.735  1.00  0.00     0.188 C 
BRANCH  61  62
ATOM     62  O   UNL A   1      38.436  23.051  26.295  1.00  0.00    -0.376 OA
BRANCH  62  63
ATOM     63  C   UNL A   1      37.254  23.703  25.846  1.00  0.00     0.202 C 
BRANCH  63  64
ATOM     64  C   UNL A   1      36.760  23.256  24.467  1.00  0.00     0.261 C 
BRANCH  64  65
ATOM     65  O   UNL A   1      35.503  22.553  24.439  1.00  0.00    -0.460 OA
BRANCH  65  66
ATOM     66  C   UNL A   1      34.475  23.018  23.689  1.00  0.00     0.338 C 
ATOM     67  O   UNL A   1      34.499  23.246  22.495  1.00  0.00    -0.246 OA
BRANCH  66  68
ATOM     68  C   UNL A   1      33.289  23.108  24.589  1.00  0.00     0.071 A 
ATOM     69  C   UNL A   1      33.130  24.326  25.273  1.00  0.00     0.036 A 
ATOM     70  C   UNL A   1      32.433  22.022  24.877  1.00  0.00     0.017 A 
ATOM     71  C   UNL A   1      32.123  24.440  26.210  1.00  0.00     0.112 A 
ATOM     72  C   UNL A   1      31.421  22.291  25.808  1.00  0.00     0.120 A 
ATOM     73  N   UNL A   1      31.252  23.454  26.479  1.00  0.00    -0.264 NA
BRANCH  70  74
ATOM     74  C   UNL A   1      32.590  20.625  24.426  1.00  0.00     0.020 A 
ATOM     75  C   UNL A   1      33.022  19.643  25.349  1.00  0.00     0.015 A 
ATOM     76  C   UNL A   1      32.268  20.192  23.134  1.00  0.00     0.134 A 
ATOM     77  C   UNL A   1      33.152  18.303  24.980  1.00  0.00     0.040 A 
ATOM     78  C   UNL A   1      32.405  18.856  22.753  1.00  0.00     0.079 A 
ATOM     79  F   UNL A   1      31.768  21.058  22.241  1.00  0.00    -0.206 F 
ATOM     80  C   UNL A   1      32.848  17.925  23.680  1.00  0.00     0.126 A 
ATOM     81  F   UNL A   1      32.970  16.638  23.329  1.00  0.00    -0.207 F 
ENDBRANCH  70  74
ENDBRANCH  66  68
ENDBRANCH  65  66
ENDBRANCH  64  65
ENDBRANCH  63  64
ENDBRANCH  62  63
ENDBRANCH  61  62
ENDBRANCH  60  61
ENDBRANCH  59  60
ENDBRANCH   1  59
TORSDOF 21
ENDMDL
MODEL 2
REMARK VINA RESULT:      -9.6      1.385      6.074
REMARK SMILES O=C(OCCOCCOCCOCCOC(=O)c1ccncc1-c1ccc(F)cc1F)c1ccc(-c2c3nc(c(-c4ccccc4)c4ccc([nH]4)c(-c4ccccc4)c4nc(c(-c5ccccc5)c5ccc2[nH]5)C=C4)C=C3)cc1
REMARK SMILES IDX 8 1 7 2 6 3 5 4 4 5 3 6 2 7 1 8 32 9 33 10 79 11 34 12 78 13
REMARK SMILES IDX 35 14 36 15 37 16 72 17 38 18 77 19 71 20 73 21 39 22 76 23
REMARK SMILES IDX 70 24 69 25 40 27 62 28 47 29 61 30 48 31 51 32 60 33 74 34
REMARK SMILES IDX 49 35 50 36 59 38 75 39 52 40 41 41 42 42 46 43 43 44 45 45
REMARK SMILES IDX 44 46 63 47 64 48 68 49 65 50 67 51 66 52 53 53 54 54 58 55
REMARK SMILES IDX 55 56 57 57 56 58 9 59 10 60 11 61 12 62 13 63 14 64 15 65
REMARK SMILES IDX 16 66 17 67 18 68 19 69 23 70 20 71 22 72 21 73 24 74 25 75
REMARK SMILES IDX 30 76 26 77 29 78 31 79 27 80 28 81
REMARK H PARENT 73 26 51 37
REMARK Flexibility Score: inf
ROOT
ATOM      1  C   UNL A   1      42.358  22.274  26.749  1.00  0.00     0.188 C 
ENDROOT
BRANCH   1   2
ATOM      2  C   UNL A   1      43.487  22.068  25.741  1.00  0.00     0.188 C 
BRANCH   2   3
ATOM      3  O   UNL A   1      44.732  22.453  26.322  1.00  0.00    -0.376 OA
BRANCH   3   4
ATOM      4  C   UNL A   1      44.964  23.853  26.440  1.00  0.00     0.202 C 
BRANCH   4   5
ATOM      5  C   UNL A   1      44.944  24.600  25.106  1.00  0.00     0.261 C 
BRANCH   5   6
ATOM      6  O   UNL A   1      44.153  25.797  25.169  1.00  0.00    -0.460 OA
BRANCH   6   7
ATOM      7  C   UNL A   1      42.833  25.888  25.481  1.00  0.00     0.338 C 
ATOM      8  O   UNL A   1      42.022  25.199  24.867  1.00  0.00    -0.246 OA
BRANCH   7   9
ATOM      9  C   UNL A   1      42.322  26.749  26.588  1.00  0.00     0.060 A 
ATOM     10  C   UNL A   1      42.499  28.130  26.655  1.00  0.00     0.016 A 
ATOM     11  C   UNL A   1      41.565  26.134  27.595  1.00  0.00     0.016 A 
ATOM     12  C   UNL A   1      42.078  28.864  27.748  1.00  0.00     0.010 A 
ATOM     13  C   UNL A   1      41.063  26.881  28.667  1.00  0.00     0.010 A 
ATOM     14  C   UNL A   1      41.356  28.248  28.762  1.00  0.00    -0.014 A 
BRANCH  14  15
ATOM     15  C   UNL A   1      41.060  29.050  29.963  1.00  0.00     0.031 A 
ATOM     16  C   UNL A   1      39.858  29.943  29.937  1.00  0.00     0.074 A 
ATOM     17  C   UNL A   1      41.749  28.832  31.098  1.00  0.00     0.049 A 
ATOM     18  N   UNL A   1      39.430  30.781  30.842  1.00  0.00    -0.248 NA
ATOM     19  C   UNL A   1      39.012  29.876  28.730  1.00  0.00     0.031 C 
ATOM     20  C   UNL A   1      42.840  27.862  31.256  1.00  0.00     0.029 A 
ATOM     21  N   UNL A   1      41.607  29.373  32.347  1.00  0.00    -0.354 N 
ATOM     22  C   UNL A   1      38.295  31.368  30.298  1.00  0.00     0.074 A 
ATOM     23  C   UNL A   1      38.100  30.800  28.984  1.00  0.00     0.031 C 
ATOM     24  C   UNL A   1      43.236  27.850  32.538  1.00  0.00     0.029 A 
ATOM     25  C   UNL A   1      42.499  28.873  33.265  1.00  0.00     0.049 A 
ATOM     26  H   UNL A   1      40.931  30.054  32.566  1.00  0.00     0.167 HD
ATOM     27  C   UNL A   1      37.493  32.304  30.852  1.00  0.00     0.031 A 
ATOM     28  C   UNL A   1      42.722  29.244  34.539  1.00  0.00     0.031 A 
ATOM     29  C   UNL A   1      37.715  32.848  32.163  1.00  0.00     0.049 A 
ATOM     30  C   UNL A   1      41.888  30.367  35.092  1.00  0.00     0.074 A 
ATOM     31  C   UNL A   1      37.046  33.870  32.806  1.00  0.00     0.029 A 
ATOM     32  N   UNL A   1      38.691  32.388  33.038  1.00  0.00    -0.354 N 
ATOM     33  N   UNL A   1      40.889  31.008  34.530  1.00  0.00    -0.248 NA
ATOM     34  C   UNL A   1      42.222  30.833  36.443  1.00  0.00     0.031 C 
ATOM     35  C   UNL A   1      37.644  34.056  34.058  1.00  0.00     0.029 A 
ATOM     36  C   UNL A   1      38.648  33.110  34.214  1.00  0.00     0.049 A 
ATOM     37  H   UNL A   1      39.321  31.656  32.847  1.00  0.00     0.167 HD
ATOM     38  C   UNL A   1      40.470  31.948  35.459  1.00  0.00     0.074 A 
ATOM     39  C   UNL A   1      41.302  31.767  36.635  1.00  0.00     0.031 C 
ATOM     40  C   UNL A   1      39.499  32.890  35.356  1.00  0.00     0.031 A 
BRANCH  27  41
ATOM     41  C   UNL A   1      36.374  32.831  30.001  1.00  0.00    -0.014 A 
ATOM     42  C   UNL A   1      36.563  33.912  29.125  1.00  0.00     0.009 A 
ATOM     43  C   UNL A   1      35.095  32.265  30.115  1.00  0.00     0.009 A 
ATOM     44  C   UNL A   1      35.483  34.439  28.411  1.00  0.00     0.001 A 
ATOM     45  C   UNL A   1      34.024  32.778  29.381  1.00  0.00     0.001 A 
ATOM     46  C   UNL A   1      34.216  33.871  28.539  1.00  0.00     0.000 A 
ENDBRANCH  27  41
BRANCH  28  47
ATOM     47  C   UNL A   1      43.825  28.633  35.330  1.00  0.00    -0.014 A 
ATOM     48  C   UNL A   1      43.601  27.529  36.165  1.00  0.00     0.009 A 
ATOM     49  C   UNL A   1      45.118  29.183  35.278  1.00  0.00     0.009 A 
ATOM     50  C   UNL A   1      44.635  27.013  36.954  1.00  0.00     0.001 A 
ATOM     51  C   UNL A   1      46.158  28.645  36.038  1.00  0.00     0.001 A 
ATOM     52  C   UNL A   1      45.912  27.568  36.886  1.00  0.00     0.000 A 
ENDBRANCH  28  47
BRANCH  40  53
ATOM     53  C   UNL A   1      39.280  33.756  36.559  1.00  0.00    -0.014 A 
ATOM     54  C   UNL A   1      38.491  33.319  37.635  1.00  0.00     0.009 A 
ATOM     55  C   UNL A   1      39.895  35.016  36.624  1.00  0.00     0.009 A 
ATOM     56  C   UNL A   1      38.290  34.148  38.739  1.00  0.00     0.001 A 
ATOM     57  C   UNL A   1      39.717  35.828  37.742  1.00  0.00     0.001 A 
ATOM     58  C   UNL A   1      38.906  35.399  38.793  1.00  0.00     0.000 A 
ENDBRANCH  40  53
ENDBRANCH  14  15
ENDBRANCH   7   9
ENDBRANCH   6   7
ENDBRANCH   5   6
ENDBRANCH   4   5
ENDBRANCH   3   4
ENDBRANCH   2   3
ENDBRANCH   1   2
BRANCH   1  59
ATOM     59  O   UNL A   1      41.067  21.893  26.276  1.00  0.00    -0.377 OA
BRANCH  59  60
ATOM     60  C   UNL A   1      39.951  22.555  26.861  1.00  0.00     0.188 C 
BRANCH  60  61
ATOM     61  C   UNL A   1      38.610  22.553  26.091  1.00  0.00     0.188 C 
BRANCH  61  62
ATOM     62  O   UNL A   1      38.345  21.347  25.388  1.00  0.00    -0.376 OA
BRANCH  62  63
ATOM     63  C   UNL A   1      36.993  21.166  24.984  1.00  0.00     0.202 C 
BRANCH  63  64
ATOM     64  C   UNL A   1      36.490  22.183  23.955  1.00  0.00     0.261 C 
BRANCH  64  65
ATOM     65  O   UNL A   1      35.434  23.060  24.391  1.00  0.00    -0.460 OA
BRANCH  65  66
ATOM     66  C   UNL A   1      34.340  23.254  23.616  1.00  0.00     0.338 C 
ATOM     67  O   UNL A   1      34.321  23.320  22.401  1.00  0.00    -0.246 OA
BRANCH  66  68
ATOM     68  C   UNL A   1      33.161  23.277  24.529  1.00  0.00     0.071 A 
ATOM     69  C   UNL A   1      32.962  24.473  25.241  1.00  0.00     0.036 A 
ATOM     70  C   UNL A   1      32.351  22.153  24.800  1.00  0.00     0.017 A 
ATOM     71  C   UNL A   1      31.961  24.527  26.189  1.00  0.00     0.112 A 
ATOM     72  C   UNL A   1      31.339  22.362  25.746  1.00  0.00     0.120 A 
ATOM     73  N   UNL A   1      31.132  23.502  26.444  1.00  0.00    -0.264 NA
BRANCH  70  74
ATOM     74  C   UNL A   1      32.558  20.774  24.316  1.00  0.00     0.020 A 
ATOM     75  C   UNL A   1      33.066  19.796  25.205  1.00  0.00     0.015 A 
ATOM     76  C   UNL A   1      32.213  20.350  23.027  1.00  0.00     0.134 A 
ATOM     77  C   UNL A   1      33.246  18.470  24.805  1.00  0.00     0.040 A 
ATOM     78  C   UNL A   1      32.399  19.028  22.615  1.00  0.00     0.079 A 
ATOM     79  F   UNL A   1      31.644  21.207  22.168  1.00  0.00    -0.206 F 
ATOM     80  C   UNL A   1      32.916  18.102  23.508  1.00  0.00     0.126 A 
ATOM     81  F   UNL A   1      33.086  16.829  23.128  1.00  0.00    -0.207 F 
ENDBRANCH  70  74
ENDBRANCH  66  68
ENDBRANCH  65  66
ENDBRANCH  64  65
ENDBRANCH  63  64
ENDBRANCH  62  63
ENDBRANCH  61  62
ENDBRANCH  60  61
ENDBRANCH  59  60
ENDBRANCH   1  59
TORSDOF 21
ENDMDL
MODEL 3
REMARK VINA RESULT:      -9.5      5.114     10.628
REMARK SMILES O=C(OCCOCCOCCOCCOC(=O)c1ccncc1-c1ccc(F)cc1F)c1ccc(-c2c3nc(c(-c4ccccc4)c4ccc([nH]4)c(-c4ccccc4)c4nc(c(-c5ccccc5)c5ccc2[nH]5)C=C4)C=C3)cc1
REMARK SMILES IDX 8 1 7 2 6 3 5 4 4 5 3 6 2 7 1 8 32 9 33 10 79 11 34 12 78 13
REMARK SMILES IDX 35 14 36 15 37 16 72 17 38 18 77 19 71 20 73 21 39 22 76 23
REMARK SMILES IDX 70 24 69 25 40 27 62 28 47 29 61 30 48 31 51 32 60 33 74 34
REMARK SMILES IDX 49 35 50 36 59 38 75 39 52 40 41 41 42 42 46 43 43 44 45 45
REMARK SMILES IDX 44 46 63 47 64 48 68 49 65 50 67 51 66 52 53 53 54 54 58 55
REMARK SMILES IDX 55 56 57 57 56 58 9 59 10 60 11 61 12 62 13 63 14 64 15 65
REMARK SMILES IDX 16 66 17 67 18 68 19 69 23 70 20 71 22 72 21 73 24 74 25 75
REMARK SMILES IDX 30 76 26 77 29 78 31 79 27 80 28 81
REMARK H PARENT 73 26 51 37
REMARK Flexibility Score: inf
ROOT
ATOM      1  C   UNL A   1      35.395  33.280  29.635  1.00  0.00     0.188 C 
ENDROOT
BRANCH   1   2
ATOM      2  C   UNL A   1      34.320  34.011  30.438  1.00  0.00     0.188 C 
BRANCH   2   3
ATOM      3  O   UNL A   1      34.922  34.717  31.522  1.00  0.00    -0.376 OA
BRANCH   3   4
ATOM      4  C   UNL A   1      34.425  34.413  32.823  1.00  0.00     0.202 C 
BRANCH   4   5
ATOM      5  C   UNL A   1      35.021  33.143  33.434  1.00  0.00     0.261 C 
BRANCH   5   6
ATOM      6  O   UNL A   1      36.440  33.252  33.627  1.00  0.00    -0.460 OA
BRANCH   6   7
ATOM      7  C   UNL A   1      37.298  32.253  33.963  1.00  0.00     0.338 C 
ATOM      8  O   UNL A   1      37.269  31.795  35.103  1.00  0.00    -0.246 OA
BRANCH   7   9
ATOM      9  C   UNL A   1      38.243  31.636  32.987  1.00  0.00     0.060 A 
ATOM     10  C   UNL A   1      39.217  30.697  33.321  1.00  0.00     0.016 A 
ATOM     11  C   UNL A   1      38.103  31.984  31.635  1.00  0.00     0.016 A 
ATOM     12  C   UNL A   1      40.121  30.224  32.389  1.00  0.00     0.010 A 
ATOM     13  C   UNL A   1      38.961  31.449  30.668  1.00  0.00     0.010 A 
ATOM     14  C   UNL A   1      40.002  30.594  31.056  1.00  0.00    -0.014 A 
BRANCH  14  15
ATOM     15  C   UNL A   1      41.077  30.172  30.139  1.00  0.00     0.031 A 
ATOM     16  C   UNL A   1      40.912  28.876  29.406  1.00  0.00     0.074 A 
ATOM     17  C   UNL A   1      42.075  31.026  29.843  1.00  0.00     0.049 A 
ATOM     18  N   UNL A   1      41.741  28.271  28.600  1.00  0.00    -0.248 NA
ATOM     19  C   UNL A   1      39.633  28.167  29.599  1.00  0.00     0.031 C 
ATOM     20  C   UNL A   1      42.228  32.377  30.396  1.00  0.00     0.029 A 
ATOM     21  N   UNL A   1      43.122  30.906  28.971  1.00  0.00    -0.354 N 
ATOM     22  C   UNL A   1      41.102  27.097  28.223  1.00  0.00     0.074 A 
ATOM     23  C   UNL A   1      39.823  27.066  28.892  1.00  0.00     0.031 C 
ATOM     24  C   UNL A   1      43.281  32.973  29.816  1.00  0.00     0.029 A 
ATOM     25  C   UNL A   1      43.930  32.017  28.929  1.00  0.00     0.049 A 
ATOM     26  H   UNL A   1      43.281  30.102  28.426  1.00  0.00     0.167 HD
ATOM     27  C   UNL A   1      41.555  26.130  27.395  1.00  0.00     0.031 A 
ATOM     28  C   UNL A   1      45.093  32.212  28.281  1.00  0.00     0.031 A 
ATOM     29  C   UNL A   1      42.835  26.192  26.745  1.00  0.00     0.049 A 
ATOM     30  C   UNL A   1      45.628  31.074  27.456  1.00  0.00     0.074 A 
ATOM     31  C   UNL A   1      43.462  25.241  25.964  1.00  0.00     0.029 A 
ATOM     32  N   UNL A   1      43.679  27.294  26.799  1.00  0.00    -0.354 N 
ATOM     33  N   UNL A   1      45.078  29.911  27.199  1.00  0.00    -0.248 NA
ATOM     34  C   UNL A   1      46.951  31.265  26.850  1.00  0.00     0.031 C 
ATOM     35  C   UNL A   1      44.706  25.754  25.578  1.00  0.00     0.029 A 
ATOM     36  C   UNL A   1      44.827  27.046  26.072  1.00  0.00     0.049 A 
ATOM     37  H   UNL A   1      43.488  28.128  27.285  1.00  0.00     0.167 HD
ATOM     38  C   UNL A   1      45.982  29.232  26.395  1.00  0.00     0.074 A 
ATOM     39  C   UNL A   1      47.100  30.132  26.180  1.00  0.00     0.031 C 
ATOM     40  C   UNL A   1      45.911  27.976  25.889  1.00  0.00     0.031 A 
BRANCH  27  41
ATOM     41  C   UNL A   1      40.689  24.915  27.230  1.00  0.00    -0.014 A 
ATOM     42  C   UNL A   1      41.084  23.658  27.715  1.00  0.00     0.009 A 
ATOM     43  C   UNL A   1      39.476  25.023  26.531  1.00  0.00     0.009 A 
ATOM     44  C   UNL A   1      40.299  22.527  27.470  1.00  0.00     0.001 A 
ATOM     45  C   UNL A   1      38.682  23.896  26.310  1.00  0.00     0.001 A 
ATOM     46  C   UNL A   1      39.099  22.648  26.770  1.00  0.00     0.000 A 
ENDBRANCH  27  41
BRANCH  28  47
ATOM     47  C   UNL A   1      45.866  33.471  28.464  1.00  0.00    -0.014 A 
ATOM     48  C   UNL A   1      45.751  34.537  27.561  1.00  0.00     0.009 A 
ATOM     49  C   UNL A   1      46.762  33.597  29.541  1.00  0.00     0.009 A 
ATOM     50  C   UNL A   1      46.538  35.684  27.711  1.00  0.00     0.001 A 
ATOM     51  C   UNL A   1      47.522  34.757  29.710  1.00  0.00     0.001 A 
ATOM     52  C   UNL A   1      47.419  35.794  28.787  1.00  0.00     0.000 A 
ENDBRANCH  28  47
BRANCH  40  53
ATOM     53  C   UNL A   1      47.062  27.536  25.035  1.00  0.00    -0.014 A 
ATOM     54  C   UNL A   1      47.152  27.913  23.686  1.00  0.00     0.009 A 
ATOM     55  C   UNL A   1      48.082  26.755  25.600  1.00  0.00     0.009 A 
ATOM     56  C   UNL A   1      48.226  27.481  22.908  1.00  0.00     0.001 A 
ATOM     57  C   UNL A   1      49.169  26.352  24.827  1.00  0.00     0.001 A 
ATOM     58  C   UNL A   1      49.234  26.705  23.480  1.00  0.00     0.000 A 
ENDBRANCH  40  53
ENDBRANCH  14  15
ENDBRANCH   7   9
ENDBRANCH   6   7
ENDBRANCH   5   6
ENDBRANCH   4   5
ENDBRANCH   3   4
ENDBRANCH   2   3
ENDBRANCH   1   2
BRANCH   1  59
ATOM     59  O   UNL A   1      35.258  31.860  29.624  1.00  0.00    -0.377 OA
BRANCH  59  60
ATOM     60  C   UNL A   1      35.811  31.174  28.505  1.00  0.00     0.188 C 
BRANCH  60  61
ATOM     61  C   UNL A   1      34.868  30.784  27.343  1.00  0.00     0.188 C 
BRANCH  61  62
ATOM     62  O   UNL A   1      33.515  30.594  27.731  1.00  0.00    -0.376 OA
BRANCH  62  63
ATOM     63  C   UNL A   1      32.559  31.324  26.971  1.00  0.00     0.202 C 
BRANCH  63  64
ATOM     64  C   UNL A   1      31.707  30.472  26.026  1.00  0.00     0.261 C 
BRANCH  64  65
ATOM     65  O   UNL A   1      32.334  29.289  25.495  1.00  0.00    -0.460 OA
BRANCH  65  66
ATOM     66  C   UNL A   1      31.940  28.061  25.908  1.00  0.00     0.338 C 
ATOM     67  O   UNL A   1      31.371  27.799  26.951  1.00  0.00    -0.246 OA
BRANCH  66  68
ATOM     68  C   UNL A   1      32.254  27.111  24.801  1.00  0.00     0.071 A 
ATOM     69  C   UNL A   1      33.408  26.328  24.976  1.00  0.00     0.036 A 
ATOM     70  C   UNL A   1      31.550  27.065  23.578  1.00  0.00     0.017 A 
ATOM     71  C   UNL A   1      33.824  25.512  23.944  1.00  0.00     0.112 A 
ATOM     72  C   UNL A   1      32.049  26.155  22.637  1.00  0.00     0.120 A 
ATOM     73  N   UNL A   1      33.158  25.395  22.783  1.00  0.00    -0.264 NA
BRANCH  70  74
ATOM     74  C   UNL A   1      30.465  27.968  23.145  1.00  0.00     0.020 A 
ATOM     75  C   UNL A   1      30.781  29.105  22.363  1.00  0.00     0.015 A 
ATOM     76  C   UNL A   1      29.111  27.727  23.408  1.00  0.00     0.134 A 
ATOM     77  C   UNL A   1      29.787  29.969  21.898  1.00  0.00     0.040 A 
ATOM     78  C   UNL A   1      28.112  28.592  22.957  1.00  0.00     0.079 A 
ATOM     79  F   UNL A   1      28.742  26.620  24.067  1.00  0.00    -0.206 F 
ATOM     80  C   UNL A   1      28.460  29.706  22.209  1.00  0.00     0.126 A 
ATOM     81  F   UNL A   1      27.508  30.535  21.759  1.00  0.00    -0.207 F 
ENDBRANCH  70  74
ENDBRANCH  66  68
ENDBRANCH  65  66
ENDBRANCH  64  65
ENDBRANCH  63  64
ENDBRANCH  62  63
ENDBRANCH  61  62
ENDBRANCH  60  61
ENDBRANCH  59  60
ENDBRANCH   1  59
TORSDOF 21
ENDMDL
