MODEL 1
REMARK VINA RESULT:      -9.6      0.000      0.000
REMARK SMILES Cc1cccc(Nc2ccccc2C(=O)OCCOCCOCCOCCOC(=O)c2ccc(-c3c4nc(c(-c5ccccc5)c5ccc([nH]5)c(-c5ccccc5)c5nc(c(-c6ccccc6)c6ccc3[nH]6)C=C5)C=C4)cc2)c1C
REMARK SMILES IDX 22 1 21 2 20 3 19 4 18 5 17 6 16 7 14 8 15 9 13 10 8 11 9 12
REMARK SMILES IDX 10 13 12 14 11 15 7 16 6 18 1 19 2 20 3 21 79 22 4 23 80 24
REMARK SMILES IDX 5 25 23 26 24 27 25 28 26 29 27 30 28 31 29 32 30 33 31 34
REMARK SMILES IDX 32 35 78 36 33 37 77 38 34 39 35 40 36 41 71 42 37 43 76 44
REMARK SMILES IDX 70 45 72 46 38 47 75 48 69 49 68 50 39 52 61 53 46 54 60 55
REMARK SMILES IDX 47 56 50 57 59 58 73 59 48 60 49 61 58 63 74 64 51 65 40 66
REMARK SMILES IDX 41 67 45 68 42 69 44 70 43 71 62 72 63 73 67 74 64 75 66 76
REMARK SMILES IDX 65 77 52 78 53 79 57 80 54 81 56 82 55 83
REMARK H PARENT 7 17 72 51 50 62
REMARK Flexibility Score: inf
ROOT
ATOM      1  O   UNL A   1      35.142  20.874  24.528  1.00  0.00    -0.377 OA
ENDROOT
BRANCH   1   2
ATOM      2  C   UNL A   1      33.737  20.702  24.663  1.00  0.00     0.188 C 
BRANCH   2   3
ATOM      3  C   UNL A   1      33.074  20.591  26.059  1.00  0.00     0.188 C 
BRANCH   3   4
ATOM      4  O   UNL A   1      33.798  21.189  27.116  1.00  0.00    -0.376 OA
BRANCH   4   5
ATOM      5  C   UNL A   1      33.450  22.471  27.595  1.00  0.00     0.202 C 
BRANCH   5   6
ATOM      6  C   UNL A   1      32.229  23.223  27.056  1.00  0.00     0.261 C 
BRANCH   6   7
ATOM      7  O   UNL A   1      32.479  24.159  26.010  1.00  0.00    -0.460 OA
BRANCH   7   8
ATOM      8  C   UNL A   1      31.416  24.519  25.259  1.00  0.00     0.340 C 
ATOM      9  O   UNL A   1      30.283  24.713  25.674  1.00  0.00    -0.246 OA
BRANCH   8  10
ATOM     10  C   UNL A   1      31.852  24.854  23.877  1.00  0.00     0.083 A 
ATOM     11  C   UNL A   1      31.474  26.007  23.156  1.00  0.00     0.053 A 
ATOM     12  C   UNL A   1      31.937  26.121  21.828  1.00  0.00     0.027 A 
ATOM     13  C   UNL A   1      32.743  25.143  21.237  1.00  0.00     0.002 A 
ATOM     14  C   UNL A   1      32.664  23.870  23.272  1.00  0.00     0.018 A 
ATOM     15  C   UNL A   1      33.105  24.014  21.960  1.00  0.00     0.001 A 
BRANCH  11  16
ATOM     16  N   UNL A   1      30.755  27.119  23.653  1.00  0.00    -0.355 N 
ATOM     17  H   UNL A   1      31.251  27.653  24.315  1.00  0.00     0.167 HD
BRANCH  16  18
ATOM     18  C   UNL A   1      29.459  27.604  23.379  1.00  0.00     0.042 A 
ATOM     19  C   UNL A   1      27.676  30.915  22.784  1.00  0.00     0.044 C 
ATOM     20  C   UNL A   1      27.912  29.441  22.981  1.00  0.00    -0.046 A 
ATOM     21  C   UNL A   1      26.852  28.636  23.422  1.00  0.00     0.004 A 
ATOM     22  C   UNL A   1      29.207  28.888  22.850  1.00  0.00    -0.025 A 
ATOM     23  C   UNL A   1      27.073  27.312  23.784  1.00  0.00     0.002 A 
ATOM     24  C   UNL A   1      30.290  29.675  22.151  1.00  0.00     0.047 C 
ATOM     25  C   UNL A   1      28.374  26.815  23.801  1.00  0.00     0.026 A 
ENDBRANCH  16  18
ENDBRANCH  11  16
ENDBRANCH   8  10
ENDBRANCH   7   8
ENDBRANCH   6   7
ENDBRANCH   5   6
ENDBRANCH   4   5
ENDBRANCH   3   4
ENDBRANCH   2   3
ENDBRANCH   1   2
BRANCH   1  26
ATOM     26  C   UNL A   1      35.684  22.153  24.226  1.00  0.00     0.188 C 
BRANCH  26  27
ATOM     27  C   UNL A   1      36.376  23.004  25.315  1.00  0.00     0.188 C 
BRANCH  27  28
ATOM     28  O   UNL A   1      37.774  22.804  25.422  1.00  0.00    -0.376 OA
BRANCH  28  29
ATOM     29  C   UNL A   1      38.246  21.547  25.866  1.00  0.00     0.202 C 
BRANCH  29  30
ATOM     30  C   UNL A   1      39.760  21.296  25.857  1.00  0.00     0.261 C 
BRANCH  30  31
ATOM     31  O   UNL A   1      40.194  19.983  26.239  1.00  0.00    -0.460 OA
BRANCH  31  32
ATOM     32  C   UNL A   1      41.512  19.713  26.150  1.00  0.00     0.338 C 
ATOM     33  O   UNL A   1      42.036  18.716  25.678  1.00  0.00    -0.246 OA
BRANCH  32  34
ATOM     34  C   UNL A   1      42.237  20.931  26.557  1.00  0.00     0.060 A 
ATOM     35  C   UNL A   1      42.218  21.325  27.904  1.00  0.00     0.016 A 
ATOM     36  C   UNL A   1      42.949  21.670  25.611  1.00  0.00     0.016 A 
ATOM     37  C   UNL A   1      42.889  22.480  28.300  1.00  0.00     0.010 A 
ATOM     38  C   UNL A   1      43.596  22.841  26.004  1.00  0.00     0.010 A 
ATOM     39  C   UNL A   1      43.539  23.268  27.342  1.00  0.00    -0.014 A 
BRANCH  39  40
ATOM     40  C   UNL A   1      43.972  24.638  27.694  1.00  0.00     0.031 A 
ATOM     41  C   UNL A   1      42.915  25.648  28.042  1.00  0.00     0.074 A 
ATOM     42  C   UNL A   1      45.271  24.980  27.713  1.00  0.00     0.049 A 
ATOM     43  N   UNL A   1      43.040  26.916  28.330  1.00  0.00    -0.248 NA
ATOM     44  C   UNL A   1      41.527  25.156  28.061  1.00  0.00     0.031 C 
ATOM     45  C   UNL A   1      46.389  24.081  27.440  1.00  0.00     0.029 A 
ATOM     46  N   UNL A   1      45.862  26.193  27.965  1.00  0.00    -0.354 N 
ATOM     47  C   UNL A   1      41.747  27.379  28.544  1.00  0.00     0.074 A 
ATOM     48  C   UNL A   1      40.854  26.262  28.327  1.00  0.00     0.031 C 
ATOM     49  C   UNL A   1      47.535  24.778  27.522  1.00  0.00     0.029 A 
ATOM     50  C   UNL A   1      47.226  26.177  27.816  1.00  0.00     0.049 A 
ATOM     51  H   UNL A   1      45.356  26.995  28.226  1.00  0.00     0.167 HD
ATOM     52  C   UNL A   1      41.339  28.623  28.890  1.00  0.00     0.031 A 
ATOM     53  C   UNL A   1      48.117  27.184  27.881  1.00  0.00     0.031 A 
ATOM     54  C   UNL A   1      42.231  29.735  29.080  1.00  0.00     0.049 A 
ATOM     55  C   UNL A   1      47.638  28.578  28.191  1.00  0.00     0.074 A 
ATOM     56  C   UNL A   1      41.923  31.030  29.459  1.00  0.00     0.029 A 
ATOM     57  N   UNL A   1      43.603  29.688  28.889  1.00  0.00    -0.354 N 
ATOM     58  N   UNL A   1      46.419  28.999  28.430  1.00  0.00    -0.248 NA
ATOM     59  C   UNL A   1      48.660  29.632  28.248  1.00  0.00     0.031 C 
ATOM     60  C   UNL A   1      43.101  31.784  29.421  1.00  0.00     0.029 A 
ATOM     61  C   UNL A   1      44.153  30.942  29.098  1.00  0.00     0.049 A 
ATOM     62  H   UNL A   1      44.112  28.882  28.641  1.00  0.00     0.167 HD
ATOM     63  C   UNL A   1      46.530  30.361  28.690  1.00  0.00     0.074 A 
ATOM     64  C   UNL A   1      47.938  30.690  28.595  1.00  0.00     0.031 C 
ATOM     65  C   UNL A   1      45.555  31.257  28.986  1.00  0.00     0.031 A 
BRANCH  52  66
ATOM     66  C   UNL A   1      39.857  28.850  29.014  1.00  0.00    -0.014 A 
ATOM     67  C   UNL A   1      39.167  28.591  30.210  1.00  0.00     0.009 A 
ATOM     68  C   UNL A   1      39.138  29.330  27.909  1.00  0.00     0.009 A 
ATOM     69  C   UNL A   1      37.782  28.759  30.278  1.00  0.00     0.001 A 
ATOM     70  C   UNL A   1      37.760  29.532  27.991  1.00  0.00     0.001 A 
ATOM     71  C   UNL A   1      37.080  29.233  29.170  1.00  0.00     0.000 A 
ENDBRANCH  52  66
BRANCH  53  72
ATOM     72  C   UNL A   1      49.555  26.910  27.618  1.00  0.00    -0.014 A 
ATOM     73  C   UNL A   1      50.424  26.560  28.662  1.00  0.00     0.009 A 
ATOM     74  C   UNL A   1      50.062  26.983  26.311  1.00  0.00     0.009 A 
ATOM     75  C   UNL A   1      51.773  26.303  28.403  1.00  0.00     0.001 A 
ATOM     76  C   UNL A   1      51.403  26.695  26.050  1.00  0.00     0.001 A 
ATOM     77  C   UNL A   1      52.259  26.362  27.097  1.00  0.00     0.000 A 
ENDBRANCH  53  72
BRANCH  65  78
ATOM     78  C   UNL A   1      45.978  32.676  29.257  1.00  0.00    -0.014 A 
ATOM     79  C   UNL A   1      46.043  33.632  28.233  1.00  0.00     0.009 A 
ATOM     80  C   UNL A   1      46.267  33.074  30.574  1.00  0.00     0.009 A 
ATOM     81  C   UNL A   1      46.423  34.947  28.514  1.00  0.00     0.001 A 
ATOM     82  C   UNL A   1      46.613  34.395  30.858  1.00  0.00     0.001 A 
ATOM     83  C   UNL A   1      46.701  35.328  29.827  1.00  0.00     0.000 A 
ENDBRANCH  65  78
ENDBRANCH  39  40
ENDBRANCH  32  34
ENDBRANCH  31  32
ENDBRANCH  30  31
ENDBRANCH  29  30
ENDBRANCH  28  29
ENDBRANCH  27  28
ENDBRANCH  26  27
ENDBRANCH   1  26
TORSDOF 22
ENDMDL
MODEL 2
REMARK VINA RESULT:      -9.5      1.220      5.842
REMARK SMILES Cc1cccc(Nc2ccccc2C(=O)OCCOCCOCCOCCOC(=O)c2ccc(-c3c4nc(c(-c5ccccc5)c5ccc([nH]5)c(-c5ccccc5)c5nc(c(-c6ccccc6)c6ccc3[nH]6)C=C5)C=C4)cc2)c1C
REMARK SMILES IDX 22 1 21 2 20 3 19 4 18 5 17 6 16 7 14 8 15 9 13 10 8 11 9 12
REMARK SMILES IDX 10 13 12 14 11 15 7 16 6 18 1 19 2 20 3 21 79 22 4 23 80 24
REMARK SMILES IDX 5 25 23 26 24 27 25 28 26 29 27 30 28 31 29 32 30 33 31 34
REMARK SMILES IDX 32 35 78 36 33 37 77 38 34 39 35 40 36 41 71 42 37 43 76 44
REMARK SMILES IDX 70 45 72 46 38 47 75 48 69 49 68 50 39 52 61 53 46 54 60 55
REMARK SMILES IDX 47 56 50 57 59 58 73 59 48 60 49 61 58 63 74 64 51 65 40 66
REMARK SMILES IDX 41 67 45 68 42 69 44 70 43 71 62 72 63 73 67 74 64 75 66 76
REMARK SMILES IDX 65 77 52 78 53 79 57 80 54 81 56 82 55 83
REMARK H PARENT 7 17 72 51 50 62
REMARK Flexibility Score: inf
ROOT
ATOM      1  O   UNL A   1      35.322  20.962  25.442  1.00  0.00    -0.377 OA
ENDROOT
BRANCH   1   2
ATOM      2  C   UNL A   1      34.615  19.812  24.996  1.00  0.00     0.188 C 
BRANCH   2   3
ATOM      3  C   UNL A   1      33.162  19.537  25.457  1.00  0.00     0.188 C 
BRANCH   3   4
ATOM      4  O   UNL A   1      32.161  20.205  24.716  1.00  0.00    -0.376 OA
BRANCH   4   5
ATOM      5  C   UNL A   1      31.624  21.430  25.167  1.00  0.00     0.202 C 
BRANCH   5   6
ATOM      6  C   UNL A   1      32.424  22.369  26.075  1.00  0.00     0.261 C 
BRANCH   6   7
ATOM      7  O   UNL A   1      32.803  23.621  25.509  1.00  0.00    -0.460 OA
BRANCH   7   8
ATOM      8  C   UNL A   1      31.798  24.415  25.080  1.00  0.00     0.340 C 
ATOM      9  O   UNL A   1      30.891  24.853  25.771  1.00  0.00    -0.246 OA
BRANCH   8  10
ATOM     10  C   UNL A   1      32.056  24.861  23.684  1.00  0.00     0.083 A 
ATOM     11  C   UNL A   1      31.483  25.994  23.069  1.00  0.00     0.053 A 
ATOM     12  C   UNL A   1      31.797  26.222  21.712  1.00  0.00     0.027 A 
ATOM     13  C   UNL A   1      32.643  25.371  20.993  1.00  0.00     0.002 A 
ATOM     14  C   UNL A   1      32.907  24.006  22.951  1.00  0.00     0.018 A 
ATOM     15  C   UNL A   1      33.198  24.259  21.614  1.00  0.00     0.001 A 
BRANCH  11  16
ATOM     16  N   UNL A   1      30.700  26.992  23.693  1.00  0.00    -0.355 N 
ATOM     17  H   UNL A   1      31.137  27.423  24.463  1.00  0.00     0.167 HD
BRANCH  16  18
ATOM     18  C   UNL A   1      29.407  27.486  23.418  1.00  0.00     0.042 A 
ATOM     19  C   UNL A   1      27.658  30.801  22.749  1.00  0.00     0.044 C 
ATOM     20  C   UNL A   1      27.878  29.330  22.985  1.00  0.00    -0.046 A 
ATOM     21  C   UNL A   1      26.813  28.551  23.460  1.00  0.00     0.004 A 
ATOM     22  C   UNL A   1      29.164  28.757  22.856  1.00  0.00    -0.025 A 
ATOM     23  C   UNL A   1      27.022  27.235  23.858  1.00  0.00     0.002 A 
ATOM     24  C   UNL A   1      30.249  29.510  22.123  1.00  0.00     0.047 C 
ATOM     25  C   UNL A   1      28.317  26.723  23.875  1.00  0.00     0.026 A 
ENDBRANCH  16  18
ENDBRANCH  11  16
ENDBRANCH   8  10
ENDBRANCH   7   8
ENDBRANCH   6   7
ENDBRANCH   5   6
ENDBRANCH   4   5
ENDBRANCH   3   4
ENDBRANCH   2   3
ENDBRANCH   1   2
BRANCH   1  26
ATOM     26  C   UNL A   1      35.839  21.897  24.504  1.00  0.00     0.188 C 
BRANCH  26  27
ATOM     27  C   UNL A   1      36.730  23.076  24.960  1.00  0.00     0.188 C 
BRANCH  27  28
ATOM     28  O   UNL A   1      38.094  22.747  25.150  1.00  0.00    -0.376 OA
BRANCH  28  29
ATOM     29  C   UNL A   1      38.439  21.393  25.369  1.00  0.00     0.202 C 
BRANCH  29  30
ATOM     30  C   UNL A   1      39.617  21.087  26.306  1.00  0.00     0.261 C 
BRANCH  30  31
ATOM     31  O   UNL A   1      40.242  19.806  26.151  1.00  0.00    -0.460 OA
BRANCH  31  32
ATOM     32  C   UNL A   1      41.584  19.779  26.026  1.00  0.00     0.338 C 
ATOM     33  O   UNL A   1      42.261  18.936  25.460  1.00  0.00    -0.246 OA
BRANCH  32  34
ATOM     34  C   UNL A   1      42.096  21.063  26.539  1.00  0.00     0.060 A 
ATOM     35  C   UNL A   1      42.057  21.318  27.918  1.00  0.00     0.016 A 
ATOM     36  C   UNL A   1      42.632  22.004  25.657  1.00  0.00     0.016 A 
ATOM     37  C   UNL A   1      42.528  22.532  28.414  1.00  0.00     0.010 A 
ATOM     38  C   UNL A   1      43.076  23.230  26.153  1.00  0.00     0.010 A 
ATOM     39  C   UNL A   1      42.993  23.511  27.528  1.00  0.00    -0.014 A 
BRANCH  39  40
ATOM     40  C   UNL A   1      43.190  24.897  28.006  1.00  0.00     0.031 A 
ATOM     41  C   UNL A   1      44.582  25.328  28.373  1.00  0.00     0.074 A 
ATOM     42  C   UNL A   1      42.163  25.757  28.108  1.00  0.00     0.049 A 
ATOM     43  N   UNL A   1      44.997  26.466  28.864  1.00  0.00    -0.248 NA
ATOM     44  C   UNL A   1      45.647  24.335  28.160  1.00  0.00     0.031 C 
ATOM     45  C   UNL A   1      40.778  25.472  27.741  1.00  0.00     0.029 A 
ATOM     46  N   UNL A   1      42.135  27.050  28.567  1.00  0.00    -0.354 N 
ATOM     47  C   UNL A   1      46.368  26.318  29.037  1.00  0.00     0.074 A 
ATOM     48  C   UNL A   1      46.707  24.974  28.625  1.00  0.00     0.031 C 
ATOM     49  C   UNL A   1      40.028  26.556  28.006  1.00  0.00     0.029 A 
ATOM     50  C   UNL A   1      40.875  27.593  28.594  1.00  0.00     0.049 A 
ATOM     51  H   UNL A   1      42.941  27.539  28.850  1.00  0.00     0.167 HD
ATOM     52  C   UNL A   1      47.265  27.220  29.501  1.00  0.00     0.031 A 
ATOM     53  C   UNL A   1      40.453  28.781  29.068  1.00  0.00     0.031 A 
ATOM     54  C   UNL A   1      46.918  28.548  29.933  1.00  0.00     0.049 A 
ATOM     55  C   UNL A   1      41.453  29.744  29.651  1.00  0.00     0.074 A 
ATOM     56  C   UNL A   1      47.753  29.550  30.392  1.00  0.00     0.029 A 
ATOM     57  N   UNL A   1      45.626  29.051  29.976  1.00  0.00    -0.354 N 
ATOM     58  N   UNL A   1      42.752  29.612  29.776  1.00  0.00    -0.248 NA
ATOM     59  C   UNL A   1      40.928  31.022  30.150  1.00  0.00     0.031 C 
ATOM     60  C   UNL A   1      46.958  30.632  30.786  1.00  0.00     0.029 A 
ATOM     61  C   UNL A   1      45.636  30.334  30.496  1.00  0.00     0.049 A 
ATOM     62  H   UNL A   1      44.821  28.566  29.680  1.00  0.00     0.167 HD
ATOM     63  C   UNL A   1      43.203  30.798  30.344  1.00  0.00     0.074 A 
ATOM     64  C   UNL A   1      42.040  31.643  30.524  1.00  0.00     0.031 C 
ATOM     65  C   UNL A   1      44.467  31.158  30.682  1.00  0.00     0.031 A 
BRANCH  52  66
ATOM     66  C   UNL A   1      48.694  26.768  29.623  1.00  0.00    -0.014 A 
ATOM     67  C   UNL A   1      49.148  26.045  30.739  1.00  0.00     0.009 A 
ATOM     68  C   UNL A   1      49.605  27.075  28.601  1.00  0.00     0.009 A 
ATOM     69  C   UNL A   1      50.494  25.686  30.849  1.00  0.00     0.001 A 
ATOM     70  C   UNL A   1      50.941  26.684  28.697  1.00  0.00     0.001 A 
ATOM     71  C   UNL A   1      51.388  26.002  29.827  1.00  0.00     0.000 A 
ENDBRANCH  52  66
BRANCH  53  72
ATOM     72  C   UNL A   1      39.003  29.111  29.033  1.00  0.00    -0.014 A 
ATOM     73  C   UNL A   1      38.188  28.895  30.153  1.00  0.00     0.009 A 
ATOM     74  C   UNL A   1      38.430  29.660  27.875  1.00  0.00     0.009 A 
ATOM     75  C   UNL A   1      36.827  29.211  30.110  1.00  0.00     0.001 A 
ATOM     76  C   UNL A   1      37.077  30.004  27.844  1.00  0.00     0.001 A 
ATOM     77  C   UNL A   1      36.275  29.772  28.959  1.00  0.00     0.000 A 
ENDBRANCH  53  72
BRANCH  65  78
ATOM     78  C   UNL A   1      44.666  32.536  31.255  1.00  0.00    -0.014 A 
ATOM     79  C   UNL A   1      44.598  32.774  32.636  1.00  0.00     0.009 A 
ATOM     80  C   UNL A   1      44.977  33.604  30.398  1.00  0.00     0.009 A 
ATOM     81  C   UNL A   1      44.802  34.060  33.143  1.00  0.00     0.001 A 
ATOM     82  C   UNL A   1      45.214  34.880  30.909  1.00  0.00     0.001 A 
ATOM     83  C   UNL A   1      45.116  35.110  32.280  1.00  0.00     0.000 A 
ENDBRANCH  65  78
ENDBRANCH  39  40
ENDBRANCH  32  34
ENDBRANCH  31  32
ENDBRANCH  30  31
ENDBRANCH  29  30
ENDBRANCH  28  29
ENDBRANCH  27  28
ENDBRANCH  26  27
ENDBRANCH   1  26
TORSDOF 22
ENDMDL
MODEL 3
REMARK VINA RESULT:      -9.2      3.700      8.144
REMARK SMILES Cc1cccc(Nc2ccccc2C(=O)OCCOCCOCCOCCOC(=O)c2ccc(-c3c4nc(c(-c5ccccc5)c5ccc([nH]5)c(-c5ccccc5)c5nc(c(-c6ccccc6)c6ccc3[nH]6)C=C5)C=C4)cc2)c1C
REMARK SMILES IDX 22 1 21 2 20 3 19 4 18 5 17 6 16 7 14 8 15 9 13 10 8 11 9 12
REMARK SMILES IDX 10 13 12 14 11 15 7 16 6 18 1 19 2 20 3 21 79 22 4 23 80 24
REMARK SMILES IDX 5 25 23 26 24 27 25 28 26 29 27 30 28 31 29 32 30 33 31 34
REMARK SMILES IDX 32 35 78 36 33 37 77 38 34 39 35 40 36 41 71 42 37 43 76 44
REMARK SMILES IDX 70 45 72 46 38 47 75 48 69 49 68 50 39 52 61 53 46 54 60 55
REMARK SMILES IDX 47 56 50 57 59 58 73 59 48 60 49 61 58 63 74 64 51 65 40 66
REMARK SMILES IDX 41 67 45 68 42 69 44 70 43 71 62 72 63 73 67 74 64 75 66 76
REMARK SMILES IDX 65 77 52 78 53 79 57 80 54 81 56 82 55 83
REMARK H PARENT 7 17 72 51 50 62
REMARK Flexibility Score: inf
ROOT
ATOM      1  O   UNL A   1      34.620  33.960  28.427  1.00  0.00    -0.377 OA
ENDROOT
BRANCH   1   2
ATOM      2  C   UNL A   1      34.538  32.649  27.882  1.00  0.00     0.188 C 
BRANCH   2   3
ATOM      3  C   UNL A   1      34.399  31.407  28.798  1.00  0.00     0.188 C 
BRANCH   3   4
ATOM      4  O   UNL A   1      35.262  30.332  28.485  1.00  0.00    -0.376 OA
BRANCH   4   5
ATOM      5  C   UNL A   1      35.249  29.745  27.201  1.00  0.00     0.202 C 
BRANCH   5   6
ATOM      6  C   UNL A   1      34.389  28.516  26.890  1.00  0.00     0.261 C 
BRANCH   6   7
ATOM      7  O   UNL A   1      32.977  28.703  26.959  1.00  0.00    -0.460 OA
BRANCH   7   8
ATOM      8  C   UNL A   1      32.377  29.169  25.843  1.00  0.00     0.340 C 
ATOM      9  O   UNL A   1      32.705  30.170  25.223  1.00  0.00    -0.246 OA
BRANCH   8  10
ATOM     10  C   UNL A   1      31.383  28.182  25.343  1.00  0.00     0.083 A 
ATOM     11  C   UNL A   1      30.504  28.384  24.257  1.00  0.00     0.053 A 
ATOM     12  C   UNL A   1      29.584  27.354  23.969  1.00  0.00     0.027 A 
ATOM     13  C   UNL A   1      29.534  26.173  24.717  1.00  0.00     0.002 A 
ATOM     14  C   UNL A   1      31.325  26.988  26.094  1.00  0.00     0.018 A 
ATOM     15  C   UNL A   1      30.406  25.991  25.783  1.00  0.00     0.001 A 
BRANCH  11  16
ATOM     16  N   UNL A   1      30.509  29.472  23.355  1.00  0.00    -0.355 N 
ATOM     17  H   UNL A   1      31.170  29.390  22.629  1.00  0.00     0.167 HD
BRANCH  16  18
ATOM     18  C   UNL A   1      29.743  30.656  23.301  1.00  0.00     0.042 A 
ATOM     19  C   UNL A   1      27.786  32.723  20.772  1.00  0.00     0.044 C 
ATOM     20  C   UNL A   1      28.430  32.290  22.062  1.00  0.00    -0.046 A 
ATOM     21  C   UNL A   1      28.734  33.258  23.029  1.00  0.00     0.004 A 
ATOM     22  C   UNL A   1      28.841  30.951  22.256  1.00  0.00    -0.025 A 
ATOM     23  C   UNL A   1      29.486  32.926  24.151  1.00  0.00     0.002 A 
ATOM     24  C   UNL A   1      28.311  29.865  21.349  1.00  0.00     0.047 C 
ATOM     25  C   UNL A   1      30.019  31.645  24.263  1.00  0.00     0.026 A 
ENDBRANCH  16  18
ENDBRANCH  11  16
ENDBRANCH   8  10
ENDBRANCH   7   8
ENDBRANCH   6   7
ENDBRANCH   5   6
ENDBRANCH   4   5
ENDBRANCH   3   4
ENDBRANCH   2   3
ENDBRANCH   1   2
BRANCH   1  26
ATOM     26  C   UNL A   1      33.470  34.577  28.990  1.00  0.00     0.188 C 
BRANCH  26  27
ATOM     27  C   UNL A   1      33.357  34.817  30.513  1.00  0.00     0.188 C 
BRANCH  27  28
ATOM     28  O   UNL A   1      34.533  35.318  31.122  1.00  0.00    -0.376 OA
BRANCH  28  29
ATOM     29  C   UNL A   1      35.294  34.450  31.939  1.00  0.00     0.202 C 
BRANCH  29  30
ATOM     30  C   UNL A   1      34.626  33.168  32.455  1.00  0.00     0.261 C 
BRANCH  30  31
ATOM     31  O   UNL A   1      35.395  31.961  32.359  1.00  0.00    -0.460 OA
BRANCH  31  32
ATOM     32  C   UNL A   1      36.518  31.878  33.101  1.00  0.00     0.338 C 
ATOM     33  O   UNL A   1      36.641  32.117  34.292  1.00  0.00    -0.246 OA
BRANCH  32  34
ATOM     34  C   UNL A   1      37.556  31.258  32.257  1.00  0.00     0.060 A 
ATOM     35  C   UNL A   1      38.664  30.650  32.864  1.00  0.00     0.016 A 
ATOM     36  C   UNL A   1      37.420  31.262  30.867  1.00  0.00     0.016 A 
ATOM     37  C   UNL A   1      39.657  30.071  32.077  1.00  0.00     0.010 A 
ATOM     38  C   UNL A   1      38.429  30.707  30.080  1.00  0.00     0.010 A 
ATOM     39  C   UNL A   1      39.567  30.141  30.682  1.00  0.00    -0.014 A 
BRANCH  39  40
ATOM     40  C   UNL A   1      40.751  29.820  29.855  1.00  0.00     0.031 A 
ATOM     41  C   UNL A   1      40.847  28.443  29.260  1.00  0.00     0.074 A 
ATOM     42  C   UNL A   1      41.716  30.726  29.629  1.00  0.00     0.049 A 
ATOM     43  N   UNL A   1      41.805  27.910  28.550  1.00  0.00    -0.248 NA
ATOM     44  C   UNL A   1      39.705  27.547  29.509  1.00  0.00     0.031 C 
ATOM     45  C   UNL A   1      41.714  32.105  30.112  1.00  0.00     0.029 A 
ATOM     46  N   UNL A   1      42.895  30.608  28.938  1.00  0.00    -0.354 N 
ATOM     47  C   UNL A   1      41.392  26.610  28.283  1.00  0.00     0.074 A 
ATOM     48  C   UNL A   1      40.111  26.429  28.931  1.00  0.00     0.031 C 
ATOM     49  C   UNL A   1      42.851  32.704  29.716  1.00  0.00     0.029 A 
ATOM     50  C   UNL A   1      43.672  31.738  28.986  1.00  0.00     0.049 A 
ATOM     51  H   UNL A   1      43.158  29.792  28.455  1.00  0.00     0.167 HD
ATOM     52  C   UNL A   1      42.023  25.652  27.565  1.00  0.00     0.031 A 
ATOM     53  C   UNL A   1      44.917  31.956  28.519  1.00  0.00     0.031 A 
ATOM     54  C   UNL A   1      43.308  25.830  26.944  1.00  0.00     0.049 A 
ATOM     55  C   UNL A   1      45.637  30.854  27.787  1.00  0.00     0.074 A 
ATOM     56  C   UNL A   1      44.022  24.933  26.170  1.00  0.00     0.029 A 
ATOM     57  N   UNL A   1      44.079  26.978  27.042  1.00  0.00    -0.354 N 
ATOM     58  N   UNL A   1      45.223  29.640  27.506  1.00  0.00    -0.248 NA
ATOM     59  C   UNL A   1      46.990  31.155  27.302  1.00  0.00     0.031 C 
ATOM     60  C   UNL A   1      45.259  25.511  25.865  1.00  0.00     0.029 A 
ATOM     61  C   UNL A   1      45.281  26.798  26.380  1.00  0.00     0.049 A 
ATOM     62  H   UNL A   1      43.811  27.800  27.513  1.00  0.00     0.167 HD
ATOM     63  C   UNL A   1      46.255  29.042  26.791  1.00  0.00     0.074 A 
ATOM     64  C   UNL A   1      47.305  30.032  26.668  1.00  0.00     0.031 C 
ATOM     65  C   UNL A   1      46.324  27.788  26.278  1.00  0.00     0.031 A 
BRANCH  52  66
ATOM     66  C   UNL A   1      41.353  24.307  27.476  1.00  0.00    -0.014 A 
ATOM     67  C   UNL A   1      41.764  23.223  28.269  1.00  0.00     0.009 A 
ATOM     68  C   UNL A   1      40.292  24.123  26.577  1.00  0.00     0.009 A 
ATOM     69  C   UNL A   1      41.159  21.972  28.124  1.00  0.00     0.001 A 
ATOM     70  C   UNL A   1      39.665  22.882  26.461  1.00  0.00     0.001 A 
ATOM     71  C   UNL A   1      40.108  21.803  27.224  1.00  0.00     0.000 A 
ENDBRANCH  52  66
BRANCH  53  72
ATOM     72  C   UNL A   1      45.570  33.271  28.756  1.00  0.00    -0.014 A 
ATOM     73  C   UNL A   1      45.427  34.322  27.840  1.00  0.00     0.009 A 
ATOM     74  C   UNL A   1      46.332  33.483  29.916  1.00  0.00     0.009 A 
ATOM     75  C   UNL A   1      46.044  35.554  28.074  1.00  0.00     0.001 A 
ATOM     76  C   UNL A   1      46.922  34.724  30.164  1.00  0.00     0.001 A 
ATOM     77  C   UNL A   1      46.783  35.756  29.239  1.00  0.00     0.000 A 
ENDBRANCH  53  72
BRANCH  65  78
ATOM     78  C   UNL A   1      47.566  27.421  25.510  1.00  0.00    -0.014 A 
ATOM     79  C   UNL A   1      48.687  26.867  26.147  1.00  0.00     0.009 A 
ATOM     80  C   UNL A   1      47.593  27.588  24.115  1.00  0.00     0.009 A 
ATOM     81  C   UNL A   1      49.821  26.520  25.408  1.00  0.00     0.001 A 
ATOM     82  C   UNL A   1      48.714  27.210  23.376  1.00  0.00     0.001 A 
ATOM     83  C   UNL A   1      49.831  26.687  24.023  1.00  0.00     0.000 A 
ENDBRANCH  65  78
ENDBRANCH  39  40
ENDBRANCH  32  34
ENDBRANCH  31  32
ENDBRANCH  30  31
ENDBRANCH  29  30
ENDBRANCH  28  29
ENDBRANCH  27  28
ENDBRANCH  26  27
ENDBRANCH   1  26
TORSDOF 22
ENDMDL
