MODEL 1
REMARK VINA RESULT:      -9.4      0.000      0.000
REMARK SMILES O=C(OCCOCCOCCOCCOC(=O)[C@@H]1CS[C@@H](c2cc(Br)ccc2O)[NH2+]1)c1ccc(-c2c3nc(c(-c4ccccc4)c4ccc([nH]4)c(-c4ccccc4)c4nc(c(-c5ccccc5)c5ccc2[nH]5)C=C4)C=C3)cc1
REMARK SMILES IDX 9 1 8 2 7 3 6 4 5 5 4 6 3 7 2 8 1 9 31 10 32 11 78 12 33 13
REMARK SMILES IDX 77 14 34 15 35 16 36 17 71 18 37 19 76 20 70 21 72 22 38 23
REMARK SMILES IDX 75 24 69 25 68 26 39 28 61 29 46 30 60 31 47 32 50 33 59 34
REMARK SMILES IDX 73 35 48 36 49 37 58 39 74 40 51 41 40 42 41 43 45 44 42 45
REMARK SMILES IDX 44 46 43 47 62 48 63 49 67 50 64 51 66 52 65 53 52 54 53 55
REMARK SMILES IDX 57 56 54 57 56 58 55 59 10 60 11 61 12 62 13 63 14 64 15 65
REMARK SMILES IDX 16 66 17 67 18 68 19 69 30 70 20 71 21 72 22 75 23 76 28 77
REMARK SMILES IDX 24 78 27 79 25 80 26 81 29 82
REMARK H PARENT 72 27 50 38 30 73 30 74 29 83
REMARK Flexibility Score: inf
ROOT
ATOM      1  O   UNL A   1      36.904  22.536  25.777  1.00  0.00    -0.377 OA
ENDROOT
BRANCH   1   2
ATOM      2  C   UNL A   1      37.969  21.735  25.289  1.00  0.00     0.188 C 
BRANCH   2   3
ATOM      3  C   UNL A   1      39.270  21.780  26.093  1.00  0.00     0.188 C 
BRANCH   3   4
ATOM      4  O   UNL A   1      39.981  20.541  26.031  1.00  0.00    -0.376 OA
BRANCH   4   5
ATOM      5  C   UNL A   1      41.391  20.578  26.266  1.00  0.00     0.202 C 
BRANCH   5   6
ATOM      6  C   UNL A   1      42.141  19.255  26.122  1.00  0.00     0.261 C 
BRANCH   6   7
ATOM      7  O   UNL A   1      42.940  19.173  24.938  1.00  0.00    -0.460 OA
BRANCH   7   8
ATOM      8  C   UNL A   1      44.177  19.679  24.724  1.00  0.00     0.338 C 
ATOM      9  O   UNL A   1      45.035  18.916  24.282  1.00  0.00    -0.246 OA
BRANCH   8  10
ATOM     10  C   UNL A   1      44.602  21.084  25.049  1.00  0.00     0.060 A 
ATOM     11  C   UNL A   1      45.194  21.517  26.238  1.00  0.00     0.016 A 
ATOM     12  C   UNL A   1      44.440  22.033  24.024  1.00  0.00     0.016 A 
ATOM     13  C   UNL A   1      45.630  22.817  26.420  1.00  0.00     0.010 A 
ATOM     14  C   UNL A   1      44.815  23.363  24.211  1.00  0.00     0.010 A 
ATOM     15  C   UNL A   1      45.385  23.750  25.428  1.00  0.00    -0.014 A 
BRANCH  15  16
ATOM     16  C   UNL A   1      45.424  25.155  25.833  1.00  0.00     0.031 A 
ATOM     17  C   UNL A   1      46.736  25.852  25.671  1.00  0.00     0.074 A 
ATOM     18  C   UNL A   1      44.301  25.794  26.185  1.00  0.00     0.049 A 
ATOM     19  N   UNL A   1      47.115  27.021  26.100  1.00  0.00    -0.248 NA
ATOM     20  C   UNL A   1      47.769  25.122  24.909  1.00  0.00     0.031 C 
ATOM     21  C   UNL A   1      42.954  25.221  26.151  1.00  0.00     0.029 A 
ATOM     22  N   UNL A   1      44.119  27.070  26.632  1.00  0.00    -0.354 N 
ATOM     23  C   UNL A   1      48.445  27.136  25.718  1.00  0.00     0.074 A 
ATOM     24  C   UNL A   1      48.803  25.938  25.002  1.00  0.00     0.031 C 
ATOM     25  C   UNL A   1      42.082  26.143  26.592  1.00  0.00     0.029 A 
ATOM     26  C   UNL A   1      42.827  27.324  27.014  1.00  0.00     0.049 A 
ATOM     27  H   UNL A   1      44.841  27.739  26.676  1.00  0.00     0.167 HD
ATOM     28  C   UNL A   1      49.293  28.151  25.992  1.00  0.00     0.031 A 
ATOM     29  C   UNL A   1      42.339  28.372  27.699  1.00  0.00     0.031 A 
ATOM     30  C   UNL A   1      48.878  29.302  26.740  1.00  0.00     0.049 A 
ATOM     31  C   UNL A   1      43.315  29.442  28.108  1.00  0.00     0.074 A 
ATOM     32  C   UNL A   1      49.624  30.378  27.174  1.00  0.00     0.029 A 
ATOM     33  N   UNL A   1      47.570  29.510  27.170  1.00  0.00    -0.354 N 
ATOM     34  N   UNL A   1      44.604  29.517  27.855  1.00  0.00    -0.248 NA
ATOM     35  C   UNL A   1      42.789  30.555  28.903  1.00  0.00     0.031 C 
ATOM     36  C   UNL A   1      48.776  31.207  27.918  1.00  0.00     0.029 A 
ATOM     37  C   UNL A   1      47.488  30.686  27.884  1.00  0.00     0.049 A 
ATOM     38  H   UNL A   1      46.815  28.905  26.991  1.00  0.00     0.167 HD
ATOM     39  C   UNL A   1      45.042  30.697  28.437  1.00  0.00     0.074 A 
ATOM     40  C   UNL A   1      43.874  31.304  29.055  1.00  0.00     0.031 C 
ATOM     41  C   UNL A   1      46.286  31.239  28.462  1.00  0.00     0.031 A 
BRANCH  28  42
ATOM     42  C   UNL A   1      50.730  27.951  25.603  1.00  0.00    -0.014 A 
ATOM     43  C   UNL A   1      51.217  28.295  24.330  1.00  0.00     0.009 A 
ATOM     44  C   UNL A   1      51.590  27.297  26.499  1.00  0.00     0.009 A 
ATOM     45  C   UNL A   1      52.511  27.930  23.944  1.00  0.00     0.001 A 
ATOM     46  C   UNL A   1      52.894  26.965  26.124  1.00  0.00     0.001 A 
ATOM     47  C   UNL A   1      53.347  27.264  24.840  1.00  0.00     0.000 A 
ENDBRANCH  28  42
BRANCH  29  48
ATOM     48  C   UNL A   1      40.908  28.388  28.104  1.00  0.00    -0.014 A 
ATOM     49  C   UNL A   1      40.467  27.701  29.241  1.00  0.00     0.009 A 
ATOM     50  C   UNL A   1      39.978  29.153  27.377  1.00  0.00     0.009 A 
ATOM     51  C   UNL A   1      39.128  27.774  29.639  1.00  0.00     0.001 A 
ATOM     52  C   UNL A   1      38.648  29.249  27.791  1.00  0.00     0.001 A 
ATOM     53  C   UNL A   1      38.222  28.554  28.920  1.00  0.00     0.000 A 
ENDBRANCH  29  48
BRANCH  41  54
ATOM     54  C   UNL A   1      46.430  32.576  29.121  1.00  0.00    -0.014 A 
ATOM     55  C   UNL A   1      46.172  33.765  28.425  1.00  0.00     0.009 A 
ATOM     56  C   UNL A   1      46.716  32.626  30.495  1.00  0.00     0.009 A 
ATOM     57  C   UNL A   1      46.210  34.987  29.097  1.00  0.00     0.001 A 
ATOM     58  C   UNL A   1      46.722  33.845  31.167  1.00  0.00     0.001 A 
ATOM     59  C   UNL A   1      46.474  35.024  30.467  1.00  0.00     0.000 A 
ENDBRANCH  41  54
ENDBRANCH  15  16
ENDBRANCH   8  10
ENDBRANCH   7   8
ENDBRANCH   6   7
ENDBRANCH   5   6
ENDBRANCH   4   5
ENDBRANCH   3   4
ENDBRANCH   2   3
ENDBRANCH   1   2
BRANCH   1  60
ATOM     60  C   UNL A   1      36.293  23.407  24.843  1.00  0.00     0.188 C 
BRANCH  60  61
ATOM     61  C   UNL A   1      35.910  22.841  23.451  1.00  0.00     0.188 C 
BRANCH  61  62
ATOM     62  O   UNL A   1      34.877  23.559  22.814  1.00  0.00    -0.376 OA
BRANCH  62  63
ATOM     63  C   UNL A   1      34.450  24.769  23.424  1.00  0.00     0.202 C 
BRANCH  63  64
ATOM     64  C   UNL A   1      33.324  25.638  22.815  1.00  0.00     0.261 C 
BRANCH  64  65
ATOM     65  O   UNL A   1      31.959  25.343  23.191  1.00  0.00    -0.459 OA
BRANCH  65  66
ATOM     66  C   UNL A   1      31.500  25.828  24.383  1.00  0.00     0.365 C 
ATOM     67  O   UNL A   1      31.531  27.007  24.673  1.00  0.00    -0.245 OA
BRANCH  66  68
ATOM     68  C   UNL A   1      31.013  24.662  25.303  1.00  0.00     0.304 C 
ATOM     69  C   UNL A   1      31.785  24.468  26.615  1.00  0.00     0.153 C 
ATOM     70  N   UNL A   1      31.048  23.373  24.554  1.00  0.00    -0.319 N 
ATOM     71  S   UNL A   1      32.129  22.715  26.751  1.00  0.00    -0.087 SA
ATOM     72  C   UNL A   1      32.258  22.633  24.948  1.00  0.00     0.278 C 
ATOM     73  H   UNL A   1      31.071  23.559  23.551  1.00  0.00     0.348 HD
ATOM     74  H   UNL A   1      30.218  22.822  24.769  1.00  0.00     0.348 HD
BRANCH  72  75
ATOM     75  C   UNL A   1      32.333  21.253  24.338  1.00  0.00     0.063 A 
ATOM     76  C   UNL A   1      32.519  20.083  25.099  1.00  0.00     0.030 A 
ATOM     77  C   UNL A   1      32.255  21.112  22.943  1.00  0.00     0.125 A 
ATOM     78  C   UNL A   1      32.507  18.830  24.489  1.00  0.00     0.018 A 
ATOM     79  C   UNL A   1      32.214  19.861  22.335  1.00  0.00     0.048 A 
ATOM     80  Br  UNL A   1      32.741  17.278  25.543  1.00  0.00    -0.051 Br
ATOM     81  C   UNL A   1      32.323  18.713  23.115  1.00  0.00     0.019 A 
BRANCH  77  82
ATOM     82  O   UNL A   1      32.257  22.237  22.167  1.00  0.00    -0.507 OA
ATOM     83  H   UNL A   1      32.606  22.206  21.299  1.00  0.00     0.293 HD
ENDBRANCH  77  82
ENDBRANCH  72  75
ENDBRANCH  66  68
ENDBRANCH  65  66
ENDBRANCH  64  65
ENDBRANCH  63  64
ENDBRANCH  62  63
ENDBRANCH  61  62
ENDBRANCH  60  61
ENDBRANCH   1  60
TORSDOF 22
ENDMDL
MODEL 2
REMARK VINA RESULT:      -9.3      2.541      3.852
REMARK SMILES O=C(OCCOCCOCCOCCOC(=O)[C@@H]1CS[C@@H](c2cc(Br)ccc2O)[NH2+]1)c1ccc(-c2c3nc(c(-c4ccccc4)c4ccc([nH]4)c(-c4ccccc4)c4nc(c(-c5ccccc5)c5ccc2[nH]5)C=C4)C=C3)cc1
REMARK SMILES IDX 9 1 8 2 7 3 6 4 5 5 4 6 3 7 2 8 1 9 31 10 32 11 78 12 33 13
REMARK SMILES IDX 77 14 34 15 35 16 36 17 71 18 37 19 76 20 70 21 72 22 38 23
REMARK SMILES IDX 75 24 69 25 68 26 39 28 61 29 46 30 60 31 47 32 50 33 59 34
REMARK SMILES IDX 73 35 48 36 49 37 58 39 74 40 51 41 40 42 41 43 45 44 42 45
REMARK SMILES IDX 44 46 43 47 62 48 63 49 67 50 64 51 66 52 65 53 52 54 53 55
REMARK SMILES IDX 57 56 54 57 56 58 55 59 10 60 11 61 12 62 13 63 14 64 15 65
REMARK SMILES IDX 16 66 17 67 18 68 19 69 30 70 20 71 21 72 22 75 23 76 28 77
REMARK SMILES IDX 24 78 27 79 25 80 26 81 29 82
REMARK H PARENT 72 27 50 38 30 73 30 74 29 83
REMARK Flexibility Score: inf
ROOT
ATOM      1  O   UNL A   1      38.202  22.003  25.670  1.00  0.00    -0.377 OA
ENDROOT
BRANCH   1   2
ATOM      2  C   UNL A   1      39.063  22.864  26.399  1.00  0.00     0.188 C 
BRANCH   2   3
ATOM      3  C   UNL A   1      40.259  22.199  27.084  1.00  0.00     0.188 C 
BRANCH   3   4
ATOM      4  O   UNL A   1      40.753  21.085  26.336  1.00  0.00    -0.376 OA
BRANCH   4   5
ATOM      5  C   UNL A   1      41.648  20.190  27.002  1.00  0.00     0.202 C 
BRANCH   5   6
ATOM      6  C   UNL A   1      42.174  19.015  26.179  1.00  0.00     0.261 C 
BRANCH   6   7
ATOM      7  O   UNL A   1      42.850  19.409  24.982  1.00  0.00    -0.460 OA
BRANCH   7   8
ATOM      8  C   UNL A   1      44.118  19.865  24.845  1.00  0.00     0.338 C 
ATOM      9  O   UNL A   1      44.976  19.061  24.484  1.00  0.00    -0.246 OA
BRANCH   8  10
ATOM     10  C   UNL A   1      44.570  21.261  25.166  1.00  0.00     0.060 A 
ATOM     11  C   UNL A   1      45.125  21.697  26.373  1.00  0.00     0.016 A 
ATOM     12  C   UNL A   1      44.479  22.198  24.122  1.00  0.00     0.016 A 
ATOM     13  C   UNL A   1      45.591  22.986  26.554  1.00  0.00     0.010 A 
ATOM     14  C   UNL A   1      44.885  23.520  24.304  1.00  0.00     0.010 A 
ATOM     15  C   UNL A   1      45.415  23.910  25.538  1.00  0.00    -0.014 A 
BRANCH  15  16
ATOM     16  C   UNL A   1      45.478  25.319  25.923  1.00  0.00     0.031 A 
ATOM     17  C   UNL A   1      46.803  25.991  25.752  1.00  0.00     0.074 A 
ATOM     18  C   UNL A   1      44.366  25.983  26.265  1.00  0.00     0.049 A 
ATOM     19  N   UNL A   1      47.202  27.159  26.165  1.00  0.00    -0.248 NA
ATOM     20  C   UNL A   1      47.823  25.233  25.001  1.00  0.00     0.031 C 
ATOM     21  C   UNL A   1      43.010  25.434  26.239  1.00  0.00     0.029 A 
ATOM     22  N   UNL A   1      44.207  27.268  26.694  1.00  0.00    -0.354 N 
ATOM     23  C   UNL A   1      48.534  27.246  25.783  1.00  0.00     0.074 A 
ATOM     24  C   UNL A   1      48.871  26.031  25.083  1.00  0.00     0.031 C 
ATOM     25  C   UNL A   1      42.155  26.376  26.667  1.00  0.00     0.029 A 
ATOM     26  C   UNL A   1      42.920  27.550  27.072  1.00  0.00     0.049 A 
ATOM     27  H   UNL A   1      44.941  27.925  26.730  1.00  0.00     0.167 HD
ATOM     28  C   UNL A   1      49.400  28.249  26.042  1.00  0.00     0.031 A 
ATOM     29  C   UNL A   1      42.450  28.616  27.743  1.00  0.00     0.031 A 
ATOM     30  C   UNL A   1      49.005  29.418  26.774  1.00  0.00     0.049 A 
ATOM     31  C   UNL A   1      43.445  29.674  28.136  1.00  0.00     0.074 A 
ATOM     32  C   UNL A   1      49.770  30.486  27.193  1.00  0.00     0.029 A 
ATOM     33  N   UNL A   1      47.701  29.654  27.200  1.00  0.00    -0.354 N 
ATOM     34  N   UNL A   1      44.735  29.724  27.884  1.00  0.00    -0.248 NA
ATOM     35  C   UNL A   1      42.938  30.807  28.915  1.00  0.00     0.031 C 
ATOM     36  C   UNL A   1      48.936  31.340  27.924  1.00  0.00     0.029 A 
ATOM     37  C   UNL A   1      47.639  30.842  27.898  1.00  0.00     0.049 A 
ATOM     38  H   UNL A   1      46.935  29.061  27.029  1.00  0.00     0.167 HD
ATOM     39  C   UNL A   1      45.193  30.904  28.449  1.00  0.00     0.074 A 
ATOM     40  C   UNL A   1      44.036  31.540  29.057  1.00  0.00     0.031 C 
ATOM     41  C   UNL A   1      46.446  31.424  28.467  1.00  0.00     0.031 A 
BRANCH  28  42
ATOM     42  C   UNL A   1      50.833  28.019  25.657  1.00  0.00    -0.014 A 
ATOM     43  C   UNL A   1      51.800  27.598  26.587  1.00  0.00     0.009 A 
ATOM     44  C   UNL A   1      51.247  28.343  24.356  1.00  0.00     0.009 A 
ATOM     45  C   UNL A   1      53.154  27.569  26.237  1.00  0.00     0.001 A 
ATOM     46  C   UNL A   1      52.595  28.280  23.998  1.00  0.00     0.001 A 
ATOM     47  C   UNL A   1      53.550  27.912  24.944  1.00  0.00     0.000 A 
ENDBRANCH  28  42
BRANCH  29  48
ATOM     48  C   UNL A   1      41.020  28.664  28.146  1.00  0.00    -0.014 A 
ATOM     49  C   UNL A   1      40.050  29.240  27.315  1.00  0.00     0.009 A 
ATOM     50  C   UNL A   1      40.606  28.070  29.352  1.00  0.00     0.009 A 
ATOM     51  C   UNL A   1      38.701  29.225  27.685  1.00  0.00     0.001 A 
ATOM     52  C   UNL A   1      39.256  28.030  29.706  1.00  0.00     0.001 A 
ATOM     53  C   UNL A   1      38.304  28.613  28.874  1.00  0.00     0.000 A 
ENDBRANCH  29  48
BRANCH  41  54
ATOM     54  C   UNL A   1      46.614  32.768  29.107  1.00  0.00    -0.014 A 
ATOM     55  C   UNL A   1      46.815  32.898  30.488  1.00  0.00     0.009 A 
ATOM     56  C   UNL A   1      46.686  33.904  28.286  1.00  0.00     0.009 A 
ATOM     57  C   UNL A   1      47.076  34.153  31.038  1.00  0.00     0.001 A 
ATOM     58  C   UNL A   1      46.977  35.150  28.836  1.00  0.00     0.001 A 
ATOM     59  C   UNL A   1      47.168  35.274  30.211  1.00  0.00     0.000 A 
ENDBRANCH  41  54
ENDBRANCH  15  16
ENDBRANCH   8  10
ENDBRANCH   7   8
ENDBRANCH   6   7
ENDBRANCH   5   6
ENDBRANCH   4   5
ENDBRANCH   3   4
ENDBRANCH   2   3
ENDBRANCH   1   2
BRANCH   1  60
ATOM     60  C   UNL A   1      36.824  22.329  25.688  1.00  0.00     0.188 C 
BRANCH  60  61
ATOM     61  C   UNL A   1      35.829  21.353  25.008  1.00  0.00     0.188 C 
BRANCH  61  62
ATOM     62  O   UNL A   1      34.672  21.984  24.508  1.00  0.00    -0.376 OA
BRANCH  62  63
ATOM     63  C   UNL A   1      34.845  22.949  23.479  1.00  0.00     0.202 C 
BRANCH  63  64
ATOM     64  C   UNL A   1      33.726  23.265  22.460  1.00  0.00     0.261 C 
BRANCH  64  65
ATOM     65  O   UNL A   1      32.896  24.425  22.700  1.00  0.00    -0.459 OA
BRANCH  65  66
ATOM     66  C   UNL A   1      33.022  25.492  21.856  1.00  0.00     0.365 C 
ATOM     67  O   UNL A   1      33.142  25.374  20.654  1.00  0.00    -0.245 OA
BRANCH  66  68
ATOM     68  C   UNL A   1      33.054  26.832  22.662  1.00  0.00     0.304 C 
ATOM     69  C   UNL A   1      33.181  26.702  24.185  1.00  0.00     0.153 C 
ATOM     70  N   UNL A   1      31.831  27.632  22.369  1.00  0.00    -0.319 N 
ATOM     71  S   UNL A   1      31.957  27.799  24.896  1.00  0.00    -0.087 SA
ATOM     72  C   UNL A   1      30.880  27.462  23.481  1.00  0.00     0.278 C 
ATOM     73  H   UNL A   1      31.406  27.306  21.501  1.00  0.00     0.348 HD
ATOM     74  H   UNL A   1      32.075  28.617  22.268  1.00  0.00     0.348 HD
BRANCH  72  75
ATOM     75  C   UNL A   1      29.651  28.329  23.346  1.00  0.00     0.063 A 
ATOM     76  C   UNL A   1      29.706  29.728  23.206  1.00  0.00     0.030 A 
ATOM     77  C   UNL A   1      28.380  27.734  23.401  1.00  0.00     0.125 A 
ATOM     78  C   UNL A   1      28.542  30.470  23.012  1.00  0.00     0.018 A 
ATOM     79  C   UNL A   1      27.218  28.467  23.179  1.00  0.00     0.048 A 
ATOM     80  Br  UNL A   1      28.654  32.346  22.809  1.00  0.00    -0.051 Br
ATOM     81  C   UNL A   1      27.302  29.841  22.966  1.00  0.00     0.019 A 
BRANCH  77  82
ATOM     82  O   UNL A   1      28.287  26.408  23.716  1.00  0.00    -0.507 OA
ATOM     83  H   UNL A   1      27.680  26.123  24.369  1.00  0.00     0.293 HD
ENDBRANCH  77  82
ENDBRANCH  72  75
ENDBRANCH  66  68
ENDBRANCH  65  66
ENDBRANCH  64  65
ENDBRANCH  63  64
ENDBRANCH  62  63
ENDBRANCH  61  62
ENDBRANCH  60  61
ENDBRANCH   1  60
TORSDOF 22
ENDMDL
MODEL 3
REMARK VINA RESULT:      -9.3      4.704      7.367
REMARK SMILES O=C(OCCOCCOCCOCCOC(=O)[C@@H]1CS[C@@H](c2cc(Br)ccc2O)[NH2+]1)c1ccc(-c2c3nc(c(-c4ccccc4)c4ccc([nH]4)c(-c4ccccc4)c4nc(c(-c5ccccc5)c5ccc2[nH]5)C=C4)C=C3)cc1
REMARK SMILES IDX 9 1 8 2 7 3 6 4 5 5 4 6 3 7 2 8 1 9 31 10 32 11 78 12 33 13
REMARK SMILES IDX 77 14 34 15 35 16 36 17 71 18 37 19 76 20 70 21 72 22 38 23
REMARK SMILES IDX 75 24 69 25 68 26 39 28 61 29 46 30 60 31 47 32 50 33 59 34
REMARK SMILES IDX 73 35 48 36 49 37 58 39 74 40 51 41 40 42 41 43 45 44 42 45
REMARK SMILES IDX 44 46 43 47 62 48 63 49 67 50 64 51 66 52 65 53 52 54 53 55
REMARK SMILES IDX 57 56 54 57 56 58 55 59 10 60 11 61 12 62 13 63 14 64 15 65
REMARK SMILES IDX 16 66 17 67 18 68 19 69 30 70 20 71 21 72 22 75 23 76 28 77
REMARK SMILES IDX 24 78 27 79 25 80 26 81 29 82
REMARK H PARENT 72 27 50 38 30 73 30 74 29 83
REMARK Flexibility Score: inf
ROOT
ATOM      1  O   UNL A   1      41.726  19.587  27.063  1.00  0.00    -0.377 OA
ENDROOT
BRANCH   1   2
ATOM      2  C   UNL A   1      42.239  19.565  25.740  1.00  0.00     0.188 C 
BRANCH   2   3
ATOM      3  C   UNL A   1      43.687  19.095  25.586  1.00  0.00     0.188 C 
BRANCH   3   4
ATOM      4  O   UNL A   1      44.457  19.989  24.778  1.00  0.00    -0.376 OA
BRANCH   4   5
ATOM      5  C   UNL A   1      45.620  20.575  25.369  1.00  0.00     0.202 C 
BRANCH   5   6
ATOM      6  C   UNL A   1      45.669  22.101  25.407  1.00  0.00     0.261 C 
BRANCH   6   7
ATOM      7  O   UNL A   1      44.632  22.690  26.197  1.00  0.00    -0.460 OA
BRANCH   7   8
ATOM      8  C   UNL A   1      43.584  23.439  25.783  1.00  0.00     0.338 C 
ATOM      9  O   UNL A   1      43.161  23.244  24.644  1.00  0.00    -0.246 OA
BRANCH   8  10
ATOM     10  C   UNL A   1      42.941  24.538  26.581  1.00  0.00     0.060 A 
ATOM     11  C   UNL A   1      43.107  25.912  26.386  1.00  0.00     0.016 A 
ATOM     12  C   UNL A   1      42.037  24.132  27.578  1.00  0.00     0.016 A 
ATOM     13  C   UNL A   1      42.409  26.855  27.117  1.00  0.00     0.010 A 
ATOM     14  C   UNL A   1      41.371  25.068  28.369  1.00  0.00     0.010 A 
ATOM     15  C   UNL A   1      41.587  26.431  28.147  1.00  0.00    -0.014 A 
BRANCH  15  16
ATOM     16  C   UNL A   1      41.255  27.426  29.165  1.00  0.00     0.031 A 
ATOM     17  C   UNL A   1      42.133  27.450  30.375  1.00  0.00     0.074 A 
ATOM     18  C   UNL A   1      40.309  28.346  28.937  1.00  0.00     0.049 A 
ATOM     19  N   UNL A   1      41.981  28.086  31.499  1.00  0.00    -0.248 NA
ATOM     20  C   UNL A   1      43.363  26.637  30.300  1.00  0.00     0.031 C 
ATOM     21  C   UNL A   1      39.569  28.507  27.685  1.00  0.00     0.029 A 
ATOM     22  N   UNL A   1      39.817  29.322  29.753  1.00  0.00    -0.354 N 
ATOM     23  C   UNL A   1      43.058  27.700  32.286  1.00  0.00     0.074 A 
ATOM     24  C   UNL A   1      43.870  26.798  31.508  1.00  0.00     0.031 C 
ATOM     25  C   UNL A   1      38.690  29.512  27.829  1.00  0.00     0.029 A 
ATOM     26  C   UNL A   1      38.756  29.994  29.204  1.00  0.00     0.049 A 
ATOM     27  H   UNL A   1      40.187  29.523  30.644  1.00  0.00     0.167 HD
ATOM     28  C   UNL A   1      43.307  28.048  33.567  1.00  0.00     0.031 A 
ATOM     29  C   UNL A   1      37.896  30.843  29.794  1.00  0.00     0.031 A 
ATOM     30  C   UNL A   1      42.437  28.927  34.295  1.00  0.00     0.049 A 
ATOM     31  C   UNL A   1      38.109  31.131  31.256  1.00  0.00     0.074 A 
ATOM     32  C   UNL A   1      42.496  29.316  35.616  1.00  0.00     0.029 A 
ATOM     33  N   UNL A   1      41.328  29.551  33.731  1.00  0.00    -0.354 N 
ATOM     34  N   UNL A   1      39.057  30.687  32.052  1.00  0.00    -0.248 NA
ATOM     35  C   UNL A   1      37.137  32.013  31.908  1.00  0.00     0.031 C 
ATOM     36  C   UNL A   1      41.385  30.132  35.864  1.00  0.00     0.029 A 
ATOM     37  C   UNL A   1      40.677  30.308  34.681  1.00  0.00     0.049 A 
ATOM     38  H   UNL A   1      41.049  29.464  32.791  1.00  0.00     0.167 HD
ATOM     39  C   UNL A   1      38.814  31.254  33.293  1.00  0.00     0.074 A 
ATOM     40  C   UNL A   1      37.626  32.077  33.140  1.00  0.00     0.031 C 
ATOM     41  C   UNL A   1      39.503  31.117  34.455  1.00  0.00     0.031 A 
BRANCH  28  42
ATOM     42  C   UNL A   1      44.457  27.356  34.242  1.00  0.00    -0.014 A 
ATOM     43  C   UNL A   1      44.304  26.133  34.917  1.00  0.00     0.009 A 
ATOM     44  C   UNL A   1      45.700  28.006  34.300  1.00  0.00     0.009 A 
ATOM     45  C   UNL A   1      45.350  25.612  35.685  1.00  0.00     0.001 A 
ATOM     46  C   UNL A   1      46.755  27.466  35.038  1.00  0.00     0.001 A 
ATOM     47  C   UNL A   1      46.573  26.279  35.746  1.00  0.00     0.000 A 
ENDBRANCH  28  42
BRANCH  29  48
ATOM     48  C   UNL A   1      36.741  31.376  29.026  1.00  0.00    -0.014 A 
ATOM     49  C   UNL A   1      35.642  30.566  28.710  1.00  0.00     0.009 A 
ATOM     50  C   UNL A   1      36.705  32.732  28.655  1.00  0.00     0.009 A 
ATOM     51  C   UNL A   1      34.538  31.099  28.037  1.00  0.00     0.001 A 
ATOM     52  C   UNL A   1      35.591  33.270  28.008  1.00  0.00     0.001 A 
ATOM     53  C   UNL A   1      34.509  32.451  27.695  1.00  0.00     0.000 A 
ENDBRANCH  29  48
BRANCH  41  54
ATOM     54  C   UNL A   1      39.025  31.921  35.625  1.00  0.00    -0.014 A 
ATOM     55  C   UNL A   1      38.121  31.391  36.554  1.00  0.00     0.009 A 
ATOM     56  C   UNL A   1      39.589  33.187  35.851  1.00  0.00     0.009 A 
ATOM     57  C   UNL A   1      37.780  32.125  37.690  1.00  0.00     0.001 A 
ATOM     58  C   UNL A   1      39.268  33.903  37.002  1.00  0.00     0.001 A 
ATOM     59  C   UNL A   1      38.362  33.372  37.918  1.00  0.00     0.000 A 
ENDBRANCH  41  54
ENDBRANCH  15  16
ENDBRANCH   8  10
ENDBRANCH   7   8
ENDBRANCH   6   7
ENDBRANCH   5   6
ENDBRANCH   4   5
ENDBRANCH   3   4
ENDBRANCH   2   3
ENDBRANCH   1   2
BRANCH   1  60
ATOM     60  C   UNL A   1      40.804  20.619  27.363  1.00  0.00     0.188 C 
BRANCH  60  61
ATOM     61  C   UNL A   1      40.164  21.398  26.184  1.00  0.00     0.188 C 
BRANCH  61  62
ATOM     62  O   UNL A   1      38.889  21.922  26.479  1.00  0.00    -0.376 OA
BRANCH  62  63
ATOM     63  C   UNL A   1      38.723  23.330  26.384  1.00  0.00     0.202 C 
BRANCH  63  64
ATOM     64  C   UNL A   1      37.351  23.971  26.067  1.00  0.00     0.261 C 
BRANCH  64  65
ATOM     65  O   UNL A   1      36.524  23.343  25.059  1.00  0.00    -0.459 OA
BRANCH  65  66
ATOM     66  C   UNL A   1      35.630  22.392  25.461  1.00  0.00     0.365 C 
ATOM     67  O   UNL A   1      35.575  21.285  24.966  1.00  0.00    -0.245 OA
BRANCH  66  68
ATOM     68  C   UNL A   1      34.681  22.959  26.568  1.00  0.00     0.304 C 
ATOM     69  C   UNL A   1      33.581  22.012  27.065  1.00  0.00     0.153 C 
ATOM     70  N   UNL A   1      34.028  24.210  26.087  1.00  0.00    -0.319 N 
ATOM     71  S   UNL A   1      32.062  22.960  27.087  1.00  0.00    -0.087 SA
ATOM     72  C   UNL A   1      32.659  23.888  25.653  1.00  0.00     0.278 C 
ATOM     73  H   UNL A   1      34.556  24.593  25.302  1.00  0.00     0.348 HD
ATOM     74  H   UNL A   1      34.003  24.900  26.837  1.00  0.00     0.348 HD
BRANCH  72  75
ATOM     75  C   UNL A   1      31.861  25.109  25.258  1.00  0.00     0.063 A 
ATOM     76  C   UNL A   1      32.123  26.397  25.763  1.00  0.00     0.030 A 
ATOM     77  C   UNL A   1      30.776  24.968  24.378  1.00  0.00     0.125 A 
ATOM     78  C   UNL A   1      31.401  27.499  25.309  1.00  0.00     0.018 A 
ATOM     79  C   UNL A   1      30.072  26.070  23.900  1.00  0.00     0.048 A 
ATOM     80  Br  UNL A   1      31.791  29.217  25.995  1.00  0.00    -0.051 Br
ATOM     81  C   UNL A   1      30.399  27.344  24.356  1.00  0.00     0.019 A 
BRANCH  77  82
ATOM     82  O   UNL A   1      30.384  23.711  24.014  1.00  0.00    -0.507 OA
ATOM     83  H   UNL A   1      30.011  23.563  23.168  1.00  0.00     0.293 HD
ENDBRANCH  77  82
ENDBRANCH  72  75
ENDBRANCH  66  68
ENDBRANCH  65  66
ENDBRANCH  64  65
ENDBRANCH  63  64
ENDBRANCH  62  63
ENDBRANCH  61  62
ENDBRANCH  60  61
ENDBRANCH   1  60
TORSDOF 22
ENDMDL
