MODEL 1
REMARK VINA RESULT:      -9.8      0.000      0.000
REMARK SMILES Cc1ccccc1OCC(=O)N[C@@H](Cc1c[nH]c2ccccc12)C(=O)OCCOCCOCCOCCOC(=O)c1ccc(-c2c3nc(c(-c4ccccc4)c4ccc([nH]4)c(-c4ccccc4)c4nc(c(-c5ccccc5)c5ccc2[nH]5)C=C4)C=C3)cc1
REMARK SMILES IDX 31 1 30 2 29 3 28 4 27 5 26 6 24 7 25 8 13 9 12 10 10 11
REMARK SMILES IDX 11 12 9 14 8 15 7 16 1 17 2 18 3 19 4 20 6 21 5 22 14 23
REMARK SMILES IDX 15 24 16 25 23 26 17 27 18 28 22 29 19 31 21 32 20 33 32 34
REMARK SMILES IDX 33 35 34 36 35 37 36 38 37 39 38 40 39 41 40 42 41 43 42 44
REMARK SMILES IDX 88 45 43 46 87 47 44 48 45 49 46 50 81 51 47 52 86 53 80 54
REMARK SMILES IDX 82 55 48 56 85 57 79 58 78 59 49 61 71 62 56 63 70 64 57 65
REMARK SMILES IDX 60 66 69 67 83 68 58 69 59 70 68 72 84 73 61 74 50 75 51 76
REMARK SMILES IDX 55 77 52 78 54 79 53 80 72 81 73 82 77 83 74 84 76 85 75 86
REMARK SMILES IDX 62 87 63 88 67 89 64 90 66 91 65 92
REMARK H PARENT 12 13 17 30 82 60 60 71
REMARK Flexibility Score: inf
ROOT
ATOM      1  C   UNL A   1      34.140  33.553  28.395  1.00  0.00     0.188 C 
ENDROOT
BRANCH   1   2
ATOM      2  C   UNL A   1      33.673  32.217  27.849  1.00  0.00     0.188 C 
BRANCH   2   3
ATOM      3  O   UNL A   1      34.532  31.114  28.112  1.00  0.00    -0.376 OA
BRANCH   3   4
ATOM      4  C   UNL A   1      34.250  30.013  27.241  1.00  0.00     0.202 C 
BRANCH   4   5
ATOM      5  C   UNL A   1      32.854  29.939  26.592  1.00  0.00     0.261 C 
BRANCH   5   6
ATOM      6  O   UNL A   1      32.532  28.699  25.943  1.00  0.00    -0.462 OA
BRANCH   6   7
ATOM      7  C   UNL A   1      31.780  27.819  26.646  1.00  0.00     0.329 C 
ATOM      8  O   UNL A   1      31.212  28.079  27.684  1.00  0.00    -0.250 OA
BRANCH   7   9
ATOM      9  C   UNL A   1      31.731  26.414  26.001  1.00  0.00     0.196 C 
BRANCH   9  10
ATOM     10  N   UNL A   1      30.966  25.365  26.672  1.00  0.00    -0.339 N 
ATOM     11  C   UNL A   1      31.329  24.061  26.859  1.00  0.00     0.258 C 
ATOM     12  O   UNL A   1      30.469  23.242  27.183  1.00  0.00    -0.271 OA
ATOM     13  H   UNL A   1      30.089  25.628  27.031  1.00  0.00     0.164 HD
BRANCH  11  14
ATOM     14  C   UNL A   1      32.824  23.666  26.725  1.00  0.00     0.329 C 
BRANCH  14  15
ATOM     15  O   UNL A   1      33.560  23.609  25.524  1.00  0.00    -0.484 OA
BRANCH  15  16
ATOM     16  C   UNL A   1      34.260  22.453  25.362  1.00  0.00     0.122 A 
ATOM     17  C   UNL A   1      32.223  21.011  24.763  1.00  0.00     0.048 C 
ATOM     18  C   UNL A   1      33.691  21.229  24.995  1.00  0.00    -0.009 A 
ATOM     19  C   UNL A   1      34.551  20.132  24.832  1.00  0.00     0.007 A 
ATOM     20  C   UNL A   1      35.922  20.248  25.073  1.00  0.00     0.001 A 
ATOM     21  C   UNL A   1      35.625  22.560  25.648  1.00  0.00     0.047 A 
ATOM     22  C   UNL A   1      36.459  21.461  25.491  1.00  0.00     0.004 A 
ENDBRANCH  15  16
ENDBRANCH  14  15
ENDBRANCH  11  14
ENDBRANCH   9  10
BRANCH   9  23
ATOM     23  C   UNL A   1      31.424  26.495  24.496  1.00  0.00     0.074 C 
BRANCH  23  24
ATOM     24  C   UNL A   1      29.996  26.745  24.084  1.00  0.00    -0.020 A 
ATOM     25  C   UNL A   1      28.956  25.849  24.186  1.00  0.00     0.087 A 
ATOM     26  C   UNL A   1      29.420  27.963  23.577  1.00  0.00     0.003 A 
ATOM     27  N   UNL A   1      27.791  26.465  23.824  1.00  0.00    -0.361 N 
ATOM     28  C   UNL A   1      28.040  27.765  23.464  1.00  0.00     0.046 A 
ATOM     29  C   UNL A   1      29.940  29.222  23.215  1.00  0.00     0.010 A 
ATOM     30  H   UNL A   1      26.904  26.037  23.822  1.00  0.00     0.166 HD
ATOM     31  C   UNL A   1      27.155  28.768  23.053  1.00  0.00     0.026 A 
ATOM     32  C   UNL A   1      29.071  30.231  22.780  1.00  0.00     0.001 A 
ATOM     33  C   UNL A   1      27.697  30.010  22.714  1.00  0.00     0.002 A 
ENDBRANCH  23  24
ENDBRANCH   9  23
ENDBRANCH   7   9
ENDBRANCH   6   7
ENDBRANCH   5   6
ENDBRANCH   4   5
ENDBRANCH   3   4
ENDBRANCH   2   3
ENDBRANCH   1   2
BRANCH   1  34
ATOM     34  O   UNL A   1      33.863  33.706  29.783  1.00  0.00    -0.377 OA
BRANCH  34  35
ATOM     35  C   UNL A   1      33.533  35.036  30.171  1.00  0.00     0.188 C 
BRANCH  35  36
ATOM     36  C   UNL A   1      33.824  35.238  31.649  1.00  0.00     0.188 C 
BRANCH  36  37
ATOM     37  O   UNL A   1      33.284  34.125  32.365  1.00  0.00    -0.376 OA
BRANCH  37  38
ATOM     38  C   UNL A   1      34.212  33.414  33.175  1.00  0.00     0.202 C 
BRANCH  38  39
ATOM     39  C   UNL A   1      35.654  33.685  32.752  1.00  0.00     0.261 C 
BRANCH  39  40
ATOM     40  O   UNL A   1      36.131  32.539  32.015  1.00  0.00    -0.460 OA
BRANCH  40  41
ATOM     41  C   UNL A   1      37.208  32.782  31.225  1.00  0.00     0.338 C 
ATOM     42  O   UNL A   1      37.249  32.603  30.015  1.00  0.00    -0.246 OA
BRANCH  41  43
ATOM     43  C   UNL A   1      38.421  33.040  32.057  1.00  0.00     0.060 A 
ATOM     44  C   UNL A   1      38.889  32.024  32.908  1.00  0.00     0.016 A 
ATOM     45  C   UNL A   1      38.861  34.348  32.241  1.00  0.00     0.016 A 
ATOM     46  C   UNL A   1      39.656  32.346  34.035  1.00  0.00     0.010 A 
ATOM     47  C   UNL A   1      39.514  34.676  33.417  1.00  0.00     0.010 A 
ATOM     48  C   UNL A   1      39.881  33.689  34.346  1.00  0.00    -0.014 A 
BRANCH  48  49
ATOM     49  C   UNL A   1      40.233  34.190  35.686  1.00  0.00     0.031 A 
ATOM     50  C   UNL A   1      39.285  34.072  36.841  1.00  0.00     0.074 A 
ATOM     51  C   UNL A   1      41.551  34.384  35.928  1.00  0.00     0.049 A 
ATOM     52  N   UNL A   1      39.507  34.515  38.039  1.00  0.00    -0.248 NA
ATOM     53  C   UNL A   1      37.953  33.478  36.721  1.00  0.00     0.031 C 
ATOM     54  C   UNL A   1      42.220  34.211  37.205  1.00  0.00     0.029 A 
ATOM     55  N   UNL A   1      42.600  34.752  35.095  1.00  0.00    -0.354 N 
ATOM     56  C   UNL A   1      38.537  34.003  38.880  1.00  0.00     0.074 A 
ATOM     57  C   UNL A   1      37.537  33.465  37.992  1.00  0.00     0.031 C 
ATOM     58  C   UNL A   1      43.497  34.589  37.133  1.00  0.00     0.029 A 
ATOM     59  C   UNL A   1      43.627  35.285  35.887  1.00  0.00     0.049 A 
ATOM     60  H   UNL A   1      42.619  34.655  34.116  1.00  0.00     0.167 HD
ATOM     61  C   UNL A   1      38.744  33.964  40.233  1.00  0.00     0.031 A 
ATOM     62  C   UNL A   1      44.053  36.575  35.793  1.00  0.00     0.031 A 
ATOM     63  C   UNL A   1      39.927  34.741  40.664  1.00  0.00     0.049 A 
ATOM     64  C   UNL A   1      43.696  37.379  37.039  1.00  0.00     0.074 A 
ATOM     65  C   UNL A   1      40.965  34.516  41.554  1.00  0.00     0.029 A 
ATOM     66  N   UNL A   1      40.244  35.947  40.024  1.00  0.00    -0.354 N 
ATOM     67  N   UNL A   1      42.861  36.967  37.969  1.00  0.00    -0.248 NA
ATOM     68  C   UNL A   1      44.265  38.683  37.374  1.00  0.00     0.031 C 
ATOM     69  C   UNL A   1      41.909  35.562  41.412  1.00  0.00     0.029 A 
ATOM     70  C   UNL A   1      41.467  36.431  40.427  1.00  0.00     0.049 A 
ATOM     71  H   UNL A   1      39.663  36.392  39.366  1.00  0.00     0.167 HD
ATOM     72  C   UNL A   1      42.744  37.901  38.961  1.00  0.00     0.074 A 
ATOM     73  C   UNL A   1      43.661  38.952  38.547  1.00  0.00     0.031 C 
ATOM     74  C   UNL A   1      41.912  37.768  40.040  1.00  0.00     0.031 A 
BRANCH  61  75
ATOM     75  C   UNL A   1      37.984  33.031  41.193  1.00  0.00    -0.014 A 
ATOM     76  C   UNL A   1      38.484  31.742  41.479  1.00  0.00     0.009 A 
ATOM     77  C   UNL A   1      36.719  33.302  41.753  1.00  0.00     0.009 A 
ATOM     78  C   UNL A   1      37.758  30.783  42.209  1.00  0.00     0.001 A 
ATOM     79  C   UNL A   1      36.009  32.369  42.533  1.00  0.00     0.001 A 
ATOM     80  C   UNL A   1      36.519  31.099  42.744  1.00  0.00     0.000 A 
ENDBRANCH  61  75
BRANCH  62  81
ATOM     81  C   UNL A   1      44.270  36.966  34.364  1.00  0.00    -0.014 A 
ATOM     82  C   UNL A   1      43.366  37.967  33.929  1.00  0.00     0.009 A 
ATOM     83  C   UNL A   1      45.569  36.973  33.824  1.00  0.00     0.009 A 
ATOM     84  C   UNL A   1      43.831  39.101  33.256  1.00  0.00     0.001 A 
ATOM     85  C   UNL A   1      46.019  38.104  33.116  1.00  0.00     0.001 A 
ATOM     86  C   UNL A   1      45.172  39.194  32.899  1.00  0.00     0.000 A 
ENDBRANCH  62  81
BRANCH  74  87
ATOM     87  C   UNL A   1      41.430  38.907  40.917  1.00  0.00    -0.014 A 
ATOM     88  C   UNL A   1      40.365  39.753  40.589  1.00  0.00     0.009 A 
ATOM     89  C   UNL A   1      41.937  39.025  42.236  1.00  0.00     0.009 A 
ATOM     90  C   UNL A   1      39.871  40.693  41.504  1.00  0.00     0.001 A 
ATOM     91  C   UNL A   1      41.423  39.930  43.164  1.00  0.00     0.001 A 
ATOM     92  C   UNL A   1      40.391  40.775  42.791  1.00  0.00     0.000 A 
ENDBRANCH  74  87
ENDBRANCH  48  49
ENDBRANCH  41  43
ENDBRANCH  40  41
ENDBRANCH  39  40
ENDBRANCH  38  39
ENDBRANCH  37  38
ENDBRANCH  36  37
ENDBRANCH  35  36
ENDBRANCH  34  35
ENDBRANCH   1  34
TORSDOF 26
ENDMDL
MODEL 2
REMARK VINA RESULT:      -9.7      8.238     12.928
REMARK SMILES Cc1ccccc1OCC(=O)N[C@@H](Cc1c[nH]c2ccccc12)C(=O)OCCOCCOCCOCCOC(=O)c1ccc(-c2c3nc(c(-c4ccccc4)c4ccc([nH]4)c(-c4ccccc4)c4nc(c(-c5ccccc5)c5ccc2[nH]5)C=C4)C=C3)cc1
REMARK SMILES IDX 31 1 30 2 29 3 28 4 27 5 26 6 24 7 25 8 13 9 12 10 10 11
REMARK SMILES IDX 11 12 9 14 8 15 7 16 1 17 2 18 3 19 4 20 6 21 5 22 14 23
REMARK SMILES IDX 15 24 16 25 23 26 17 27 18 28 22 29 19 31 21 32 20 33 32 34
REMARK SMILES IDX 33 35 34 36 35 37 36 38 37 39 38 40 39 41 40 42 41 43 42 44
REMARK SMILES IDX 88 45 43 46 87 47 44 48 45 49 46 50 81 51 47 52 86 53 80 54
REMARK SMILES IDX 82 55 48 56 85 57 79 58 78 59 49 61 71 62 56 63 70 64 57 65
REMARK SMILES IDX 60 66 69 67 83 68 58 69 59 70 68 72 84 73 61 74 50 75 51 76
REMARK SMILES IDX 55 77 52 78 54 79 53 80 72 81 73 82 77 83 74 84 76 85 75 86
REMARK SMILES IDX 62 87 63 88 67 89 64 90 66 91 65 92
REMARK H PARENT 12 13 17 30 82 60 60 71
REMARK Flexibility Score: inf
ROOT
ATOM      1  C   UNL A   1      31.016  31.161  25.650  1.00  0.00     0.188 C 
ENDROOT
BRANCH   1   2
ATOM      2  C   UNL A   1      30.848  30.023  24.660  1.00  0.00     0.188 C 
BRANCH   2   3
ATOM      3  O   UNL A   1      32.043  29.330  24.317  1.00  0.00    -0.376 OA
BRANCH   3   4
ATOM      4  C   UNL A   1      31.962  28.772  23.001  1.00  0.00     0.202 C 
BRANCH   4   5
ATOM      5  C   UNL A   1      30.620  28.161  22.552  1.00  0.00     0.261 C 
BRANCH   5   6
ATOM      6  O   UNL A   1      30.470  26.750  22.780  1.00  0.00    -0.462 OA
BRANCH   6   7
ATOM      7  C   UNL A   1      29.706  26.381  23.836  1.00  0.00     0.329 C 
ATOM      8  O   UNL A   1      28.494  26.406  23.847  1.00  0.00    -0.250 OA
BRANCH   7   9
ATOM      9  C   UNL A   1      30.540  25.938  25.060  1.00  0.00     0.196 C 
BRANCH   9  10
ATOM     10  N   UNL A   1      30.818  26.918  26.107  1.00  0.00    -0.339 N 
ATOM     11  C   UNL A   1      31.947  27.025  26.869  1.00  0.00     0.258 C 
ATOM     12  O   UNL A   1      31.917  27.712  27.890  1.00  0.00    -0.271 OA
ATOM     13  H   UNL A   1      30.110  27.578  26.283  1.00  0.00     0.164 HD
BRANCH  11  14
ATOM     14  C   UNL A   1      33.251  26.334  26.388  1.00  0.00     0.329 C 
BRANCH  14  15
ATOM     15  O   UNL A   1      33.959  26.634  25.207  1.00  0.00    -0.484 OA
BRANCH  15  16
ATOM     16  C   UNL A   1      34.169  25.557  24.401  1.00  0.00     0.122 A 
ATOM     17  C   UNL A   1      35.715  24.322  26.037  1.00  0.00     0.048 C 
ATOM     18  C   UNL A   1      34.959  24.455  24.745  1.00  0.00    -0.009 A 
ATOM     19  C   UNL A   1      35.051  23.404  23.820  1.00  0.00     0.007 A 
ATOM     20  C   UNL A   1      34.412  23.477  22.580  1.00  0.00     0.001 A 
ATOM     21  C   UNL A   1      33.567  25.652  23.143  1.00  0.00     0.047 A 
ATOM     22  C   UNL A   1      33.677  24.606  22.236  1.00  0.00     0.004 A 
ENDBRANCH  15  16
ENDBRANCH  14  15
ENDBRANCH  11  14
ENDBRANCH   9  10
BRANCH   9  23
ATOM     23  C   UNL A   1      30.041  24.597  25.626  1.00  0.00     0.074 C 
BRANCH  23  24
ATOM     24  C   UNL A   1      31.056  23.505  25.842  1.00  0.00    -0.020 A 
ATOM     25  C   UNL A   1      31.681  23.204  27.032  1.00  0.00     0.087 A 
ATOM     26  C   UNL A   1      31.522  22.527  24.894  1.00  0.00     0.003 A 
ATOM     27  N   UNL A   1      32.445  22.083  26.871  1.00  0.00    -0.361 N 
ATOM     28  C   UNL A   1      32.354  21.636  25.577  1.00  0.00     0.046 A 
ATOM     29  C   UNL A   1      31.304  22.308  23.518  1.00  0.00     0.010 A 
ATOM     30  H   UNL A   1      32.984  21.660  27.579  1.00  0.00     0.166 HD
ATOM     31  C   UNL A   1      32.940  20.518  24.970  1.00  0.00     0.026 A 
ATOM     32  C   UNL A   1      31.901  21.207  22.889  1.00  0.00     0.001 A 
ATOM     33  C   UNL A   1      32.695  20.319  23.610  1.00  0.00     0.002 A 
ENDBRANCH  23  24
ENDBRANCH   9  23
ENDBRANCH   7   9
ENDBRANCH   6   7
ENDBRANCH   5   6
ENDBRANCH   4   5
ENDBRANCH   3   4
ENDBRANCH   2   3
ENDBRANCH   1   2
BRANCH   1  34
ATOM     34  O   UNL A   1      31.639  30.750  26.861  1.00  0.00    -0.377 OA
BRANCH  34  35
ATOM     35  C   UNL A   1      32.860  31.422  27.150  1.00  0.00     0.188 C 
BRANCH  35  36
ATOM     36  C   UNL A   1      33.803  30.496  27.900  1.00  0.00     0.188 C 
BRANCH  36  37
ATOM     37  O   UNL A   1      34.717  29.932  26.957  1.00  0.00    -0.376 OA
BRANCH  37  38
ATOM     38  C   UNL A   1      36.006  29.619  27.469  1.00  0.00     0.202 C 
BRANCH  38  39
ATOM     39  C   UNL A   1      36.729  30.865  27.977  1.00  0.00     0.261 C 
BRANCH  39  40
ATOM     40  O   UNL A   1      37.923  30.443  28.671  1.00  0.00    -0.460 OA
BRANCH  40  41
ATOM     41  C   UNL A   1      37.785  29.299  29.388  1.00  0.00     0.338 C 
ATOM     42  O   UNL A   1      37.023  29.150  30.335  1.00  0.00    -0.246 OA
BRANCH  41  43
ATOM     43  C   UNL A   1      38.871  28.333  29.050  1.00  0.00     0.060 A 
ATOM     44  C   UNL A   1      39.753  27.920  30.063  1.00  0.00     0.016 A 
ATOM     45  C   UNL A   1      39.210  28.122  27.715  1.00  0.00     0.016 A 
ATOM     46  C   UNL A   1      41.034  27.456  29.736  1.00  0.00     0.010 A 
ATOM     47  C   UNL A   1      40.513  27.779  27.401  1.00  0.00     0.010 A 
ATOM     48  C   UNL A   1      41.451  27.484  28.404  1.00  0.00    -0.014 A 
BRANCH  48  49
ATOM     49  C   UNL A   1      42.858  27.490  27.967  1.00  0.00     0.031 A 
ATOM     50  C   UNL A   1      43.613  28.771  27.774  1.00  0.00     0.074 A 
ATOM     51  C   UNL A   1      43.545  26.335  28.135  1.00  0.00     0.049 A 
ATOM     52  N   UNL A   1      44.839  28.862  27.362  1.00  0.00    -0.248 NA
ATOM     53  C   UNL A   1      43.012  30.089  27.981  1.00  0.00     0.031 C 
ATOM     54  C   UNL A   1      44.960  26.219  28.435  1.00  0.00     0.029 A 
ATOM     55  N   UNL A   1      43.141  25.007  28.103  1.00  0.00    -0.354 N 
ATOM     56  C   UNL A   1      45.269  30.161  27.553  1.00  0.00     0.074 A 
ATOM     57  C   UNL A   1      44.064  30.902  27.829  1.00  0.00     0.031 C 
ATOM     58  C   UNL A   1      45.349  24.943  28.427  1.00  0.00     0.029 A 
ATOM     59  C   UNL A   1      44.265  24.210  27.844  1.00  0.00     0.049 A 
ATOM     60  H   UNL A   1      42.223  24.680  28.240  1.00  0.00     0.167 HD
ATOM     61  C   UNL A   1      46.606  30.449  27.594  1.00  0.00     0.031 A 
ATOM     62  C   UNL A   1      44.398  23.444  26.725  1.00  0.00     0.031 A 
ATOM     63  C   UNL A   1      47.459  29.322  27.158  1.00  0.00     0.049 A 
ATOM     64  C   UNL A   1      45.493  23.973  25.805  1.00  0.00     0.074 A 
ATOM     65  C   UNL A   1      48.634  28.755  27.625  1.00  0.00     0.029 A 
ATOM     66  N   UNL A   1      47.037  28.490  26.112  1.00  0.00    -0.354 N 
ATOM     67  N   UNL A   1      46.058  25.154  25.935  1.00  0.00    -0.248 NA
ATOM     68  C   UNL A   1      46.078  23.221  24.697  1.00  0.00     0.031 C 
ATOM     69  C   UNL A   1      48.883  27.573  26.886  1.00  0.00     0.029 A 
ATOM     70  C   UNL A   1      47.860  27.395  25.968  1.00  0.00     0.049 A 
ATOM     71  H   UNL A   1      46.249  28.666  25.550  1.00  0.00     0.167 HD
ATOM     72  C   UNL A   1      47.005  25.345  24.966  1.00  0.00     0.074 A 
ATOM     73  C   UNL A   1      46.990  24.093  24.226  1.00  0.00     0.031 C 
ATOM     74  C   UNL A   1      47.727  26.499  24.822  1.00  0.00     0.031 A 
BRANCH  61  75
ATOM     75  C   UNL A   1      47.194  31.716  28.243  1.00  0.00    -0.014 A 
ATOM     76  C   UNL A   1      48.315  32.354  27.671  1.00  0.00     0.009 A 
ATOM     77  C   UNL A   1      46.776  32.263  29.473  1.00  0.00     0.009 A 
ATOM     78  C   UNL A   1      49.001  33.409  28.302  1.00  0.00     0.001 A 
ATOM     79  C   UNL A   1      47.421  33.355  30.086  1.00  0.00     0.001 A 
ATOM     80  C   UNL A   1      48.549  33.916  29.511  1.00  0.00     0.000 A 
ENDBRANCH  61  75
BRANCH  62  81
ATOM     81  C   UNL A   1      43.154  22.652  26.465  1.00  0.00    -0.014 A 
ATOM     82  C   UNL A   1      43.381  21.543  25.614  1.00  0.00     0.009 A 
ATOM     83  C   UNL A   1      42.178  22.522  27.470  1.00  0.00     0.009 A 
ATOM     84  C   UNL A   1      42.905  20.273  25.958  1.00  0.00     0.001 A 
ATOM     85  C   UNL A   1      41.677  21.244  27.788  1.00  0.00     0.001 A 
ATOM     86  C   UNL A   1      42.099  20.116  27.080  1.00  0.00     0.000 A 
ENDBRANCH  62  81
BRANCH  74  87
ATOM     87  C   UNL A   1      48.454  26.924  23.561  1.00  0.00    -0.014 A 
ATOM     88  C   UNL A   1      47.866  27.663  22.528  1.00  0.00     0.009 A 
ATOM     89  C   UNL A   1      49.858  26.745  23.480  1.00  0.00     0.009 A 
ATOM     90  C   UNL A   1      48.626  28.151  21.457  1.00  0.00     0.001 A 
ATOM     91  C   UNL A   1      50.625  27.264  22.438  1.00  0.00     0.001 A 
ATOM     92  C   UNL A   1      50.004  27.961  21.415  1.00  0.00     0.000 A 
ENDBRANCH  74  87
ENDBRANCH  48  49
ENDBRANCH  41  43
ENDBRANCH  40  41
ENDBRANCH  39  40
ENDBRANCH  38  39
ENDBRANCH  37  38
ENDBRANCH  36  37
ENDBRANCH  35  36
ENDBRANCH  34  35
ENDBRANCH   1  34
TORSDOF 26
ENDMDL
MODEL 3
REMARK VINA RESULT:      -9.6      5.375     10.191
REMARK SMILES Cc1ccccc1OCC(=O)N[C@@H](Cc1c[nH]c2ccccc12)C(=O)OCCOCCOCCOCCOC(=O)c1ccc(-c2c3nc(c(-c4ccccc4)c4ccc([nH]4)c(-c4ccccc4)c4nc(c(-c5ccccc5)c5ccc2[nH]5)C=C4)C=C3)cc1
REMARK SMILES IDX 31 1 30 2 29 3 28 4 27 5 26 6 24 7 25 8 13 9 12 10 10 11
REMARK SMILES IDX 11 12 9 14 8 15 7 16 1 17 2 18 3 19 4 20 6 21 5 22 14 23
REMARK SMILES IDX 15 24 16 25 23 26 17 27 18 28 22 29 19 31 21 32 20 33 32 34
REMARK SMILES IDX 33 35 34 36 35 37 36 38 37 39 38 40 39 41 40 42 41 43 42 44
REMARK SMILES IDX 88 45 43 46 87 47 44 48 45 49 46 50 81 51 47 52 86 53 80 54
REMARK SMILES IDX 82 55 48 56 85 57 79 58 78 59 49 61 71 62 56 63 70 64 57 65
REMARK SMILES IDX 60 66 69 67 83 68 58 69 59 70 68 72 84 73 61 74 50 75 51 76
REMARK SMILES IDX 55 77 52 78 54 79 53 80 72 81 73 82 77 83 74 84 76 85 75 86
REMARK SMILES IDX 62 87 63 88 67 89 64 90 66 91 65 92
REMARK H PARENT 12 13 17 30 82 60 60 71
REMARK Flexibility Score: inf
ROOT
ATOM      1  C   UNL A   1      37.635  22.606  25.532  1.00  0.00     0.188 C 
ENDROOT
BRANCH   1   2
ATOM      2  C   UNL A   1      36.692  23.788  25.662  1.00  0.00     0.188 C 
BRANCH   2   3
ATOM      3  O   UNL A   1      35.306  23.476  25.583  1.00  0.00    -0.376 OA
BRANCH   3   4
ATOM      4  C   UNL A   1      35.040  22.537  24.536  1.00  0.00     0.202 C 
BRANCH   4   5
ATOM      5  C   UNL A   1      33.570  22.258  24.166  1.00  0.00     0.261 C 
BRANCH   5   6
ATOM      6  O   UNL A   1      32.684  23.386  24.237  1.00  0.00    -0.462 OA
BRANCH   6   7
ATOM      7  C   UNL A   1      32.896  24.386  23.348  1.00  0.00     0.329 C 
ATOM      8  O   UNL A   1      32.965  24.233  22.147  1.00  0.00    -0.250 OA
BRANCH   7   9
ATOM      9  C   UNL A   1      33.072  25.767  24.021  1.00  0.00     0.196 C 
BRANCH   9  10
ATOM     10  N   UNL A   1      33.464  26.903  23.190  1.00  0.00    -0.339 N 
ATOM     11  C   UNL A   1      33.770  28.169  23.602  1.00  0.00     0.258 C 
ATOM     12  O   UNL A   1      33.802  29.077  22.772  1.00  0.00    -0.271 OA
ATOM     13  H   UNL A   1      33.513  26.737  22.221  1.00  0.00     0.164 HD
BRANCH  11  14
ATOM     14  C   UNL A   1      34.136  28.411  25.091  1.00  0.00     0.329 C 
BRANCH  14  15
ATOM     15  O   UNL A   1      33.263  28.885  26.091  1.00  0.00    -0.484 OA
BRANCH  15  16
ATOM     16  C   UNL A   1      33.793  29.872  26.864  1.00  0.00     0.122 A 
ATOM     17  C   UNL A   1      31.773  31.445  26.678  1.00  0.00     0.048 C 
ATOM     18  C   UNL A   1      33.139  31.067  27.178  1.00  0.00    -0.009 A 
ATOM     19  C   UNL A   1      33.803  31.974  28.017  1.00  0.00     0.007 A 
ATOM     20  C   UNL A   1      35.093  31.712  28.486  1.00  0.00     0.001 A 
ATOM     21  C   UNL A   1      35.101  29.628  27.294  1.00  0.00     0.047 A 
ATOM     22  C   UNL A   1      35.748  30.541  28.116  1.00  0.00     0.004 A 
ENDBRANCH  15  16
ENDBRANCH  14  15
ENDBRANCH  11  14
ENDBRANCH   9  10
BRANCH   9  23
ATOM     23  C   UNL A   1      31.890  26.096  24.948  1.00  0.00     0.074 C 
BRANCH  23  24
ATOM     24  C   UNL A   1      30.551  26.364  24.310  1.00  0.00    -0.020 A 
ATOM     25  C   UNL A   1      29.570  25.428  24.064  1.00  0.00     0.087 A 
ATOM     26  C   UNL A   1      30.000  27.629  23.901  1.00  0.00     0.003 A 
ATOM     27  N   UNL A   1      28.456  26.057  23.585  1.00  0.00    -0.361 N 
ATOM     28  C   UNL A   1      28.682  27.407  23.491  1.00  0.00     0.046 A 
ATOM     29  C   UNL A   1      30.495  28.948  23.852  1.00  0.00     0.010 A 
ATOM     30  H   UNL A   1      27.615  25.606  23.342  1.00  0.00     0.166 HD
ATOM     31  C   UNL A   1      27.825  28.434  23.080  1.00  0.00     0.026 A 
ATOM     32  C   UNL A   1      29.658  29.986  23.422  1.00  0.00     0.001 A 
ATOM     33  C   UNL A   1      28.339  29.733  23.055  1.00  0.00     0.002 A 
ENDBRANCH  23  24
ENDBRANCH   9  23
ENDBRANCH   7   9
ENDBRANCH   6   7
ENDBRANCH   5   6
ENDBRANCH   4   5
ENDBRANCH   3   4
ENDBRANCH   2   3
ENDBRANCH   1   2
BRANCH   1  34
ATOM     34  O   UNL A   1      38.696  22.643  26.478  1.00  0.00    -0.377 OA
BRANCH  34  35
ATOM     35  C   UNL A   1      39.739  21.706  26.228  1.00  0.00     0.188 C 
BRANCH  35  36
ATOM     36  C   UNL A   1      40.787  21.784  27.325  1.00  0.00     0.188 C 
BRANCH  36  37
ATOM     37  O   UNL A   1      42.051  21.433  26.758  1.00  0.00    -0.376 OA
BRANCH  37  38
ATOM     38  C   UNL A   1      42.331  22.008  25.488  1.00  0.00     0.202 C 
BRANCH  38  39
ATOM     39  C   UNL A   1      43.659  22.762  25.489  1.00  0.00     0.261 C 
BRANCH  39  40
ATOM     40  O   UNL A   1      44.419  22.335  26.641  1.00  0.00    -0.460 OA
BRANCH  40  41
ATOM     41  C   UNL A   1      45.467  23.138  26.956  1.00  0.00     0.338 C 
ATOM     42  O   UNL A   1      46.519  23.199  26.332  1.00  0.00    -0.246 OA
BRANCH  41  43
ATOM     43  C   UNL A   1      45.282  23.737  28.310  1.00  0.00     0.060 A 
ATOM     44  C   UNL A   1      44.045  23.579  28.959  1.00  0.00     0.016 A 
ATOM     45  C   UNL A   1      46.175  24.707  28.760  1.00  0.00     0.016 A 
ATOM     46  C   UNL A   1      43.640  24.496  29.938  1.00  0.00     0.010 A 
ATOM     47  C   UNL A   1      45.724  25.678  29.637  1.00  0.00     0.010 A 
ATOM     48  C   UNL A   1      44.441  25.609  30.203  1.00  0.00    -0.014 A 
BRANCH  48  49
ATOM     49  C   UNL A   1      43.960  26.858  30.818  1.00  0.00     0.031 A 
ATOM     50  C   UNL A   1      44.277  27.204  32.242  1.00  0.00     0.074 A 
ATOM     51  C   UNL A   1      43.582  27.841  29.966  1.00  0.00     0.049 A 
ATOM     52  N   UNL A   1      43.866  28.265  32.864  1.00  0.00    -0.248 NA
ATOM     53  C   UNL A   1      45.058  26.331  33.119  1.00  0.00     0.031 C 
ATOM     54  C   UNL A   1      43.715  29.268  30.196  1.00  0.00     0.029 A 
ATOM     55  N   UNL A   1      43.018  27.799  28.698  1.00  0.00    -0.354 N 
ATOM     56  C   UNL A   1      44.560  28.369  34.055  1.00  0.00     0.074 A 
ATOM     57  C   UNL A   1      45.197  27.086  34.214  1.00  0.00     0.031 C 
ATOM     58  C   UNL A   1      43.146  29.968  29.213  1.00  0.00     0.029 A 
ATOM     59  C   UNL A   1      42.377  29.022  28.458  1.00  0.00     0.049 A 
ATOM     60  H   UNL A   1      43.063  27.039  28.073  1.00  0.00     0.167 HD
ATOM     61  C   UNL A   1      44.634  29.569  34.710  1.00  0.00     0.031 A 
ATOM     62  C   UNL A   1      41.034  29.138  28.262  1.00  0.00     0.031 A 
ATOM     63  C   UNL A   1      43.710  30.588  34.166  1.00  0.00     0.049 A 
ATOM     64  C   UNL A   1      40.356  29.866  29.418  1.00  0.00     0.074 A 
ATOM     65  C   UNL A   1      43.821  31.936  33.864  1.00  0.00     0.029 A 
ATOM     66  N   UNL A   1      42.440  30.210  33.710  1.00  0.00    -0.354 N 
ATOM     67  N   UNL A   1      40.936  30.118  30.573  1.00  0.00    -0.248 NA
ATOM     68  C   UNL A   1      39.000  30.408  29.374  1.00  0.00     0.031 C 
ATOM     69  C   UNL A   1      42.638  32.342  33.198  1.00  0.00     0.029 A 
ATOM     70  C   UNL A   1      41.797  31.247  33.073  1.00  0.00     0.049 A 
ATOM     71  H   UNL A   1      42.056  29.312  33.830  1.00  0.00     0.167 HD
ATOM     72  C   UNL A   1      40.080  30.784  31.407  1.00  0.00     0.074 A 
ATOM     73  C   UNL A   1      38.884  30.958  30.598  1.00  0.00     0.031 C 
ATOM     74  C   UNL A   1      40.391  31.140  32.692  1.00  0.00     0.031 A 
BRANCH  61  75
ATOM     75  C   UNL A   1      45.718  29.917  35.746  1.00  0.00    -0.014 A 
ATOM     76  C   UNL A   1      46.952  30.462  35.330  1.00  0.00     0.009 A 
ATOM     77  C   UNL A   1      45.644  29.626  37.123  1.00  0.00     0.009 A 
ATOM     78  C   UNL A   1      48.042  30.644  36.203  1.00  0.00     0.001 A 
ATOM     79  C   UNL A   1      46.709  29.858  38.015  1.00  0.00     0.001 A 
ATOM     80  C   UNL A   1      47.919  30.347  37.551  1.00  0.00     0.000 A 
ENDBRANCH  61  75
BRANCH  62  81
ATOM     81  C   UNL A   1      40.544  28.117  27.283  1.00  0.00    -0.014 A 
ATOM     82  C   UNL A   1      41.326  28.074  26.103  1.00  0.00     0.009 A 
ATOM     83  C   UNL A   1      39.978  26.914  27.742  1.00  0.00     0.009 A 
ATOM     84  C   UNL A   1      41.792  26.854  25.603  1.00  0.00     0.001 A 
ATOM     85  C   UNL A   1      40.426  25.690  27.209  1.00  0.00     0.001 A 
ATOM     86  C   UNL A   1      41.386  25.663  26.194  1.00  0.00     0.000 A 
ENDBRANCH  62  81
BRANCH  74  87
ATOM     87  C   UNL A   1      39.384  31.482  33.772  1.00  0.00    -0.014 A 
ATOM     88  C   UNL A   1      39.085  30.652  34.858  1.00  0.00     0.009 A 
ATOM     89  C   UNL A   1      38.839  32.790  33.819  1.00  0.00     0.009 A 
ATOM     90  C   UNL A   1      38.255  31.084  35.901  1.00  0.00     0.001 A 
ATOM     91  C   UNL A   1      38.046  33.240  34.874  1.00  0.00     0.001 A 
ATOM     92  C   UNL A   1      37.744  32.378  35.915  1.00  0.00     0.000 A 
ENDBRANCH  74  87
ENDBRANCH  48  49
ENDBRANCH  41  43
ENDBRANCH  40  41
ENDBRANCH  39  40
ENDBRANCH  38  39
ENDBRANCH  37  38
ENDBRANCH  36  37
ENDBRANCH  35  36
ENDBRANCH  34  35
ENDBRANCH   1  34
TORSDOF 26
ENDMDL
