MODEL 1
REMARK VINA RESULT:      -9.1      0.000      0.000
REMARK SMILES CC(C)(C)c1cc2c(cc1Cl)C=C(C(=O)OCCOCCOCCOCCOC(=O)c1ccc(-c3c4nc(c(-c5ccccc5)c5ccc([nH]5)c(-c5ccccc5)c5nc(c(-c6ccccc6)c6ccc3[nH]6)C=C5)C=C4)cc1)[C@@H](C(F)(F)F)O2
REMARK SMILES IDX 23 1 22 2 21 3 20 4 19 5 18 6 17 7 16 8 14 9 15 10 13 11
REMARK SMILES IDX 5 12 6 13 10 14 7 15 9 16 11 17 8 18 84 19 12 20 79 21 2 22
REMARK SMILES IDX 1 23 3 24 4 25 80 26 81 27 82 28 83 29 24 30 25 31 26 32
REMARK SMILES IDX 27 33 28 34 29 35 30 36 31 37 32 38 78 39 33 40 77 41 34 42
REMARK SMILES IDX 35 43 36 44 71 45 37 46 76 47 70 48 72 49 38 50 75 51 69 52
REMARK SMILES IDX 68 53 39 55 61 56 46 57 60 58 47 59 50 60 59 61 73 62 48 63
REMARK SMILES IDX 49 64 58 66 74 67 51 68 40 69 41 70 45 71 42 72 44 73 43 74
REMARK SMILES IDX 62 75 63 76 67 77 64 78 66 79 65 80 52 81 53 82 57 83 54 84
REMARK SMILES IDX 56 85 55 86
REMARK H PARENT 72 54 50 65
REMARK Flexibility Score: inf
ROOT
ATOM      1  C   UNL A   1      35.059  34.053  29.684  1.00  0.00     0.188 C 
ENDROOT
BRANCH   1   2
ATOM      2  O   UNL A   1      33.796  33.483  29.340  1.00  0.00    -0.377 OA
BRANCH   2   3
ATOM      3  C   UNL A   1      33.677  32.867  28.067  1.00  0.00     0.188 C 
BRANCH   3   4
ATOM      4  C   UNL A   1      32.517  33.438  27.231  1.00  0.00     0.188 C 
BRANCH   4   5
ATOM      5  O   UNL A   1      31.375  32.582  27.204  1.00  0.00    -0.376 OA
BRANCH   5   6
ATOM      6  C   UNL A   1      31.402  31.492  26.289  1.00  0.00     0.202 C 
BRANCH   6   7
ATOM      7  C   UNL A   1      32.021  30.177  26.787  1.00  0.00     0.261 C 
BRANCH   7   8
ATOM      8  O   UNL A   1      31.767  29.033  25.957  1.00  0.00    -0.460 OA
BRANCH   8   9
ATOM      9  C   UNL A   1      32.769  28.606  25.164  1.00  0.00     0.338 C 
ATOM     10  O   UNL A   1      33.724  29.256  24.777  1.00  0.00    -0.246 OA
BRANCH   9  11
ATOM     11  C   UNL A   1      32.605  27.148  24.975  1.00  0.00     0.087 C 
ATOM     12  C   UNL A   1      33.049  22.117  25.175  1.00  0.00    -0.020 A 
ATOM     13  C   UNL A   1      32.372  23.043  24.349  1.00  0.00     0.053 A 
ATOM     14  C   UNL A   1      33.593  22.642  26.370  1.00  0.00     0.045 A 
ATOM     15  C   UNL A   1      32.362  24.418  24.611  1.00  0.00     0.128 A 
ATOM     16  C   UNL A   1      33.593  24.025  26.624  1.00  0.00     0.032 A 
ATOM     17  Cl  UNL A   1      34.303  21.682  27.622  1.00  0.00    -0.084 Cl
ATOM     18  C   UNL A   1      33.030  24.918  25.718  1.00  0.00     0.019 A 
ATOM     19  O   UNL A   1      31.705  25.195  23.702  1.00  0.00    -0.475 OA
ATOM     20  C   UNL A   1      33.185  26.352  25.883  1.00  0.00     0.027 C 
ATOM     21  C   UNL A   1      31.741  26.642  23.848  1.00  0.00     0.316 C 
BRANCH  12  22
ATOM     22  C   UNL A   1      33.213  20.648  24.708  1.00  0.00    -0.012 C 
ATOM     23  C   UNL A   1      34.697  20.235  24.672  1.00  0.00     0.016 C 
ATOM     24  C   UNL A   1      32.559  20.435  23.321  1.00  0.00     0.016 C 
ATOM     25  C   UNL A   1      32.502  19.624  25.639  1.00  0.00     0.016 C 
ENDBRANCH  12  22
BRANCH  21  26
ATOM     26  C   UNL A   1      32.138  27.234  22.486  1.00  0.00     0.430 C 
ATOM     27  F   UNL A   1      31.619  28.475  22.323  1.00  0.00    -0.167 F 
ATOM     28  F   UNL A   1      33.478  27.357  22.350  1.00  0.00    -0.167 F 
ATOM     29  F   UNL A   1      31.696  26.472  21.460  1.00  0.00    -0.167 F 
ENDBRANCH  21  26
ENDBRANCH   9  11
ENDBRANCH   8   9
ENDBRANCH   7   8
ENDBRANCH   6   7
ENDBRANCH   5   6
ENDBRANCH   4   5
ENDBRANCH   3   4
ENDBRANCH   2   3
ENDBRANCH   1   2
BRANCH   1  30
ATOM     30  C   UNL A   1      35.526  34.188  31.152  1.00  0.00     0.188 C 
BRANCH  30  31
ATOM     31  O   UNL A   1      34.839  33.329  32.059  1.00  0.00    -0.376 OA
BRANCH  31  32
ATOM     32  C   UNL A   1      35.575  32.862  33.180  1.00  0.00     0.202 C 
BRANCH  32  33
ATOM     33  C   UNL A   1      36.441  31.633  32.881  1.00  0.00     0.261 C 
BRANCH  33  34
ATOM     34  O   UNL A   1      36.810  31.471  31.502  1.00  0.00    -0.460 OA
BRANCH  34  35
ATOM     35  C   UNL A   1      36.814  30.219  30.994  1.00  0.00     0.338 C 
ATOM     36  O   UNL A   1      35.854  29.492  30.808  1.00  0.00    -0.246 OA
BRANCH  35  37
ATOM     37  C   UNL A   1      38.183  29.949  30.507  1.00  0.00     0.060 A 
ATOM     38  C   UNL A   1      39.215  29.695  31.414  1.00  0.00     0.016 A 
ATOM     39  C   UNL A   1      38.441  29.993  29.131  1.00  0.00     0.016 A 
ATOM     40  C   UNL A   1      40.503  29.451  30.939  1.00  0.00     0.010 A 
ATOM     41  C   UNL A   1      39.734  29.756  28.658  1.00  0.00     0.010 A 
ATOM     42  C   UNL A   1      40.767  29.458  29.558  1.00  0.00    -0.014 A 
BRANCH  42  43
ATOM     43  C   UNL A   1      42.070  28.949  29.067  1.00  0.00     0.031 A 
ATOM     44  C   UNL A   1      42.266  27.531  28.632  1.00  0.00     0.074 A 
ATOM     45  C   UNL A   1      43.093  29.824  29.010  1.00  0.00     0.049 A 
ATOM     46  N   UNL A   1      43.322  26.988  28.083  1.00  0.00    -0.248 NA
ATOM     47  C   UNL A   1      41.145  26.601  28.837  1.00  0.00     0.031 C 
ATOM     48  C   UNL A   1      43.017  31.226  29.426  1.00  0.00     0.029 A 
ATOM     49  N   UNL A   1      44.383  29.673  28.571  1.00  0.00    -0.354 N 
ATOM     50  C   UNL A   1      42.993  25.659  27.854  1.00  0.00     0.074 A 
ATOM     51  C   UNL A   1      41.650  25.467  28.363  1.00  0.00     0.031 C 
ATOM     52  C   UNL A   1      44.200  31.814  29.199  1.00  0.00     0.029 A 
ATOM     53  C   UNL A   1      45.123  30.827  28.647  1.00  0.00     0.049 A 
ATOM     54  H   UNL A   1      44.744  28.821  28.235  1.00  0.00     0.167 HD
ATOM     55  C   UNL A   1      43.741  24.701  27.257  1.00  0.00     0.031 A 
ATOM     56  C   UNL A   1      46.402  31.075  28.305  1.00  0.00     0.031 A 
ATOM     57  C   UNL A   1      45.086  24.899  26.775  1.00  0.00     0.049 A 
ATOM     58  C   UNL A   1      47.221  29.979  27.686  1.00  0.00     0.074 A 
ATOM     59  C   UNL A   1      45.901  23.992  26.118  1.00  0.00     0.029 A 
ATOM     60  N   UNL A   1      45.816  26.070  26.906  1.00  0.00    -0.354 N 
ATOM     61  N   UNL A   1      46.865  28.751  27.395  1.00  0.00    -0.248 NA
ATOM     62  C   UNL A   1      48.610  30.304  27.331  1.00  0.00     0.031 C 
ATOM     63  C   UNL A   1      47.147  24.589  25.916  1.00  0.00     0.029 A 
ATOM     64  C   UNL A   1      47.085  25.894  26.375  1.00  0.00     0.049 A 
ATOM     65  H   UNL A   1      45.485  26.901  27.314  1.00  0.00     0.167 HD
ATOM     66  C   UNL A   1      47.974  28.165  26.803  1.00  0.00     0.074 A 
ATOM     67  C   UNL A   1      49.011  29.176  26.759  1.00  0.00     0.031 C 
ATOM     68  C   UNL A   1      48.116  26.901  26.337  1.00  0.00     0.031 A 
BRANCH  55  69
ATOM     69  C   UNL A   1      43.139  23.336  27.065  1.00  0.00    -0.014 A 
ATOM     70  C   UNL A   1      42.548  22.996  25.837  1.00  0.00     0.009 A 
ATOM     71  C   UNL A   1      43.017  22.448  28.145  1.00  0.00     0.009 A 
ATOM     72  C   UNL A   1      41.826  21.808  25.702  1.00  0.00     0.001 A 
ATOM     73  C   UNL A   1      42.316  21.248  27.999  1.00  0.00     0.001 A 
ATOM     74  C   UNL A   1      41.711  20.935  26.782  1.00  0.00     0.000 A 
ENDBRANCH  55  69
BRANCH  56  75
ATOM     75  C   UNL A   1      46.958  32.437  28.510  1.00  0.00    -0.014 A 
ATOM     76  C   UNL A   1      47.137  33.305  27.419  1.00  0.00     0.009 A 
ATOM     77  C   UNL A   1      47.367  32.856  29.784  1.00  0.00     0.009 A 
ATOM     78  C   UNL A   1      47.733  34.555  27.597  1.00  0.00     0.001 A 
ATOM     79  C   UNL A   1      47.934  34.121  29.963  1.00  0.00     0.001 A 
ATOM     80  C   UNL A   1      48.125  34.964  28.869  1.00  0.00     0.000 A 
ENDBRANCH  56  75
BRANCH  68  81
ATOM     81  C   UNL A   1      49.435  26.518  25.725  1.00  0.00    -0.014 A 
ATOM     82  C   UNL A   1      50.385  25.824  26.493  1.00  0.00     0.009 A 
ATOM     83  C   UNL A   1      49.781  26.933  24.430  1.00  0.00     0.009 A 
ATOM     84  C   UNL A   1      51.661  25.572  25.986  1.00  0.00     0.001 A 
ATOM     85  C   UNL A   1      51.049  26.652  23.914  1.00  0.00     0.001 A 
ATOM     86  C   UNL A   1      51.990  25.983  24.695  1.00  0.00     0.000 A 
ENDBRANCH  68  81
ENDBRANCH  42  43
ENDBRANCH  35  37
ENDBRANCH  34  35
ENDBRANCH  33  34
ENDBRANCH  32  33
ENDBRANCH  31  32
ENDBRANCH  30  31
ENDBRANCH   1  30
TORSDOF 22
ENDMDL
MODEL 2
REMARK VINA RESULT:      -9.0      2.772      6.813
REMARK SMILES CC(C)(C)c1cc2c(cc1Cl)C=C(C(=O)OCCOCCOCCOCCOC(=O)c1ccc(-c3c4nc(c(-c5ccccc5)c5ccc([nH]5)c(-c5ccccc5)c5nc(c(-c6ccccc6)c6ccc3[nH]6)C=C5)C=C4)cc1)[C@@H](C(F)(F)F)O2
REMARK SMILES IDX 23 1 22 2 21 3 20 4 19 5 18 6 17 7 16 8 14 9 15 10 13 11
REMARK SMILES IDX 5 12 6 13 10 14 7 15 9 16 11 17 8 18 84 19 12 20 79 21 2 22
REMARK SMILES IDX 1 23 3 24 4 25 80 26 81 27 82 28 83 29 24 30 25 31 26 32
REMARK SMILES IDX 27 33 28 34 29 35 30 36 31 37 32 38 78 39 33 40 77 41 34 42
REMARK SMILES IDX 35 43 36 44 71 45 37 46 76 47 70 48 72 49 38 50 75 51 69 52
REMARK SMILES IDX 68 53 39 55 61 56 46 57 60 58 47 59 50 60 59 61 73 62 48 63
REMARK SMILES IDX 49 64 58 66 74 67 51 68 40 69 41 70 45 71 42 72 44 73 43 74
REMARK SMILES IDX 62 75 63 76 67 77 64 78 66 79 65 80 52 81 53 82 57 83 54 84
REMARK SMILES IDX 56 85 55 86
REMARK H PARENT 72 54 50 65
REMARK Flexibility Score: inf
ROOT
ATOM      1  C   UNL A   1      37.856  30.356  28.865  1.00  0.00     0.188 C 
ENDROOT
BRANCH   1   2
ATOM      2  O   UNL A   1      36.441  30.419  28.681  1.00  0.00    -0.377 OA
BRANCH   2   3
ATOM      3  C   UNL A   1      35.818  29.342  27.999  1.00  0.00     0.188 C 
BRANCH   3   4
ATOM      4  C   UNL A   1      34.893  29.808  26.860  1.00  0.00     0.188 C 
BRANCH   4   5
ATOM      5  O   UNL A   1      34.014  30.862  27.250  1.00  0.00    -0.376 OA
BRANCH   5   6
ATOM      6  C   UNL A   1      32.617  30.624  27.126  1.00  0.00     0.202 C 
BRANCH   6   7
ATOM      7  C   UNL A   1      32.107  30.160  25.753  1.00  0.00     0.261 C 
BRANCH   7   8
ATOM      8  O   UNL A   1      31.266  28.996  25.778  1.00  0.00    -0.460 OA
BRANCH   8   9
ATOM      9  C   UNL A   1      30.945  28.435  24.596  1.00  0.00     0.338 C 
ATOM     10  O   UNL A   1      30.136  28.849  23.785  1.00  0.00    -0.246 OA
BRANCH   9  11
ATOM     11  C   UNL A   1      31.874  27.307  24.365  1.00  0.00     0.087 C 
ATOM     12  C   UNL A   1      34.988  23.359  24.883  1.00  0.00    -0.020 A 
ATOM     13  C   UNL A   1      34.657  24.260  23.844  1.00  0.00     0.053 A 
ATOM     14  C   UNL A   1      34.141  23.388  26.014  1.00  0.00     0.045 A 
ATOM     15  C   UNL A   1      33.650  25.224  23.978  1.00  0.00     0.128 A 
ATOM     16  C   UNL A   1      33.139  24.364  26.151  1.00  0.00     0.032 A 
ATOM     17  Cl  UNL A   1      34.230  22.263  27.327  1.00  0.00    -0.084 Cl
ATOM     18  C   UNL A   1      32.933  25.319  25.159  1.00  0.00     0.019 A 
ATOM     19  O   UNL A   1      33.473  26.054  22.909  1.00  0.00    -0.475 OA
ATOM     20  C   UNL A   1      32.029  26.436  25.370  1.00  0.00     0.027 C 
ATOM     21  C   UNL A   1      32.519  27.148  23.011  1.00  0.00     0.316 C 
BRANCH  12  22
ATOM     22  C   UNL A   1      36.256  22.476  24.757  1.00  0.00    -0.012 C 
ATOM     23  C   UNL A   1      36.899  22.617  23.364  1.00  0.00     0.016 C 
ATOM     24  C   UNL A   1      35.924  20.992  25.052  1.00  0.00     0.016 C 
ATOM     25  C   UNL A   1      37.364  22.842  25.786  1.00  0.00     0.016 C 
ENDBRANCH  12  22
BRANCH  21  26
ATOM     26  C   UNL A   1      33.231  28.426  22.541  1.00  0.00     0.430 C 
ATOM     27  F   UNL A   1      34.075  28.166  21.513  1.00  0.00    -0.167 F 
ATOM     28  F   UNL A   1      32.363  29.365  22.098  1.00  0.00    -0.167 F 
ATOM     29  F   UNL A   1      33.961  28.987  23.532  1.00  0.00    -0.167 F 
ENDBRANCH  21  26
ENDBRANCH   9  11
ENDBRANCH   8   9
ENDBRANCH   7   8
ENDBRANCH   6   7
ENDBRANCH   5   6
ENDBRANCH   4   5
ENDBRANCH   3   4
ENDBRANCH   2   3
ENDBRANCH   1   2
BRANCH   1  30
ATOM     30  C   UNL A   1      38.490  29.797  30.160  1.00  0.00     0.188 C 
BRANCH  30  31
ATOM     31  O   UNL A   1      38.609  28.376  30.179  1.00  0.00    -0.376 OA
BRANCH  31  32
ATOM     32  C   UNL A   1      39.849  27.831  29.750  1.00  0.00     0.202 C 
BRANCH  32  33
ATOM     33  C   UNL A   1      39.736  26.955  28.497  1.00  0.00     0.261 C 
BRANCH  33  34
ATOM     34  O   UNL A   1      40.032  25.564  28.700  1.00  0.00    -0.460 OA
BRANCH  34  35
ATOM     35  C   UNL A   1      40.791  24.940  27.772  1.00  0.00     0.338 C 
ATOM     36  O   UNL A   1      40.500  23.954  27.119  1.00  0.00    -0.246 OA
BRANCH  35  37
ATOM     37  C   UNL A   1      41.978  25.788  27.535  1.00  0.00     0.060 A 
ATOM     38  C   UNL A   1      42.216  26.327  26.268  1.00  0.00     0.016 A 
ATOM     39  C   UNL A   1      42.881  26.010  28.582  1.00  0.00     0.016 A 
ATOM     40  C   UNL A   1      43.345  27.119  26.058  1.00  0.00     0.010 A 
ATOM     41  C   UNL A   1      44.015  26.797  28.368  1.00  0.00     0.010 A 
ATOM     42  C   UNL A   1      44.240  27.377  27.111  1.00  0.00    -0.014 A 
BRANCH  42  43
ATOM     43  C   UNL A   1      45.282  28.417  26.938  1.00  0.00     0.031 A 
ATOM     44  C   UNL A   1      44.972  29.880  26.986  1.00  0.00     0.074 A 
ATOM     45  C   UNL A   1      46.547  27.997  26.744  1.00  0.00     0.049 A 
ATOM     46  N   UNL A   1      45.806  30.889  26.956  1.00  0.00    -0.248 NA
ATOM     47  C   UNL A   1      43.557  30.268  27.075  1.00  0.00     0.031 C 
ATOM     48  C   UNL A   1      46.958  26.593  26.662  1.00  0.00     0.029 A 
ATOM     49  N   UNL A   1      47.716  28.698  26.595  1.00  0.00    -0.354 N 
ATOM     50  C   UNL A   1      45.025  32.032  27.046  1.00  0.00     0.074 A 
ATOM     51  C   UNL A   1      43.645  31.594  27.088  1.00  0.00     0.031 C 
ATOM     52  C   UNL A   1      48.288  26.536  26.504  1.00  0.00     0.029 A 
ATOM     53  C   UNL A   1      48.819  27.894  26.447  1.00  0.00     0.049 A 
ATOM     54  H   UNL A   1      47.760  29.682  26.594  1.00  0.00     0.167 HD
ATOM     55  C   UNL A   1      45.431  33.322  27.104  1.00  0.00     0.031 A 
ATOM     56  C   UNL A   1      50.120  28.208  26.291  1.00  0.00     0.031 A 
ATOM     57  C   UNL A   1      46.808  33.748  27.037  1.00  0.00     0.049 A 
ATOM     58  C   UNL A   1      50.535  29.650  26.315  1.00  0.00     0.074 A 
ATOM     59  C   UNL A   1      47.312  35.034  27.133  1.00  0.00     0.029 A 
ATOM     60  N   UNL A   1      47.894  32.907  26.847  1.00  0.00    -0.354 N 
ATOM     61  N   UNL A   1      49.792  30.716  26.490  1.00  0.00    -0.248 NA
ATOM     62  C   UNL A   1      51.966  29.935  26.141  1.00  0.00     0.031 C 
ATOM     63  C   UNL A   1      48.692  34.981  26.930  1.00  0.00     0.029 A 
ATOM     64  C   UNL A   1      49.061  33.654  26.785  1.00  0.00     0.049 A 
ATOM     65  H   UNL A   1      47.846  31.928  26.768  1.00  0.00     0.167 HD
ATOM     66  C   UNL A   1      50.665  31.794  26.470  1.00  0.00     0.074 A 
ATOM     67  C   UNL A   1      51.996  31.254  26.284  1.00  0.00     0.031 C 
ATOM     68  C   UNL A   1      50.383  33.114  26.596  1.00  0.00     0.031 A 
BRANCH  55  69
ATOM     69  C   UNL A   1      44.390  34.397  27.262  1.00  0.00    -0.014 A 
ATOM     70  C   UNL A   1      43.887  34.704  28.537  1.00  0.00     0.009 A 
ATOM     71  C   UNL A   1      43.798  34.991  26.138  1.00  0.00     0.009 A 
ATOM     72  C   UNL A   1      42.795  35.563  28.680  1.00  0.00     0.001 A 
ATOM     73  C   UNL A   1      42.722  35.871  26.287  1.00  0.00     0.001 A 
ATOM     74  C   UNL A   1      42.214  36.146  27.556  1.00  0.00     0.000 A 
ENDBRANCH  55  69
BRANCH  56  75
ATOM     75  C   UNL A   1      51.116  27.117  26.139  1.00  0.00    -0.014 A 
ATOM     76  C   UNL A   1      51.440  26.620  24.864  1.00  0.00     0.009 A 
ATOM     77  C   UNL A   1      51.707  26.527  27.265  1.00  0.00     0.009 A 
ATOM     78  C   UNL A   1      52.316  25.543  24.723  1.00  0.00     0.001 A 
ATOM     79  C   UNL A   1      52.608  25.469  27.119  1.00  0.00     0.001 A 
ATOM     80  C   UNL A   1      52.903  24.972  25.850  1.00  0.00     0.000 A 
ENDBRANCH  56  75
BRANCH  68  81
ATOM     81  C   UNL A   1      51.529  34.087  26.548  1.00  0.00    -0.014 A 
ATOM     82  C   UNL A   1      51.966  34.590  25.311  1.00  0.00     0.009 A 
ATOM     83  C   UNL A   1      52.243  34.425  27.708  1.00  0.00     0.009 A 
ATOM     84  C   UNL A   1      53.105  35.393  25.233  1.00  0.00     0.001 A 
ATOM     85  C   UNL A   1      53.364  35.254  27.631  1.00  0.00     0.001 A 
ATOM     86  C   UNL A   1      53.801  35.727  26.394  1.00  0.00     0.000 A 
ENDBRANCH  68  81
ENDBRANCH  42  43
ENDBRANCH  35  37
ENDBRANCH  34  35
ENDBRANCH  33  34
ENDBRANCH  32  33
ENDBRANCH  31  32
ENDBRANCH  30  31
ENDBRANCH   1  30
TORSDOF 22
ENDMDL
MODEL 3
REMARK VINA RESULT:      -8.9      4.860     10.625
REMARK SMILES CC(C)(C)c1cc2c(cc1Cl)C=C(C(=O)OCCOCCOCCOCCOC(=O)c1ccc(-c3c4nc(c(-c5ccccc5)c5ccc([nH]5)c(-c5ccccc5)c5nc(c(-c6ccccc6)c6ccc3[nH]6)C=C5)C=C4)cc1)[C@@H](C(F)(F)F)O2
REMARK SMILES IDX 23 1 22 2 21 3 20 4 19 5 18 6 17 7 16 8 14 9 15 10 13 11
REMARK SMILES IDX 5 12 6 13 10 14 7 15 9 16 11 17 8 18 84 19 12 20 79 21 2 22
REMARK SMILES IDX 1 23 3 24 4 25 80 26 81 27 82 28 83 29 24 30 25 31 26 32
REMARK SMILES IDX 27 33 28 34 29 35 30 36 31 37 32 38 78 39 33 40 77 41 34 42
REMARK SMILES IDX 35 43 36 44 71 45 37 46 76 47 70 48 72 49 38 50 75 51 69 52
REMARK SMILES IDX 68 53 39 55 61 56 46 57 60 58 47 59 50 60 59 61 73 62 48 63
REMARK SMILES IDX 49 64 58 66 74 67 51 68 40 69 41 70 45 71 42 72 44 73 43 74
REMARK SMILES IDX 62 75 63 76 67 77 64 78 66 79 65 80 52 81 53 82 57 83 54 84
REMARK SMILES IDX 56 85 55 86
REMARK H PARENT 72 54 50 65
REMARK Flexibility Score: inf
ROOT
ATOM      1  C   UNL A   1      42.507  22.970  27.605  1.00  0.00     0.188 C 
ENDROOT
BRANCH   1   2
ATOM      2  O   UNL A   1      41.280  23.696  27.523  1.00  0.00    -0.377 OA
BRANCH   2   3
ATOM      3  C   UNL A   1      40.077  22.947  27.456  1.00  0.00     0.188 C 
BRANCH   3   4
ATOM      4  C   UNL A   1      39.095  23.483  26.398  1.00  0.00     0.188 C 
BRANCH   4   5
ATOM      5  O   UNL A   1      37.943  22.656  26.236  1.00  0.00    -0.376 OA
BRANCH   5   6
ATOM      6  C   UNL A   1      38.110  21.446  25.506  1.00  0.00     0.202 C 
BRANCH   6   7
ATOM      7  C   UNL A   1      36.837  20.771  24.973  1.00  0.00     0.261 C 
BRANCH   7   8
ATOM      8  O   UNL A   1      35.915  21.651  24.310  1.00  0.00    -0.460 OA
BRANCH   8   9
ATOM      9  C   UNL A   1      34.599  21.419  24.484  1.00  0.00     0.338 C 
ATOM     10  O   UNL A   1      34.037  20.339  24.456  1.00  0.00    -0.246 OA
BRANCH   9  11
ATOM     11  C   UNL A   1      33.966  22.692  24.889  1.00  0.00     0.087 C 
ATOM     12  C   UNL A   1      32.734  27.556  25.503  1.00  0.00    -0.020 A 
ATOM     13  C   UNL A   1      32.398  26.337  26.137  1.00  0.00     0.053 A 
ATOM     14  C   UNL A   1      33.419  27.440  24.272  1.00  0.00     0.045 A 
ATOM     15  C   UNL A   1      32.841  25.096  25.662  1.00  0.00     0.128 A 
ATOM     16  C   UNL A   1      33.873  26.195  23.805  1.00  0.00     0.032 A 
ATOM     17  Cl  UNL A   1      33.774  28.772  23.225  1.00  0.00    -0.084 Cl
ATOM     18  C   UNL A   1      33.635  25.030  24.529  1.00  0.00     0.019 A 
ATOM     19  O   UNL A   1      32.476  24.010  26.402  1.00  0.00    -0.475 OA
ATOM     20  C   UNL A   1      34.252  23.772  24.150  1.00  0.00     0.027 C 
ATOM     21  C   UNL A   1      32.984  22.697  26.034  1.00  0.00     0.316 C 
BRANCH  12  22
ATOM     22  C   UNL A   1      32.407  28.900  26.202  1.00  0.00    -0.012 C 
ATOM     23  C   UNL A   1      33.676  29.752  26.397  1.00  0.00     0.016 C 
ATOM     24  C   UNL A   1      31.705  28.657  27.561  1.00  0.00     0.016 C 
ATOM     25  C   UNL A   1      31.411  29.784  25.399  1.00  0.00     0.016 C 
ENDBRANCH  12  22
BRANCH  21  26
ATOM     26  C   UNL A   1      33.555  22.049  27.305  1.00  0.00     0.430 C 
ATOM     27  F   UNL A   1      34.858  22.379  27.480  1.00  0.00    -0.167 F 
ATOM     28  F   UNL A   1      32.904  22.448  28.422  1.00  0.00    -0.167 F 
ATOM     29  F   UNL A   1      33.482  20.699  27.256  1.00  0.00    -0.167 F 
ENDBRANCH  21  26
ENDBRANCH   9  11
ENDBRANCH   8   9
ENDBRANCH   7   8
ENDBRANCH   6   7
ENDBRANCH   5   6
ENDBRANCH   4   5
ENDBRANCH   3   4
ENDBRANCH   2   3
ENDBRANCH   1   2
BRANCH   1  30
ATOM     30  C   UNL A   1      42.959  21.996  26.493  1.00  0.00     0.188 C 
BRANCH  30  31
ATOM     31  O   UNL A   1      44.126  22.420  25.791  1.00  0.00    -0.376 OA
BRANCH  31  32
ATOM     32  C   UNL A   1      45.373  22.211  26.436  1.00  0.00     0.202 C 
BRANCH  32  33
ATOM     33  C   UNL A   1      45.967  23.482  27.054  1.00  0.00     0.261 C 
BRANCH  33  34
ATOM     34  O   UNL A   1      46.423  24.462  26.107  1.00  0.00    -0.460 OA
BRANCH  34  35
ATOM     35  C   UNL A   1      45.493  25.236  25.504  1.00  0.00     0.338 C 
ATOM     36  O   UNL A   1      44.951  25.041  24.432  1.00  0.00    -0.246 OA
BRANCH  35  37
ATOM     37  C   UNL A   1      45.093  26.274  26.476  1.00  0.00     0.060 A 
ATOM     38  C   UNL A   1      43.748  26.628  26.615  1.00  0.00     0.016 A 
ATOM     39  C   UNL A   1      46.079  26.928  27.225  1.00  0.00     0.016 A 
ATOM     40  C   UNL A   1      43.387  27.616  27.530  1.00  0.00     0.010 A 
ATOM     41  C   UNL A   1      45.716  27.923  28.137  1.00  0.00     0.010 A 
ATOM     42  C   UNL A   1      44.365  28.254  28.313  1.00  0.00    -0.014 A 
BRANCH  42  43
ATOM     43  C   UNL A   1      43.942  29.107  29.448  1.00  0.00     0.031 A 
ATOM     44  C   UNL A   1      43.743  30.584  29.314  1.00  0.00     0.074 A 
ATOM     45  C   UNL A   1      43.725  28.499  30.631  1.00  0.00     0.049 A 
ATOM     46  N   UNL A   1      43.274  31.426  30.200  1.00  0.00    -0.248 NA
ATOM     47  C   UNL A   1      44.117  31.202  28.033  1.00  0.00     0.031 C 
ATOM     48  C   UNL A   1      43.906  27.067  30.878  1.00  0.00     0.029 A 
ATOM     49  N   UNL A   1      43.296  28.996  31.834  1.00  0.00    -0.354 N 
ATOM     50  C   UNL A   1      43.271  32.669  29.582  1.00  0.00     0.074 A 
ATOM     51  C   UNL A   1      43.828  32.479  28.258  1.00  0.00     0.031 C 
ATOM     52  C   UNL A   1      43.565  26.796  32.146  1.00  0.00     0.029 A 
ATOM     53  C   UNL A   1      43.168  28.035  32.807  1.00  0.00     0.049 A 
ATOM     54  H   UNL A   1      43.098  29.948  31.987  1.00  0.00     0.167 HD
ATOM     55  C   UNL A   1      42.829  33.849  30.076  1.00  0.00     0.031 A 
ATOM     56  C   UNL A   1      42.768  28.132  34.089  1.00  0.00     0.031 A 
ATOM     57  C   UNL A   1      42.298  34.029  31.405  1.00  0.00     0.049 A 
ATOM     58  C   UNL A   1      42.325  29.464  34.622  1.00  0.00     0.074 A 
ATOM     59  C   UNL A   1      41.786  35.185  31.972  1.00  0.00     0.029 A 
ATOM     60  N   UNL A   1      42.222  33.042  32.375  1.00  0.00    -0.354 N 
ATOM     61  N   UNL A   1      42.246  30.613  33.997  1.00  0.00    -0.248 NA
ATOM     62  C   UNL A   1      41.899  29.511  36.028  1.00  0.00     0.031 C 
ATOM     63  C   UNL A   1      41.467  34.915  33.304  1.00  0.00     0.029 A 
ATOM     64  C   UNL A   1      41.707  33.573  33.547  1.00  0.00     0.049 A 
ATOM     65  H   UNL A   1      42.493  32.104  32.250  1.00  0.00     0.167 HD
ATOM     66  C   UNL A   1      41.740  31.514  34.923  1.00  0.00     0.074 A 
ATOM     67  C   UNL A   1      41.513  30.775  36.148  1.00  0.00     0.031 C 
ATOM     68  C   UNL A   1      41.486  32.836  34.766  1.00  0.00     0.031 A 
BRANCH  55  69
ATOM     69  C   UNL A   1      42.874  35.061  29.187  1.00  0.00    -0.014 A 
ATOM     70  C   UNL A   1      41.801  35.340  28.324  1.00  0.00     0.009 A 
ATOM     71  C   UNL A   1      44.040  35.835  29.088  1.00  0.00     0.009 A 
ATOM     72  C   UNL A   1      41.904  36.351  27.366  1.00  0.00     0.001 A 
ATOM     73  C   UNL A   1      44.131  36.863  28.145  1.00  0.00     0.001 A 
ATOM     74  C   UNL A   1      43.068  37.111  27.278  1.00  0.00     0.000 A 
ENDBRANCH  55  69
BRANCH  56  75
ATOM     75  C   UNL A   1      42.738  26.910  34.934  1.00  0.00    -0.014 A 
ATOM     76  C   UNL A   1      41.559  26.153  35.049  1.00  0.00     0.009 A 
ATOM     77  C   UNL A   1      43.864  26.526  35.675  1.00  0.00     0.009 A 
ATOM     78  C   UNL A   1      41.504  25.050  35.903  1.00  0.00     0.001 A 
ATOM     79  C   UNL A   1      43.815  25.403  36.505  1.00  0.00     0.001 A 
ATOM     80  C   UNL A   1      42.633  24.673  36.626  1.00  0.00     0.000 A 
ENDBRANCH  56  75
BRANCH  68  81
ATOM     81  C   UNL A   1      40.924  33.590  35.939  1.00  0.00    -0.014 A 
ATOM     82  C   UNL A   1      39.532  33.713  36.087  1.00  0.00     0.009 A 
ATOM     83  C   UNL A   1      41.764  34.268  36.836  1.00  0.00     0.009 A 
ATOM     84  C   UNL A   1      38.993  34.514  37.095  1.00  0.00     0.001 A 
ATOM     85  C   UNL A   1      41.222  35.044  37.862  1.00  0.00     0.001 A 
ATOM     86  C   UNL A   1      39.839  35.176  37.984  1.00  0.00     0.000 A 
ENDBRANCH  68  81
ENDBRANCH  42  43
ENDBRANCH  35  37
ENDBRANCH  34  35
ENDBRANCH  33  34
ENDBRANCH  32  33
ENDBRANCH  31  32
ENDBRANCH  30  31
ENDBRANCH   1  30
TORSDOF 22
ENDMDL
