MODEL 1
REMARK VINA RESULT:      -9.0      0.000      0.000
REMARK SMILES O=C(OCCOCCOCCOCCOC(=O)c1ccc(-c2c3nc(c(-c4ccccc4)c4ccc([nH]4)c(-c4ccccc4)c4nc(c(-c5ccccc5)c5ccc2[nH]5)C=C4)C=C3)cc1)C1=Cc2cc(Cl)cc(-c3ccccc3)c2O[C@@H]1C(F)(F)F
REMARK SMILES IDX 10 1 9 2 8 3 7 4 6 5 5 6 4 7 3 8 2 9 1 10 66 11 67 12 82 13
REMARK SMILES IDX 68 14 81 15 69 16 80 17 70 18 73 19 71 20 72 21 83 22 84 23
REMARK SMILES IDX 85 24 86 25 74 26 75 27 79 28 76 29 78 30 77 31 11 32 12 33
REMARK SMILES IDX 13 34 14 35 15 36 16 37 17 38 18 39 19 40 65 41 20 42 64 43
REMARK SMILES IDX 21 44 22 45 23 46 58 47 24 48 63 49 57 50 59 51 25 52 62 53
REMARK SMILES IDX 56 54 55 55 26 57 48 58 33 59 47 60 34 61 37 62 46 63 60 64
REMARK SMILES IDX 35 65 36 66 45 68 61 69 38 70 27 71 28 72 32 73 29 74 31 75
REMARK SMILES IDX 30 76 49 77 50 78 54 79 51 80 53 81 52 82 39 83 40 84 44 85
REMARK SMILES IDX 41 86 43 87 42 88
REMARK H PARENT 59 56 37 67
REMARK Flexibility Score: inf
ROOT
ATOM      1  C   UNL A   1      41.269  21.880  26.177  1.00  0.00     0.188 C 
ENDROOT
BRANCH   1   2
ATOM      2  O   UNL A   1      40.744  22.828  27.072  1.00  0.00    -0.377 OA
BRANCH   2   3
ATOM      3  C   UNL A   1      41.757  23.274  27.929  1.00  0.00     0.188 C 
BRANCH   3   4
ATOM      4  C   UNL A   1      41.336  24.573  28.592  1.00  0.00     0.188 C 
BRANCH   4   5
ATOM      5  O   UNL A   1      41.585  25.920  28.069  1.00  0.00    -0.376 OA
BRANCH   5   6
ATOM      6  C   UNL A   1      41.823  27.426  28.709  1.00  0.00     0.202 C 
BRANCH   6   7
ATOM      7  C   UNL A   1      41.059  28.197  30.604  1.00  0.00     0.261 C 
BRANCH   7   8
ATOM      8  O   UNL A   1      39.700  28.843  30.833  1.00  0.00    -0.460 OA
BRANCH   8   9
ATOM      9  C   UNL A   1      39.797  30.063  31.374  1.00  0.00     0.338 C 
ATOM     10  O   UNL A   1      39.609  30.395  32.518  1.00  0.00    -0.246 OA
BRANCH   9  11
ATOM     11  C   UNL A   1      39.696  30.805  30.130  1.00  0.00     0.087 C 
ATOM     12  C   UNL A   1      38.666  30.325  29.217  1.00  0.00     0.027 C 
ATOM     13  C   UNL A   1      39.676  32.513  31.010  1.00  0.00     0.316 C 
ATOM     14  C   UNL A   1      37.091  31.144  28.949  1.00  0.00     0.019 A 
ATOM     15  O   UNL A   1      37.913  33.360  30.858  1.00  0.00    -0.475 OA
ATOM     16  C   UNL A   1      36.219  30.536  28.082  1.00  0.00     0.032 A 
ATOM     17  C   UNL A   1      36.598  32.560  29.833  1.00  0.00     0.135 A 
ATOM     18  C   UNL A   1      34.961  31.131  27.984  1.00  0.00     0.042 A 
ATOM     19  C   UNL A   1      35.274  33.005  29.737  1.00  0.00     0.026 A 
ATOM     20  Cl  UNL A   1      33.832  30.430  26.871  1.00  0.00    -0.084 Cl
ATOM     21  C   UNL A   1      34.521  32.265  28.761  1.00  0.00     0.033 A 
BRANCH  13  22
ATOM     22  C   UNL A   1      41.232  32.816  30.346  1.00  0.00     0.430 C 
ATOM     23  F   UNL A   1      41.769  31.971  29.449  1.00  0.00    -0.167 F 
ATOM     24  F   UNL A   1      41.117  33.986  29.639  1.00  0.00    -0.167 F 
ATOM     25  F   UNL A   1      42.197  33.075  31.266  1.00  0.00    -0.167 F 
ENDBRANCH  13  22
BRANCH  19  26
ATOM     26  C   UNL A   1      34.517  34.029  30.458  1.00  0.00    -0.015 A 
ATOM     27  C   UNL A   1      34.278  33.985  31.840  1.00  0.00     0.009 A 
ATOM     28  C   UNL A   1      33.790  34.974  29.760  1.00  0.00     0.009 A 
ATOM     29  C   UNL A   1      33.544  34.994  32.488  1.00  0.00     0.001 A 
ATOM     30  C   UNL A   1      33.250  36.081  30.405  1.00  0.00     0.001 A 
ATOM     31  C   UNL A   1      33.109  36.098  31.775  1.00  0.00     0.000 A 
ENDBRANCH  19  26
ENDBRANCH   9  11
ENDBRANCH   8   9
ENDBRANCH   7   8
ENDBRANCH   6   7
ENDBRANCH   5   6
ENDBRANCH   4   5
ENDBRANCH   3   4
ENDBRANCH   2   3
ENDBRANCH   1   2
BRANCH   1  32
ATOM     32  C   UNL A   1      41.143  20.414  26.559  1.00  0.00     0.188 C 
BRANCH  32  33
ATOM     33  O   UNL A   1      42.364  19.748  26.729  1.00  0.00    -0.376 OA
BRANCH  33  34
ATOM     34  C   UNL A   1      43.021  19.202  25.595  1.00  0.00     0.202 C 
BRANCH  34  35
ATOM     35  C   UNL A   1      44.303  19.783  24.951  1.00  0.00     0.261 C 
BRANCH  35  36
ATOM     36  O   UNL A   1      44.774  21.077  25.369  1.00  0.00    -0.460 OA
BRANCH  36  37
ATOM     37  C   UNL A   1      44.774  22.093  24.481  1.00  0.00     0.338 C 
ATOM     38  O   UNL A   1      44.522  22.029  23.292  1.00  0.00    -0.246 OA
BRANCH  37  39
ATOM     39  C   UNL A   1      44.913  23.358  25.254  1.00  0.00     0.060 A 
ATOM     40  C   UNL A   1      46.098  23.599  25.968  1.00  0.00     0.016 A 
ATOM     41  C   UNL A   1      43.902  24.322  25.241  1.00  0.00     0.016 A 
ATOM     42  C   UNL A   1      46.260  24.782  26.704  1.00  0.00     0.010 A 
ATOM     43  C   UNL A   1      44.066  25.508  25.973  1.00  0.00     0.010 A 
ATOM     44  C   UNL A   1      45.227  25.727  26.749  1.00  0.00    -0.014 A 
BRANCH  44  45
ATOM     45  C   UNL A   1      45.189  26.743  27.838  1.00  0.00     0.031 A 
ATOM     46  C   UNL A   1      45.046  26.196  29.237  1.00  0.00     0.074 A 
ATOM     47  C   UNL A   1      45.301  28.075  27.653  1.00  0.00     0.049 A 
ATOM     48  N   UNL A   1      45.006  26.826  30.382  1.00  0.00    -0.248 NA
ATOM     49  C   UNL A   1      44.923  24.731  29.355  1.00  0.00     0.031 C 
ATOM     50  C   UNL A   1      45.497  28.755  26.376  1.00  0.00     0.029 A 
ATOM     51  N   UNL A   1      45.257  29.106  28.567  1.00  0.00    -0.354 N 
ATOM     52  C   UNL A   1      44.859  25.831  31.339  1.00  0.00     0.074 A 
ATOM     53  C   UNL A   1      44.706  24.576  30.647  1.00  0.00     0.031 C 
ATOM     54  C   UNL A   1      45.527  30.086  26.580  1.00  0.00     0.029 A 
ATOM     55  C   UNL A   1      45.367  30.358  28.006  1.00  0.00     0.049 A 
ATOM     56  H   UNL A   1      45.156  28.959  29.536  1.00  0.00     0.167 HD
ATOM     57  C   UNL A   1      44.899  25.930  32.686  1.00  0.00     0.031 A 
ATOM     58  C   UNL A   1      45.357  31.580  28.581  1.00  0.00     0.031 A 
ATOM     59  C   UNL A   1      45.039  27.170  33.388  1.00  0.00     0.049 A 
ATOM     60  C   UNL A   1      45.287  31.682  30.088  1.00  0.00     0.074 A 
ATOM     61  C   UNL A   1      45.113  27.381  34.752  1.00  0.00     0.029 A 
ATOM     62  N   UNL A   1      45.107  28.411  32.778  1.00  0.00    -0.354 N 
ATOM     63  N   UNL A   1      45.229  30.725  30.983  1.00  0.00    -0.248 NA
ATOM     64  C   UNL A   1      45.331  33.036  30.664  1.00  0.00     0.031 C 
ATOM     65  C   UNL A   1      45.141  28.761  34.970  1.00  0.00     0.029 A 
ATOM     66  C   UNL A   1      45.183  29.401  33.740  1.00  0.00     0.049 A 
ATOM     67  H   UNL A   1      45.102  28.566  31.806  1.00  0.00     0.167 HD
ATOM     68  C   UNL A   1      45.295  31.356  32.222  1.00  0.00     0.074 A 
ATOM     69  C   UNL A   1      45.400  32.777  31.961  1.00  0.00     0.031 C 
ATOM     70  C   UNL A   1      45.291  30.810  33.464  1.00  0.00     0.031 A 
BRANCH  57  71
ATOM     71  C   UNL A   1      44.760  24.651  33.462  1.00  0.00    -0.014 A 
ATOM     72  C   UNL A   1      43.518  24.232  33.972  1.00  0.00     0.009 A 
ATOM     73  C   UNL A   1      45.897  23.872  33.719  1.00  0.00     0.009 A 
ATOM     74  C   UNL A   1      43.429  23.091  34.770  1.00  0.00     0.001 A 
ATOM     75  C   UNL A   1      45.798  22.709  34.481  1.00  0.00     0.001 A 
ATOM     76  C   UNL A   1      44.568  22.328  35.019  1.00  0.00     0.000 A 
ENDBRANCH  57  71
BRANCH  58  77
ATOM     77  C   UNL A   1      45.461  32.820  27.758  1.00  0.00    -0.014 A 
ATOM     78  C   UNL A   1      44.308  33.471  27.285  1.00  0.00     0.009 A 
ATOM     79  C   UNL A   1      46.715  33.327  27.379  1.00  0.00     0.009 A 
ATOM     80  C   UNL A   1      44.407  34.567  26.422  1.00  0.00     0.001 A 
ATOM     81  C   UNL A   1      46.811  34.443  26.540  1.00  0.00     0.001 A 
ATOM     82  C   UNL A   1      45.658  35.054  26.053  1.00  0.00     0.000 A 
ENDBRANCH  58  77
BRANCH  70  83
ATOM     83  C   UNL A   1      45.473  31.736  34.637  1.00  0.00    -0.014 A 
ATOM     84  C   UNL A   1      44.384  32.322  35.299  1.00  0.00     0.009 A 
ATOM     85  C   UNL A   1      46.771  31.986  35.113  1.00  0.00     0.009 A 
ATOM     86  C   UNL A   1      44.596  33.183  36.379  1.00  0.00     0.001 A 
ATOM     87  C   UNL A   1      46.977  32.810  36.220  1.00  0.00     0.001 A 
ATOM     88  C   UNL A   1      45.891  33.421  36.841  1.00  0.00     0.000 A 
ENDBRANCH  70  83
ENDBRANCH  44  45
ENDBRANCH  37  39
ENDBRANCH  36  37
ENDBRANCH  35  36
ENDBRANCH  34  35
ENDBRANCH  33  34
ENDBRANCH  32  33
ENDBRANCH   1  32
TORSDOF 22
ENDMDL
MODEL 2
REMARK VINA RESULT:      -9.0      3.322     11.118
REMARK SMILES O=C(OCCOCCOCCOCCOC(=O)c1ccc(-c2c3nc(c(-c4ccccc4)c4ccc([nH]4)c(-c4ccccc4)c4nc(c(-c5ccccc5)c5ccc2[nH]5)C=C4)C=C3)cc1)C1=Cc2cc(Cl)cc(-c3ccccc3)c2O[C@@H]1C(F)(F)F
REMARK SMILES IDX 10 1 9 2 8 3 7 4 6 5 5 6 4 7 3 8 2 9 1 10 66 11 67 12 82 13
REMARK SMILES IDX 68 14 81 15 69 16 80 17 70 18 73 19 71 20 72 21 83 22 84 23
REMARK SMILES IDX 85 24 86 25 74 26 75 27 79 28 76 29 78 30 77 31 11 32 12 33
REMARK SMILES IDX 13 34 14 35 15 36 16 37 17 38 18 39 19 40 65 41 20 42 64 43
REMARK SMILES IDX 21 44 22 45 23 46 58 47 24 48 63 49 57 50 59 51 25 52 62 53
REMARK SMILES IDX 56 54 55 55 26 57 48 58 33 59 47 60 34 61 37 62 46 63 60 64
REMARK SMILES IDX 35 65 36 66 45 68 61 69 38 70 27 71 28 72 32 73 29 74 31 75
REMARK SMILES IDX 30 76 49 77 50 78 54 79 51 80 53 81 52 82 39 83 40 84 44 85
REMARK SMILES IDX 41 86 43 87 42 88
REMARK H PARENT 59 56 37 67
REMARK Flexibility Score: inf
ROOT
ATOM      1  C   UNL A   1      35.345  31.795  28.529  1.00  0.00     0.188 C 
ENDROOT
BRANCH   1   2
ATOM      2  O   UNL A   1      36.129  30.805  27.912  1.00  0.00    -0.377 OA
BRANCH   2   3
ATOM      3  C   UNL A   1      37.434  30.860  28.416  1.00  0.00     0.188 C 
BRANCH   3   4
ATOM      4  C   UNL A   1      37.782  29.543  29.087  1.00  0.00     0.188 C 
BRANCH   4   5
ATOM      5  O   UNL A   1      38.815  28.603  28.641  1.00  0.00    -0.376 OA
BRANCH   5   6
ATOM      6  C   UNL A   1      40.324  28.712  27.976  1.00  0.00     0.202 C 
BRANCH   6   7
ATOM      7  C   UNL A   1      42.152  29.416  28.942  1.00  0.00     0.261 C 
BRANCH   7   8
ATOM      8  O   UNL A   1      43.501  28.713  28.940  1.00  0.00    -0.460 OA
BRANCH   8   9
ATOM      9  C   UNL A   1      44.360  29.255  28.068  1.00  0.00     0.338 C 
ATOM     10  O   UNL A   1      44.152  30.104  27.238  1.00  0.00    -0.246 OA
BRANCH   9  11
ATOM     11  C   UNL A   1      45.352  28.196  28.131  1.00  0.00     0.087 C 
ATOM     12  C   UNL A   1      45.379  27.463  29.390  1.00  0.00     0.027 C 
ATOM     13  C   UNL A   1      44.842  27.452  26.435  1.00  0.00     0.316 C 
ATOM     14  C   UNL A   1      44.711  25.811  29.612  1.00  0.00     0.019 A 
ATOM     15  O   UNL A   1      43.971  25.710  26.666  1.00  0.00    -0.475 OA
ATOM     16  C   UNL A   1      44.784  25.280  30.874  1.00  0.00     0.032 A 
ATOM     17  C   UNL A   1      43.874  24.951  28.350  1.00  0.00     0.135 A 
ATOM     18  C   UNL A   1      44.154  24.046  31.042  1.00  0.00     0.042 A 
ATOM     19  C   UNL A   1      43.185  23.772  28.662  1.00  0.00     0.026 A 
ATOM     20  Cl  UNL A   1      44.252  23.308  32.607  1.00  0.00    -0.084 Cl
ATOM     21  C   UNL A   1      43.402  23.358  30.020  1.00  0.00     0.033 A 
BRANCH  13  22
ATOM     22  C   UNL A   1      46.350  27.983  25.806  1.00  0.00     0.430 C 
ATOM     23  F   UNL A   1      47.486  27.796  26.501  1.00  0.00    -0.167 F 
ATOM     24  F   UNL A   1      46.560  27.249  24.666  1.00  0.00    -0.167 F 
ATOM     25  F   UNL A   1      46.360  29.273  25.379  1.00  0.00    -0.167 F 
ENDBRANCH  13  22
BRANCH  19  26
ATOM     26  C   UNL A   1      42.270  22.927  27.894  1.00  0.00    -0.015 A 
ATOM     27  C   UNL A   1      42.684  21.803  27.163  1.00  0.00     0.009 A 
ATOM     28  C   UNL A   1      40.974  23.344  27.658  1.00  0.00     0.009 A 
ATOM     29  C   UNL A   1      41.766  21.021  26.440  1.00  0.00     0.001 A 
ATOM     30  C   UNL A   1      40.027  22.473  27.131  1.00  0.00     0.001 A 
ATOM     31  C   UNL A   1      40.413  21.308  26.504  1.00  0.00     0.000 A 
ENDBRANCH  19  26
ENDBRANCH   9  11
ENDBRANCH   8   9
ENDBRANCH   7   8
ENDBRANCH   6   7
ENDBRANCH   5   6
ENDBRANCH   4   5
ENDBRANCH   3   4
ENDBRANCH   2   3
ENDBRANCH   1   2
BRANCH   1  32
ATOM     32  C   UNL A   1      35.443  33.208  27.978  1.00  0.00     0.188 C 
BRANCH  32  33
ATOM     33  O   UNL A   1      35.263  34.220  28.931  1.00  0.00    -0.376 OA
BRANCH  33  34
ATOM     34  C   UNL A   1      33.975  34.794  29.099  1.00  0.00     0.202 C 
BRANCH  34  35
ATOM     35  C   UNL A   1      33.281  35.026  30.463  1.00  0.00     0.261 C 
BRANCH  35  36
ATOM     36  O   UNL A   1      33.706  34.261  31.606  1.00  0.00    -0.460 OA
BRANCH  36  37
ATOM     37  C   UNL A   1      34.466  34.857  32.548  1.00  0.00     0.338 C 
ATOM     38  O   UNL A   1      34.121  35.723  33.330  1.00  0.00    -0.246 OA
BRANCH  37  39
ATOM     39  C   UNL A   1      35.750  34.105  32.622  1.00  0.00     0.060 A 
ATOM     40  C   UNL A   1      36.777  34.581  33.453  1.00  0.00     0.016 A 
ATOM     41  C   UNL A   1      35.926  32.914  31.913  1.00  0.00     0.016 A 
ATOM     42  C   UNL A   1      37.996  33.894  33.545  1.00  0.00     0.010 A 
ATOM     43  C   UNL A   1      37.143  32.224  32.009  1.00  0.00     0.010 A 
ATOM     44  C   UNL A   1      38.206  32.734  32.790  1.00  0.00    -0.014 A 
BRANCH  44  45
ATOM     45  C   UNL A   1      39.591  32.251  32.531  1.00  0.00     0.031 A 
ATOM     46  C   UNL A   1      40.381  33.041  31.516  1.00  0.00     0.074 A 
ATOM     47  C   UNL A   1      40.169  31.200  33.150  1.00  0.00     0.049 A 
ATOM     48  N   UNL A   1      41.609  32.879  31.100  1.00  0.00    -0.248 NA
ATOM     49  C   UNL A   1      39.677  34.170  30.878  1.00  0.00     0.031 C 
ATOM     50  C   UNL A   1      39.563  30.370  34.187  1.00  0.00     0.029 A 
ATOM     51  N   UNL A   1      41.420  30.647  32.982  1.00  0.00    -0.354 N 
ATOM     52  C   UNL A   1      41.812  33.884  30.164  1.00  0.00     0.074 A 
ATOM     53  C   UNL A   1      40.562  34.579  29.990  1.00  0.00     0.031 C 
ATOM     54  C   UNL A   1      40.425  29.398  34.542  1.00  0.00     0.029 A 
ATOM     55  C   UNL A   1      41.656  29.543  33.769  1.00  0.00     0.049 A 
ATOM     56  H   UNL A   1      42.087  31.011  32.355  1.00  0.00     0.167 HD
ATOM     57  C   UNL A   1      42.951  34.245  29.534  1.00  0.00     0.031 A 
ATOM     58  C   UNL A   1      42.746  28.751  33.864  1.00  0.00     0.031 A 
ATOM     59  C   UNL A   1      44.197  33.559  29.688  1.00  0.00     0.049 A 
ATOM     60  C   UNL A   1      43.981  29.102  33.065  1.00  0.00     0.074 A 
ATOM     61  C   UNL A   1      45.418  33.855  29.113  1.00  0.00     0.029 A 
ATOM     62  N   UNL A   1      44.375  32.425  30.463  1.00  0.00    -0.354 N 
ATOM     63  N   UNL A   1      44.181  30.105  32.244  1.00  0.00    -0.248 NA
ATOM     64  C   UNL A   1      45.156  28.235  33.246  1.00  0.00     0.031 C 
ATOM     65  C   UNL A   1      46.317  32.848  29.474  1.00  0.00     0.029 A 
ATOM     66  C   UNL A   1      45.680  31.983  30.351  1.00  0.00     0.049 A 
ATOM     67  H   UNL A   1      43.678  31.998  31.012  1.00  0.00     0.167 HD
ATOM     68  C   UNL A   1      45.518  30.027  31.864  1.00  0.00     0.074 A 
ATOM     69  C   UNL A   1      46.079  28.880  32.547  1.00  0.00     0.031 C 
ATOM     70  C   UNL A   1      46.224  30.842  31.041  1.00  0.00     0.031 A 
BRANCH  57  71
ATOM     71  C   UNL A   1      42.864  35.423  28.604  1.00  0.00    -0.014 A 
ATOM     72  C   UNL A   1      42.632  35.256  27.227  1.00  0.00     0.009 A 
ATOM     73  C   UNL A   1      43.055  36.716  29.109  1.00  0.00     0.009 A 
ATOM     74  C   UNL A   1      42.650  36.357  26.369  1.00  0.00     0.001 A 
ATOM     75  C   UNL A   1      43.030  37.819  28.256  1.00  0.00     0.001 A 
ATOM     76  C   UNL A   1      42.844  37.637  26.885  1.00  0.00     0.000 A 
ENDBRANCH  57  71
BRANCH  58  77
ATOM     77  C   UNL A   1      42.765  27.571  34.778  1.00  0.00    -0.014 A 
ATOM     78  C   UNL A   1      42.371  26.301  34.322  1.00  0.00     0.009 A 
ATOM     79  C   UNL A   1      43.110  27.717  36.131  1.00  0.00     0.009 A 
ATOM     80  C   UNL A   1      42.281  25.219  35.205  1.00  0.00     0.001 A 
ATOM     81  C   UNL A   1      43.049  26.626  37.005  1.00  0.00     0.001 A 
ATOM     82  C   UNL A   1      42.623  25.381  36.544  1.00  0.00     0.000 A 
ENDBRANCH  58  77
BRANCH  70  83
ATOM     83  C   UNL A   1      47.697  30.571  30.883  1.00  0.00    -0.014 A 
ATOM     84  C   UNL A   1      48.650  31.097  31.768  1.00  0.00     0.009 A 
ATOM     85  C   UNL A   1      48.128  29.729  29.844  1.00  0.00     0.009 A 
ATOM     86  C   UNL A   1      50.009  30.829  31.582  1.00  0.00     0.001 A 
ATOM     87  C   UNL A   1      49.481  29.426  29.687  1.00  0.00     0.001 A 
ATOM     88  C   UNL A   1      50.421  29.990  30.546  1.00  0.00     0.000 A 
ENDBRANCH  70  83
ENDBRANCH  44  45
ENDBRANCH  37  39
ENDBRANCH  36  37
ENDBRANCH  35  36
ENDBRANCH  34  35
ENDBRANCH  33  34
ENDBRANCH  32  33
ENDBRANCH   1  32
TORSDOF 22
ENDMDL
MODEL 3
REMARK VINA RESULT:      -8.6      2.864      6.816
REMARK SMILES O=C(OCCOCCOCCOCCOC(=O)c1ccc(-c2c3nc(c(-c4ccccc4)c4ccc([nH]4)c(-c4ccccc4)c4nc(c(-c5ccccc5)c5ccc2[nH]5)C=C4)C=C3)cc1)C1=Cc2cc(Cl)cc(-c3ccccc3)c2O[C@@H]1C(F)(F)F
REMARK SMILES IDX 10 1 9 2 8 3 7 4 6 5 5 6 4 7 3 8 2 9 1 10 66 11 67 12 82 13
REMARK SMILES IDX 68 14 81 15 69 16 80 17 70 18 73 19 71 20 72 21 83 22 84 23
REMARK SMILES IDX 85 24 86 25 74 26 75 27 79 28 76 29 78 30 77 31 11 32 12 33
REMARK SMILES IDX 13 34 14 35 15 36 16 37 17 38 18 39 19 40 65 41 20 42 64 43
REMARK SMILES IDX 21 44 22 45 23 46 58 47 24 48 63 49 57 50 59 51 25 52 62 53
REMARK SMILES IDX 56 54 55 55 26 57 48 58 33 59 47 60 34 61 37 62 46 63 60 64
REMARK SMILES IDX 35 65 36 66 45 68 61 69 38 70 27 71 28 72 32 73 29 74 31 75
REMARK SMILES IDX 30 76 49 77 50 78 54 79 51 80 53 81 52 82 39 83 40 84 44 85
REMARK SMILES IDX 41 86 43 87 42 88
REMARK H PARENT 59 56 37 67
REMARK Flexibility Score: inf
ROOT
ATOM      1  C   UNL A   1      44.168  21.030  25.364  1.00  0.00     0.188 C 
ENDROOT
BRANCH   1   2
ATOM      2  O   UNL A   1      43.416  21.982  24.655  1.00  0.00    -0.377 OA
BRANCH   2   3
ATOM      3  C   UNL A   1      42.262  22.301  25.380  1.00  0.00     0.188 C 
BRANCH   3   4
ATOM      4  C   UNL A   1      42.643  23.019  26.663  1.00  0.00     0.188 C 
BRANCH   4   5
ATOM      5  O   UNL A   1      41.707  23.496  27.686  1.00  0.00    -0.376 OA
BRANCH   5   6
ATOM      6  C   UNL A   1      40.870  24.890  27.984  1.00  0.00     0.202 C 
BRANCH   6   7
ATOM      7  C   UNL A   1      41.382  26.465  29.407  1.00  0.00     0.261 C 
BRANCH   7   8
ATOM      8  O   UNL A   1      41.153  27.958  29.222  1.00  0.00    -0.460 OA
BRANCH   8   9
ATOM      9  C   UNL A   1      39.857  28.266  29.084  1.00  0.00     0.338 C 
ATOM     10  O   UNL A   1      39.167  28.184  28.100  1.00  0.00    -0.246 OA
BRANCH   9  11
ATOM     11  C   UNL A   1      39.763  29.117  30.257  1.00  0.00     0.087 C 
ATOM     12  C   UNL A   1      40.341  30.445  30.091  1.00  0.00     0.027 C 
ATOM     13  C   UNL A   1      37.894  28.757  30.517  1.00  0.00     0.316 C 
ATOM     14  C   UNL A   1      39.381  31.944  29.862  1.00  0.00     0.019 A 
ATOM     15  O   UNL A   1      36.811  30.344  30.124  1.00  0.00    -0.475 OA
ATOM     16  C   UNL A   1      40.085  33.107  29.684  1.00  0.00     0.032 A 
ATOM     17  C   UNL A   1      37.645  31.945  29.723  1.00  0.00     0.135 A 
ATOM     18  C   UNL A   1      39.316  34.235  29.392  1.00  0.00     0.042 A 
ATOM     19  C   UNL A   1      36.988  33.114  29.318  1.00  0.00     0.026 A 
ATOM     20  Cl  UNL A   1      40.151  35.741  29.199  1.00  0.00    -0.084 Cl
ATOM     21  C   UNL A   1      37.884  34.232  29.209  1.00  0.00     0.033 A 
BRANCH  13  22
ATOM     22  C   UNL A   1      38.312  27.891  31.941  1.00  0.00     0.430 C 
ATOM     23  F   UNL A   1      39.472  28.136  32.576  1.00  0.00    -0.167 F 
ATOM     24  F   UNL A   1      37.369  28.233  32.878  1.00  0.00    -0.167 F 
ATOM     25  F   UNL A   1      38.202  26.542  31.834  1.00  0.00    -0.167 F 
ENDBRANCH  13  22
BRANCH  19  26
ATOM     26  C   UNL A   1      35.600  33.393  28.950  1.00  0.00    -0.015 A 
ATOM     27  C   UNL A   1      34.806  32.513  28.199  1.00  0.00     0.009 A 
ATOM     28  C   UNL A   1      35.078  34.661  29.126  1.00  0.00     0.009 A 
ATOM     29  C   UNL A   1      33.475  32.828  27.871  1.00  0.00     0.001 A 
ATOM     30  C   UNL A   1      33.714  34.897  28.997  1.00  0.00     0.001 A 
ATOM     31  C   UNL A   1      32.899  33.989  28.357  1.00  0.00     0.000 A 
ENDBRANCH  19  26
ENDBRANCH   9  11
ENDBRANCH   8   9
ENDBRANCH   7   8
ENDBRANCH   6   7
ENDBRANCH   5   6
ENDBRANCH   4   5
ENDBRANCH   3   4
ENDBRANCH   2   3
ENDBRANCH   1   2
BRANCH   1  32
ATOM     32  C   UNL A   1      45.643  20.902  25.015  1.00  0.00     0.188 C 
BRANCH  32  33
ATOM     33  O   UNL A   1      46.418  22.025  25.336  1.00  0.00    -0.376 OA
BRANCH  33  34
ATOM     34  C   UNL A   1      46.436  23.133  24.448  1.00  0.00     0.202 C 
BRANCH  34  35
ATOM     35  C   UNL A   1      46.164  24.600  24.859  1.00  0.00     0.261 C 
BRANCH  35  36
ATOM     36  O   UNL A   1      47.198  25.585  24.673  1.00  0.00    -0.460 OA
BRANCH  36  37
ATOM     37  C   UNL A   1      46.858  26.890  24.622  1.00  0.00     0.338 C 
ATOM     38  O   UNL A   1      46.838  27.606  23.639  1.00  0.00    -0.246 OA
BRANCH  37  39
ATOM     39  C   UNL A   1      46.286  27.250  25.949  1.00  0.00     0.060 A 
ATOM     40  C   UNL A   1      44.892  27.312  26.102  1.00  0.00     0.016 A 
ATOM     41  C   UNL A   1      47.116  27.482  27.049  1.00  0.00     0.016 A 
ATOM     42  C   UNL A   1      44.324  27.647  27.341  1.00  0.00     0.010 A 
ATOM     43  C   UNL A   1      46.548  27.810  28.289  1.00  0.00     0.010 A 
ATOM     44  C   UNL A   1      45.148  27.942  28.433  1.00  0.00    -0.014 A 
BRANCH  44  45
ATOM     45  C   UNL A   1      44.608  28.707  29.592  1.00  0.00     0.031 A 
ATOM     46  C   UNL A   1      44.489  30.198  29.393  1.00  0.00     0.074 A 
ATOM     47  C   UNL A   1      44.207  28.158  30.758  1.00  0.00     0.049 A 
ATOM     48  N   UNL A   1      44.037  31.118  30.205  1.00  0.00    -0.248 NA
ATOM     49  C   UNL A   1      44.954  30.722  28.095  1.00  0.00     0.031 C 
ATOM     50  C   UNL A   1      44.208  26.736  31.086  1.00  0.00     0.029 A 
ATOM     51  N   UNL A   1      43.719  28.755  31.900  1.00  0.00    -0.354 N 
ATOM     52  C   UNL A   1      44.164  32.312  29.508  1.00  0.00     0.074 A 
ATOM     53  C   UNL A   1      44.830  32.024  28.263  1.00  0.00     0.031 C 
ATOM     54  C   UNL A   1      43.773  26.569  32.350  1.00  0.00     0.029 A 
ATOM     55  C   UNL A   1      43.446  27.874  32.922  1.00  0.00     0.049 A 
ATOM     56  H   UNL A   1      43.577  29.727  31.978  1.00  0.00     0.167 HD
ATOM     57  C   UNL A   1      43.720  33.544  29.840  1.00  0.00     0.031 A 
ATOM     58  C   UNL A   1      42.972  28.095  34.166  1.00  0.00     0.031 A 
ATOM     59  C   UNL A   1      43.067  33.848  31.077  1.00  0.00     0.049 A 
ATOM     60  C   UNL A   1      42.584  29.500  34.566  1.00  0.00     0.074 A 
ATOM     61  C   UNL A   1      42.558  35.059  31.505  1.00  0.00     0.029 A 
ATOM     62  N   UNL A   1      42.851  32.932  32.092  1.00  0.00    -0.354 N 
ATOM     63  N   UNL A   1      42.636  30.607  33.865  1.00  0.00    -0.248 NA
ATOM     64  C   UNL A   1      42.025  29.675  35.917  1.00  0.00     0.031 C 
ATOM     65  C   UNL A   1      42.108  34.895  32.817  1.00  0.00     0.029 A 
ATOM     66  C   UNL A   1      42.249  33.560  33.167  1.00  0.00     0.049 A 
ATOM     67  H   UNL A   1      43.089  31.978  32.056  1.00  0.00     0.167 HD
ATOM     68  C   UNL A   1      42.059  31.592  34.661  1.00  0.00     0.074 A 
ATOM     69  C   UNL A   1      41.663  30.950  35.896  1.00  0.00     0.031 C 
ATOM     70  C   UNL A   1      41.857  32.906  34.388  1.00  0.00     0.031 A 
BRANCH  57  71
ATOM     71  C   UNL A   1      43.966  34.642  28.843  1.00  0.00    -0.014 A 
ATOM     72  C   UNL A   1      43.079  34.879  27.778  1.00  0.00     0.009 A 
ATOM     73  C   UNL A   1      45.123  35.426  28.951  1.00  0.00     0.009 A 
ATOM     74  C   UNL A   1      43.377  35.840  26.811  1.00  0.00     0.001 A 
ATOM     75  C   UNL A   1      45.396  36.415  28.007  1.00  0.00     0.001 A 
ATOM     76  C   UNL A   1      44.532  36.611  26.930  1.00  0.00     0.000 A 
ENDBRANCH  57  71
BRANCH  58  77
ATOM     77  C   UNL A   1      42.782  26.971  35.130  1.00  0.00    -0.014 A 
ATOM     78  C   UNL A   1      41.538  26.327  35.250  1.00  0.00     0.009 A 
ATOM     79  C   UNL A   1      43.822  26.576  35.987  1.00  0.00     0.009 A 
ATOM     80  C   UNL A   1      41.328  25.351  36.230  1.00  0.00     0.001 A 
ATOM     81  C   UNL A   1      43.619  25.577  36.945  1.00  0.00     0.001 A 
ATOM     82  C   UNL A   1      42.369  24.974  37.074  1.00  0.00     0.000 A 
ENDBRANCH  58  77
BRANCH  70  83
ATOM     83  C   UNL A   1      41.114  33.726  35.409  1.00  0.00    -0.014 A 
ATOM     84  C   UNL A   1      41.762  34.318  36.503  1.00  0.00     0.009 A 
ATOM     85  C   UNL A   1      39.736  33.945  35.237  1.00  0.00     0.009 A 
ATOM     86  C   UNL A   1      41.035  35.066  37.433  1.00  0.00     0.001 A 
ATOM     87  C   UNL A   1      39.021  34.729  36.142  1.00  0.00     0.001 A 
ATOM     88  C   UNL A   1      39.668  35.275  37.248  1.00  0.00     0.000 A 
ENDBRANCH  70  83
ENDBRANCH  44  45
ENDBRANCH  37  39
ENDBRANCH  36  37
ENDBRANCH  35  36
ENDBRANCH  34  35
ENDBRANCH  33  34
ENDBRANCH  32  33
ENDBRANCH   1  32
TORSDOF 22
ENDMDL
