MODEL 1
REMARK VINA RESULT:      -8.3      0.000      0.000
REMARK SMILES CC[C@@H](C)CN(CC)C(=O)N1CC[C@@](CC)(C(=O)OCCOCCOCCOCCOC(=O)c2ccc(-c3c4nc(c(-c5ccccc5)c5ccc([nH]5)c(-c5ccccc5)c5nc(c(-c6ccccc6)c6ccc3[nH]6)C=C5)C=C4)cc2)C1
REMARK SMILES IDX 23 1 22 2 21 3 20 4 19 5 17 6 18 7 14 8 11 9 12 10 82 11
REMARK SMILES IDX 13 12 9 13 10 14 6 15 5 16 3 17 4 18 2 19 1 20 7 21 8 22
REMARK SMILES IDX 15 23 16 24 24 25 25 26 26 27 27 28 28 29 29 30 30 31 31 32
REMARK SMILES IDX 32 33 33 34 34 35 35 36 81 37 36 38 80 39 37 40 38 41 39 42
REMARK SMILES IDX 74 43 40 44 79 45 73 46 75 47 41 48 78 49 72 50 71 51 42 53
REMARK SMILES IDX 64 54 49 55 63 56 50 57 53 58 62 59 76 60 51 61 52 62 61 64
REMARK SMILES IDX 77 65 54 66 43 67 44 68 48 69 45 70 47 71 46 72 65 73 66 74
REMARK SMILES IDX 70 75 67 76 69 77 68 78 55 79 56 80 60 81 57 82 59 83 58 84
REMARK H PARENT 75 52 53 63
REMARK Flexibility Score: inf
ROOT
ATOM      1  C   UNL A   1      38.076  22.716  26.091  1.00  0.00     0.188 C 
ENDROOT
BRANCH   1   2
ATOM      2  O   UNL A   1      37.820  21.438  25.522  1.00  0.00    -0.376 OA
BRANCH   2   3
ATOM      3  C   UNL A   1      36.488  21.041  25.256  1.00  0.00     0.202 C 
BRANCH   3   4
ATOM      4  C   UNL A   1      35.359  21.579  26.152  1.00  0.00     0.261 C 
BRANCH   4   5
ATOM      5  O   UNL A   1      34.092  20.896  26.089  1.00  0.00    -0.463 OA
BRANCH   5   6
ATOM      6  C   UNL A   1      33.689  20.491  24.858  1.00  0.00     0.314 C 
ATOM      7  O   UNL A   1      33.948  19.389  24.385  1.00  0.00    -0.252 OA
BRANCH   6   8
ATOM      8  C   UNL A   1      32.977  21.593  24.057  1.00  0.00     0.087 C 
ATOM      9  N   UNL A   1      32.903  23.930  24.686  1.00  0.00    -0.323 N 
ATOM     10  C   UNL A   1      34.095  23.755  23.902  1.00  0.00     0.122 C 
ATOM     11  C   UNL A   1      32.409  22.608  25.086  1.00  0.00     0.140 C 
ATOM     12  C   UNL A   1      33.789  22.505  23.109  1.00  0.00     0.042 C 
BRANCH   9  13
ATOM     13  C   UNL A   1      32.778  25.001  25.549  1.00  0.00     0.320 C 
ATOM     14  O   UNL A   1      33.512  25.109  26.530  1.00  0.00    -0.248 OA
BRANCH  13  15
ATOM     15  N   UNL A   1      31.716  25.866  25.305  1.00  0.00    -0.325 N 
BRANCH  15  16
ATOM     16  C   UNL A   1      31.160  25.929  23.947  1.00  0.00     0.124 C 
BRANCH  16  17
ATOM     17  C   UNL A   1      30.105  27.060  23.768  1.00  0.00     0.005 C 
ATOM     18  C   UNL A   1      28.699  26.451  23.792  1.00  0.00     0.009 C 
BRANCH  17  19
ATOM     19  C   UNL A   1      30.356  27.858  22.469  1.00  0.00     0.002 C 
ATOM     20  C   UNL A   1      29.877  29.301  22.467  1.00  0.00     0.004 C 
ENDBRANCH  17  19
ENDBRANCH  16  17
ENDBRANCH  15  16
BRANCH  15  21
ATOM     21  C   UNL A   1      31.055  26.683  26.322  1.00  0.00     0.118 C 
ATOM     22  C   UNL A   1      31.868  27.949  26.597  1.00  0.00     0.027 C 
ENDBRANCH  15  21
ENDBRANCH  13  15
ENDBRANCH   9  13
BRANCH   8  23
ATOM     23  C   UNL A   1      31.896  20.859  23.231  1.00  0.00     0.017 C 
ATOM     24  C   UNL A   1      31.928  21.237  21.744  1.00  0.00     0.005 C 
ENDBRANCH   8  23
ENDBRANCH   6   8
ENDBRANCH   5   6
ENDBRANCH   4   5
ENDBRANCH   3   4
ENDBRANCH   2   3
ENDBRANCH   1   2
BRANCH   1  25
ATOM     25  C   UNL A   1      39.493  23.100  26.575  1.00  0.00     0.188 C 
BRANCH  25  26
ATOM     26  O   UNL A   1      40.213  22.078  27.237  1.00  0.00    -0.377 OA
BRANCH  26  27
ATOM     27  C   UNL A   1      41.254  21.509  26.470  1.00  0.00     0.188 C 
BRANCH  27  28
ATOM     28  C   UNL A   1      41.245  19.973  26.408  1.00  0.00     0.188 C 
BRANCH  28  29
ATOM     29  O   UNL A   1      42.254  19.386  27.220  1.00  0.00    -0.376 OA
BRANCH  29  30
ATOM     30  C   UNL A   1      43.017  18.299  26.729  1.00  0.00     0.202 C 
BRANCH  30  31
ATOM     31  C   UNL A   1      43.498  18.361  25.270  1.00  0.00     0.261 C 
BRANCH  31  32
ATOM     32  O   UNL A   1      44.789  18.939  25.044  1.00  0.00    -0.460 OA
BRANCH  32  33
ATOM     33  C   UNL A   1      44.884  19.874  24.076  1.00  0.00     0.338 C 
ATOM     34  O   UNL A   1      44.906  19.686  22.871  1.00  0.00    -0.246 OA
BRANCH  33  35
ATOM     35  C   UNL A   1      44.740  21.199  24.717  1.00  0.00     0.060 A 
ATOM     36  C   UNL A   1      44.332  22.281  23.926  1.00  0.00     0.016 A 
ATOM     37  C   UNL A   1      44.950  21.365  26.089  1.00  0.00     0.016 A 
ATOM     38  C   UNL A   1      44.154  23.537  24.498  1.00  0.00     0.010 A 
ATOM     39  C   UNL A   1      44.810  22.635  26.656  1.00  0.00     0.010 A 
ATOM     40  C   UNL A   1      44.444  23.730  25.855  1.00  0.00    -0.014 A 
BRANCH  40  41
ATOM     41  C   UNL A   1      44.604  25.113  26.359  1.00  0.00     0.031 A 
ATOM     42  C   UNL A   1      45.975  25.729  26.287  1.00  0.00     0.074 A 
ATOM     43  C   UNL A   1      43.560  25.827  26.811  1.00  0.00     0.049 A 
ATOM     44  N   UNL A   1      46.372  26.923  26.643  1.00  0.00    -0.248 NA
ATOM     45  C   UNL A   1      47.041  24.878  25.731  1.00  0.00     0.031 C 
ATOM     46  C   UNL A   1      42.175  25.366  26.868  1.00  0.00     0.029 A 
ATOM     47  N   UNL A   1      43.513  27.107  27.302  1.00  0.00    -0.354 N 
ATOM     48  C   UNL A   1      47.730  26.965  26.355  1.00  0.00     0.074 A 
ATOM     49  C   UNL A   1      48.097  25.668  25.833  1.00  0.00     0.031 C 
ATOM     50  C   UNL A   1      41.410  26.352  27.368  1.00  0.00     0.029 A 
ATOM     51  C   UNL A   1      42.256  27.499  27.693  1.00  0.00     0.049 A 
ATOM     52  H   UNL A   1      44.304  27.689  27.368  1.00  0.00     0.167 HD
ATOM     53  C   UNL A   1      48.595  27.994  26.503  1.00  0.00     0.031 A 
ATOM     54  C   UNL A   1      41.845  28.650  28.261  1.00  0.00     0.031 A 
ATOM     55  C   UNL A   1      48.237  29.272  27.056  1.00  0.00     0.049 A 
ATOM     56  C   UNL A   1      42.849  29.743  28.521  1.00  0.00     0.074 A 
ATOM     57  C   UNL A   1      49.039  30.381  27.259  1.00  0.00     0.029 A 
ATOM     58  N   UNL A   1      46.969  29.605  27.508  1.00  0.00    -0.354 N 
ATOM     59  N   UNL A   1      44.129  29.781  28.230  1.00  0.00    -0.248 NA
ATOM     60  C   UNL A   1      42.347  30.957  29.180  1.00  0.00     0.031 C 
ATOM     61  C   UNL A   1      48.271  31.362  27.896  1.00  0.00     0.029 A 
ATOM     62  C   UNL A   1      46.973  30.892  28.020  1.00  0.00     0.049 A 
ATOM     63  H   UNL A   1      46.182  29.014  27.471  1.00  0.00     0.167 HD
ATOM     64  C   UNL A   1      44.574  31.033  28.639  1.00  0.00     0.074 A 
ATOM     65  C   UNL A   1      43.425  31.728  29.183  1.00  0.00     0.031 C 
ATOM     66  C   UNL A   1      45.821  31.564  28.566  1.00  0.00     0.031 A 
BRANCH  53  67
ATOM     67  C   UNL A   1      50.025  27.748  26.107  1.00  0.00    -0.014 A 
ATOM     68  C   UNL A   1      50.463  27.934  24.785  1.00  0.00     0.009 A 
ATOM     69  C   UNL A   1      50.949  27.314  27.070  1.00  0.00     0.009 A 
ATOM     70  C   UNL A   1      51.783  27.648  24.429  1.00  0.00     0.001 A 
ATOM     71  C   UNL A   1      52.275  27.062  26.719  1.00  0.00     0.001 A 
ATOM     72  C   UNL A   1      52.688  27.216  25.397  1.00  0.00     0.000 A 
ENDBRANCH  53  67
BRANCH  54  73
ATOM     73  C   UNL A   1      40.417  28.831  28.633  1.00  0.00    -0.014 A 
ATOM     74  C   UNL A   1      39.497  29.354  27.712  1.00  0.00     0.009 A 
ATOM     75  C   UNL A   1      39.970  28.504  29.923  1.00  0.00     0.009 A 
ATOM     76  C   UNL A   1      38.166  29.567  28.082  1.00  0.00     0.001 A 
ATOM     77  C   UNL A   1      38.633  28.688  30.280  1.00  0.00     0.001 A 
ATOM     78  C   UNL A   1      37.734  29.229  29.362  1.00  0.00     0.000 A 
ENDBRANCH  54  73
BRANCH  66  79
ATOM     79  C   UNL A   1      45.997  32.980  29.048  1.00  0.00    -0.014 A 
ATOM     80  C   UNL A   1      45.805  34.077  28.194  1.00  0.00     0.009 A 
ATOM     81  C   UNL A   1      46.329  33.216  30.392  1.00  0.00     0.009 A 
ATOM     82  C   UNL A   1      45.988  35.380  28.666  1.00  0.00     0.001 A 
ATOM     83  C   UNL A   1      46.474  34.519  30.870  1.00  0.00     0.001 A 
ATOM     84  C   UNL A   1      46.318  35.599  30.004  1.00  0.00     0.000 A 
ENDBRANCH  66  79
ENDBRANCH  40  41
ENDBRANCH  33  35
ENDBRANCH  32  33
ENDBRANCH  31  32
ENDBRANCH  30  31
ENDBRANCH  29  30
ENDBRANCH  28  29
ENDBRANCH  27  28
ENDBRANCH  26  27
ENDBRANCH  25  26
ENDBRANCH   1  25
TORSDOF 27
ENDMDL
MODEL 2
REMARK VINA RESULT:      -8.3      3.531      9.122
REMARK SMILES CC[C@@H](C)CN(CC)C(=O)N1CC[C@@](CC)(C(=O)OCCOCCOCCOCCOC(=O)c2ccc(-c3c4nc(c(-c5ccccc5)c5ccc([nH]5)c(-c5ccccc5)c5nc(c(-c6ccccc6)c6ccc3[nH]6)C=C5)C=C4)cc2)C1
REMARK SMILES IDX 23 1 22 2 21 3 20 4 19 5 17 6 18 7 14 8 11 9 12 10 82 11
REMARK SMILES IDX 13 12 9 13 10 14 6 15 5 16 3 17 4 18 2 19 1 20 7 21 8 22
REMARK SMILES IDX 15 23 16 24 24 25 25 26 26 27 27 28 28 29 29 30 30 31 31 32
REMARK SMILES IDX 32 33 33 34 34 35 35 36 81 37 36 38 80 39 37 40 38 41 39 42
REMARK SMILES IDX 74 43 40 44 79 45 73 46 75 47 41 48 78 49 72 50 71 51 42 53
REMARK SMILES IDX 64 54 49 55 63 56 50 57 53 58 62 59 76 60 51 61 52 62 61 64
REMARK SMILES IDX 77 65 54 66 43 67 44 68 48 69 45 70 47 71 46 72 65 73 66 74
REMARK SMILES IDX 70 75 67 76 69 77 68 78 55 79 56 80 60 81 57 82 59 83 58 84
REMARK H PARENT 75 52 53 63
REMARK Flexibility Score: inf
ROOT
ATOM      1  C   UNL A   1      34.540  30.115  27.495  1.00  0.00     0.188 C 
ENDROOT
BRANCH   1   2
ATOM      2  O   UNL A   1      33.490  30.201  26.539  1.00  0.00    -0.376 OA
BRANCH   2   3
ATOM      3  C   UNL A   1      32.161  29.905  26.927  1.00  0.00     0.202 C 
BRANCH   3   4
ATOM      4  C   UNL A   1      31.760  28.436  27.148  1.00  0.00     0.261 C 
BRANCH   4   5
ATOM      5  O   UNL A   1      31.057  27.784  26.073  1.00  0.00    -0.463 OA
BRANCH   5   6
ATOM      6  C   UNL A   1      31.374  26.483  25.851  1.00  0.00     0.314 C 
ATOM      7  O   UNL A   1      31.508  25.653  26.743  1.00  0.00    -0.252 OA
BRANCH   6   8
ATOM      8  C   UNL A   1      31.670  26.172  24.375  1.00  0.00     0.087 C 
ATOM      9  N   UNL A   1      31.913  23.946  23.454  1.00  0.00    -0.323 N 
ATOM     10  C   UNL A   1      30.513  24.268  23.384  1.00  0.00     0.122 C 
ATOM     11  C   UNL A   1      32.569  24.905  24.349  1.00  0.00     0.140 C 
ATOM     12  C   UNL A   1      30.518  25.779  23.422  1.00  0.00     0.042 C 
BRANCH   9  13
ATOM     13  C   UNL A   1      32.336  22.632  23.423  1.00  0.00     0.320 C 
ATOM     14  O   UNL A   1      31.869  21.839  22.607  1.00  0.00    -0.248 OA
BRANCH  13  15
ATOM     15  N   UNL A   1      33.215  22.246  24.430  1.00  0.00    -0.325 N 
BRANCH  15  16
ATOM     16  C   UNL A   1      34.641  22.560  24.276  1.00  0.00     0.124 C 
BRANCH  16  17
ATOM     17  C   UNL A   1      35.367  22.800  25.632  1.00  0.00     0.005 C 
ATOM     18  C   UNL A   1      35.835  24.258  25.705  1.00  0.00     0.009 C 
BRANCH  17  19
ATOM     19  C   UNL A   1      36.543  21.817  25.819  1.00  0.00     0.002 C 
ATOM     20  C   UNL A   1      36.689  20.738  24.758  1.00  0.00     0.004 C 
ENDBRANCH  17  19
ENDBRANCH  16  17
ENDBRANCH  15  16
BRANCH  15  21
ATOM     21  C   UNL A   1      32.818  21.599  25.681  1.00  0.00     0.118 C 
ATOM     22  C   UNL A   1      32.854  20.078  25.528  1.00  0.00     0.027 C 
ENDBRANCH  15  21
ENDBRANCH  13  15
ENDBRANCH   9  13
BRANCH   8  23
ATOM     23  C   UNL A   1      32.356  27.443  23.823  1.00  0.00     0.017 C 
ATOM     24  C   UNL A   1      33.862  27.480  24.118  1.00  0.00     0.005 C 
ENDBRANCH   8  23
ENDBRANCH   6   8
ENDBRANCH   5   6
ENDBRANCH   4   5
ENDBRANCH   3   4
ENDBRANCH   2   3
ENDBRANCH   1   2
BRANCH   1  25
ATOM     25  C   UNL A   1      34.985  31.358  28.299  1.00  0.00     0.188 C 
BRANCH  25  26
ATOM     26  O   UNL A   1      35.356  32.486  27.529  1.00  0.00    -0.377 OA
BRANCH  26  27
ATOM     27  C   UNL A   1      34.745  33.693  27.936  1.00  0.00     0.188 C 
BRANCH  27  28
ATOM     28  C   UNL A   1      33.624  33.532  28.975  1.00  0.00     0.188 C 
BRANCH  28  29
ATOM     29  O   UNL A   1      33.165  34.778  29.483  1.00  0.00    -0.376 OA
BRANCH  29  30
ATOM     30  C   UNL A   1      33.780  35.349  30.624  1.00  0.00     0.202 C 
BRANCH  30  31
ATOM     31  C   UNL A   1      34.293  34.396  31.715  1.00  0.00     0.261 C 
BRANCH  31  32
ATOM     32  O   UNL A   1      35.644  33.937  31.583  1.00  0.00    -0.460 OA
BRANCH  32  33
ATOM     33  C   UNL A   1      35.955  32.761  32.165  1.00  0.00     0.338 C 
ATOM     34  O   UNL A   1      35.227  32.067  32.857  1.00  0.00    -0.246 OA
BRANCH  33  35
ATOM     35  C   UNL A   1      37.272  32.337  31.645  1.00  0.00     0.060 A 
ATOM     36  C   UNL A   1      37.642  32.742  30.356  1.00  0.00     0.016 A 
ATOM     37  C   UNL A   1      38.156  31.595  32.434  1.00  0.00     0.016 A 
ATOM     38  C   UNL A   1      38.887  32.391  29.842  1.00  0.00     0.010 A 
ATOM     39  C   UNL A   1      39.391  31.208  31.903  1.00  0.00     0.010 A 
ATOM     40  C   UNL A   1      39.744  31.578  30.594  1.00  0.00    -0.014 A 
BRANCH  40  41
ATOM     41  C   UNL A   1      40.880  30.919  29.911  1.00  0.00     0.031 A 
ATOM     42  C   UNL A   1      42.161  31.696  29.778  1.00  0.00     0.074 A 
ATOM     43  C   UNL A   1      40.805  29.651  29.475  1.00  0.00     0.049 A 
ATOM     44  N   UNL A   1      43.300  31.340  29.242  1.00  0.00    -0.248 NA
ATOM     45  C   UNL A   1      42.154  33.061  30.330  1.00  0.00     0.031 C 
ATOM     46  C   UNL A   1      39.644  28.774  29.605  1.00  0.00     0.029 A 
ATOM     47  N   UNL A   1      41.743  28.879  28.837  1.00  0.00    -0.354 N 
ATOM     48  C   UNL A   1      44.141  32.435  29.394  1.00  0.00     0.074 A 
ATOM     49  C   UNL A   1      43.373  33.479  30.034  1.00  0.00     0.031 C 
ATOM     50  C   UNL A   1      39.939  27.580  29.062  1.00  0.00     0.029 A 
ATOM     51  C   UNL A   1      41.296  27.620  28.521  1.00  0.00     0.049 A 
ATOM     52  H   UNL A   1      42.650  29.198  28.626  1.00  0.00     0.167 HD
ATOM     53  C   UNL A   1      45.441  32.560  29.040  1.00  0.00     0.031 A 
ATOM     54  C   UNL A   1      41.914  26.623  27.858  1.00  0.00     0.031 A 
ATOM     55  C   UNL A   1      46.193  31.533  28.370  1.00  0.00     0.049 A 
ATOM     56  C   UNL A   1      43.326  26.824  27.373  1.00  0.00     0.074 A 
ATOM     57  C   UNL A   1      47.514  31.560  27.959  1.00  0.00     0.029 A 
ATOM     58  N   UNL A   1      45.683  30.298  28.002  1.00  0.00    -0.354 N 
ATOM     59  N   UNL A   1      44.120  27.856  27.535  1.00  0.00    -0.248 NA
ATOM     60  C   UNL A   1      43.929  25.715  26.620  1.00  0.00     0.031 C 
ATOM     61  C   UNL A   1      47.782  30.366  27.282  1.00  0.00     0.029 A 
ATOM     62  C   UNL A   1      46.652  29.565  27.339  1.00  0.00     0.049 A 
ATOM     63  H   UNL A   1      44.767  29.987  28.185  1.00  0.00     0.167 HD
ATOM     64  C   UNL A   1      45.325  27.507  26.936  1.00  0.00     0.074 A 
ATOM     65  C   UNL A   1      45.161  26.163  26.421  1.00  0.00     0.031 C 
ATOM     66  C   UNL A   1      46.468  28.231  26.826  1.00  0.00     0.031 A 
BRANCH  53  67
ATOM     67  C   UNL A   1      46.104  33.878  29.327  1.00  0.00    -0.014 A 
ATOM     68  C   UNL A   1      46.248  34.860  28.331  1.00  0.00     0.009 A 
ATOM     69  C   UNL A   1      46.602  34.141  30.612  1.00  0.00     0.009 A 
ATOM     70  C   UNL A   1      46.915  36.056  28.607  1.00  0.00     0.001 A 
ATOM     71  C   UNL A   1      47.238  35.351  30.893  1.00  0.00     0.001 A 
ATOM     72  C   UNL A   1      47.405  36.302  29.888  1.00  0.00     0.000 A 
ENDBRANCH  53  67
BRANCH  54  73
ATOM     73  C   UNL A   1      41.202  25.342  27.603  1.00  0.00    -0.014 A 
ATOM     74  C   UNL A   1      40.109  25.293  26.724  1.00  0.00     0.009 A 
ATOM     75  C   UNL A   1      41.597  24.165  28.257  1.00  0.00     0.009 A 
ATOM     76  C   UNL A   1      39.414  24.097  26.524  1.00  0.00     0.001 A 
ATOM     77  C   UNL A   1      40.920  22.965  28.031  1.00  0.00     0.001 A 
ATOM     78  C   UNL A   1      39.823  22.934  27.172  1.00  0.00     0.000 A 
ENDBRANCH  54  73
BRANCH  66  79
ATOM     79  C   UNL A   1      47.643  27.566  26.159  1.00  0.00    -0.014 A 
ATOM     80  C   UNL A   1      48.597  26.847  26.896  1.00  0.00     0.009 A 
ATOM     81  C   UNL A   1      47.777  27.636  24.763  1.00  0.00     0.009 A 
ATOM     82  C   UNL A   1      49.685  26.251  26.252  1.00  0.00     0.001 A 
ATOM     83  C   UNL A   1      48.844  27.008  24.118  1.00  0.00     0.001 A 
ATOM     84  C   UNL A   1      49.805  26.329  24.864  1.00  0.00     0.000 A 
ENDBRANCH  66  79
ENDBRANCH  40  41
ENDBRANCH  33  35
ENDBRANCH  32  33
ENDBRANCH  31  32
ENDBRANCH  30  31
ENDBRANCH  29  30
ENDBRANCH  28  29
ENDBRANCH  27  28
ENDBRANCH  26  27
ENDBRANCH  25  26
ENDBRANCH   1  25
TORSDOF 27
ENDMDL
MODEL 3
REMARK VINA RESULT:      -8.2      1.192      5.937
REMARK SMILES CC[C@@H](C)CN(CC)C(=O)N1CC[C@@](CC)(C(=O)OCCOCCOCCOCCOC(=O)c2ccc(-c3c4nc(c(-c5ccccc5)c5ccc([nH]5)c(-c5ccccc5)c5nc(c(-c6ccccc6)c6ccc3[nH]6)C=C5)C=C4)cc2)C1
REMARK SMILES IDX 23 1 22 2 21 3 20 4 19 5 17 6 18 7 14 8 11 9 12 10 82 11
REMARK SMILES IDX 13 12 9 13 10 14 6 15 5 16 3 17 4 18 2 19 1 20 7 21 8 22
REMARK SMILES IDX 15 23 16 24 24 25 25 26 26 27 27 28 28 29 29 30 30 31 31 32
REMARK SMILES IDX 32 33 33 34 34 35 35 36 81 37 36 38 80 39 37 40 38 41 39 42
REMARK SMILES IDX 74 43 40 44 79 45 73 46 75 47 41 48 78 49 72 50 71 51 42 53
REMARK SMILES IDX 64 54 49 55 63 56 50 57 53 58 62 59 76 60 51 61 52 62 61 64
REMARK SMILES IDX 77 65 54 66 43 67 44 68 48 69 45 70 47 71 46 72 65 73 66 74
REMARK SMILES IDX 70 75 67 76 69 77 68 78 55 79 56 80 60 81 57 82 59 83 58 84
REMARK H PARENT 75 52 53 63
REMARK Flexibility Score: inf
ROOT
ATOM      1  C   UNL A   1      38.124  23.652  26.487  1.00  0.00     0.188 C 
ENDROOT
BRANCH   1   2
ATOM      2  O   UNL A   1      37.943  22.972  25.251  1.00  0.00    -0.376 OA
BRANCH   2   3
ATOM      3  C   UNL A   1      37.787  21.565  25.239  1.00  0.00     0.202 C 
BRANCH   3   4
ATOM      4  C   UNL A   1      36.541  20.960  24.569  1.00  0.00     0.261 C 
BRANCH   4   5
ATOM      5  O   UNL A   1      35.709  20.112  25.382  1.00  0.00    -0.463 OA
BRANCH   5   6
ATOM      6  C   UNL A   1      34.423  19.963  24.975  1.00  0.00     0.314 C 
ATOM      7  O   UNL A   1      34.011  18.982  24.365  1.00  0.00    -0.252 OA
BRANCH   6   8
ATOM      8  C   UNL A   1      33.552  21.201  25.244  1.00  0.00     0.087 C 
ATOM      9  N   UNL A   1      33.050  22.918  23.613  1.00  0.00    -0.323 N 
ATOM     10  C   UNL A   1      32.041  21.906  23.465  1.00  0.00     0.122 C 
ATOM     11  C   UNL A   1      34.150  22.368  24.412  1.00  0.00     0.140 C 
ATOM     12  C   UNL A   1      32.069  21.211  24.807  1.00  0.00     0.042 C 
BRANCH   9  13
ATOM     13  C   UNL A   1      33.320  23.799  22.584  1.00  0.00     0.320 C 
ATOM     14  O   UNL A   1      34.022  23.461  21.632  1.00  0.00    -0.248 OA
BRANCH  13  15
ATOM     15  N   UNL A   1      32.856  25.100  22.752  1.00  0.00    -0.325 N 
BRANCH  15  16
ATOM     16  C   UNL A   1      32.321  25.491  24.063  1.00  0.00     0.124 C 
BRANCH  16  17
ATOM     17  C   UNL A   1      32.846  26.872  24.553  1.00  0.00     0.005 C 
ATOM     18  C   UNL A   1      33.641  26.681  25.849  1.00  0.00     0.009 C 
BRANCH  17  19
ATOM     19  C   UNL A   1      31.689  27.877  24.740  1.00  0.00     0.002 C 
ATOM     20  C   UNL A   1      30.435  27.614  23.921  1.00  0.00     0.004 C 
ENDBRANCH  17  19
ENDBRANCH  16  17
ENDBRANCH  15  16
BRANCH  15  21
ATOM     21  C   UNL A   1      32.917  26.145  21.730  1.00  0.00     0.118 C 
ATOM     22  C   UNL A   1      32.494  25.586  20.371  1.00  0.00     0.027 C 
ENDBRANCH  15  21
ENDBRANCH  13  15
ENDBRANCH   9  13
BRANCH   8  23
ATOM     23  C   UNL A   1      33.617  21.418  26.774  1.00  0.00     0.017 C 
ATOM     24  C   UNL A   1      32.765  22.606  27.241  1.00  0.00     0.005 C 
ENDBRANCH   8  23
ENDBRANCH   6   8
ENDBRANCH   5   6
ENDBRANCH   4   5
ENDBRANCH   3   4
ENDBRANCH   2   3
ENDBRANCH   1   2
BRANCH   1  25
ATOM     25  C   UNL A   1      39.541  23.938  27.035  1.00  0.00     0.188 C 
BRANCH  25  26
ATOM     26  O   UNL A   1      40.217  22.829  27.596  1.00  0.00    -0.377 OA
BRANCH  26  27
ATOM     27  C   UNL A   1      41.132  22.204  26.719  1.00  0.00     0.188 C 
BRANCH  27  28
ATOM     28  C   UNL A   1      41.015  20.673  26.650  1.00  0.00     0.188 C 
BRANCH  28  29
ATOM     29  O   UNL A   1      41.953  20.013  27.492  1.00  0.00    -0.376 OA
BRANCH  29  30
ATOM     30  C   UNL A   1      42.586  18.824  27.056  1.00  0.00     0.202 C 
BRANCH  30  31
ATOM     31  C   UNL A   1      43.068  18.763  25.596  1.00  0.00     0.261 C 
BRANCH  31  32
ATOM     32  O   UNL A   1      44.422  19.159  25.350  1.00  0.00    -0.460 OA
BRANCH  32  33
ATOM     33  C   UNL A   1      44.638  20.018  24.333  1.00  0.00     0.338 C 
ATOM     34  O   UNL A   1      44.613  19.766  23.139  1.00  0.00    -0.246 OA
BRANCH  33  35
ATOM     35  C   UNL A   1      44.699  21.381  24.902  1.00  0.00     0.060 A 
ATOM     36  C   UNL A   1      44.278  22.455  24.106  1.00  0.00     0.016 A 
ATOM     37  C   UNL A   1      45.114  21.597  26.219  1.00  0.00     0.016 A 
ATOM     38  C   UNL A   1      44.290  23.750  24.616  1.00  0.00     0.010 A 
ATOM     39  C   UNL A   1      45.164  22.902  26.718  1.00  0.00     0.010 A 
ATOM     40  C   UNL A   1      44.783  23.984  25.905  1.00  0.00    -0.014 A 
BRANCH  40  41
ATOM     41  C   UNL A   1      45.130  25.369  26.294  1.00  0.00     0.031 A 
ATOM     42  C   UNL A   1      44.034  26.234  26.855  1.00  0.00     0.074 A 
ATOM     43  C   UNL A   1      46.388  25.834  26.212  1.00  0.00     0.049 A 
ATOM     44  N   UNL A   1      44.082  27.468  27.284  1.00  0.00    -0.248 NA
ATOM     45  C   UNL A   1      42.701  25.614  26.947  1.00  0.00     0.031 C 
ATOM     46  C   UNL A   1      47.546  25.075  25.749  1.00  0.00     0.029 A 
ATOM     47  N   UNL A   1      46.895  27.068  26.530  1.00  0.00    -0.354 N 
ATOM     48  C   UNL A   1      42.790  27.770  27.695  1.00  0.00     0.074 A 
ATOM     49  C   UNL A   1      41.973  26.608  27.429  1.00  0.00     0.031 C 
ATOM     50  C   UNL A   1      48.635  25.862  25.814  1.00  0.00     0.029 A 
ATOM     51  C   UNL A   1      48.243  27.186  26.292  1.00  0.00     0.049 A 
ATOM     52  H   UNL A   1      46.346  27.800  26.894  1.00  0.00     0.167 HD
ATOM     53  C   UNL A   1      42.325  28.911  28.254  1.00  0.00     0.031 A 
ATOM     54  C   UNL A   1      49.058  28.250  26.434  1.00  0.00     0.031 A 
ATOM     55  C   UNL A   1      43.130  30.079  28.486  1.00  0.00     0.049 A 
ATOM     56  C   UNL A   1      48.493  29.547  26.953  1.00  0.00     0.074 A 
ATOM     57  C   UNL A   1      42.756  31.291  29.038  1.00  0.00     0.029 A 
ATOM     58  N   UNL A   1      44.474  30.184  28.163  1.00  0.00    -0.354 N 
ATOM     59  N   UNL A   1      47.274  29.820  27.355  1.00  0.00    -0.248 NA
ATOM     60  C   UNL A   1      49.423  30.681  27.045  1.00  0.00     0.031 C 
ATOM     61  C   UNL A   1      43.858  32.151  28.987  1.00  0.00     0.029 A 
ATOM     62  C   UNL A   1      44.938  31.451  28.474  1.00  0.00     0.049 A 
ATOM     63  H   UNL A   1      45.020  29.463  27.771  1.00  0.00     0.167 HD
ATOM     64  C   UNL A   1      47.301  31.143  27.780  1.00  0.00     0.074 A 
ATOM     65  C   UNL A   1      48.660  31.612  27.600  1.00  0.00     0.031 C 
ATOM     66  C   UNL A   1      46.293  31.902  28.280  1.00  0.00     0.031 A 
BRANCH  53  67
ATOM     67  C   UNL A   1      40.861  28.956  28.598  1.00  0.00    -0.014 A 
ATOM     68  C   UNL A   1      39.891  29.277  27.634  1.00  0.00     0.009 A 
ATOM     69  C   UNL A   1      40.447  28.682  29.911  1.00  0.00     0.009 A 
ATOM     70  C   UNL A   1      38.542  29.365  27.990  1.00  0.00     0.001 A 
ATOM     71  C   UNL A   1      39.096  28.737  30.255  1.00  0.00     0.001 A 
ATOM     72  C   UNL A   1      38.146  29.090  29.298  1.00  0.00     0.000 A 
ENDBRANCH  53  67
BRANCH  54  73
ATOM     73  C   UNL A   1      50.496  28.142  26.072  1.00  0.00    -0.014 A 
ATOM     74  C   UNL A   1      50.927  28.404  24.763  1.00  0.00     0.009 A 
ATOM     75  C   UNL A   1      51.444  27.752  27.031  1.00  0.00     0.009 A 
ATOM     76  C   UNL A   1      52.273  28.255  24.417  1.00  0.00     0.001 A 
ATOM     77  C   UNL A   1      52.793  27.635  26.690  1.00  0.00     0.001 A 
ATOM     78  C   UNL A   1      53.205  27.876  25.381  1.00  0.00     0.000 A 
ENDBRANCH  54  73
BRANCH  66  79
ATOM     79  C   UNL A   1      46.634  33.306  28.707  1.00  0.00    -0.014 A 
ATOM     80  C   UNL A   1      47.048  33.596  30.016  1.00  0.00     0.009 A 
ATOM     81  C   UNL A   1      46.568  34.349  27.769  1.00  0.00     0.009 A 
ATOM     82  C   UNL A   1      47.346  34.910  30.388  1.00  0.00     0.001 A 
ATOM     83  C   UNL A   1      46.901  35.654  28.133  1.00  0.00     0.001 A 
ATOM     84  C   UNL A   1      47.276  35.936  29.445  1.00  0.00     0.000 A 
ENDBRANCH  66  79
ENDBRANCH  40  41
ENDBRANCH  33  35
ENDBRANCH  32  33
ENDBRANCH  31  32
ENDBRANCH  30  31
ENDBRANCH  29  30
ENDBRANCH  28  29
ENDBRANCH  27  28
ENDBRANCH  26  27
ENDBRANCH  25  26
ENDBRANCH   1  25
TORSDOF 27
ENDMDL
