MODEL 1
REMARK VINA RESULT:     -11.2      0.000      0.000
REMARK SMILES Cc1c(NC(=O)c2cccc(-c3cc4ccccc4oc3=O)c2)cccc1C(=O)OCCOCCOCCOCCOC(=O)c1ccc(-c2c3nc(c(-c4ccccc4)c4ccc([nH]4)c(-c4ccccc4)c4nc(c(-c5ccccc5)c5ccc2[nH]5)C=C4)C=C3)cc1
REMARK SMILES IDX 35 1 34 2 33 3 32 4 31 5 30 6 28 7 29 8 27 9 1 10 2 11 3 12
REMARK SMILES IDX 24 13 26 14 25 15 4 16 5 17 6 19 7 20 8 21 23 22 9 23 11 24
REMARK SMILES IDX 10 25 12 26 13 27 21 28 14 29 20 30 22 31 15 32 19 33 16 34
REMARK SMILES IDX 18 35 17 36 36 37 37 38 38 39 39 40 40 41 41 42 42 43 43 44
REMARK SMILES IDX 44 45 45 46 46 47 92 48 47 49 91 50 48 51 49 52 50 53 85 54
REMARK SMILES IDX 51 55 90 56 84 57 86 58 52 59 89 60 83 61 82 62 53 64 75 65
REMARK SMILES IDX 60 66 74 67 61 68 64 69 73 70 87 71 62 72 63 73 72 75 88 76
REMARK SMILES IDX 65 77 54 78 55 79 59 80 56 81 58 82 57 83 76 84 77 85 81 86
REMARK SMILES IDX 78 87 80 88 79 89 66 90 67 91 71 92 68 93 70 94 69 95
REMARK H PARENT 4 18 86 63 64 74
REMARK Flexibility Score: inf
ROOT
ATOM      1  C   UNL A   1      41.654  19.882  26.471  1.00  0.00     0.188 C 
ENDROOT
BRANCH   1   2
ATOM      2  C   UNL A   1      40.216  20.179  26.067  1.00  0.00     0.188 C 
BRANCH   2   3
ATOM      3  O   UNL A   1      39.678  21.229  26.872  1.00  0.00    -0.376 OA
BRANCH   3   4
ATOM      4  C   UNL A   1      38.957  22.191  26.107  1.00  0.00     0.202 C 
BRANCH   4   5
ATOM      5  C   UNL A   1      37.951  21.521  25.193  1.00  0.00     0.261 C 
BRANCH   5   6
ATOM      6  O   UNL A   1      36.605  21.916  25.499  1.00  0.00    -0.460 OA
BRANCH   6   7
ATOM      7  C   UNL A   1      36.216  23.030  24.833  1.00  0.00     0.338 C 
ATOM      8  O   UNL A   1      36.918  23.825  24.260  1.00  0.00    -0.246 OA
BRANCH   7   9
ATOM      9  C   UNL A   1      34.757  22.981  24.580  1.00  0.00     0.065 A 
ATOM     10  C   UNL A   1      34.028  23.345  26.985  1.00  0.00     0.047 C 
ATOM     11  C   UNL A   1      33.713  23.144  25.525  1.00  0.00    -0.013 A 
ATOM     12  C   UNL A   1      32.377  23.095  25.045  1.00  0.00     0.045 A 
ATOM     13  C   UNL A   1      32.150  22.960  23.667  1.00  0.00     0.026 A 
ATOM     14  C   UNL A   1      34.485  22.739  23.227  1.00  0.00     0.016 A 
ATOM     15  C   UNL A   1      33.184  22.738  22.768  1.00  0.00     0.003 A 
BRANCH  12  16
ATOM     16  N   UNL A   1      31.279  23.184  25.936  1.00  0.00    -0.322 N 
ATOM     17  C   UNL A   1      30.357  24.199  26.170  1.00  0.00     0.255 C 
ATOM     18  H   UNL A   1      31.144  22.382  26.492  1.00  0.00     0.170 HD
ATOM     19  O   UNL A   1      29.639  24.142  27.169  1.00  0.00    -0.269 OA
BRANCH  17  20
ATOM     20  C   UNL A   1      30.113  25.304  25.197  1.00  0.00     0.040 A 
ATOM     21  C   UNL A   1      28.830  25.656  24.800  1.00  0.00     0.014 A 
ATOM     22  C   UNL A   1      31.192  25.950  24.596  1.00  0.00     0.022 A 
ATOM     23  C   UNL A   1      28.654  26.701  23.883  1.00  0.00     0.001 A 
ATOM     24  C   UNL A   1      31.054  26.998  23.668  1.00  0.00    -0.010 A 
ATOM     25  C   UNL A   1      29.754  27.375  23.332  1.00  0.00     0.009 A 
BRANCH  24  26
ATOM     26  C   UNL A   1      32.204  27.675  22.983  1.00  0.00     0.068 A 
ATOM     27  C   UNL A   1      32.541  28.971  23.182  1.00  0.00     0.028 A 
ATOM     28  C   UNL A   1      33.498  26.903  22.969  1.00  0.00     0.344 A 
ATOM     29  C   UNL A   1      33.035  29.110  24.562  1.00  0.00     0.018 A 
ATOM     30  O   UNL A   1      34.267  27.071  24.135  1.00  0.00    -0.422 OA
ATOM     31  O   UNL A   1      33.837  26.194  22.032  1.00  0.00    -0.246 OA
ATOM     32  C   UNL A   1      32.461  30.002  25.446  1.00  0.00     0.012 A 
ATOM     33  C   UNL A   1      33.857  28.077  25.042  1.00  0.00     0.138 A 
ATOM     34  C   UNL A   1      32.701  29.839  26.811  1.00  0.00     0.001 A 
ATOM     35  C   UNL A   1      34.117  27.923  26.398  1.00  0.00     0.048 A 
ATOM     36  C   UNL A   1      33.518  28.811  27.289  1.00  0.00     0.004 A 
ENDBRANCH  24  26
ENDBRANCH  17  20
ENDBRANCH  12  16
ENDBRANCH   7   9
ENDBRANCH   6   7
ENDBRANCH   5   6
ENDBRANCH   4   5
ENDBRANCH   3   4
ENDBRANCH   2   3
ENDBRANCH   1   2
BRANCH   1  37
ATOM     37  O   UNL A   1      42.591  20.433  25.552  1.00  0.00    -0.377 OA
BRANCH  37  38
ATOM     38  C   UNL A   1      42.966  21.801  25.693  1.00  0.00     0.188 C 
BRANCH  38  39
ATOM     39  C   UNL A   1      43.149  22.343  27.100  1.00  0.00     0.188 C 
BRANCH  39  40
ATOM     40  O   UNL A   1      42.992  23.752  26.999  1.00  0.00    -0.376 OA
BRANCH  40  41
ATOM     41  C   UNL A   1      42.123  24.229  25.990  1.00  0.00     0.202 C 
BRANCH  41  42
ATOM     42  C   UNL A   1      41.841  25.704  26.230  1.00  0.00     0.261 C 
BRANCH  42  43
ATOM     43  O   UNL A   1      40.614  25.798  26.992  1.00  0.00    -0.460 OA
BRANCH  43  44
ATOM     44  C   UNL A   1      40.316  27.049  27.442  1.00  0.00     0.338 C 
ATOM     45  O   UNL A   1      40.222  28.039  26.733  1.00  0.00    -0.246 OA
BRANCH  44  46
ATOM     46  C   UNL A   1      40.387  27.123  28.936  1.00  0.00     0.060 A 
ATOM     47  C   UNL A   1      39.202  27.025  29.685  1.00  0.00     0.016 A 
ATOM     48  C   UNL A   1      41.530  27.635  29.541  1.00  0.00     0.016 A 
ATOM     49  C   UNL A   1      39.117  27.605  30.962  1.00  0.00     0.010 A 
ATOM     50  C   UNL A   1      41.398  28.326  30.735  1.00  0.00     0.010 A 
ATOM     51  C   UNL A   1      40.186  28.357  31.447  1.00  0.00    -0.014 A 
BRANCH  51  52
ATOM     52  C   UNL A   1      40.105  29.362  32.536  1.00  0.00     0.031 A 
ATOM     53  C   UNL A   1      40.899  29.133  33.800  1.00  0.00     0.074 A 
ATOM     54  C   UNL A   1      39.638  30.603  32.221  1.00  0.00     0.049 A 
ATOM     55  N   UNL A   1      41.035  29.982  34.761  1.00  0.00    -0.248 NA
ATOM     56  C   UNL A   1      41.670  27.912  34.064  1.00  0.00     0.031 C 
ATOM     57  C   UNL A   1      39.960  31.876  32.870  1.00  0.00     0.029 A 
ATOM     58  N   UNL A   1      38.796  31.034  31.202  1.00  0.00    -0.354 N 
ATOM     59  C   UNL A   1      42.090  29.590  35.571  1.00  0.00     0.074 A 
ATOM     60  C   UNL A   1      42.416  28.261  35.120  1.00  0.00     0.031 C 
ATOM     61  C   UNL A   1      39.255  32.883  32.333  1.00  0.00     0.029 A 
ATOM     62  C   UNL A   1      38.232  32.264  31.547  1.00  0.00     0.049 A 
ATOM     63  H   UNL A   1      38.625  30.546  30.363  1.00  0.00     0.167 HD
ATOM     64  C   UNL A   1      42.643  30.487  36.446  1.00  0.00     0.031 A 
ATOM     65  C   UNL A   1      36.914  32.407  31.879  1.00  0.00     0.031 A 
ATOM     66  C   UNL A   1      41.819  31.707  36.567  1.00  0.00     0.049 A 
ATOM     67  C   UNL A   1      36.778  32.670  33.389  1.00  0.00     0.074 A 
ATOM     68  C   UNL A   1      42.069  33.067  36.509  1.00  0.00     0.029 A 
ATOM     69  N   UNL A   1      40.428  31.590  36.590  1.00  0.00    -0.354 N 
ATOM     70  N   UNL A   1      37.642  32.220  34.280  1.00  0.00    -0.248 NA
ATOM     71  C   UNL A   1      35.852  33.639  33.984  1.00  0.00     0.031 C 
ATOM     72  C   UNL A   1      40.833  33.730  36.248  1.00  0.00     0.029 A 
ATOM     73  C   UNL A   1      39.812  32.792  36.316  1.00  0.00     0.049 A 
ATOM     74  H   UNL A   1      39.946  30.753  36.779  1.00  0.00     0.167 HD
ATOM     75  C   UNL A   1      37.503  32.912  35.457  1.00  0.00     0.074 A 
ATOM     76  C   UNL A   1      36.329  33.744  35.240  1.00  0.00     0.031 C 
ATOM     77  C   UNL A   1      38.377  32.928  36.512  1.00  0.00     0.031 A 
BRANCH  64  78
ATOM     78  C   UNL A   1      44.038  30.370  37.070  1.00  0.00    -0.014 A 
ATOM     79  C   UNL A   1      44.240  30.753  38.414  1.00  0.00     0.009 A 
ATOM     80  C   UNL A   1      45.212  30.006  36.380  1.00  0.00     0.009 A 
ATOM     81  C   UNL A   1      45.509  30.785  39.020  1.00  0.00     0.001 A 
ATOM     82  C   UNL A   1      46.483  29.992  36.992  1.00  0.00     0.001 A 
ATOM     83  C   UNL A   1      46.634  30.393  38.311  1.00  0.00     0.000 A 
ENDBRANCH  64  78
BRANCH  65  84
ATOM     84  C   UNL A   1      36.040  31.811  30.817  1.00  0.00    -0.014 A 
ATOM     85  C   UNL A   1      35.974  32.633  29.660  1.00  0.00     0.009 A 
ATOM     86  C   UNL A   1      36.039  30.419  30.618  1.00  0.00     0.009 A 
ATOM     87  C   UNL A   1      36.271  32.110  28.394  1.00  0.00     0.001 A 
ATOM     88  C   UNL A   1      36.284  29.896  29.332  1.00  0.00     0.001 A 
ATOM     89  C   UNL A   1      36.486  30.745  28.242  1.00  0.00     0.000 A 
ENDBRANCH  65  84
BRANCH  77  90
ATOM     90  C   UNL A   1      37.926  33.036  37.954  1.00  0.00    -0.014 A 
ATOM     91  C   UNL A   1      37.118  32.075  38.567  1.00  0.00     0.009 A 
ATOM     92  C   UNL A   1      38.545  33.986  38.809  1.00  0.00     0.009 A 
ATOM     93  C   UNL A   1      36.929  32.070  39.952  1.00  0.00     0.001 A 
ATOM     94  C   UNL A   1      38.399  33.953  40.193  1.00  0.00     0.001 A 
ATOM     95  C   UNL A   1      37.581  32.994  40.766  1.00  0.00     0.000 A 
ENDBRANCH  77  90
ENDBRANCH  51  52
ENDBRANCH  44  46
ENDBRANCH  43  44
ENDBRANCH  42  43
ENDBRANCH  41  42
ENDBRANCH  40  41
ENDBRANCH  39  40
ENDBRANCH  38  39
ENDBRANCH  37  38
ENDBRANCH   1  37
TORSDOF 23
ENDMDL
MODEL 2
REMARK VINA RESULT:     -10.3      1.466      2.218
REMARK SMILES Cc1c(NC(=O)c2cccc(-c3cc4ccccc4oc3=O)c2)cccc1C(=O)OCCOCCOCCOCCOC(=O)c1ccc(-c2c3nc(c(-c4ccccc4)c4ccc([nH]4)c(-c4ccccc4)c4nc(c(-c5ccccc5)c5ccc2[nH]5)C=C4)C=C3)cc1
REMARK SMILES IDX 35 1 34 2 33 3 32 4 31 5 30 6 28 7 29 8 27 9 1 10 2 11 3 12
REMARK SMILES IDX 24 13 26 14 25 15 4 16 5 17 6 19 7 20 8 21 23 22 9 23 11 24
REMARK SMILES IDX 10 25 12 26 13 27 21 28 14 29 20 30 22 31 15 32 19 33 16 34
REMARK SMILES IDX 18 35 17 36 36 37 37 38 38 39 39 40 40 41 41 42 42 43 43 44
REMARK SMILES IDX 44 45 45 46 46 47 92 48 47 49 91 50 48 51 49 52 50 53 85 54
REMARK SMILES IDX 51 55 90 56 84 57 86 58 52 59 89 60 83 61 82 62 53 64 75 65
REMARK SMILES IDX 60 66 74 67 61 68 64 69 73 70 87 71 62 72 63 73 72 75 88 76
REMARK SMILES IDX 65 77 54 78 55 79 59 80 56 81 58 82 57 83 76 84 77 85 81 86
REMARK SMILES IDX 78 87 80 88 79 89 66 90 67 91 71 92 68 93 70 94 69 95
REMARK H PARENT 4 18 86 63 64 74
REMARK Flexibility Score: inf
ROOT
ATOM      1  C   UNL A   1      42.030  20.087  26.530  1.00  0.00     0.188 C 
ENDROOT
BRANCH   1   2
ATOM      2  C   UNL A   1      40.553  20.122  26.161  1.00  0.00     0.188 C 
BRANCH   2   3
ATOM      3  O   UNL A   1      39.859  21.075  26.968  1.00  0.00    -0.376 OA
BRANCH   3   4
ATOM      4  C   UNL A   1      39.090  21.990  26.193  1.00  0.00     0.202 C 
BRANCH   4   5
ATOM      5  C   UNL A   1      38.005  21.272  25.416  1.00  0.00     0.261 C 
BRANCH   5   6
ATOM      6  O   UNL A   1      36.704  21.498  25.980  1.00  0.00    -0.460 OA
BRANCH   6   7
ATOM      7  C   UNL A   1      36.089  22.594  25.471  1.00  0.00     0.338 C 
ATOM      8  O   UNL A   1      36.610  23.589  25.032  1.00  0.00    -0.246 OA
BRANCH   7   9
ATOM      9  C   UNL A   1      34.670  22.285  25.182  1.00  0.00     0.065 A 
ATOM     10  C   UNL A   1      33.804  22.640  27.543  1.00  0.00     0.047 C 
ATOM     11  C   UNL A   1      33.580  22.316  26.088  1.00  0.00    -0.013 A 
ATOM     12  C   UNL A   1      32.290  22.017  25.576  1.00  0.00     0.045 A 
ATOM     13  C   UNL A   1      32.138  21.777  24.201  1.00  0.00     0.026 A 
ATOM     14  C   UNL A   1      34.491  21.933  23.837  1.00  0.00     0.016 A 
ATOM     15  C   UNL A   1      33.226  21.689  23.345  1.00  0.00     0.003 A 
BRANCH  12  16
ATOM     16  N   UNL A   1      31.161  21.963  26.431  1.00  0.00    -0.322 N 
ATOM     17  C   UNL A   1      30.403  22.965  27.028  1.00  0.00     0.255 C 
ATOM     18  H   UNL A   1      30.858  21.050  26.643  1.00  0.00     0.170 HD
ATOM     19  O   UNL A   1      29.618  22.670  27.929  1.00  0.00    -0.269 OA
BRANCH  17  20
ATOM     20  C   UNL A   1      30.412  24.377  26.544  1.00  0.00     0.040 A 
ATOM     21  C   UNL A   1      29.271  24.979  26.030  1.00  0.00     0.014 A 
ATOM     22  C   UNL A   1      31.607  25.094  26.517  1.00  0.00     0.022 A 
ATOM     23  C   UNL A   1      29.332  26.307  25.587  1.00  0.00     0.001 A 
ATOM     24  C   UNL A   1      31.707  26.425  26.076  1.00  0.00    -0.010 A 
ATOM     25  C   UNL A   1      30.535  27.029  25.623  1.00  0.00     0.009 A 
BRANCH  24  26
ATOM     26  C   UNL A   1      32.992  27.195  26.004  1.00  0.00     0.068 A 
ATOM     27  C   UNL A   1      34.132  26.710  25.457  1.00  0.00     0.028 A 
ATOM     28  C   UNL A   1      32.872  28.620  25.527  1.00  0.00     0.344 A 
ATOM     29  C   UNL A   1      33.918  26.566  24.007  1.00  0.00     0.018 A 
ATOM     30  O   UNL A   1      32.874  28.746  24.126  1.00  0.00    -0.422 OA
ATOM     31  O   UNL A   1      32.774  29.570  26.292  1.00  0.00    -0.246 OA
ATOM     32  C   UNL A   1      34.095  25.353  23.370  1.00  0.00     0.012 A 
ATOM     33  C   UNL A   1      33.202  27.595  23.372  1.00  0.00     0.138 A 
ATOM     34  C   UNL A   1      33.533  25.175  22.105  1.00  0.00     0.001 A 
ATOM     35  C   UNL A   1      32.660  27.429  22.104  1.00  0.00     0.048 A 
ATOM     36  C   UNL A   1      32.820  26.197  21.473  1.00  0.00     0.004 A 
ENDBRANCH  24  26
ENDBRANCH  17  20
ENDBRANCH  12  16
ENDBRANCH   7   9
ENDBRANCH   6   7
ENDBRANCH   5   6
ENDBRANCH   4   5
ENDBRANCH   3   4
ENDBRANCH   2   3
ENDBRANCH   1   2
BRANCH   1  37
ATOM     37  O   UNL A   1      42.834  20.775  25.578  1.00  0.00    -0.377 OA
BRANCH  37  38
ATOM     38  C   UNL A   1      42.818  22.201  25.570  1.00  0.00     0.188 C 
BRANCH  38  39
ATOM     39  C   UNL A   1      43.081  22.919  26.882  1.00  0.00     0.188 C 
BRANCH  39  40
ATOM     40  O   UNL A   1      43.290  24.283  26.546  1.00  0.00    -0.376 OA
BRANCH  40  41
ATOM     41  C   UNL A   1      43.073  24.651  25.196  1.00  0.00     0.202 C 
BRANCH  41  42
ATOM     42  C   UNL A   1      43.130  26.166  25.076  1.00  0.00     0.261 C 
BRANCH  42  43
ATOM     43  O   UNL A   1      41.785  26.672  25.254  1.00  0.00    -0.460 OA
BRANCH  43  44
ATOM     44  C   UNL A   1      41.713  27.924  25.786  1.00  0.00     0.338 C 
ATOM     45  O   UNL A   1      41.991  28.952  25.186  1.00  0.00    -0.246 OA
BRANCH  44  46
ATOM     46  C   UNL A   1      41.515  27.877  27.270  1.00  0.00     0.060 A 
ATOM     47  C   UNL A   1      40.214  27.966  27.793  1.00  0.00     0.016 A 
ATOM     48  C   UNL A   1      42.600  28.106  28.110  1.00  0.00     0.016 A 
ATOM     49  C   UNL A   1      40.000  28.460  29.090  1.00  0.00     0.010 A 
ATOM     50  C   UNL A   1      42.377  28.723  29.330  1.00  0.00     0.010 A 
ATOM     51  C   UNL A   1      41.081  28.946  29.826  1.00  0.00    -0.014 A 
BRANCH  51  52
ATOM     52  C   UNL A   1      40.985  29.868  30.985  1.00  0.00     0.031 A 
ATOM     53  C   UNL A   1      41.606  29.455  32.298  1.00  0.00     0.074 A 
ATOM     54  C   UNL A   1      40.686  31.174  30.735  1.00  0.00     0.049 A 
ATOM     55  N   UNL A   1      41.723  30.208  33.339  1.00  0.00    -0.248 NA
ATOM     56  C   UNL A   1      42.212  28.138  32.531  1.00  0.00     0.031 C 
ATOM     57  C   UNL A   1      41.065  32.349  31.523  1.00  0.00     0.029 A 
ATOM     58  N   UNL A   1      40.011  31.773  29.677  1.00  0.00    -0.354 N 
ATOM     59  C   UNL A   1      42.635  29.638  34.214  1.00  0.00     0.074 A 
ATOM     60  C   UNL A   1      42.869  28.319  33.683  1.00  0.00     0.031 C 
ATOM     61  C   UNL A   1      40.532  33.467  31.008  1.00  0.00     0.029 A 
ATOM     62  C   UNL A   1      39.543  33.028  30.070  1.00  0.00     0.049 A 
ATOM     63  H   UNL A   1      39.884  31.373  28.786  1.00  0.00     0.167 HD
ATOM     64  C   UNL A   1      43.178  30.398  35.216  1.00  0.00     0.031 A 
ATOM     65  C   UNL A   1      38.218  33.293  30.279  1.00  0.00     0.031 A 
ATOM     66  C   UNL A   1      42.477  31.690  35.360  1.00  0.00     0.049 A 
ATOM     67  C   UNL A   1      37.944  33.454  31.784  1.00  0.00     0.074 A 
ATOM     68  C   UNL A   1      42.871  33.014  35.447  1.00  0.00     0.029 A 
ATOM     69  N   UNL A   1      41.087  31.729  35.231  1.00  0.00    -0.354 N 
ATOM     70  N   UNL A   1      38.653  32.843  32.715  1.00  0.00    -0.248 NA
ATOM     71  C   UNL A   1      37.064  34.472  32.365  1.00  0.00     0.031 C 
ATOM     72  C   UNL A   1      41.747  33.830  35.122  1.00  0.00     0.029 A 
ATOM     73  C   UNL A   1      40.632  33.010  35.003  1.00  0.00     0.049 A 
ATOM     74  H   UNL A   1      40.503  30.939  35.296  1.00  0.00     0.167 HD
ATOM     75  C   UNL A   1      38.457  33.454  33.928  1.00  0.00     0.074 A 
ATOM     76  C   UNL A   1      37.407  34.427  33.668  1.00  0.00     0.031 C 
ATOM     77  C   UNL A   1      39.206  33.290  35.064  1.00  0.00     0.031 A 
BRANCH  64  78
ATOM     78  C   UNL A   1      44.476  30.078  35.966  1.00  0.00    -0.014 A 
ATOM     79  C   UNL A   1      44.437  29.277  37.128  1.00  0.00     0.009 A 
ATOM     80  C   UNL A   1      45.746  30.611  35.662  1.00  0.00     0.009 A 
ATOM     81  C   UNL A   1      45.565  29.036  37.932  1.00  0.00     0.001 A 
ATOM     82  C   UNL A   1      46.891  30.339  36.439  1.00  0.00     0.001 A 
ATOM     83  C   UNL A   1      46.800  29.560  37.582  1.00  0.00     0.000 A 
ENDBRANCH  64  78
BRANCH  65  84
ATOM     84  C   UNL A   1      37.410  32.882  29.084  1.00  0.00    -0.014 A 
ATOM     85  C   UNL A   1      37.291  31.471  28.982  1.00  0.00     0.009 A 
ATOM     86  C   UNL A   1      36.297  33.652  28.701  1.00  0.00     0.009 A 
ATOM     87  C   UNL A   1      36.031  30.867  28.873  1.00  0.00     0.001 A 
ATOM     88  C   UNL A   1      35.041  33.031  28.538  1.00  0.00     0.001 A 
ATOM     89  C   UNL A   1      34.897  31.653  28.711  1.00  0.00     0.000 A 
ENDBRANCH  65  84
BRANCH  77  90
ATOM     90  C   UNL A   1      38.613  33.338  36.456  1.00  0.00    -0.014 A 
ATOM     91  C   UNL A   1      37.810  32.318  36.970  1.00  0.00     0.009 A 
ATOM     92  C   UNL A   1      39.088  34.302  37.384  1.00  0.00     0.009 A 
ATOM     93  C   UNL A   1      37.488  32.269  38.330  1.00  0.00     0.001 A 
ATOM     94  C   UNL A   1      38.811  34.229  38.747  1.00  0.00     0.001 A 
ATOM     95  C   UNL A   1      38.001  33.209  39.220  1.00  0.00     0.000 A 
ENDBRANCH  77  90
ENDBRANCH  51  52
ENDBRANCH  44  46
ENDBRANCH  43  44
ENDBRANCH  42  43
ENDBRANCH  41  42
ENDBRANCH  40  41
ENDBRANCH  39  40
ENDBRANCH  38  39
ENDBRANCH  37  38
ENDBRANCH   1  37
TORSDOF 23
ENDMDL
MODEL 3
REMARK VINA RESULT:     -10.1      3.874     10.227
REMARK SMILES Cc1c(NC(=O)c2cccc(-c3cc4ccccc4oc3=O)c2)cccc1C(=O)OCCOCCOCCOCCOC(=O)c1ccc(-c2c3nc(c(-c4ccccc4)c4ccc([nH]4)c(-c4ccccc4)c4nc(c(-c5ccccc5)c5ccc2[nH]5)C=C4)C=C3)cc1
REMARK SMILES IDX 35 1 34 2 33 3 32 4 31 5 30 6 28 7 29 8 27 9 1 10 2 11 3 12
REMARK SMILES IDX 24 13 26 14 25 15 4 16 5 17 6 19 7 20 8 21 23 22 9 23 11 24
REMARK SMILES IDX 10 25 12 26 13 27 21 28 14 29 20 30 22 31 15 32 19 33 16 34
REMARK SMILES IDX 18 35 17 36 36 37 37 38 38 39 39 40 40 41 41 42 42 43 43 44
REMARK SMILES IDX 44 45 45 46 46 47 92 48 47 49 91 50 48 51 49 52 50 53 85 54
REMARK SMILES IDX 51 55 90 56 84 57 86 58 52 59 89 60 83 61 82 62 53 64 75 65
REMARK SMILES IDX 60 66 74 67 61 68 64 69 73 70 87 71 62 72 63 73 72 75 88 76
REMARK SMILES IDX 65 77 54 78 55 79 59 80 56 81 58 82 57 83 76 84 77 85 81 86
REMARK SMILES IDX 78 87 80 88 79 89 66 90 67 91 71 92 68 93 70 94 69 95
REMARK H PARENT 4 18 86 63 64 74
REMARK Flexibility Score: inf
ROOT
ATOM      1  C   UNL A   1      35.612  22.857  25.679  1.00  0.00     0.188 C 
ENDROOT
BRANCH   1   2
ATOM      2  C   UNL A   1      37.096  23.176  25.552  1.00  0.00     0.188 C 
BRANCH   2   3
ATOM      3  O   UNL A   1      37.842  21.987  25.289  1.00  0.00    -0.376 OA
BRANCH   3   4
ATOM      4  C   UNL A   1      39.034  21.906  26.064  1.00  0.00     0.202 C 
BRANCH   4   5
ATOM      5  C   UNL A   1      39.391  23.252  26.662  1.00  0.00     0.261 C 
BRANCH   5   6
ATOM      6  O   UNL A   1      40.394  23.135  27.682  1.00  0.00    -0.460 OA
BRANCH   6   7
ATOM      7  C   UNL A   1      41.139  24.259  27.823  1.00  0.00     0.338 C 
ATOM      8  O   UNL A   1      40.761  25.351  28.164  1.00  0.00    -0.246 OA
BRANCH   7   9
ATOM      9  C   UNL A   1      42.578  23.909  27.847  1.00  0.00     0.065 A 
ATOM     10  C   UNL A   1      42.758  23.230  25.407  1.00  0.00     0.047 C 
ATOM     11  C   UNL A   1      43.373  23.457  26.764  1.00  0.00    -0.013 A 
ATOM     12  C   UNL A   1      44.750  23.216  27.014  1.00  0.00     0.045 A 
ATOM     13  C   UNL A   1      45.275  23.499  28.284  1.00  0.00     0.026 A 
ATOM     14  C   UNL A   1      43.118  24.075  29.130  1.00  0.00     0.016 A 
ATOM     15  C   UNL A   1      44.466  23.879  29.347  1.00  0.00     0.003 A 
BRANCH  12  16
ATOM     16  N   UNL A   1      45.595  22.701  26.000  1.00  0.00    -0.322 N 
ATOM     17  C   UNL A   1      46.416  23.331  25.070  1.00  0.00     0.255 C 
ATOM     18  H   UNL A   1      45.602  21.718  25.941  1.00  0.00     0.170 HD
ATOM     19  O   UNL A   1      46.868  22.681  24.128  1.00  0.00    -0.269 OA
BRANCH  17  20
ATOM     20  C   UNL A   1      46.874  24.743  25.228  1.00  0.00     0.040 A 
ATOM     21  C   UNL A   1      46.137  25.809  24.728  1.00  0.00     0.014 A 
ATOM     22  C   UNL A   1      48.112  25.010  25.809  1.00  0.00     0.022 A 
ATOM     23  C   UNL A   1      46.611  27.116  24.901  1.00  0.00     0.001 A 
ATOM     24  C   UNL A   1      48.623  26.307  25.994  1.00  0.00    -0.010 A 
ATOM     25  C   UNL A   1      47.835  27.365  25.540  1.00  0.00     0.009 A 
BRANCH  24  26
ATOM     26  C   UNL A   1      49.969  26.608  26.582  1.00  0.00     0.068 A 
ATOM     27  C   UNL A   1      50.212  27.644  27.418  1.00  0.00     0.028 A 
ATOM     28  C   UNL A   1      50.708  25.426  27.155  1.00  0.00     0.344 A 
ATOM     29  C   UNL A   1      49.507  27.386  28.685  1.00  0.00     0.018 A 
ATOM     30  O   UNL A   1      50.345  25.124  28.480  1.00  0.00    -0.422 OA
ATOM     31  O   UNL A   1      51.536  24.789  26.519  1.00  0.00    -0.246 OA
ATOM     32  C   UNL A   1      48.593  28.284  29.197  1.00  0.00     0.012 A 
ATOM     33  C   UNL A   1      49.534  26.063  29.160  1.00  0.00     0.138 A 
ATOM     34  C   UNL A   1      47.695  27.843  30.171  1.00  0.00     0.001 A 
ATOM     35  C   UNL A   1      48.657  25.626  30.145  1.00  0.00     0.048 A 
ATOM     36  C   UNL A   1      47.721  26.529  30.643  1.00  0.00     0.004 A 
ENDBRANCH  24  26
ENDBRANCH  17  20
ENDBRANCH  12  16
ENDBRANCH   7   9
ENDBRANCH   6   7
ENDBRANCH   5   6
ENDBRANCH   4   5
ENDBRANCH   3   4
ENDBRANCH   2   3
ENDBRANCH   1   2
BRANCH   1  37
ATOM     37  O   UNL A   1      34.926  23.010  24.441  1.00  0.00    -0.377 OA
BRANCH  37  38
ATOM     38  C   UNL A   1      33.591  23.510  24.454  1.00  0.00     0.188 C 
BRANCH  38  39
ATOM     39  C   UNL A   1      33.389  24.979  24.784  1.00  0.00     0.188 C 
BRANCH  39  40
ATOM     40  O   UNL A   1      32.097  25.314  24.297  1.00  0.00    -0.376 OA
BRANCH  40  41
ATOM     41  C   UNL A   1      31.289  26.125  25.129  1.00  0.00     0.202 C 
BRANCH  41  42
ATOM     42  C   UNL A   1      31.424  27.576  24.696  1.00  0.00     0.261 C 
BRANCH  42  43
ATOM     43  O   UNL A   1      30.994  28.406  25.801  1.00  0.00    -0.460 OA
BRANCH  43  44
ATOM     44  C   UNL A   1      31.745  28.286  26.931  1.00  0.00     0.338 C 
ATOM     45  O   UNL A   1      31.363  27.767  27.969  1.00  0.00    -0.246 OA
BRANCH  44  46
ATOM     46  C   UNL A   1      32.997  29.104  26.844  1.00  0.00     0.060 A 
ATOM     47  C   UNL A   1      34.207  28.473  26.510  1.00  0.00     0.016 A 
ATOM     48  C   UNL A   1      33.030  30.366  27.428  1.00  0.00     0.016 A 
ATOM     49  C   UNL A   1      35.433  29.018  26.925  1.00  0.00     0.010 A 
ATOM     50  C   UNL A   1      34.227  30.823  27.956  1.00  0.00     0.010 A 
ATOM     51  C   UNL A   1      35.439  30.143  27.750  1.00  0.00    -0.014 A 
BRANCH  51  52
ATOM     52  C   UNL A   1      36.573  30.574  28.606  1.00  0.00     0.031 A 
ATOM     53  C   UNL A   1      37.726  29.624  28.821  1.00  0.00     0.074 A 
ATOM     54  C   UNL A   1      36.712  31.907  28.850  1.00  0.00     0.049 A 
ATOM     55  N   UNL A   1      38.832  29.914  29.418  1.00  0.00    -0.248 NA
ATOM     56  C   UNL A   1      37.747  28.244  28.319  1.00  0.00     0.031 C 
ATOM     57  C   UNL A   1      37.946  32.644  29.136  1.00  0.00     0.029 A 
ATOM     58  N   UNL A   1      35.783  32.942  28.847  1.00  0.00    -0.354 N 
ATOM     59  C   UNL A   1      39.777  28.942  29.126  1.00  0.00     0.074 A 
ATOM     60  C   UNL A   1      39.029  27.895  28.479  1.00  0.00     0.031 C 
ATOM     61  C   UNL A   1      37.687  33.935  29.394  1.00  0.00     0.029 A 
ATOM     62  C   UNL A   1      36.272  34.014  29.596  1.00  0.00     0.049 A 
ATOM     63  H   UNL A   1      34.913  32.921  28.387  1.00  0.00     0.167 HD
ATOM     64  C   UNL A   1      41.103  29.195  29.359  1.00  0.00     0.031 A 
ATOM     65  C   UNL A   1      35.760  34.362  30.815  1.00  0.00     0.031 A 
ATOM     66  C   UNL A   1      41.291  30.425  30.154  1.00  0.00     0.049 A 
ATOM     67  C   UNL A   1      36.754  33.990  31.929  1.00  0.00     0.074 A 
ATOM     68  C   UNL A   1      42.082  31.555  30.038  1.00  0.00     0.029 A 
ATOM     69  N   UNL A   1      40.412  30.699  31.204  1.00  0.00    -0.354 N 
ATOM     70  N   UNL A   1      37.607  32.987  31.829  1.00  0.00    -0.248 NA
ATOM     71  C   UNL A   1      37.052  34.831  33.092  1.00  0.00     0.031 C 
ATOM     72  C   UNL A   1      41.507  32.580  30.848  1.00  0.00     0.029 A 
ATOM     73  C   UNL A   1      40.468  32.023  31.583  1.00  0.00     0.049 A 
ATOM     74  H   UNL A   1      39.824  30.029  31.622  1.00  0.00     0.167 HD
ATOM     75  C   UNL A   1      38.604  33.126  32.761  1.00  0.00     0.074 A 
ATOM     76  C   UNL A   1      38.178  34.261  33.567  1.00  0.00     0.031 C 
ATOM     77  C   UNL A   1      39.797  32.454  32.799  1.00  0.00     0.031 A 
BRANCH  64  78
ATOM     78  C   UNL A   1      42.274  28.446  28.712  1.00  0.00    -0.014 A 
ATOM     79  C   UNL A   1      43.361  28.022  29.507  1.00  0.00     0.009 A 
ATOM     80  C   UNL A   1      42.433  28.221  27.329  1.00  0.00     0.009 A 
ATOM     81  C   UNL A   1      44.520  27.434  28.969  1.00  0.00     0.001 A 
ATOM     82  C   UNL A   1      43.574  27.593  26.786  1.00  0.00     0.001 A 
ATOM     83  C   UNL A   1      44.624  27.208  27.606  1.00  0.00     0.000 A 
ENDBRANCH  64  78
BRANCH  65  84
ATOM     84  C   UNL A   1      34.274  34.537  30.725  1.00  0.00    -0.014 A 
ATOM     85  C   UNL A   1      33.659  34.530  32.005  1.00  0.00     0.009 A 
ATOM     86  C   UNL A   1      33.733  35.401  29.756  1.00  0.00     0.009 A 
ATOM     87  C   UNL A   1      32.819  35.580  32.400  1.00  0.00     0.001 A 
ATOM     88  C   UNL A   1      32.845  36.423  30.149  1.00  0.00     0.001 A 
ATOM     89  C   UNL A   1      32.460  36.562  31.484  1.00  0.00     0.000 A 
ENDBRANCH  65  84
BRANCH  77  90
ATOM     90  C   UNL A   1      40.483  32.064  34.092  1.00  0.00    -0.014 A 
ATOM     91  C   UNL A   1      39.845  31.325  35.092  1.00  0.00     0.009 A 
ATOM     92  C   UNL A   1      41.891  32.203  34.204  1.00  0.00     0.009 A 
ATOM     93  C   UNL A   1      40.570  30.769  36.151  1.00  0.00     0.001 A 
ATOM     94  C   UNL A   1      42.622  31.608  35.229  1.00  0.00     0.001 A 
ATOM     95  C   UNL A   1      41.955  30.893  36.210  1.00  0.00     0.000 A 
ENDBRANCH  77  90
ENDBRANCH  51  52
ENDBRANCH  44  46
ENDBRANCH  43  44
ENDBRANCH  42  43
ENDBRANCH  41  42
ENDBRANCH  40  41
ENDBRANCH  39  40
ENDBRANCH  38  39
ENDBRANCH  37  38
ENDBRANCH   1  37
TORSDOF 23
ENDMDL
