MODEL 1
REMARK VINA RESULT:      -8.7      0.000      0.000
REMARK SMILES C[C@@H](Sc1nc2ccccc2c(=O)n1N)C(=O)OCCOCCOCCOCCOC(=O)c1ccc(-c2c3nc(c(-c4ccccc4)c4ccc([nH]4)c(-c4ccccc4)c4nc(c(-c5ccccc5)c5ccc2[nH]5)C=C4)C=C3)cc1
REMARK SMILES IDX 23 1 22 2 21 3 20 4 19 5 18 6 16 7 17 8 2 9 1 10 3 11 4 12
REMARK SMILES IDX 5 13 14 14 6 15 12 16 7 17 11 18 13 19 8 20 10 21 9 22 15 23
REMARK SMILES IDX 24 26 25 27 26 28 27 29 28 30 29 31 30 32 31 33 32 34 33 35
REMARK SMILES IDX 34 36 80 37 35 38 79 39 36 40 37 41 38 42 73 43 39 44 78 45
REMARK SMILES IDX 72 46 74 47 40 48 77 49 71 50 70 51 41 53 63 54 48 55 62 56
REMARK SMILES IDX 49 57 52 58 61 59 75 60 50 61 51 62 60 64 76 65 53 66 42 67
REMARK SMILES IDX 43 68 47 69 44 70 46 71 45 72 64 73 65 74 69 75 66 76 68 77
REMARK SMILES IDX 67 78 54 79 55 80 59 81 56 82 58 83 57 84
REMARK H PARENT 15 24 15 25 74 52 52 63
REMARK Flexibility Score: inf
ROOT
ATOM      1  C   UNL A   1      39.357  22.659  26.808  1.00  0.00     0.188 C 
ENDROOT
BRANCH   1   2
ATOM      2  C   UNL A   1      38.627  21.942  25.659  1.00  0.00     0.188 C 
BRANCH   2   3
ATOM      3  O   UNL A   1      37.251  22.268  25.557  1.00  0.00    -0.376 OA
BRANCH   3   4
ATOM      4  C   UNL A   1      36.340  21.219  25.272  1.00  0.00     0.202 C 
BRANCH   4   5
ATOM      5  C   UNL A   1      34.875  21.610  25.020  1.00  0.00     0.261 C 
BRANCH   5   6
ATOM      6  O   UNL A   1      34.510  22.928  25.444  1.00  0.00    -0.462 OA
BRANCH   6   7
ATOM      7  C   UNL A   1      33.290  23.057  26.016  1.00  0.00     0.319 C 
ATOM      8  O   UNL A   1      32.832  22.248  26.817  1.00  0.00    -0.251 OA
BRANCH   7   9
ATOM      9  C   UNL A   1      32.579  24.353  25.614  1.00  0.00     0.161 C 
ATOM     10  C   UNL A   1      31.581  24.950  26.614  1.00  0.00     0.032 C 
BRANCH   9  11
ATOM     11  S   UNL A   1      33.907  25.529  25.170  1.00  0.00    -0.071 SA
BRANCH  11  12
ATOM     12  C   UNL A   1      32.959  26.952  24.833  1.00  0.00     0.191 A 
ATOM     13  N   UNL A   1      32.086  26.848  23.886  1.00  0.00    -0.222 NA
ATOM     14  N   UNL A   1      33.136  28.089  25.612  1.00  0.00    -0.202 N 
ATOM     15  C   UNL A   1      31.242  27.935  23.647  1.00  0.00     0.079 A 
ATOM     16  C   UNL A   1      32.295  29.194  25.479  1.00  0.00     0.280 A 
ATOM     17  C   UNL A   1      30.306  27.833  22.618  1.00  0.00     0.029 A 
ATOM     18  C   UNL A   1      31.263  29.090  24.431  1.00  0.00     0.068 A 
ATOM     19  O   UNL A   1      32.380  30.198  26.185  1.00  0.00    -0.267 OA
ATOM     20  C   UNL A   1      29.378  28.851  22.401  1.00  0.00     0.002 A 
ATOM     21  C   UNL A   1      30.331  30.113  24.229  1.00  0.00     0.016 A 
ATOM     22  C   UNL A   1      29.381  29.984  23.216  1.00  0.00     0.001 A 
BRANCH  14  23
ATOM     23  N   UNL A   1      34.188  28.189  26.585  1.00  0.00    -0.334 N 
ATOM     24  H   UNL A   1      35.063  28.557  26.327  1.00  0.00     0.178 HD
ATOM     25  H   UNL A   1      34.032  27.891  27.510  1.00  0.00     0.178 HD
ENDBRANCH  14  23
ENDBRANCH  11  12
ENDBRANCH   9  11
ENDBRANCH   7   9
ENDBRANCH   6   7
ENDBRANCH   5   6
ENDBRANCH   4   5
ENDBRANCH   3   4
ENDBRANCH   2   3
ENDBRANCH   1   2
BRANCH   1  26
ATOM     26  O   UNL A   1      40.520  22.072  27.373  1.00  0.00    -0.377 OA
BRANCH  26  27
ATOM     27  C   UNL A   1      41.775  22.740  27.251  1.00  0.00     0.188 C 
BRANCH  27  28
ATOM     28  C   UNL A   1      42.864  22.235  26.276  1.00  0.00     0.188 C 
BRANCH  28  29
ATOM     29  O   UNL A   1      42.964  22.955  25.058  1.00  0.00    -0.376 OA
BRANCH  29  30
ATOM     30  C   UNL A   1      44.073  23.834  24.935  1.00  0.00     0.202 C 
BRANCH  30  31
ATOM     31  C   UNL A   1      44.125  24.994  25.941  1.00  0.00     0.261 C 
BRANCH  31  32
ATOM     32  O   UNL A   1      43.483  26.212  25.525  1.00  0.00    -0.460 OA
BRANCH  32  33
ATOM     33  C   UNL A   1      42.141  26.297  25.648  1.00  0.00     0.338 C 
ATOM     34  O   UNL A   1      41.294  25.779  24.942  1.00  0.00    -0.246 OA
BRANCH  33  35
ATOM     35  C   UNL A   1      41.866  26.978  26.930  1.00  0.00     0.060 A 
ATOM     36  C   UNL A   1      40.960  26.406  27.834  1.00  0.00     0.016 A 
ATOM     37  C   UNL A   1      42.547  28.151  27.256  1.00  0.00     0.016 A 
ATOM     38  C   UNL A   1      40.742  27.004  29.076  1.00  0.00     0.010 A 
ATOM     39  C   UNL A   1      42.303  28.765  28.487  1.00  0.00     0.010 A 
ATOM     40  C   UNL A   1      41.394  28.201  29.398  1.00  0.00    -0.014 A 
BRANCH  40  41
ATOM     41  C   UNL A   1      41.035  28.947  30.627  1.00  0.00     0.031 A 
ATOM     42  C   UNL A   1      39.881  29.908  30.572  1.00  0.00     0.074 A 
ATOM     43  C   UNL A   1      41.740  28.798  31.763  1.00  0.00     0.049 A 
ATOM     44  N   UNL A   1      39.461  30.749  31.481  1.00  0.00    -0.248 NA
ATOM     45  C   UNL A   1      39.099  29.924  29.324  1.00  0.00     0.031 C 
ATOM     46  C   UNL A   1      42.850  27.866  31.959  1.00  0.00     0.029 A 
ATOM     47  N   UNL A   1      41.636  29.454  32.966  1.00  0.00    -0.354 N 
ATOM     48  C   UNL A   1      38.378  31.407  30.909  1.00  0.00     0.074 A 
ATOM     49  C   UNL A   1      38.210  30.874  29.575  1.00  0.00     0.031 C 
ATOM     50  C   UNL A   1      43.342  28.029  33.200  1.00  0.00     0.029 A 
ATOM     51  C   UNL A   1      42.613  29.106  33.868  1.00  0.00     0.049 A 
ATOM     52  H   UNL A   1      40.929  30.110  33.163  1.00  0.00     0.167 HD
ATOM     53  C   UNL A   1      37.601  32.373  31.449  1.00  0.00     0.031 A 
ATOM     54  C   UNL A   1      42.910  29.630  35.075  1.00  0.00     0.031 A 
ATOM     55  C   UNL A   1      37.775  32.910  32.771  1.00  0.00     0.049 A 
ATOM     56  C   UNL A   1      42.082  30.772  35.610  1.00  0.00     0.074 A 
ATOM     57  C   UNL A   1      37.011  33.865  33.417  1.00  0.00     0.029 A 
ATOM     58  N   UNL A   1      38.792  32.552  33.640  1.00  0.00    -0.354 N 
ATOM     59  N   UNL A   1      41.028  31.348  35.085  1.00  0.00    -0.248 NA
ATOM     60  C   UNL A   1      42.491  31.341  36.904  1.00  0.00     0.031 C 
ATOM     61  C   UNL A   1      37.609  34.141  34.649  1.00  0.00     0.029 A 
ATOM     62  C   UNL A   1      38.705  33.306  34.797  1.00  0.00     0.049 A 
ATOM     63  H   UNL A   1      39.475  31.866  33.462  1.00  0.00     0.167 HD
ATOM     64  C   UNL A   1      40.637  32.326  35.993  1.00  0.00     0.074 A 
ATOM     65  C   UNL A   1      41.550  32.250  37.113  1.00  0.00     0.031 C 
ATOM     66  C   UNL A   1      39.618  33.216  35.906  1.00  0.00     0.031 A 
BRANCH  53  67
ATOM     67  C   UNL A   1      36.511  32.957  30.596  1.00  0.00    -0.014 A 
ATOM     68  C   UNL A   1      36.777  33.957  29.650  1.00  0.00     0.009 A 
ATOM     69  C   UNL A   1      35.211  32.432  30.688  1.00  0.00     0.009 A 
ATOM     70  C   UNL A   1      35.758  34.429  28.819  1.00  0.00     0.001 A 
ATOM     71  C   UNL A   1      34.202  32.888  29.840  1.00  0.00     0.001 A 
ATOM     72  C   UNL A   1      34.476  33.887  28.908  1.00  0.00     0.000 A 
ENDBRANCH  53  67
BRANCH  54  73
ATOM     73  C   UNL A   1      44.088  29.141  35.844  1.00  0.00    -0.014 A 
ATOM     74  C   UNL A   1      45.368  29.674  35.623  1.00  0.00     0.009 A 
ATOM     75  C   UNL A   1      43.949  28.081  36.756  1.00  0.00     0.009 A 
ATOM     76  C   UNL A   1      46.485  29.130  36.264  1.00  0.00     0.001 A 
ATOM     77  C   UNL A   1      45.061  27.564  37.423  1.00  0.00     0.001 A 
ATOM     78  C   UNL A   1      46.330  28.079  37.166  1.00  0.00     0.000 A 
ENDBRANCH  54  73
BRANCH  66  79
ATOM     79  C   UNL A   1      39.416  34.160  37.058  1.00  0.00    -0.014 A 
ATOM     80  C   UNL A   1      38.755  33.750  38.227  1.00  0.00     0.009 A 
ATOM     81  C   UNL A   1      39.947  35.458  36.997  1.00  0.00     0.009 A 
ATOM     82  C   UNL A   1      38.607  34.631  39.300  1.00  0.00     0.001 A 
ATOM     83  C   UNL A   1      39.826  36.325  38.084  1.00  0.00     0.001 A 
ATOM     84  C   UNL A   1      39.149  35.914  39.231  1.00  0.00     0.000 A 
ENDBRANCH  66  79
ENDBRANCH  40  41
ENDBRANCH  33  35
ENDBRANCH  32  33
ENDBRANCH  31  32
ENDBRANCH  30  31
ENDBRANCH  29  30
ENDBRANCH  28  29
ENDBRANCH  27  28
ENDBRANCH  26  27
ENDBRANCH   1  26
TORSDOF 23
ENDMDL
MODEL 2
REMARK VINA RESULT:      -8.6      2.172      6.392
REMARK SMILES C[C@@H](Sc1nc2ccccc2c(=O)n1N)C(=O)OCCOCCOCCOCCOC(=O)c1ccc(-c2c3nc(c(-c4ccccc4)c4ccc([nH]4)c(-c4ccccc4)c4nc(c(-c5ccccc5)c5ccc2[nH]5)C=C4)C=C3)cc1
REMARK SMILES IDX 23 1 22 2 21 3 20 4 19 5 18 6 16 7 17 8 2 9 1 10 3 11 4 12
REMARK SMILES IDX 5 13 14 14 6 15 12 16 7 17 11 18 13 19 8 20 10 21 9 22 15 23
REMARK SMILES IDX 24 26 25 27 26 28 27 29 28 30 29 31 30 32 31 33 32 34 33 35
REMARK SMILES IDX 34 36 80 37 35 38 79 39 36 40 37 41 38 42 73 43 39 44 78 45
REMARK SMILES IDX 72 46 74 47 40 48 77 49 71 50 70 51 41 53 63 54 48 55 62 56
REMARK SMILES IDX 49 57 52 58 61 59 75 60 50 61 51 62 60 64 76 65 53 66 42 67
REMARK SMILES IDX 43 68 47 69 44 70 46 71 45 72 64 73 65 74 69 75 66 76 68 77
REMARK SMILES IDX 67 78 54 79 55 80 59 81 56 82 58 83 57 84
REMARK H PARENT 15 24 15 25 74 52 52 63
REMARK Flexibility Score: inf
ROOT
ATOM      1  C   UNL A   1      38.454  23.015  26.080  1.00  0.00     0.188 C 
ENDROOT
BRANCH   1   2
ATOM      2  C   UNL A   1      37.038  23.587  25.896  1.00  0.00     0.188 C 
BRANCH   2   3
ATOM      3  O   UNL A   1      36.735  23.956  24.560  1.00  0.00    -0.376 OA
BRANCH   3   4
ATOM      4  C   UNL A   1      35.371  23.979  24.171  1.00  0.00     0.202 C 
BRANCH   4   5
ATOM      5  C   UNL A   1      34.926  22.959  23.112  1.00  0.00     0.261 C 
BRANCH   5   6
ATOM      6  O   UNL A   1      34.180  21.843  23.610  1.00  0.00    -0.462 OA
BRANCH   6   7
ATOM      7  C   UNL A   1      32.869  22.063  23.865  1.00  0.00     0.319 C 
ATOM      8  O   UNL A   1      32.176  22.837  23.211  1.00  0.00    -0.251 OA
BRANCH   7   9
ATOM      9  C   UNL A   1      32.329  21.193  25.003  1.00  0.00     0.161 C 
ATOM     10  C   UNL A   1      32.508  19.674  24.878  1.00  0.00     0.032 C 
BRANCH   9  11
ATOM     11  S   UNL A   1      33.080  21.858  26.533  1.00  0.00    -0.071 SA
BRANCH  11  12
ATOM     12  C   UNL A   1      32.443  23.479  26.510  1.00  0.00     0.191 A 
ATOM     13  N   UNL A   1      33.298  24.430  26.329  1.00  0.00    -0.222 NA
ATOM     14  N   UNL A   1      31.071  23.673  26.627  1.00  0.00    -0.202 N 
ATOM     15  C   UNL A   1      32.817  25.735  26.211  1.00  0.00     0.079 A 
ATOM     16  C   UNL A   1      30.504  24.937  26.460  1.00  0.00     0.280 A 
ATOM     17  C   UNL A   1      33.739  26.767  26.027  1.00  0.00     0.029 A 
ATOM     18  C   UNL A   1      31.455  26.037  26.214  1.00  0.00     0.068 A 
ATOM     19  O   UNL A   1      29.292  25.146  26.498  1.00  0.00    -0.267 OA
ATOM     20  C   UNL A   1      33.304  28.074  25.808  1.00  0.00     0.002 A 
ATOM     21  C   UNL A   1      31.007  27.342  25.985  1.00  0.00     0.016 A 
ATOM     22  C   UNL A   1      31.938  28.359  25.772  1.00  0.00     0.001 A 
BRANCH  14  23
ATOM     23  N   UNL A   1      30.172  22.595  26.928  1.00  0.00    -0.334 N 
ATOM     24  H   UNL A   1      29.699  22.132  26.199  1.00  0.00     0.178 HD
ATOM     25  H   UNL A   1      30.029  22.320  27.861  1.00  0.00     0.178 HD
ENDBRANCH  14  23
ENDBRANCH  11  12
ENDBRANCH   9  11
ENDBRANCH   7   9
ENDBRANCH   6   7
ENDBRANCH   5   6
ENDBRANCH   4   5
ENDBRANCH   3   4
ENDBRANCH   2   3
ENDBRANCH   1   2
BRANCH   1  26
ATOM     26  O   UNL A   1      39.246  23.445  27.178  1.00  0.00    -0.377 OA
BRANCH  26  27
ATOM     27  C   UNL A   1      40.650  23.626  27.004  1.00  0.00     0.188 C 
BRANCH  27  28
ATOM     28  C   UNL A   1      41.604  22.418  26.847  1.00  0.00     0.188 C 
BRANCH  28  29
ATOM     29  O   UNL A   1      41.915  22.063  25.510  1.00  0.00    -0.376 OA
BRANCH  29  30
ATOM     30  C   UNL A   1      43.198  22.446  25.038  1.00  0.00     0.202 C 
BRANCH  30  31
ATOM     31  C   UNL A   1      43.432  23.955  24.877  1.00  0.00     0.261 C 
BRANCH  31  32
ATOM     32  O   UNL A   1      44.773  24.411  25.126  1.00  0.00    -0.460 OA
BRANCH  32  33
ATOM     33  C   UNL A   1      45.337  24.109  26.315  1.00  0.00     0.338 C 
ATOM     34  O   UNL A   1      46.254  23.337  26.529  1.00  0.00    -0.246 OA
BRANCH  33  35
ATOM     35  C   UNL A   1      44.771  25.042  27.311  1.00  0.00     0.060 A 
ATOM     36  C   UNL A   1      43.998  24.537  28.366  1.00  0.00     0.016 A 
ATOM     37  C   UNL A   1      45.053  26.406  27.228  1.00  0.00     0.016 A 
ATOM     38  C   UNL A   1      43.513  25.400  29.350  1.00  0.00     0.010 A 
ATOM     39  C   UNL A   1      44.541  27.271  28.197  1.00  0.00     0.010 A 
ATOM     40  C   UNL A   1      43.761  26.776  29.256  1.00  0.00    -0.014 A 
BRANCH  40  41
ATOM     41  C   UNL A   1      43.101  27.725  30.182  1.00  0.00     0.031 A 
ATOM     42  C   UNL A   1      43.720  27.959  31.531  1.00  0.00     0.074 A 
ATOM     43  C   UNL A   1      41.955  28.345  29.845  1.00  0.00     0.049 A 
ATOM     44  N   UNL A   1      43.262  28.649  32.544  1.00  0.00    -0.248 NA
ATOM     45  C   UNL A   1      45.029  27.328  31.771  1.00  0.00     0.031 C 
ATOM     46  C   UNL A   1      41.280  28.239  28.553  1.00  0.00     0.029 A 
ATOM     47  N   UNL A   1      41.144  29.174  30.582  1.00  0.00    -0.354 N 
ATOM     48  C   UNL A   1      44.216  28.520  33.546  1.00  0.00     0.074 A 
ATOM     49  C   UNL A   1      45.273  27.682  33.025  1.00  0.00     0.031 C 
ATOM     50  C   UNL A   1      40.141  28.954  28.597  1.00  0.00     0.029 A 
ATOM     51  C   UNL A   1      39.986  29.528  29.931  1.00  0.00     0.049 A 
ATOM     52  H   UNL A   1      41.370  29.483  31.488  1.00  0.00     0.167 HD
ATOM     53  C   UNL A   1      44.205  29.049  34.791  1.00  0.00     0.031 A 
ATOM     54  C   UNL A   1      38.907  30.202  30.380  1.00  0.00     0.031 A 
ATOM     55  C   UNL A   1      43.149  29.873  35.312  1.00  0.00     0.049 A 
ATOM     56  C   UNL A   1      38.884  30.698  31.805  1.00  0.00     0.074 A 
ATOM     57  C   UNL A   1      43.070  30.485  36.550  1.00  0.00     0.029 A 
ATOM     58  N   UNL A   1      41.983  30.185  34.633  1.00  0.00    -0.354 N 
ATOM     59  N   UNL A   1      39.814  30.618  32.725  1.00  0.00    -0.248 NA
ATOM     60  C   UNL A   1      37.656  31.373  32.253  1.00  0.00     0.031 C 
ATOM     61  C   UNL A   1      41.822  31.106  36.650  1.00  0.00     0.029 A 
ATOM     62  C   UNL A   1      41.155  30.938  35.447  1.00  0.00     0.049 A 
ATOM     63  H   UNL A   1      41.774  29.911  33.711  1.00  0.00     0.167 HD
ATOM     64  C   UNL A   1      39.293  31.251  33.848  1.00  0.00     0.074 A 
ATOM     65  C   UNL A   1      37.977  31.732  33.488  1.00  0.00     0.031 C 
ATOM     66  C   UNL A   1      39.850  31.413  35.073  1.00  0.00     0.031 A 
BRANCH  53  67
ATOM     67  C   UNL A   1      45.349  28.718  35.706  1.00  0.00    -0.014 A 
ATOM     68  C   UNL A   1      46.480  29.544  35.794  1.00  0.00     0.009 A 
ATOM     69  C   UNL A   1      45.250  27.603  36.554  1.00  0.00     0.009 A 
ATOM     70  C   UNL A   1      47.495  29.252  36.707  1.00  0.00     0.001 A 
ATOM     71  C   UNL A   1      46.254  27.329  37.483  1.00  0.00     0.001 A 
ATOM     72  C   UNL A   1      47.377  28.151  37.557  1.00  0.00     0.000 A 
ENDBRANCH  53  67
BRANCH  54  73
ATOM     73  C   UNL A   1      37.715  30.392  29.506  1.00  0.00    -0.014 A 
ATOM     74  C   UNL A   1      36.850  29.324  29.221  1.00  0.00     0.009 A 
ATOM     75  C   UNL A   1      37.479  31.633  28.892  1.00  0.00     0.009 A 
ATOM     76  C   UNL A   1      35.802  29.483  28.310  1.00  0.00     0.001 A 
ATOM     77  C   UNL A   1      36.409  31.799  28.009  1.00  0.00     0.001 A 
ATOM     78  C   UNL A   1      35.581  30.720  27.708  1.00  0.00     0.000 A 
ENDBRANCH  54  73
BRANCH  66  79
ATOM     79  C   UNL A   1      39.055  32.162  36.107  1.00  0.00    -0.014 A 
ATOM     80  C   UNL A   1      38.117  31.506  36.920  1.00  0.00     0.009 A 
ATOM     81  C   UNL A   1      39.291  33.531  36.311  1.00  0.00     0.009 A 
ATOM     82  C   UNL A   1      37.413  32.212  37.898  1.00  0.00     0.001 A 
ATOM     83  C   UNL A   1      38.610  34.227  37.311  1.00  0.00     0.001 A 
ATOM     84  C   UNL A   1      37.666  33.569  38.098  1.00  0.00     0.000 A 
ENDBRANCH  66  79
ENDBRANCH  40  41
ENDBRANCH  33  35
ENDBRANCH  32  33
ENDBRANCH  31  32
ENDBRANCH  30  31
ENDBRANCH  29  30
ENDBRANCH  28  29
ENDBRANCH  27  28
ENDBRANCH  26  27
ENDBRANCH   1  26
TORSDOF 23
ENDMDL
MODEL 3
REMARK VINA RESULT:      -8.2      5.153     11.840
REMARK SMILES C[C@@H](Sc1nc2ccccc2c(=O)n1N)C(=O)OCCOCCOCCOCCOC(=O)c1ccc(-c2c3nc(c(-c4ccccc4)c4ccc([nH]4)c(-c4ccccc4)c4nc(c(-c5ccccc5)c5ccc2[nH]5)C=C4)C=C3)cc1
REMARK SMILES IDX 23 1 22 2 21 3 20 4 19 5 18 6 16 7 17 8 2 9 1 10 3 11 4 12
REMARK SMILES IDX 5 13 14 14 6 15 12 16 7 17 11 18 13 19 8 20 10 21 9 22 15 23
REMARK SMILES IDX 24 26 25 27 26 28 27 29 28 30 29 31 30 32 31 33 32 34 33 35
REMARK SMILES IDX 34 36 80 37 35 38 79 39 36 40 37 41 38 42 73 43 39 44 78 45
REMARK SMILES IDX 72 46 74 47 40 48 77 49 71 50 70 51 41 53 63 54 48 55 62 56
REMARK SMILES IDX 49 57 52 58 61 59 75 60 50 61 51 62 60 64 76 65 53 66 42 67
REMARK SMILES IDX 43 68 47 69 44 70 46 71 45 72 64 73 65 74 69 75 66 76 68 77
REMARK SMILES IDX 67 78 54 79 55 80 59 81 56 82 58 83 57 84
REMARK H PARENT 15 24 15 25 74 52 52 63
REMARK Flexibility Score: inf
ROOT
ATOM      1  C   UNL A   1      37.140  31.441  29.071  1.00  0.00     0.188 C 
ENDROOT
BRANCH   1   2
ATOM      2  C   UNL A   1      38.220  30.717  29.893  1.00  0.00     0.188 C 
BRANCH   2   3
ATOM      3  O   UNL A   1      39.330  30.277  29.127  1.00  0.00    -0.376 OA
BRANCH   3   4
ATOM      4  C   UNL A   1      39.538  28.880  29.001  1.00  0.00     0.202 C 
BRANCH   4   5
ATOM      5  C   UNL A   1      40.990  28.381  29.026  1.00  0.00     0.261 C 
BRANCH   5   6
ATOM      6  O   UNL A   1      41.162  27.011  29.406  1.00  0.00    -0.462 OA
BRANCH   6   7
ATOM      7  C   UNL A   1      41.345  26.127  28.398  1.00  0.00     0.319 C 
ATOM      8  O   UNL A   1      40.514  25.928  27.517  1.00  0.00    -0.251 OA
BRANCH   7   9
ATOM      9  C   UNL A   1      42.723  25.460  28.434  1.00  0.00     0.161 C 
ATOM     10  C   UNL A   1      43.301  25.104  29.810  1.00  0.00     0.032 C 
BRANCH   9  11
ATOM     11  S   UNL A   1      42.596  24.003  27.336  1.00  0.00    -0.071 SA
BRANCH  11  12
ATOM     12  C   UNL A   1      44.014  24.234  26.351  1.00  0.00     0.191 A 
ATOM     13  N   UNL A   1      44.359  25.458  26.118  1.00  0.00    -0.222 NA
ATOM     14  N   UNL A   1      44.730  23.125  25.917  1.00  0.00    -0.202 N 
ATOM     15  C   UNL A   1      45.541  25.686  25.412  1.00  0.00     0.079 A 
ATOM     16  C   UNL A   1      45.953  23.266  25.259  1.00  0.00     0.280 A 
ATOM     17  C   UNL A   1      45.911  27.006  25.148  1.00  0.00     0.029 A 
ATOM     18  C   UNL A   1      46.390  24.653  25.013  1.00  0.00     0.068 A 
ATOM     19  O   UNL A   1      46.647  22.313  24.908  1.00  0.00    -0.267 OA
ATOM     20  C   UNL A   1      47.129  27.290  24.531  1.00  0.00     0.002 A 
ATOM     21  C   UNL A   1      47.618  24.926  24.403  1.00  0.00     0.016 A 
ATOM     22  C   UNL A   1      47.990  26.251  24.172  1.00  0.00     0.001 A 
BRANCH  14  23
ATOM     23  N   UNL A   1      44.253  21.785  26.115  1.00  0.00    -0.334 N 
ATOM     24  H   UNL A   1      44.772  21.155  26.665  1.00  0.00     0.178 HD
ATOM     25  H   UNL A   1      43.408  21.498  25.702  1.00  0.00     0.178 HD
ENDBRANCH  14  23
ENDBRANCH  11  12
ENDBRANCH   9  11
ENDBRANCH   7   9
ENDBRANCH   6   7
ENDBRANCH   5   6
ENDBRANCH   4   5
ENDBRANCH   3   4
ENDBRANCH   2   3
ENDBRANCH   1   2
BRANCH   1  26
ATOM     26  O   UNL A   1      36.186  32.259  29.733  1.00  0.00    -0.377 OA
BRANCH  26  27
ATOM     27  C   UNL A   1      35.458  31.733  30.841  1.00  0.00     0.188 C 
BRANCH  27  28
ATOM     28  C   UNL A   1      35.158  32.596  32.090  1.00  0.00     0.188 C 
BRANCH  28  29
ATOM     29  O   UNL A   1      34.969  33.978  31.837  1.00  0.00    -0.376 OA
BRANCH  29  30
ATOM     30  C   UNL A   1      35.618  34.876  32.726  1.00  0.00     0.202 C 
BRANCH  30  31
ATOM     31  C   UNL A   1      37.115  34.628  32.955  1.00  0.00     0.261 C 
BRANCH  31  32
ATOM     32  O   UNL A   1      37.537  34.572  34.330  1.00  0.00    -0.460 OA
BRANCH  32  33
ATOM     33  C   UNL A   1      37.611  33.362  34.923  1.00  0.00     0.338 C 
ATOM     34  O   UNL A   1      36.838  32.881  35.733  1.00  0.00    -0.246 OA
BRANCH  33  35
ATOM     35  C   UNL A   1      38.706  32.622  34.262  1.00  0.00     0.060 A 
ATOM     36  C   UNL A   1      40.024  33.081  34.393  1.00  0.00     0.016 A 
ATOM     37  C   UNL A   1      38.431  31.448  33.561  1.00  0.00     0.016 A 
ATOM     38  C   UNL A   1      41.075  32.356  33.829  1.00  0.00     0.010 A 
ATOM     39  C   UNL A   1      39.480  30.741  32.970  1.00  0.00     0.010 A 
ATOM     40  C   UNL A   1      40.804  31.194  33.093  1.00  0.00    -0.014 A 
BRANCH  40  41
ATOM     41  C   UNL A   1      41.881  30.518  32.332  1.00  0.00     0.031 A 
ATOM     42  C   UNL A   1      42.480  29.261  32.899  1.00  0.00     0.074 A 
ATOM     43  C   UNL A   1      42.343  31.026  31.175  1.00  0.00     0.049 A 
ATOM     44  N   UNL A   1      43.503  28.567  32.475  1.00  0.00    -0.248 NA
ATOM     45  C   UNL A   1      41.840  28.718  34.109  1.00  0.00     0.031 C 
ATOM     46  C   UNL A   1      41.816  32.210  30.497  1.00  0.00     0.029 A 
ATOM     47  N   UNL A   1      43.382  30.615  30.376  1.00  0.00    -0.354 N 
ATOM     48  C   UNL A   1      43.641  27.516  33.374  1.00  0.00     0.074 A 
ATOM     49  C   UNL A   1      42.604  27.667  34.370  1.00  0.00     0.031 C 
ATOM     50  C   UNL A   1      42.554  32.446  29.397  1.00  0.00     0.029 A 
ATOM     51  C   UNL A   1      43.629  31.459  29.320  1.00  0.00     0.049 A 
ATOM     52  H   UNL A   1      43.899  29.794  30.544  1.00  0.00     0.167 HD
ATOM     53  C   UNL A   1      44.557  26.520  33.370  1.00  0.00     0.031 A 
ATOM     54  C   UNL A   1      44.636  31.457  28.421  1.00  0.00     0.031 A 
ATOM     55  C   UNL A   1      45.594  26.378  32.385  1.00  0.00     0.049 A 
ATOM     56  C   UNL A   1      45.696  30.387  28.501  1.00  0.00     0.074 A 
ATOM     57  C   UNL A   1      46.545  25.378  32.280  1.00  0.00     0.029 A 
ATOM     58  N   UNL A   1      45.829  27.267  31.350  1.00  0.00    -0.354 N 
ATOM     59  N   UNL A   1      45.786  29.368  29.320  1.00  0.00    -0.248 NA
ATOM     60  C   UNL A   1      46.801  30.473  27.531  1.00  0.00     0.031 C 
ATOM     61  C   UNL A   1      47.401  25.702  31.224  1.00  0.00     0.029 A 
ATOM     62  C   UNL A   1      46.941  26.866  30.632  1.00  0.00     0.049 A 
ATOM     63  H   UNL A   1      45.286  28.065  31.155  1.00  0.00     0.167 HD
ATOM     64  C   UNL A   1      46.938  28.682  28.950  1.00  0.00     0.074 A 
ATOM     65  C   UNL A   1      47.500  29.384  27.818  1.00  0.00     0.031 C 
ATOM     66  C   UNL A   1      47.487  27.573  29.504  1.00  0.00     0.031 A 
BRANCH  53  67
ATOM     67  C   UNL A   1      44.516  25.523  34.492  1.00  0.00    -0.014 A 
ATOM     68  C   UNL A   1      43.711  24.376  34.424  1.00  0.00     0.009 A 
ATOM     69  C   UNL A   1      45.365  25.697  35.597  1.00  0.00     0.009 A 
ATOM     70  C   UNL A   1      43.749  23.429  35.449  1.00  0.00     0.001 A 
ATOM     71  C   UNL A   1      45.419  24.736  36.606  1.00  0.00     0.001 A 
ATOM     72  C   UNL A   1      44.610  23.605  36.533  1.00  0.00     0.000 A 
ENDBRANCH  53  67
BRANCH  54  73
ATOM     73  C   UNL A   1      44.746  32.541  27.406  1.00  0.00    -0.014 A 
ATOM     74  C   UNL A   1      45.377  33.757  27.712  1.00  0.00     0.009 A 
ATOM     75  C   UNL A   1      44.153  32.390  26.141  1.00  0.00     0.009 A 
ATOM     76  C   UNL A   1      45.375  34.810  26.792  1.00  0.00     0.001 A 
ATOM     77  C   UNL A   1      44.184  33.431  25.211  1.00  0.00     0.001 A 
ATOM     78  C   UNL A   1      44.781  34.645  25.542  1.00  0.00     0.000 A 
ENDBRANCH  54  73
BRANCH  66  79
ATOM     79  C   UNL A   1      48.744  27.033  28.880  1.00  0.00    -0.014 A 
ATOM     80  C   UNL A   1      48.694  26.115  27.820  1.00  0.00     0.009 A 
ATOM     81  C   UNL A   1      49.995  27.495  29.320  1.00  0.00     0.009 A 
ATOM     82  C   UNL A   1      49.872  25.650  27.231  1.00  0.00     0.001 A 
ATOM     83  C   UNL A   1      51.169  27.054  28.708  1.00  0.00     0.001 A 
ATOM     84  C   UNL A   1      51.107  26.126  27.670  1.00  0.00     0.000 A 
ENDBRANCH  66  79
ENDBRANCH  40  41
ENDBRANCH  33  35
ENDBRANCH  32  33
ENDBRANCH  31  32
ENDBRANCH  30  31
ENDBRANCH  29  30
ENDBRANCH  28  29
ENDBRANCH  27  28
ENDBRANCH  26  27
ENDBRANCH   1  26
TORSDOF 23
ENDMDL
