MODEL 1
REMARK VINA RESULT:      -9.7      0.000      0.000
REMARK SMILES O=C(OCCOCCOCCOCCOC(=O)[C@H]1C[C@H](O)CN1C(=O)c1ccccc1O)c1ccc(-c2c3nc(c(-c4ccccc4)c4ccc([nH]4)c(-c4ccccc4)c4nc(c(-c5ccccc5)c5ccc2[nH]5)C=C4)C=C3)cc1
REMARK SMILES IDX 10 1 9 2 8 3 7 4 6 5 5 6 4 7 3 8 2 9 1 10 33 11 34 12 80 13
REMARK SMILES IDX 35 14 79 15 36 16 37 17 38 18 73 19 39 20 78 21 72 22 74 23
REMARK SMILES IDX 40 24 77 25 71 26 70 27 41 29 63 30 48 31 62 32 49 33 52 34
REMARK SMILES IDX 61 35 75 36 50 37 51 38 60 40 76 41 53 42 42 43 43 44 47 45
REMARK SMILES IDX 44 46 46 47 45 48 64 49 65 50 69 51 66 52 68 53 67 54 54 55
REMARK SMILES IDX 55 56 59 57 56 58 58 59 57 60 11 61 12 62 13 63 14 64 15 65
REMARK SMILES IDX 16 66 17 67 18 68 19 69 23 70 20 71 22 72 24 73 25 74 26 75
REMARK SMILES IDX 27 76 31 77 28 78 30 79 29 80 32 81 21 83
REMARK H PARENT 74 28 52 39 32 82 21 84
REMARK Flexibility Score: inf
ROOT
ATOM      1  C   UNL A   1      41.737  20.377  26.144  1.00  0.00     0.188 C 
ENDROOT
BRANCH   1   2
ATOM      2  O   UNL A   1      42.492  19.193  26.248  1.00  0.00    -0.377 OA
BRANCH   2   3
ATOM      3  C   UNL A   1      43.475  18.930  25.270  1.00  0.00     0.188 C 
BRANCH   3   4
ATOM      4  C   UNL A   1      44.634  19.904  25.152  1.00  0.00     0.188 C 
BRANCH   4   5
ATOM      5  O   UNL A   1      44.810  20.406  23.833  1.00  0.00    -0.376 OA
BRANCH   5   6
ATOM      6  C   UNL A   1      44.618  21.811  23.661  1.00  0.00     0.202 C 
BRANCH   6   7
ATOM      7  C   UNL A   1      44.241  22.600  24.917  1.00  0.00     0.261 C 
BRANCH   7   8
ATOM      8  O   UNL A   1      43.623  23.886  24.708  1.00  0.00    -0.460 OA
BRANCH   8   9
ATOM      9  C   UNL A   1      43.891  25.128  25.171  1.00  0.00     0.338 C 
ATOM     10  O   UNL A   1      44.971  25.632  24.863  1.00  0.00    -0.246 OA
BRANCH   9  11
ATOM     11  C   UNL A   1      43.006  25.918  26.081  1.00  0.00     0.060 A 
ATOM     12  C   UNL A   1      43.015  27.302  26.199  1.00  0.00     0.016 A 
ATOM     13  C   UNL A   1      42.058  25.211  26.844  1.00  0.00     0.016 A 
ATOM     14  C   UNL A   1      42.161  27.981  27.042  1.00  0.00     0.010 A 
ATOM     15  C   UNL A   1      41.216  25.874  27.743  1.00  0.00     0.010 A 
ATOM     16  C   UNL A   1      41.312  27.263  27.870  1.00  0.00    -0.014 A 
BRANCH  16  17
ATOM     17  C   UNL A   1      40.863  27.993  29.063  1.00  0.00     0.031 A 
ATOM     18  C   UNL A   1      41.774  27.945  30.258  1.00  0.00     0.074 A 
ATOM     19  C   UNL A   1      39.857  28.878  28.968  1.00  0.00     0.049 A 
ATOM     20  N   UNL A   1      41.639  28.501  31.430  1.00  0.00    -0.248 NA
ATOM     21  C   UNL A   1      43.030  27.185  30.098  1.00  0.00     0.031 C 
ATOM     22  C   UNL A   1      39.086  29.155  27.751  1.00  0.00     0.029 A 
ATOM     23  N   UNL A   1      39.358  29.755  29.887  1.00  0.00    -0.354 N 
ATOM     24  C   UNL A   1      42.756  28.105  32.156  1.00  0.00     0.074 A 
ATOM     25  C   UNL A   1      43.568  27.278  31.300  1.00  0.00     0.031 C 
ATOM     26  C   UNL A   1      38.229  30.159  27.997  1.00  0.00     0.029 A 
ATOM     27  C   UNL A   1      38.334  30.530  29.402  1.00  0.00     0.049 A 
ATOM     28  H   UNL A   1      39.699  29.826  30.809  1.00  0.00     0.167 HD
ATOM     29  C   UNL A   1      43.058  28.398  33.440  1.00  0.00     0.031 A 
ATOM     30  C   UNL A   1      37.551  31.409  30.052  1.00  0.00     0.031 A 
ATOM     31  C   UNL A   1      42.220  29.233  34.252  1.00  0.00     0.049 A 
ATOM     32  C   UNL A   1      37.821  31.612  31.518  1.00  0.00     0.074 A 
ATOM     33  C   UNL A   1      42.336  29.541  35.592  1.00  0.00     0.029 A 
ATOM     34  N   UNL A   1      41.098  29.898  33.772  1.00  0.00    -0.354 N 
ATOM     35  N   UNL A   1      38.799  31.130  32.253  1.00  0.00    -0.248 NA
ATOM     36  C   UNL A   1      36.878  32.462  32.249  1.00  0.00     0.031 C 
ATOM     37  C   UNL A   1      41.246  30.350  35.936  1.00  0.00     0.029 A 
ATOM     38  C   UNL A   1      40.497  30.604  34.795  1.00  0.00     0.049 A 
ATOM     39  H   UNL A   1      40.780  29.871  32.841  1.00  0.00     0.167 HD
ATOM     40  C   UNL A   1      38.604  31.638  33.527  1.00  0.00     0.074 A 
ATOM     41  C   UNL A   1      37.425  32.482  33.457  1.00  0.00     0.031 C 
ATOM     42  C   UNL A   1      39.325  31.433  34.659  1.00  0.00     0.031 A 
BRANCH  29  43
ATOM     43  C   UNL A   1      44.250  27.702  34.035  1.00  0.00    -0.014 A 
ATOM     44  C   UNL A   1      45.541  28.253  33.993  1.00  0.00     0.009 A 
ATOM     45  C   UNL A   1      44.079  26.420  34.580  1.00  0.00     0.009 A 
ATOM     46  C   UNL A   1      46.641  27.513  34.443  1.00  0.00     0.001 A 
ATOM     47  C   UNL A   1      45.173  25.696  35.056  1.00  0.00     0.001 A 
ATOM     48  C   UNL A   1      46.455  26.237  34.973  1.00  0.00     0.000 A 
ENDBRANCH  29  43
BRANCH  30  49
ATOM     49  C   UNL A   1      36.415  32.077  29.361  1.00  0.00    -0.014 A 
ATOM     50  C   UNL A   1      35.206  31.405  29.130  1.00  0.00     0.009 A 
ATOM     51  C   UNL A   1      36.547  33.400  28.899  1.00  0.00     0.009 A 
ATOM     52  C   UNL A   1      34.168  32.032  28.430  1.00  0.00     0.001 A 
ATOM     53  C   UNL A   1      35.497  34.034  28.232  1.00  0.00     0.001 A 
ATOM     54  C   UNL A   1      34.313  33.344  27.986  1.00  0.00     0.000 A 
ENDBRANCH  30  49
BRANCH  42  55
ATOM     55  C   UNL A   1      38.884  32.186  35.879  1.00  0.00    -0.014 A 
ATOM     56  C   UNL A   1      38.030  31.606  36.829  1.00  0.00     0.009 A 
ATOM     57  C   UNL A   1      39.373  33.483  36.093  1.00  0.00     0.009 A 
ATOM     58  C   UNL A   1      37.643  32.331  37.954  1.00  0.00     0.001 A 
ATOM     59  C   UNL A   1      39.014  34.191  37.237  1.00  0.00     0.001 A 
ATOM     60  C   UNL A   1      38.139  33.620  38.160  1.00  0.00     0.000 A 
ENDBRANCH  42  55
ENDBRANCH  16  17
ENDBRANCH   9  11
ENDBRANCH   8   9
ENDBRANCH   7   8
ENDBRANCH   6   7
ENDBRANCH   5   6
ENDBRANCH   4   5
ENDBRANCH   3   4
ENDBRANCH   2   3
ENDBRANCH   1   2
BRANCH   1  61
ATOM     61  C   UNL A   1      40.715  20.821  27.210  1.00  0.00     0.188 C 
BRANCH  61  62
ATOM     62  O   UNL A   1      40.291  22.163  27.318  1.00  0.00    -0.376 OA
BRANCH  62  63
ATOM     63  C   UNL A   1      39.247  22.629  26.483  1.00  0.00     0.202 C 
BRANCH  63  64
ATOM     64  C   UNL A   1      38.352  21.624  25.740  1.00  0.00     0.261 C 
BRANCH  64  65
ATOM     65  O   UNL A   1      36.945  21.924  25.707  1.00  0.00    -0.462 OA
BRANCH  65  66
ATOM     66  C   UNL A   1      36.408  22.361  24.533  1.00  0.00     0.329 C 
ATOM     67  O   UNL A   1      36.966  23.151  23.775  1.00  0.00    -0.250 OA
BRANCH  66  68
ATOM     68  C   UNL A   1      35.055  21.685  24.163  1.00  0.00     0.198 C 
ATOM     69  C   UNL A   1      34.671  20.533  25.127  1.00  0.00     0.071 C 
ATOM     70  N   UNL A   1      33.840  22.497  24.076  1.00  0.00    -0.322 N 
ATOM     71  C   UNL A   1      33.288  20.888  25.698  1.00  0.00     0.136 C 
ATOM     72  C   UNL A   1      32.691  21.811  24.650  1.00  0.00     0.152 C 
BRANCH  70  73
ATOM     73  C   UNL A   1      33.803  23.551  23.185  1.00  0.00     0.258 C 
ATOM     74  O   UNL A   1      34.016  23.397  21.976  1.00  0.00    -0.269 OA
BRANCH  73  75
ATOM     75  C   UNL A   1      33.368  24.882  23.643  1.00  0.00     0.081 A 
ATOM     76  C   UNL A   1      34.095  25.427  24.710  1.00  0.00     0.018 A 
ATOM     77  C   UNL A   1      32.278  25.580  23.113  1.00  0.00     0.128 A 
ATOM     78  C   UNL A   1      33.763  26.681  25.214  1.00  0.00     0.001 A 
ATOM     79  C   UNL A   1      31.950  26.840  23.616  1.00  0.00     0.047 A 
ATOM     80  C   UNL A   1      32.697  27.389  24.661  1.00  0.00     0.004 A 
BRANCH  77  81
ATOM     81  O   UNL A   1      31.526  25.039  22.110  1.00  0.00    -0.507 OA
ATOM     82  H   UNL A   1      31.202  25.585  21.420  1.00  0.00     0.293 HD
ENDBRANCH  77  81
ENDBRANCH  73  75
ENDBRANCH  70  73
BRANCH  71  83
ATOM     83  O   UNL A   1      32.505  19.739  25.977  1.00  0.00    -0.391 OA
ATOM     84  H   UNL A   1      31.988  19.888  26.785  1.00  0.00     0.211 HD
ENDBRANCH  71  83
ENDBRANCH  66  68
ENDBRANCH  65  66
ENDBRANCH  64  65
ENDBRANCH  63  64
ENDBRANCH  62  63
ENDBRANCH  61  62
ENDBRANCH   1  61
TORSDOF 24
ENDMDL
MODEL 2
REMARK VINA RESULT:      -9.2      2.309      4.394
REMARK SMILES O=C(OCCOCCOCCOCCOC(=O)[C@H]1C[C@H](O)CN1C(=O)c1ccccc1O)c1ccc(-c2c3nc(c(-c4ccccc4)c4ccc([nH]4)c(-c4ccccc4)c4nc(c(-c5ccccc5)c5ccc2[nH]5)C=C4)C=C3)cc1
REMARK SMILES IDX 10 1 9 2 8 3 7 4 6 5 5 6 4 7 3 8 2 9 1 10 33 11 34 12 80 13
REMARK SMILES IDX 35 14 79 15 36 16 37 17 38 18 73 19 39 20 78 21 72 22 74 23
REMARK SMILES IDX 40 24 77 25 71 26 70 27 41 29 63 30 48 31 62 32 49 33 52 34
REMARK SMILES IDX 61 35 75 36 50 37 51 38 60 40 76 41 53 42 42 43 43 44 47 45
REMARK SMILES IDX 44 46 46 47 45 48 64 49 65 50 69 51 66 52 68 53 67 54 54 55
REMARK SMILES IDX 55 56 59 57 56 58 58 59 57 60 11 61 12 62 13 63 14 64 15 65
REMARK SMILES IDX 16 66 17 67 18 68 19 69 23 70 20 71 22 72 24 73 25 74 26 75
REMARK SMILES IDX 27 76 31 77 28 78 30 79 29 80 32 81 21 83
REMARK H PARENT 74 28 52 39 32 82 21 84
REMARK Flexibility Score: inf
ROOT
ATOM      1  C   UNL A   1      34.813  21.064  25.174  1.00  0.00     0.188 C 
ENDROOT
BRANCH   1   2
ATOM      2  O   UNL A   1      35.990  21.671  24.694  1.00  0.00    -0.377 OA
BRANCH   2   3
ATOM      3  C   UNL A   1      36.416  22.879  25.285  1.00  0.00     0.188 C 
BRANCH   3   4
ATOM      4  C   UNL A   1      37.859  22.970  25.750  1.00  0.00     0.188 C 
BRANCH   4   5
ATOM      5  O   UNL A   1      38.556  21.734  25.652  1.00  0.00    -0.376 OA
BRANCH   5   6
ATOM      6  C   UNL A   1      39.833  21.677  26.289  1.00  0.00     0.202 C 
BRANCH   6   7
ATOM      7  C   UNL A   1      40.254  22.923  27.072  1.00  0.00     0.261 C 
BRANCH   7   8
ATOM      8  O   UNL A   1      41.154  23.830  26.403  1.00  0.00    -0.460 OA
BRANCH   8   9
ATOM      9  C   UNL A   1      41.085  25.146  26.099  1.00  0.00     0.338 C 
ATOM     10  O   UNL A   1      41.559  25.510  25.023  1.00  0.00    -0.246 OA
BRANCH   9  11
ATOM     11  C   UNL A   1      40.532  26.209  26.994  1.00  0.00     0.060 A 
ATOM     12  C   UNL A   1      40.843  27.560  26.913  1.00  0.00     0.016 A 
ATOM     13  C   UNL A   1      39.590  25.819  27.964  1.00  0.00     0.016 A 
ATOM     14  C   UNL A   1      40.287  28.501  27.754  1.00  0.00     0.010 A 
ATOM     15  C   UNL A   1      39.051  26.748  28.861  1.00  0.00     0.010 A 
ATOM     16  C   UNL A   1      39.449  28.086  28.777  1.00  0.00    -0.014 A 
BRANCH  16  17
ATOM     17  C   UNL A   1      39.349  29.025  29.903  1.00  0.00     0.031 A 
ATOM     18  C   UNL A   1      40.449  28.961  30.924  1.00  0.00     0.074 A 
ATOM     19  C   UNL A   1      38.491  30.057  29.841  1.00  0.00     0.049 A 
ATOM     20  N   UNL A   1      40.624  29.671  32.004  1.00  0.00    -0.248 NA
ATOM     21  C   UNL A   1      41.521  27.975  30.677  1.00  0.00     0.031 C 
ATOM     22  C   UNL A   1      37.558  30.316  28.739  1.00  0.00     0.029 A 
ATOM     23  N   UNL A   1      38.315  31.115  30.685  1.00  0.00    -0.354 N 
ATOM     24  C   UNL A   1      41.783  29.174  32.589  1.00  0.00     0.074 A 
ATOM     25  C   UNL A   1      42.283  28.118  31.747  1.00  0.00     0.031 C 
ATOM     26  C   UNL A   1      36.927  31.479  28.967  1.00  0.00     0.029 A 
ATOM     27  C   UNL A   1      37.350  31.995  30.263  1.00  0.00     0.049 A 
ATOM     28  H   UNL A   1      38.829  31.236  31.516  1.00  0.00     0.167 HD
ATOM     29  C   UNL A   1      42.362  29.563  33.746  1.00  0.00     0.031 A 
ATOM     30  C   UNL A   1      36.848  33.072  30.892  1.00  0.00     0.031 A 
ATOM     31  C   UNL A   1      41.831  30.627  34.548  1.00  0.00     0.049 A 
ATOM     32  C   UNL A   1      37.416  33.401  32.245  1.00  0.00     0.074 A 
ATOM     33  C   UNL A   1      42.242  31.071  35.788  1.00  0.00     0.029 A 
ATOM     34  N   UNL A   1      40.755  31.419  34.163  1.00  0.00    -0.354 N 
ATOM     35  N   UNL A   1      38.428  32.846  32.874  1.00  0.00    -0.248 NA
ATOM     36  C   UNL A   1      36.769  34.489  32.983  1.00  0.00     0.031 C 
ATOM     37  C   UNL A   1      41.374  32.098  36.179  1.00  0.00     0.029 A 
ATOM     38  C   UNL A   1      40.471  32.340  35.152  1.00  0.00     0.049 A 
ATOM     39  H   UNL A   1      40.267  31.335  33.313  1.00  0.00     0.167 HD
ATOM     40  C   UNL A   1      38.557  33.533  34.071  1.00  0.00     0.074 A 
ATOM     41  C   UNL A   1      37.529  34.558  34.067  1.00  0.00     0.031 C 
ATOM     42  C   UNL A   1      39.437  33.342  35.086  1.00  0.00     0.031 A 
BRANCH  29  43
ATOM     43  C   UNL A   1      43.523  28.744  34.235  1.00  0.00    -0.014 A 
ATOM     44  C   UNL A   1      44.855  29.162  34.085  1.00  0.00     0.009 A 
ATOM     45  C   UNL A   1      43.270  27.480  34.790  1.00  0.00     0.009 A 
ATOM     46  C   UNL A   1      45.908  28.309  34.437  1.00  0.00     0.001 A 
ATOM     47  C   UNL A   1      44.321  26.643  35.169  1.00  0.00     0.001 A 
ATOM     48  C   UNL A   1      45.639  27.053  34.979  1.00  0.00     0.000 A 
ENDBRANCH  29  43
BRANCH  30  49
ATOM     49  C   UNL A   1      35.719  33.843  30.303  1.00  0.00    -0.014 A 
ATOM     50  C   UNL A   1      34.583  34.164  31.060  1.00  0.00     0.009 A 
ATOM     51  C   UNL A   1      35.762  34.244  28.955  1.00  0.00     0.009 A 
ATOM     52  C   UNL A   1      33.507  34.842  30.474  1.00  0.00     0.001 A 
ATOM     53  C   UNL A   1      34.703  34.951  28.383  1.00  0.00     0.001 A 
ATOM     54  C   UNL A   1      33.570  35.237  29.139  1.00  0.00     0.000 A 
ENDBRANCH  30  49
BRANCH  42  55
ATOM     55  C   UNL A   1      39.354  34.305  36.233  1.00  0.00    -0.014 A 
ATOM     56  C   UNL A   1      38.624  34.003  37.392  1.00  0.00     0.009 A 
ATOM     57  C   UNL A   1      40.060  35.515  36.159  1.00  0.00     0.009 A 
ATOM     58  C   UNL A   1      38.570  34.918  38.442  1.00  0.00     0.001 A 
ATOM     59  C   UNL A   1      40.035  36.411  37.225  1.00  0.00     0.001 A 
ATOM     60  C   UNL A   1      39.281  36.117  38.360  1.00  0.00     0.000 A 
ENDBRANCH  42  55
ENDBRANCH  16  17
ENDBRANCH   9  11
ENDBRANCH   8   9
ENDBRANCH   7   8
ENDBRANCH   6   7
ENDBRANCH   5   6
ENDBRANCH   4   5
ENDBRANCH   3   4
ENDBRANCH   2   3
ENDBRANCH   1   2
BRANCH   1  61
ATOM     61  C   UNL A   1      33.984  21.638  26.341  1.00  0.00     0.188 C 
BRANCH  61  62
ATOM     62  O   UNL A   1      33.096  22.720  26.158  1.00  0.00    -0.376 OA
BRANCH  62  63
ATOM     63  C   UNL A   1      31.704  22.506  26.303  1.00  0.00     0.202 C 
BRANCH  63  64
ATOM     64  C   UNL A   1      30.748  23.706  26.384  1.00  0.00     0.261 C 
BRANCH  64  65
ATOM     65  O   UNL A   1      30.678  24.548  25.219  1.00  0.00    -0.462 OA
BRANCH  65  66
ATOM     66  C   UNL A   1      30.298  25.846  25.385  1.00  0.00     0.329 C 
ATOM     67  O   UNL A   1      30.325  26.437  26.462  1.00  0.00    -0.250 OA
BRANCH  66  68
ATOM     68  C   UNL A   1      29.926  26.573  24.059  1.00  0.00     0.198 C 
ATOM     69  C   UNL A   1      28.396  26.639  23.815  1.00  0.00     0.071 C 
ATOM     70  N   UNL A   1      30.383  27.946  23.834  1.00  0.00    -0.322 N 
ATOM     71  C   UNL A   1      28.046  28.128  23.659  1.00  0.00     0.136 C 
ATOM     72  C   UNL A   1      29.351  28.761  23.209  1.00  0.00     0.152 C 
BRANCH  70  73
ATOM     73  C   UNL A   1      31.737  28.211  23.849  1.00  0.00     0.258 C 
ATOM     74  O   UNL A   1      32.451  28.041  22.853  1.00  0.00    -0.269 OA
BRANCH  73  75
ATOM     75  C   UNL A   1      32.347  28.840  25.034  1.00  0.00     0.081 A 
ATOM     76  C   UNL A   1      31.800  30.071  25.419  1.00  0.00     0.018 A 
ATOM     77  C   UNL A   1      33.432  28.307  25.737  1.00  0.00     0.128 A 
ATOM     78  C   UNL A   1      32.306  30.745  26.526  1.00  0.00     0.001 A 
ATOM     79  C   UNL A   1      33.935  28.981  26.851  1.00  0.00     0.047 A 
ATOM     80  C   UNL A   1      33.367  30.196  27.246  1.00  0.00     0.004 A 
BRANCH  77  81
ATOM     81  O   UNL A   1      34.011  27.135  25.342  1.00  0.00    -0.507 OA
ATOM     82  H   UNL A   1      34.893  26.940  25.592  1.00  0.00     0.293 HD
ENDBRANCH  77  81
ENDBRANCH  73  75
ENDBRANCH  70  73
BRANCH  71  83
ATOM     83  O   UNL A   1      26.958  28.341  22.774  1.00  0.00    -0.391 OA
ATOM     84  H   UNL A   1      27.121  27.871  21.942  1.00  0.00     0.211 HD
ENDBRANCH  71  83
ENDBRANCH  66  68
ENDBRANCH  65  66
ENDBRANCH  64  65
ENDBRANCH  63  64
ENDBRANCH  62  63
ENDBRANCH  61  62
ENDBRANCH   1  61
TORSDOF 24
ENDMDL
MODEL 3
REMARK VINA RESULT:      -9.1      3.655      5.206
REMARK SMILES O=C(OCCOCCOCCOCCOC(=O)[C@H]1C[C@H](O)CN1C(=O)c1ccccc1O)c1ccc(-c2c3nc(c(-c4ccccc4)c4ccc([nH]4)c(-c4ccccc4)c4nc(c(-c5ccccc5)c5ccc2[nH]5)C=C4)C=C3)cc1
REMARK SMILES IDX 10 1 9 2 8 3 7 4 6 5 5 6 4 7 3 8 2 9 1 10 33 11 34 12 80 13
REMARK SMILES IDX 35 14 79 15 36 16 37 17 38 18 73 19 39 20 78 21 72 22 74 23
REMARK SMILES IDX 40 24 77 25 71 26 70 27 41 29 63 30 48 31 62 32 49 33 52 34
REMARK SMILES IDX 61 35 75 36 50 37 51 38 60 40 76 41 53 42 42 43 43 44 47 45
REMARK SMILES IDX 44 46 46 47 45 48 64 49 65 50 69 51 66 52 68 53 67 54 54 55
REMARK SMILES IDX 55 56 59 57 56 58 58 59 57 60 11 61 12 62 13 63 14 64 15 65
REMARK SMILES IDX 16 66 17 67 18 68 19 69 23 70 20 71 22 72 24 73 25 74 26 75
REMARK SMILES IDX 27 76 31 77 28 78 30 79 29 80 32 81 21 83
REMARK H PARENT 74 28 52 39 32 82 21 84
REMARK Flexibility Score: inf
ROOT
ATOM      1  C   UNL A   1      39.743  23.399  27.154  1.00  0.00     0.188 C 
ENDROOT
BRANCH   1   2
ATOM      2  O   UNL A   1      40.761  22.952  26.290  1.00  0.00    -0.377 OA
BRANCH   2   3
ATOM      3  C   UNL A   1      40.964  21.564  26.144  1.00  0.00     0.188 C 
BRANCH   3   4
ATOM      4  C   UNL A   1      41.346  20.771  27.382  1.00  0.00     0.188 C 
BRANCH   4   5
ATOM      5  O   UNL A   1      42.133  19.622  27.088  1.00  0.00    -0.376 OA
BRANCH   5   6
ATOM      6  C   UNL A   1      42.458  19.416  25.712  1.00  0.00     0.202 C 
BRANCH   6   7
ATOM      7  C   UNL A   1      43.941  19.506  25.347  1.00  0.00     0.261 C 
BRANCH   7   8
ATOM      8  O   UNL A   1      44.337  20.628  24.533  1.00  0.00    -0.460 OA
BRANCH   8   9
ATOM      9  C   UNL A   1      45.046  21.751  24.787  1.00  0.00     0.338 C 
ATOM     10  O   UNL A   1      46.227  21.772  24.438  1.00  0.00    -0.246 OA
BRANCH   9  11
ATOM     11  C   UNL A   1      44.529  22.951  25.514  1.00  0.00     0.060 A 
ATOM     12  C   UNL A   1      44.122  24.134  24.911  1.00  0.00     0.016 A 
ATOM     13  C   UNL A   1      44.402  22.860  26.913  1.00  0.00     0.016 A 
ATOM     14  C   UNL A   1      43.634  25.204  25.632  1.00  0.00     0.010 A 
ATOM     15  C   UNL A   1      43.957  23.951  27.668  1.00  0.00     0.010 A 
ATOM     16  C   UNL A   1      43.622  25.141  27.016  1.00  0.00    -0.014 A 
BRANCH  16  17
ATOM     17  C   UNL A   1      43.614  26.449  27.687  1.00  0.00     0.031 A 
ATOM     18  C   UNL A   1      44.928  27.174  27.750  1.00  0.00     0.074 A 
ATOM     19  C   UNL A   1      42.447  27.061  27.946  1.00  0.00     0.049 A 
ATOM     20  N   UNL A   1      45.212  28.338  28.265  1.00  0.00    -0.248 NA
ATOM     21  C   UNL A   1      46.082  26.504  27.116  1.00  0.00     0.031 C 
ATOM     22  C   UNL A   1      41.119  26.502  27.672  1.00  0.00     0.029 A 
ATOM     23  N   UNL A   1      42.191  28.311  28.431  1.00  0.00    -0.354 N 
ATOM     24  C   UNL A   1      46.579  28.504  28.071  1.00  0.00     0.074 A 
ATOM     25  C   UNL A   1      47.070  27.338  27.382  1.00  0.00     0.031 C 
ATOM     26  C   UNL A   1      40.188  27.424  27.969  1.00  0.00     0.029 A 
ATOM     27  C   UNL A   1      40.851  28.594  28.530  1.00  0.00     0.049 A 
ATOM     28  H   UNL A   1      42.897  28.949  28.685  1.00  0.00     0.167 HD
ATOM     29  C   UNL A   1      47.352  29.540  28.461  1.00  0.00     0.031 A 
ATOM     30  C   UNL A   1      40.247  29.672  29.059  1.00  0.00     0.031 A 
ATOM     31  C   UNL A   1      46.815  30.684  29.140  1.00  0.00     0.049 A 
ATOM     32  C   UNL A   1      41.135  30.752  29.613  1.00  0.00     0.074 A 
ATOM     33  C   UNL A   1      47.479  31.765  29.684  1.00  0.00     0.029 A 
ATOM     34  N   UNL A   1      45.457  30.883  29.358  1.00  0.00    -0.354 N 
ATOM     35  N   UNL A   1      42.445  30.853  29.560  1.00  0.00    -0.248 NA
ATOM     36  C   UNL A   1      40.471  31.855  30.313  1.00  0.00     0.031 C 
ATOM     37  C   UNL A   1      46.521  32.591  30.284  1.00  0.00     0.029 A 
ATOM     38  C   UNL A   1      45.259  32.062  30.048  1.00  0.00     0.049 A 
ATOM     39  H   UNL A   1      44.742  30.274  29.064  1.00  0.00     0.167 HD
ATOM     40  C   UNL A   1      42.762  32.043  30.195  1.00  0.00     0.074 A 
ATOM     41  C   UNL A   1      41.502  32.635  30.608  1.00  0.00     0.031 C 
ATOM     42  C   UNL A   1      43.977  32.604  30.425  1.00  0.00     0.031 A 
BRANCH  29  43
ATOM     43  C   UNL A   1      48.836  29.391  28.272  1.00  0.00    -0.014 A 
ATOM     44  C   UNL A   1      49.662  28.801  29.242  1.00  0.00     0.009 A 
ATOM     45  C   UNL A   1      49.427  29.934  27.120  1.00  0.00     0.009 A 
ATOM     46  C   UNL A   1      51.053  28.800  29.081  1.00  0.00     0.001 A 
ATOM     47  C   UNL A   1      50.812  29.905  26.947  1.00  0.00     0.001 A 
ATOM     48  C   UNL A   1      51.624  29.351  27.935  1.00  0.00     0.000 A 
ENDBRANCH  29  43
BRANCH  30  49
ATOM     49  C   UNL A   1      38.764  29.741  29.166  1.00  0.00    -0.014 A 
ATOM     50  C   UNL A   1      38.100  29.366  30.343  1.00  0.00     0.009 A 
ATOM     51  C   UNL A   1      37.994  30.163  28.067  1.00  0.00     0.009 A 
ATOM     52  C   UNL A   1      36.702  29.385  30.407  1.00  0.00     0.001 A 
ATOM     53  C   UNL A   1      36.600  30.214  28.145  1.00  0.00     0.001 A 
ATOM     54  C   UNL A   1      35.955  29.812  29.311  1.00  0.00     0.000 A 
ENDBRANCH  30  49
BRANCH  42  55
ATOM     55  C   UNL A   1      43.979  33.945  31.094  1.00  0.00    -0.014 A 
ATOM     56  C   UNL A   1      44.090  34.069  32.487  1.00  0.00     0.009 A 
ATOM     57  C   UNL A   1      43.911  35.102  30.302  1.00  0.00     0.009 A 
ATOM     58  C   UNL A   1      44.093  35.332  33.077  1.00  0.00     0.001 A 
ATOM     59  C   UNL A   1      43.953  36.362  30.892  1.00  0.00     0.001 A 
ATOM     60  C   UNL A   1      44.031  36.476  32.280  1.00  0.00     0.000 A 
ENDBRANCH  42  55
ENDBRANCH  16  17
ENDBRANCH   9  11
ENDBRANCH   8   9
ENDBRANCH   7   8
ENDBRANCH   6   7
ENDBRANCH   5   6
ENDBRANCH   4   5
ENDBRANCH   3   4
ENDBRANCH   2   3
ENDBRANCH   1   2
BRANCH   1  61
ATOM     61  C   UNL A   1      38.483  24.139  26.661  1.00  0.00     0.188 C 
BRANCH  61  62
ATOM     62  O   UNL A   1      37.312  23.444  26.290  1.00  0.00    -0.376 OA
BRANCH  62  63
ATOM     63  C   UNL A   1      37.096  23.128  24.927  1.00  0.00     0.202 C 
BRANCH  63  64
ATOM     64  C   UNL A   1      35.791  23.553  24.238  1.00  0.00     0.261 C 
BRANCH  64  65
ATOM     65  O   UNL A   1      34.966  22.493  23.719  1.00  0.00    -0.462 OA
BRANCH  65  66
ATOM     66  C   UNL A   1      33.695  22.795  23.335  1.00  0.00     0.329 C 
ATOM     67  O   UNL A   1      32.781  21.976  23.276  1.00  0.00    -0.250 OA
BRANCH  66  68
ATOM     68  C   UNL A   1      33.453  24.312  23.079  1.00  0.00     0.198 C 
ATOM     69  C   UNL A   1      33.169  24.636  21.590  1.00  0.00     0.071 C 
ATOM     70  N   UNL A   1      32.389  25.009  23.805  1.00  0.00    -0.322 N 
ATOM     71  C   UNL A   1      31.807  25.349  21.553  1.00  0.00     0.136 C 
ATOM     72  C   UNL A   1      31.671  25.940  22.946  1.00  0.00     0.152 C 
BRANCH  70  73
ATOM     73  C   UNL A   1      32.423  25.028  25.184  1.00  0.00     0.258 C 
ATOM     74  O   UNL A   1      32.440  23.988  25.856  1.00  0.00    -0.269 OA
BRANCH  73  75
ATOM     75  C   UNL A   1      32.578  26.308  25.896  1.00  0.00     0.081 A 
ATOM     76  C   UNL A   1      33.837  26.915  25.790  1.00  0.00     0.018 A 
ATOM     77  C   UNL A   1      31.581  26.902  26.677  1.00  0.00     0.128 A 
ATOM     78  C   UNL A   1      34.084  28.129  26.425  1.00  0.00     0.001 A 
ATOM     79  C   UNL A   1      31.829  28.121  27.309  1.00  0.00     0.047 A 
ATOM     80  C   UNL A   1      33.078  28.734  27.176  1.00  0.00     0.004 A 
BRANCH  77  81
ATOM     81  O   UNL A   1      30.368  26.296  26.834  1.00  0.00    -0.507 OA
ATOM     82  H   UNL A   1      29.592  26.710  26.510  1.00  0.00     0.293 HD
ENDBRANCH  77  81
ENDBRANCH  73  75
ENDBRANCH  70  73
BRANCH  71  83
ATOM     83  O   UNL A   1      31.719  26.301  20.505  1.00  0.00    -0.391 OA
ATOM     84  H   UNL A   1      31.435  25.859  19.690  1.00  0.00     0.211 HD
ENDBRANCH  71  83
ENDBRANCH  66  68
ENDBRANCH  65  66
ENDBRANCH  64  65
ENDBRANCH  63  64
ENDBRANCH  62  63
ENDBRANCH  61  62
ENDBRANCH   1  61
TORSDOF 24
ENDMDL
