MODEL 1
REMARK VINA RESULT:      -9.0      0.000      0.000
REMARK SMILES CCOc1cc(OCC)cc(-c2ccc([C@@H](C)C(=O)OCCOCCOCCOCCOC(=O)c3ccc(-c4c5nc(c(-c6ccccc6)c6ccc([nH]6)c(-c6ccccc6)c6nc(c(-c7ccccc7)c7ccc4[nH]7)C=C6)C=C5)cc3)cc2F)c1
REMARK SMILES IDX 25 1 24 2 23 3 22 4 21 5 20 6 18 7 19 8 16 9 17 10 15 11
REMARK SMILES IDX 12 12 13 13 84 14 14 15 83 16 85 17 11 18 4 19 5 20 86 21
REMARK SMILES IDX 6 22 10 23 3 24 2 25 1 26 7 27 8 28 9 29 26 30 27 31 28 32
REMARK SMILES IDX 29 33 30 34 31 35 32 36 33 37 34 38 35 39 36 40 82 41 37 42
REMARK SMILES IDX 81 43 38 44 39 45 40 46 75 47 41 48 80 49 74 50 76 51 42 52
REMARK SMILES IDX 79 53 73 54 72 55 43 57 65 58 50 59 64 60 51 61 54 62 63 63
REMARK SMILES IDX 77 64 52 65 53 66 62 68 78 69 55 70 44 71 45 72 49 73 46 74
REMARK SMILES IDX 48 75 47 76 66 77 67 78 71 79 68 80 70 81 69 82 56 83 57 84
REMARK SMILES IDX 61 85 58 86 60 87 59 88
REMARK H PARENT 76 56 54 67
REMARK Flexibility Score: inf
ROOT
ATOM      1  C   UNL A   1      43.806  18.696  25.062  1.00  0.00     0.188 C 
ENDROOT
BRANCH   1   2
ATOM      2  C   UNL A   1      42.735  18.378  26.117  1.00  0.00     0.188 C 
BRANCH   2   3
ATOM      3  O   UNL A   1      42.256  19.382  27.000  1.00  0.00    -0.376 OA
BRANCH   3   4
ATOM      4  C   UNL A   1      41.940  20.678  26.517  1.00  0.00     0.202 C 
BRANCH   4   5
ATOM      5  C   UNL A   1      42.927  21.849  26.682  1.00  0.00     0.261 C 
BRANCH   5   6
ATOM      6  O   UNL A   1      42.367  23.138  27.008  1.00  0.00    -0.463 OA
BRANCH   6   7
ATOM      7  C   UNL A   1      41.119  23.132  27.532  1.00  0.00     0.313 C 
ATOM      8  O   UNL A   1      40.800  22.461  28.512  1.00  0.00    -0.252 OA
BRANCH   7   9
ATOM      9  C   UNL A   1      40.084  23.994  26.807  1.00  0.00     0.126 C 
ATOM     10  C   UNL A   1      39.855  25.260  27.626  1.00  0.00     0.025 C 
BRANCH   9  11
ATOM     11  C   UNL A   1      38.759  23.401  26.326  1.00  0.00    -0.031 A 
ATOM     12  C   UNL A   1      36.329  22.172  25.410  1.00  0.00     0.018 A 
ATOM     13  C   UNL A   1      36.352  23.486  25.920  1.00  0.00     0.012 A 
ATOM     14  C   UNL A   1      37.546  21.488  25.382  1.00  0.00     0.131 A 
ATOM     15  C   UNL A   1      37.543  24.094  26.364  1.00  0.00     0.005 A 
ATOM     16  C   UNL A   1      38.738  22.087  25.814  1.00  0.00     0.044 A 
ATOM     17  F   UNL A   1      37.607  20.233  24.911  1.00  0.00    -0.206 F 
BRANCH  12  18
ATOM     18  C   UNL A   1      35.089  21.600  24.845  1.00  0.00    -0.008 A 
ATOM     19  C   UNL A   1      33.038  21.715  23.530  1.00  0.00     0.123 A 
ATOM     20  C   UNL A   1      32.740  20.391  23.847  1.00  0.00     0.092 A 
ATOM     21  C   UNL A   1      34.196  22.322  24.036  1.00  0.00     0.055 A 
ATOM     22  C   UNL A   1      33.587  19.667  24.683  1.00  0.00     0.123 A 
ATOM     23  C   UNL A   1      34.747  20.275  25.170  1.00  0.00     0.055 A 
BRANCH  19  24
ATOM     24  O   UNL A   1      32.067  22.429  22.880  1.00  0.00    -0.494 OA
BRANCH  24  25
ATOM     25  C   UNL A   1      31.711  23.663  23.506  1.00  0.00     0.226 C 
ATOM     26  C   UNL A   1      31.044  23.401  24.838  1.00  0.00     0.049 C 
ENDBRANCH  24  25
ENDBRANCH  19  24
BRANCH  22  27
ATOM     27  O   UNL A   1      33.195  18.385  24.957  1.00  0.00    -0.494 OA
BRANCH  27  28
ATOM     28  C   UNL A   1      33.774  17.339  24.171  1.00  0.00     0.226 C 
ATOM     29  C   UNL A   1      33.170  17.303  22.776  1.00  0.00     0.049 C 
ENDBRANCH  27  28
ENDBRANCH  22  27
ENDBRANCH  12  18
ENDBRANCH   9  11
ENDBRANCH   7   9
ENDBRANCH   6   7
ENDBRANCH   5   6
ENDBRANCH   4   5
ENDBRANCH   3   4
ENDBRANCH   2   3
ENDBRANCH   1   2
BRANCH   1  30
ATOM     30  O   UNL A   1      45.093  18.174  25.324  1.00  0.00    -0.377 OA
BRANCH  30  31
ATOM     31  C   UNL A   1      46.188  19.045  25.095  1.00  0.00     0.188 C 
BRANCH  31  32
ATOM     32  C   UNL A   1      45.974  20.542  25.386  1.00  0.00     0.188 C 
BRANCH  32  33
ATOM     33  O   UNL A   1      45.749  21.334  24.227  1.00  0.00    -0.376 OA
BRANCH  33  34
ATOM     34  C   UNL A   1      46.259  22.657  24.214  1.00  0.00     0.202 C 
BRANCH  34  35
ATOM     35  C   UNL A   1      45.700  23.647  25.244  1.00  0.00     0.261 C 
BRANCH  35  36
ATOM     36  O   UNL A   1      46.623  24.593  25.809  1.00  0.00    -0.460 OA
BRANCH  36  37
ATOM     37  C   UNL A   1      46.704  25.808  25.236  1.00  0.00     0.338 C 
ATOM     38  O   UNL A   1      47.095  26.054  24.102  1.00  0.00    -0.246 OA
BRANCH  37  39
ATOM     39  C   UNL A   1      46.046  26.798  26.117  1.00  0.00     0.060 A 
ATOM     40  C   UNL A   1      46.836  27.466  27.061  1.00  0.00     0.016 A 
ATOM     41  C   UNL A   1      44.673  27.057  26.046  1.00  0.00     0.016 A 
ATOM     42  C   UNL A   1      46.254  28.350  27.969  1.00  0.00     0.010 A 
ATOM     43  C   UNL A   1      44.085  27.928  26.977  1.00  0.00     0.010 A 
ATOM     44  C   UNL A   1      44.867  28.547  27.969  1.00  0.00    -0.014 A 
BRANCH  44  45
ATOM     45  C   UNL A   1      44.248  29.238  29.131  1.00  0.00     0.031 A 
ATOM     46  C   UNL A   1      44.003  28.453  30.394  1.00  0.00     0.074 A 
ATOM     47  C   UNL A   1      43.992  30.559  29.109  1.00  0.00     0.049 A 
ATOM     48  N   UNL A   1      43.551  28.862  31.554  1.00  0.00    -0.248 NA
ATOM     49  C   UNL A   1      44.317  27.016  30.344  1.00  0.00     0.031 C 
ATOM     50  C   UNL A   1      44.229  31.448  27.973  1.00  0.00     0.029 A 
ATOM     51  N   UNL A   1      43.489  31.384  30.084  1.00  0.00    -0.354 N 
ATOM     52  C   UNL A   1      43.527  27.734  32.368  1.00  0.00     0.074 A 
ATOM     53  C   UNL A   1      43.974  26.621  31.560  1.00  0.00     0.031 C 
ATOM     54  C   UNL A   1      43.876  32.699  28.320  1.00  0.00     0.029 A 
ATOM     55  C   UNL A   1      43.366  32.695  29.689  1.00  0.00     0.049 A 
ATOM     56  H   UNL A   1      43.239  31.067  30.982  1.00  0.00     0.167 HD
ATOM     57  C   UNL A   1      43.175  27.631  33.673  1.00  0.00     0.031 A 
ATOM     58  C   UNL A   1      42.890  33.765  30.355  1.00  0.00     0.031 A 
ATOM     59  C   UNL A   1      42.707  28.730  34.477  1.00  0.00     0.049 A 
ATOM     60  C   UNL A   1      42.428  33.610  31.780  1.00  0.00     0.074 A 
ATOM     61  C   UNL A   1      42.334  28.726  35.809  1.00  0.00     0.029 A 
ATOM     62  N   UNL A   1      42.538  30.027  34.019  1.00  0.00    -0.354 N 
ATOM     63  N   UNL A   1      42.441  32.545  32.546  1.00  0.00    -0.248 NA
ATOM     64  C   UNL A   1      41.902  34.815  32.438  1.00  0.00     0.031 C 
ATOM     65  C   UNL A   1      41.875  30.005  36.140  1.00  0.00     0.029 A 
ATOM     66  C   UNL A   1      42.035  30.826  35.035  1.00  0.00     0.049 A 
ATOM     67  H   UNL A   1      42.744  30.336  33.108  1.00  0.00     0.167 HD
ATOM     68  C   UNL A   1      41.954  32.960  33.781  1.00  0.00     0.074 A 
ATOM     69  C   UNL A   1      41.680  34.377  33.668  1.00  0.00     0.031 C 
ATOM     70  C   UNL A   1      41.753  32.233  34.909  1.00  0.00     0.031 A 
BRANCH  57  71
ATOM     71  C   UNL A   1      43.244  26.265  34.300  1.00  0.00    -0.014 A 
ATOM     72  C   UNL A   1      44.463  25.584  34.445  1.00  0.00     0.009 A 
ATOM     73  C   UNL A   1      42.070  25.660  34.776  1.00  0.00     0.009 A 
ATOM     74  C   UNL A   1      44.498  24.311  35.020  1.00  0.00     0.001 A 
ATOM     75  C   UNL A   1      42.112  24.402  35.379  1.00  0.00     0.001 A 
ATOM     76  C   UNL A   1      43.324  23.723  35.490  1.00  0.00     0.000 A 
ENDBRANCH  57  71
BRANCH  58  77
ATOM     77  C   UNL A   1      42.809  35.091  29.680  1.00  0.00    -0.014 A 
ATOM     78  C   UNL A   1      41.727  35.412  28.847  1.00  0.00     0.009 A 
ATOM     79  C   UNL A   1      43.841  36.030  29.840  1.00  0.00     0.009 A 
ATOM     80  C   UNL A   1      41.695  36.631  28.164  1.00  0.00     0.001 A 
ATOM     81  C   UNL A   1      43.789  37.262  29.184  1.00  0.00     0.001 A 
ATOM     82  C   UNL A   1      42.723  37.557  28.338  1.00  0.00     0.000 A 
ENDBRANCH  58  77
BRANCH  70  83
ATOM     83  C   UNL A   1      41.248  32.971  36.121  1.00  0.00    -0.014 A 
ATOM     84  C   UNL A   1      42.110  33.706  36.950  1.00  0.00     0.009 A 
ATOM     85  C   UNL A   1      39.879  32.932  36.436  1.00  0.00     0.009 A 
ATOM     86  C   UNL A   1      41.623  34.336  38.097  1.00  0.00     0.001 A 
ATOM     87  C   UNL A   1      39.388  33.594  37.561  1.00  0.00     0.001 A 
ATOM     88  C   UNL A   1      40.263  34.282  38.401  1.00  0.00     0.000 A 
ENDBRANCH  70  83
ENDBRANCH  44  45
ENDBRANCH  37  39
ENDBRANCH  36  37
ENDBRANCH  35  36
ENDBRANCH  34  35
ENDBRANCH  33  34
ENDBRANCH  32  33
ENDBRANCH  31  32
ENDBRANCH  30  31
ENDBRANCH   1  30
TORSDOF 26
ENDMDL
MODEL 2
REMARK VINA RESULT:      -8.3      3.315      5.363
REMARK SMILES CCOc1cc(OCC)cc(-c2ccc([C@@H](C)C(=O)OCCOCCOCCOCCOC(=O)c3ccc(-c4c5nc(c(-c6ccccc6)c6ccc([nH]6)c(-c6ccccc6)c6nc(c(-c7ccccc7)c7ccc4[nH]7)C=C6)C=C5)cc3)cc2F)c1
REMARK SMILES IDX 25 1 24 2 23 3 22 4 21 5 20 6 18 7 19 8 16 9 17 10 15 11
REMARK SMILES IDX 12 12 13 13 84 14 14 15 83 16 85 17 11 18 4 19 5 20 86 21
REMARK SMILES IDX 6 22 10 23 3 24 2 25 1 26 7 27 8 28 9 29 26 30 27 31 28 32
REMARK SMILES IDX 29 33 30 34 31 35 32 36 33 37 34 38 35 39 36 40 82 41 37 42
REMARK SMILES IDX 81 43 38 44 39 45 40 46 75 47 41 48 80 49 74 50 76 51 42 52
REMARK SMILES IDX 79 53 73 54 72 55 43 57 65 58 50 59 64 60 51 61 54 62 63 63
REMARK SMILES IDX 77 64 52 65 53 66 62 68 78 69 55 70 44 71 45 72 49 73 46 74
REMARK SMILES IDX 48 75 47 76 66 77 67 78 71 79 68 80 70 81 69 82 56 83 57 84
REMARK SMILES IDX 61 85 58 86 60 87 59 88
REMARK H PARENT 76 56 54 67
REMARK Flexibility Score: inf
ROOT
ATOM      1  C   UNL A   1      43.960  18.785  25.384  1.00  0.00     0.188 C 
ENDROOT
BRANCH   1   2
ATOM      2  C   UNL A   1      42.704  18.411  26.185  1.00  0.00     0.188 C 
BRANCH   2   3
ATOM      3  O   UNL A   1      42.375  19.087  27.391  1.00  0.00    -0.376 OA
BRANCH   3   4
ATOM      4  C   UNL A   1      41.545  20.238  27.370  1.00  0.00     0.202 C 
BRANCH   4   5
ATOM      5  C   UNL A   1      42.058  21.594  27.890  1.00  0.00     0.261 C 
BRANCH   5   6
ATOM      6  O   UNL A   1      41.189  22.733  27.718  1.00  0.00    -0.463 OA
BRANCH   6   7
ATOM      7  C   UNL A   1      40.007  22.496  27.104  1.00  0.00     0.313 C 
ATOM      8  O   UNL A   1      39.556  21.366  26.919  1.00  0.00    -0.252 OA
BRANCH   7   9
ATOM      9  C   UNL A   1      39.252  23.728  26.604  1.00  0.00     0.126 C 
ATOM     10  C   UNL A   1      39.179  24.740  27.742  1.00  0.00     0.025 C 
BRANCH   9  11
ATOM     11  C   UNL A   1      37.903  23.596  25.896  1.00  0.00    -0.031 A 
ATOM     12  C   UNL A   1      35.310  23.390  24.677  1.00  0.00     0.018 A 
ATOM     13  C   UNL A   1      36.498  23.231  23.933  1.00  0.00     0.012 A 
ATOM     14  C   UNL A   1      35.454  23.666  26.038  1.00  0.00     0.131 A 
ATOM     15  C   UNL A   1      37.771  23.325  24.529  1.00  0.00     0.005 A 
ATOM     16  C   UNL A   1      36.716  23.753  26.642  1.00  0.00     0.044 A 
ATOM     17  F   UNL A   1      34.371  23.830  26.813  1.00  0.00    -0.206 F 
BRANCH  12  18
ATOM     18  C   UNL A   1      33.989  23.172  24.050  1.00  0.00    -0.008 A 
ATOM     19  C   UNL A   1      32.253  21.779  23.052  1.00  0.00     0.123 A 
ATOM     20  C   UNL A   1      31.450  22.899  22.845  1.00  0.00     0.092 A 
ATOM     21  C   UNL A   1      33.520  21.914  23.637  1.00  0.00     0.055 A 
ATOM     22  C   UNL A   1      31.910  24.163  23.206  1.00  0.00     0.123 A 
ATOM     23  C   UNL A   1      33.167  24.286  23.803  1.00  0.00     0.055 A 
BRANCH  19  24
ATOM     24  O   UNL A   1      31.834  20.604  22.489  1.00  0.00    -0.494 OA
BRANCH  24  25
ATOM     25  C   UNL A   1      32.251  19.426  23.181  1.00  0.00     0.226 C 
ATOM     26  C   UNL A   1      32.252  18.240  22.242  1.00  0.00     0.049 C 
ENDBRANCH  24  25
ENDBRANCH  19  24
BRANCH  22  27
ATOM     27  O   UNL A   1      31.060  25.202  22.939  1.00  0.00    -0.494 OA
BRANCH  27  28
ATOM     28  C   UNL A   1      30.657  26.021  24.039  1.00  0.00     0.226 C 
ATOM     29  C   UNL A   1      29.215  26.478  23.885  1.00  0.00     0.049 C 
ENDBRANCH  27  28
ENDBRANCH  22  27
ENDBRANCH  12  18
ENDBRANCH   9  11
ENDBRANCH   7   9
ENDBRANCH   6   7
ENDBRANCH   5   6
ENDBRANCH   4   5
ENDBRANCH   3   4
ENDBRANCH   2   3
ENDBRANCH   1   2
BRANCH   1  30
ATOM     30  O   UNL A   1      45.042  17.882  25.490  1.00  0.00    -0.377 OA
BRANCH  30  31
ATOM     31  C   UNL A   1      46.339  18.423  25.297  1.00  0.00     0.188 C 
BRANCH  31  32
ATOM     32  C   UNL A   1      46.508  19.942  25.491  1.00  0.00     0.188 C 
BRANCH  32  33
ATOM     33  O   UNL A   1      45.561  20.729  24.782  1.00  0.00    -0.376 OA
BRANCH  33  34
ATOM     34  C   UNL A   1      46.033  21.862  24.073  1.00  0.00     0.202 C 
BRANCH  34  35
ATOM     35  C   UNL A   1      45.834  23.240  24.718  1.00  0.00     0.261 C 
BRANCH  35  36
ATOM     36  O   UNL A   1      44.730  24.029  24.246  1.00  0.00    -0.460 OA
BRANCH  36  37
ATOM     37  C   UNL A   1      43.526  23.828  24.813  1.00  0.00     0.338 C 
ATOM     38  O   UNL A   1      42.844  22.815  24.731  1.00  0.00    -0.246 OA
BRANCH  37  39
ATOM     39  C   UNL A   1      43.238  24.947  25.736  1.00  0.00     0.060 A 
ATOM     40  C   UNL A   1      42.803  26.159  25.186  1.00  0.00     0.016 A 
ATOM     41  C   UNL A   1      43.414  24.831  27.120  1.00  0.00     0.016 A 
ATOM     42  C   UNL A   1      42.593  27.269  26.002  1.00  0.00     0.010 A 
ATOM     43  C   UNL A   1      43.226  25.957  27.937  1.00  0.00     0.010 A 
ATOM     44  C   UNL A   1      42.855  27.193  27.375  1.00  0.00    -0.014 A 
BRANCH  44  45
ATOM     45  C   UNL A   1      42.926  28.457  28.156  1.00  0.00     0.031 A 
ATOM     46  C   UNL A   1      44.256  29.153  28.289  1.00  0.00     0.074 A 
ATOM     47  C   UNL A   1      41.820  29.034  28.662  1.00  0.00     0.049 A 
ATOM     48  N   UNL A   1      44.543  30.300  28.852  1.00  0.00    -0.248 NA
ATOM     49  C   UNL A   1      45.417  28.465  27.701  1.00  0.00     0.031 C 
ATOM     50  C   UNL A   1      40.464  28.497  28.563  1.00  0.00     0.029 A 
ATOM     51  N   UNL A   1      41.667  30.212  29.349  1.00  0.00    -0.354 N 
ATOM     52  C   UNL A   1      45.913  30.470  28.686  1.00  0.00     0.074 A 
ATOM     53  C   UNL A   1      46.405  29.293  28.004  1.00  0.00     0.031 C 
ATOM     54  C   UNL A   1      39.615  29.349  29.163  1.00  0.00     0.029 A 
ATOM     55  C   UNL A   1      40.367  30.477  29.709  1.00  0.00     0.049 A 
ATOM     56  H   UNL A   1      42.417  30.812  29.564  1.00  0.00     0.167 HD
ATOM     57  C   UNL A   1      46.695  31.513  29.056  1.00  0.00     0.031 A 
ATOM     58  C   UNL A   1      39.847  31.506  30.406  1.00  0.00     0.031 A 
ATOM     59  C   UNL A   1      46.217  32.678  29.755  1.00  0.00     0.049 A 
ATOM     60  C   UNL A   1      40.750  32.616  30.879  1.00  0.00     0.074 A 
ATOM     61  C   UNL A   1      46.931  33.790  30.167  1.00  0.00     0.029 A 
ATOM     62  N   UNL A   1      44.905  32.875  30.156  1.00  0.00    -0.354 N 
ATOM     63  N   UNL A   1      42.037  32.777  30.687  1.00  0.00    -0.248 NA
ATOM     64  C   UNL A   1      40.117  33.696  31.651  1.00  0.00     0.031 C 
ATOM     65  C   UNL A   1      46.065  34.629  30.875  1.00  0.00     0.029 A 
ATOM     66  C   UNL A   1      44.795  34.076  30.839  1.00  0.00     0.049 A 
ATOM     67  H   UNL A   1      44.162  32.254  29.982  1.00  0.00     0.167 HD
ATOM     68  C   UNL A   1      42.361  33.989  31.288  1.00  0.00     0.074 A 
ATOM     69  C   UNL A   1      41.131  34.531  31.827  1.00  0.00     0.031 C 
ATOM     70  C   UNL A   1      43.568  34.601  31.383  1.00  0.00     0.031 A 
BRANCH  57  71
ATOM     71  C   UNL A   1      48.165  31.418  28.746  1.00  0.00    -0.014 A 
ATOM     72  C   UNL A   1      48.704  31.966  27.572  1.00  0.00     0.009 A 
ATOM     73  C   UNL A   1      49.027  30.790  29.659  1.00  0.00     0.009 A 
ATOM     74  C   UNL A   1      50.071  31.854  27.302  1.00  0.00     0.001 A 
ATOM     75  C   UNL A   1      50.396  30.707  29.402  1.00  0.00     0.001 A 
ATOM     76  C   UNL A   1      50.916  31.229  28.219  1.00  0.00     0.000 A 
ENDBRANCH  57  71
BRANCH  58  77
ATOM     77  C   UNL A   1      38.391  31.539  30.718  1.00  0.00    -0.014 A 
ATOM     78  C   UNL A   1      37.477  32.141  29.840  1.00  0.00     0.009 A 
ATOM     79  C   UNL A   1      37.914  30.997  31.923  1.00  0.00     0.009 A 
ATOM     80  C   UNL A   1      36.123  32.228  30.175  1.00  0.00     0.001 A 
ATOM     81  C   UNL A   1      36.555  31.054  32.239  1.00  0.00     0.001 A 
ATOM     82  C   UNL A   1      35.662  31.680  31.371  1.00  0.00     0.000 A 
ENDBRANCH  58  77
BRANCH  70  83
ATOM     83  C   UNL A   1      43.606  35.945  32.064  1.00  0.00    -0.014 A 
ATOM     84  C   UNL A   1      43.471  36.071  33.455  1.00  0.00     0.009 A 
ATOM     85  C   UNL A   1      43.785  37.106  31.295  1.00  0.00     0.009 A 
ATOM     86  C   UNL A   1      43.456  37.332  34.054  1.00  0.00     0.001 A 
ATOM     87  C   UNL A   1      43.809  38.364  31.899  1.00  0.00     0.001 A 
ATOM     88  C   UNL A   1      43.628  38.477  33.277  1.00  0.00     0.000 A 
ENDBRANCH  70  83
ENDBRANCH  44  45
ENDBRANCH  37  39
ENDBRANCH  36  37
ENDBRANCH  35  36
ENDBRANCH  34  35
ENDBRANCH  33  34
ENDBRANCH  32  33
ENDBRANCH  31  32
ENDBRANCH  30  31
ENDBRANCH   1  30
TORSDOF 26
ENDMDL
MODEL 3
REMARK VINA RESULT:      -7.9      5.583     12.839
REMARK SMILES CCOc1cc(OCC)cc(-c2ccc([C@@H](C)C(=O)OCCOCCOCCOCCOC(=O)c3ccc(-c4c5nc(c(-c6ccccc6)c6ccc([nH]6)c(-c6ccccc6)c6nc(c(-c7ccccc7)c7ccc4[nH]7)C=C6)C=C5)cc3)cc2F)c1
REMARK SMILES IDX 25 1 24 2 23 3 22 4 21 5 20 6 18 7 19 8 16 9 17 10 15 11
REMARK SMILES IDX 12 12 13 13 84 14 14 15 83 16 85 17 11 18 4 19 5 20 86 21
REMARK SMILES IDX 6 22 10 23 3 24 2 25 1 26 7 27 8 28 9 29 26 30 27 31 28 32
REMARK SMILES IDX 29 33 30 34 31 35 32 36 33 37 34 38 35 39 36 40 82 41 37 42
REMARK SMILES IDX 81 43 38 44 39 45 40 46 75 47 41 48 80 49 74 50 76 51 42 52
REMARK SMILES IDX 79 53 73 54 72 55 43 57 65 58 50 59 64 60 51 61 54 62 63 63
REMARK SMILES IDX 77 64 52 65 53 66 62 68 78 69 55 70 44 71 45 72 49 73 46 74
REMARK SMILES IDX 48 75 47 76 66 77 67 78 71 79 68 80 70 81 69 82 56 83 57 84
REMARK SMILES IDX 61 85 58 86 60 87 59 88
REMARK H PARENT 76 56 54 67
REMARK Flexibility Score: inf
ROOT
ATOM      1  C   UNL A   1      40.275  33.399  41.174  1.00  0.00     0.188 C 
ENDROOT
BRANCH   1   2
ATOM      2  C   UNL A   1      40.955  32.390  40.236  1.00  0.00     0.188 C 
BRANCH   2   3
ATOM      3  O   UNL A   1      41.196  32.706  38.872  1.00  0.00    -0.376 OA
BRANCH   3   4
ATOM      4  C   UNL A   1      40.124  32.772  37.945  1.00  0.00     0.202 C 
BRANCH   4   5
ATOM      5  C   UNL A   1      40.314  32.333  36.481  1.00  0.00     0.261 C 
BRANCH   5   6
ATOM      6  O   UNL A   1      39.662  33.127  35.468  1.00  0.00    -0.463 OA
BRANCH   6   7
ATOM      7  C   UNL A   1      39.130  32.447  34.426  1.00  0.00     0.313 C 
ATOM      8  O   UNL A   1      38.257  31.589  34.553  1.00  0.00    -0.252 OA
BRANCH   7   9
ATOM      9  C   UNL A   1      39.705  32.775  33.048  1.00  0.00     0.126 C 
ATOM     10  C   UNL A   1      39.048  34.057  32.547  1.00  0.00     0.025 C 
BRANCH   9  11
ATOM     11  C   UNL A   1      39.765  31.719  31.944  1.00  0.00    -0.031 A 
ATOM     12  C   UNL A   1      39.919  29.647  29.960  1.00  0.00     0.018 A 
ATOM     13  C   UNL A   1      39.353  30.908  29.678  1.00  0.00     0.012 A 
ATOM     14  C   UNL A   1      40.391  29.448  31.258  1.00  0.00     0.131 A 
ATOM     15  C   UNL A   1      39.283  31.928  30.646  1.00  0.00     0.005 A 
ATOM     16  C   UNL A   1      40.333  30.459  32.227  1.00  0.00     0.044 A 
ATOM     17  F   UNL A   1      40.943  28.274  31.605  1.00  0.00    -0.206 F 
BRANCH  12  18
ATOM     18  C   UNL A   1      40.085  28.636  28.894  1.00  0.00    -0.008 A 
ATOM     19  C   UNL A   1      39.840  26.398  27.956  1.00  0.00     0.123 A 
ATOM     20  C   UNL A   1      40.487  26.798  26.789  1.00  0.00     0.092 A 
ATOM     21  C   UNL A   1      39.652  27.305  29.009  1.00  0.00     0.055 A 
ATOM     22  C   UNL A   1      40.965  28.101  26.668  1.00  0.00     0.123 A 
ATOM     23  C   UNL A   1      40.760  29.002  27.715  1.00  0.00     0.055 A 
BRANCH  19  24
ATOM     24  O   UNL A   1      39.583  25.061  28.094  1.00  0.00    -0.494 OA
BRANCH  24  25
ATOM     25  C   UNL A   1      40.252  24.221  27.151  1.00  0.00     0.226 C 
ATOM     26  C   UNL A   1      40.292  22.795  27.656  1.00  0.00     0.049 C 
ENDBRANCH  24  25
ENDBRANCH  19  24
BRANCH  22  27
ATOM     27  O   UNL A   1      41.609  28.389  25.495  1.00  0.00    -0.494 OA
BRANCH  27  28
ATOM     28  C   UNL A   1      42.751  27.595  25.160  1.00  0.00     0.226 C 
ATOM     29  C   UNL A   1      43.914  27.885  26.095  1.00  0.00     0.049 C 
ENDBRANCH  27  28
ENDBRANCH  22  27
ENDBRANCH  12  18
ENDBRANCH   9  11
ENDBRANCH   7   9
ENDBRANCH   6   7
ENDBRANCH   5   6
ENDBRANCH   4   5
ENDBRANCH   3   4
ENDBRANCH   2   3
ENDBRANCH   1   2
BRANCH   1  30
ATOM     30  O   UNL A   1      40.343  34.751  40.767  1.00  0.00    -0.377 OA
BRANCH  30  31
ATOM     31  C   UNL A   1      39.273  35.588  41.173  1.00  0.00     0.188 C 
BRANCH  31  32
ATOM     32  C   UNL A   1      39.127  36.945  40.459  1.00  0.00     0.188 C 
BRANCH  32  33
ATOM     33  O   UNL A   1      39.478  38.065  41.260  1.00  0.00    -0.376 OA
BRANCH  33  34
ATOM     34  C   UNL A   1      40.100  39.170  40.626  1.00  0.00     0.202 C 
BRANCH  34  35
ATOM     35  C   UNL A   1      41.628  39.143  40.484  1.00  0.00     0.261 C 
BRANCH  35  36
ATOM     36  O   UNL A   1      42.245  37.856  40.307  1.00  0.00    -0.460 OA
BRANCH  36  37
ATOM     37  C   UNL A   1      43.500  37.824  39.824  1.00  0.00     0.338 C 
ATOM     38  O   UNL A   1      44.496  38.301  40.353  1.00  0.00    -0.246 OA
BRANCH  37  39
ATOM     39  C   UNL A   1      43.537  36.933  38.644  1.00  0.00     0.060 A 
ATOM     40  C   UNL A   1      42.366  36.245  38.302  1.00  0.00     0.016 A 
ATOM     41  C   UNL A   1      44.702  36.745  37.892  1.00  0.00     0.016 A 
ATOM     42  C   UNL A   1      42.366  35.333  37.248  1.00  0.00     0.010 A 
ATOM     43  C   UNL A   1      44.706  35.808  36.847  1.00  0.00     0.010 A 
ATOM     44  C   UNL A   1      43.549  35.066  36.547  1.00  0.00    -0.014 A 
BRANCH  44  45
ATOM     45  C   UNL A   1      43.593  33.879  35.653  1.00  0.00     0.031 A 
ATOM     46  C   UNL A   1      43.311  34.067  34.185  1.00  0.00     0.074 A 
ATOM     47  C   UNL A   1      43.968  32.669  36.109  1.00  0.00     0.049 A 
ATOM     48  N   UNL A   1      43.370  33.196  33.208  1.00  0.00    -0.248 NA
ATOM     49  C   UNL A   1      42.917  35.420  33.761  1.00  0.00     0.031 C 
ATOM     50  C   UNL A   1      44.318  32.357  37.494  1.00  0.00     0.029 A 
ATOM     51  N   UNL A   1      44.130  31.479  35.444  1.00  0.00    -0.354 N 
ATOM     52  C   UNL A   1      43.021  33.896  32.058  1.00  0.00     0.074 A 
ATOM     53  C   UNL A   1      42.717  35.250  32.464  1.00  0.00     0.031 C 
ATOM     54  C   UNL A   1      44.661  31.059  37.573  1.00  0.00     0.029 A 
ATOM     55  C   UNL A   1      44.531  30.444  36.254  1.00  0.00     0.049 A 
ATOM     56  H   UNL A   1      43.974  31.377  34.477  1.00  0.00     0.167 HD
ATOM     57  C   UNL A   1      42.967  33.458  30.776  1.00  0.00     0.031 A 
ATOM     58  C   UNL A   1      44.759  29.147  35.965  1.00  0.00     0.031 A 
ATOM     59  C   UNL A   1      43.246  32.107  30.367  1.00  0.00     0.049 A 
ATOM     60  C   UNL A   1      44.612  28.666  34.545  1.00  0.00     0.074 A 
ATOM     61  C   UNL A   1      43.225  31.570  29.092  1.00  0.00     0.029 A 
ATOM     62  N   UNL A   1      43.586  31.076  31.228  1.00  0.00    -0.354 N 
ATOM     63  N   UNL A   1      44.313  29.345  33.464  1.00  0.00    -0.248 NA
ATOM     64  C   UNL A   1      44.856  27.235  34.306  1.00  0.00     0.031 C 
ATOM     65  C   UNL A   1      43.486  30.199  29.189  1.00  0.00     0.029 A 
ATOM     66  C   UNL A   1      43.746  29.897  30.516  1.00  0.00     0.049 A 
ATOM     67  H   UNL A   1      43.698  31.166  32.202  1.00  0.00     0.167 HD
ATOM     68  C   UNL A   1      44.362  28.432  32.416  1.00  0.00     0.074 A 
ATOM     69  C   UNL A   1      44.745  27.158  32.988  1.00  0.00     0.031 C 
ATOM     70  C   UNL A   1      44.115  28.631  31.097  1.00  0.00     0.031 A 
BRANCH  57  71
ATOM     71  C   UNL A   1      42.547  34.451  29.725  1.00  0.00    -0.014 A 
ATOM     72  C   UNL A   1      43.491  35.201  29.005  1.00  0.00     0.009 A 
ATOM     73  C   UNL A   1      41.184  34.620  29.436  1.00  0.00     0.009 A 
ATOM     74  C   UNL A   1      43.074  36.125  28.043  1.00  0.00     0.001 A 
ATOM     75  C   UNL A   1      40.772  35.520  28.452  1.00  0.00     0.001 A 
ATOM     76  C   UNL A   1      41.716  36.280  27.764  1.00  0.00     0.000 A 
ENDBRANCH  57  71
BRANCH  58  77
ATOM     77  C   UNL A   1      45.138  28.195  37.045  1.00  0.00    -0.014 A 
ATOM     78  C   UNL A   1      46.474  28.059  37.452  1.00  0.00     0.009 A 
ATOM     79  C   UNL A   1      44.163  27.386  37.649  1.00  0.00     0.009 A 
ATOM     80  C   UNL A   1      46.829  27.113  38.417  1.00  0.00     0.001 A 
ATOM     81  C   UNL A   1      44.515  26.465  38.639  1.00  0.00     0.001 A 
ATOM     82  C   UNL A   1      45.849  26.322  39.014  1.00  0.00     0.000 A 
ENDBRANCH  58  77
BRANCH  70  83
ATOM     83  C   UNL A   1      44.289  27.448  30.179  1.00  0.00    -0.014 A 
ATOM     84  C   UNL A   1      43.203  26.648  29.793  1.00  0.00     0.009 A 
ATOM     85  C   UNL A   1      45.567  27.134  29.689  1.00  0.00     0.009 A 
ATOM     86  C   UNL A   1      43.401  25.527  28.984  1.00  0.00     0.001 A 
ATOM     87  C   UNL A   1      45.758  26.036  28.850  1.00  0.00     0.001 A 
ATOM     88  C   UNL A   1      44.677  25.223  28.512  1.00  0.00     0.000 A 
ENDBRANCH  70  83
ENDBRANCH  44  45
ENDBRANCH  37  39
ENDBRANCH  36  37
ENDBRANCH  35  36
ENDBRANCH  34  35
ENDBRANCH  33  34
ENDBRANCH  32  33
ENDBRANCH  31  32
ENDBRANCH  30  31
ENDBRANCH   1  30
TORSDOF 26
ENDMDL
