MODEL 1
REMARK VINA RESULT:      -7.8      0.000      0.000
REMARK SMILES Cc1nnc(S[C@@H](C)CCO)c(C(=O)OCCOCCOCCOCCOC(=O)c2ccc(-c3c4nc(c(-c5ccccc5)c5ccc([nH]5)c(-c5ccccc5)c5nc(c(-c6ccccc6)c6ccc3[nH]6)C=C5)C=C4)cc2)c1C
REMARK SMILES IDX 19 1 18 2 17 3 16 4 15 5 13 6 14 7 12 8 1 9 2 10 3 11 78 12
REMARK SMILES IDX 4 13 79 14 5 15 6 16 7 17 8 18 9 19 10 20 11 21 20 23 21 24
REMARK SMILES IDX 22 25 23 26 24 27 25 28 26 29 27 30 28 31 29 32 30 33 31 34
REMARK SMILES IDX 77 35 32 36 76 37 33 38 34 39 35 40 70 41 36 42 75 43 69 44
REMARK SMILES IDX 71 45 37 46 74 47 68 48 67 49 38 51 60 52 45 53 59 54 46 55
REMARK SMILES IDX 49 56 58 57 72 58 47 59 48 60 57 62 73 63 50 64 39 65 40 66
REMARK SMILES IDX 44 67 41 68 43 69 42 70 61 71 62 72 66 73 63 74 65 75 64 76
REMARK SMILES IDX 51 77 52 78 56 79 53 80 55 81 54 82
REMARK H PARENT 11 22 71 50 49 61
REMARK Flexibility Score: inf
ROOT
ATOM      1  C   UNL A   1      32.083  21.601  24.183  1.00  0.00     0.188 C 
ENDROOT
BRANCH   1   2
ATOM      2  O   UNL A   1      31.933  22.485  23.080  1.00  0.00    -0.376 OA
BRANCH   2   3
ATOM      3  C   UNL A   1      33.016  22.761  22.206  1.00  0.00     0.202 C 
BRANCH   3   4
ATOM      4  C   UNL A   1      33.008  24.169  21.634  1.00  0.00     0.261 C 
BRANCH   4   5
ATOM      5  O   UNL A   1      34.013  24.956  22.280  1.00  0.00    -0.460 OA
BRANCH   5   6
ATOM      6  C   UNL A   1      33.660  26.153  22.809  1.00  0.00     0.341 C 
ATOM      7  O   UNL A   1      34.000  27.243  22.395  1.00  0.00    -0.246 OA
BRANCH   6   8
ATOM      8  C   UNL A   1      32.662  25.862  23.861  1.00  0.00     0.098 A 
ATOM      9  C   UNL A   1      32.380  24.066  27.237  1.00  0.00     0.069 C 
ATOM     10  C   UNL A   1      32.085  24.774  25.948  1.00  0.00     0.064 A 
ATOM     11  N   UNL A   1      30.802  25.108  25.738  1.00  0.00    -0.155 NA
ATOM     12  C   UNL A   1      33.059  25.093  25.006  1.00  0.00    -0.011 A 
ATOM     13  N   UNL A   1      30.434  25.844  24.625  1.00  0.00    -0.143 NA
ATOM     14  C   UNL A   1      34.469  24.579  25.198  1.00  0.00     0.047 C 
ATOM     15  C   UNL A   1      31.330  26.266  23.703  1.00  0.00     0.134 A 
BRANCH  15  16
ATOM     16  S   UNL A   1      30.603  27.552  22.709  1.00  0.00    -0.100 SA
BRANCH  16  17
ATOM     17  C   UNL A   1      30.679  29.262  23.433  1.00  0.00     0.052 C 
ATOM     18  C   UNL A   1      29.300  29.918  23.273  1.00  0.00     0.020 C 
BRANCH  17  19
ATOM     19  C   UNL A   1      31.232  29.523  24.831  1.00  0.00     0.043 C 
BRANCH  19  20
ATOM     20  C   UNL A   1      32.744  29.521  24.992  1.00  0.00     0.157 C 
BRANCH  20  21
ATOM     21  O   UNL A   1      33.375  29.526  23.719  1.00  0.00    -0.396 OA
ATOM     22  H   UNL A   1      34.057  30.215  23.699  1.00  0.00     0.210 HD
ENDBRANCH  20  21
ENDBRANCH  19  20
ENDBRANCH  17  19
ENDBRANCH  16  17
ENDBRANCH  15  16
ENDBRANCH   6   8
ENDBRANCH   5   6
ENDBRANCH   4   5
ENDBRANCH   3   4
ENDBRANCH   2   3
ENDBRANCH   1   2
BRANCH   1  23
ATOM     23  C   UNL A   1      33.391  20.792  24.247  1.00  0.00     0.188 C 
BRANCH  23  24
ATOM     24  O   UNL A   1      34.544  21.291  24.908  1.00  0.00    -0.377 OA
BRANCH  24  25
ATOM     25  C   UNL A   1      35.664  20.435  25.033  1.00  0.00     0.188 C 
BRANCH  25  26
ATOM     26  C   UNL A   1      37.067  21.081  24.994  1.00  0.00     0.188 C 
BRANCH  26  27
ATOM     27  O   UNL A   1      38.129  20.170  24.712  1.00  0.00    -0.376 OA
BRANCH  27  28
ATOM     28  C   UNL A   1      38.818  19.660  25.848  1.00  0.00     0.202 C 
BRANCH  28  29
ATOM     29  C   UNL A   1      40.244  19.208  25.513  1.00  0.00     0.261 C 
BRANCH  29  30
ATOM     30  O   UNL A   1      41.255  20.175  25.828  1.00  0.00    -0.460 OA
BRANCH  30  31
ATOM     31  C   UNL A   1      41.514  20.381  27.137  1.00  0.00     0.338 C 
ATOM     32  O   UNL A   1      41.564  19.546  28.021  1.00  0.00    -0.246 OA
BRANCH  31  33
ATOM     33  C   UNL A   1      41.971  21.778  27.278  1.00  0.00     0.060 A 
ATOM     34  C   UNL A   1      42.486  22.187  28.517  1.00  0.00     0.016 A 
ATOM     35  C   UNL A   1      41.962  22.650  26.187  1.00  0.00     0.016 A 
ATOM     36  C   UNL A   1      43.009  23.471  28.661  1.00  0.00     0.010 A 
ATOM     37  C   UNL A   1      42.409  23.959  26.353  1.00  0.00     0.010 A 
ATOM     38  C   UNL A   1      42.900  24.381  27.599  1.00  0.00    -0.014 A 
BRANCH  38  39
ATOM     39  C   UNL A   1      42.954  25.828  27.893  1.00  0.00     0.031 A 
ATOM     40  C   UNL A   1      44.321  26.461  27.898  1.00  0.00     0.074 A 
ATOM     41  C   UNL A   1      41.858  26.553  28.173  1.00  0.00     0.049 A 
ATOM     42  N   UNL A   1      44.661  27.696  28.154  1.00  0.00    -0.248 NA
ATOM     43  C   UNL A   1      45.458  25.585  27.551  1.00  0.00     0.031 C 
ATOM     44  C   UNL A   1      40.481  26.065  28.150  1.00  0.00     0.029 A 
ATOM     45  N   UNL A   1      41.746  27.869  28.543  1.00  0.00    -0.354 N 
ATOM     46  C   UNL A   1      46.036  27.744  27.967  1.00  0.00     0.074 A 
ATOM     47  C   UNL A   1      46.475  26.426  27.584  1.00  0.00     0.031 C 
ATOM     48  C   UNL A   1      39.660  27.072  28.506  1.00  0.00     0.029 A 
ATOM     49  C   UNL A   1      40.457  28.259  28.808  1.00  0.00     0.049 A 
ATOM     50  H   UNL A   1      42.518  28.476  28.612  1.00  0.00     0.167 HD
ATOM     51  C   UNL A   1      46.872  28.794  28.116  1.00  0.00     0.031 A 
ATOM     52  C   UNL A   1      39.987  29.437  29.264  1.00  0.00     0.031 A 
ATOM     53  C   UNL A   1      46.462  30.078  28.595  1.00  0.00     0.049 A 
ATOM     54  C   UNL A   1      40.957  30.552  29.562  1.00  0.00     0.074 A 
ATOM     55  C   UNL A   1      47.239  31.191  28.844  1.00  0.00     0.029 A 
ATOM     56  N   UNL A   1      45.158  30.405  28.924  1.00  0.00    -0.354 N 
ATOM     57  N   UNL A   1      42.256  30.587  29.384  1.00  0.00    -0.248 NA
ATOM     58  C   UNL A   1      40.396  31.787  30.132  1.00  0.00     0.031 C 
ATOM     59  C   UNL A   1      46.410  32.184  29.370  1.00  0.00     0.029 A 
ATOM     60  C   UNL A   1      45.109  31.700  29.399  1.00  0.00     0.049 A 
ATOM     61  H   UNL A   1      44.382  29.805  28.834  1.00  0.00     0.167 HD
ATOM     62  C   UNL A   1      42.666  31.844  29.810  1.00  0.00     0.074 A 
ATOM     63  C   UNL A   1      41.477  32.548  30.245  1.00  0.00     0.031 C 
ATOM     64  C   UNL A   1      43.914  32.371  29.836  1.00  0.00     0.031 A 
BRANCH  51  65
ATOM     65  C   UNL A   1      48.318  28.561  27.805  1.00  0.00    -0.014 A 
ATOM     66  C   UNL A   1      48.797  28.709  26.495  1.00  0.00     0.009 A 
ATOM     67  C   UNL A   1      49.205  28.195  28.827  1.00  0.00     0.009 A 
ATOM     68  C   UNL A   1      50.145  28.484  26.212  1.00  0.00     0.001 A 
ATOM     69  C   UNL A   1      50.555  27.988  28.543  1.00  0.00     0.001 A 
ATOM     70  C   UNL A   1      51.022  28.130  27.236  1.00  0.00     0.000 A 
ENDBRANCH  51  65
BRANCH  52  71
ATOM     71  C   UNL A   1      38.532  29.617  29.496  1.00  0.00    -0.014 A 
ATOM     72  C   UNL A   1      37.691  30.034  28.454  1.00  0.00     0.009 A 
ATOM     73  C   UNL A   1      37.974  29.374  30.762  1.00  0.00     0.009 A 
ATOM     74  C   UNL A   1      36.323  30.209  28.674  1.00  0.00     0.001 A 
ATOM     75  C   UNL A   1      36.602  29.532  30.975  1.00  0.00     0.001 A 
ATOM     76  C   UNL A   1      35.779  29.953  29.933  1.00  0.00     0.000 A 
ENDBRANCH  52  71
BRANCH  64  77
ATOM     77  C   UNL A   1      44.073  33.773  30.343  1.00  0.00    -0.014 A 
ATOM     78  C   UNL A   1      43.747  34.871  29.533  1.00  0.00     0.009 A 
ATOM     79  C   UNL A   1      44.434  33.990  31.681  1.00  0.00     0.009 A 
ATOM     80  C   UNL A   1      43.791  36.165  30.056  1.00  0.00     0.001 A 
ATOM     81  C   UNL A   1      44.456  35.282  32.206  1.00  0.00     0.001 A 
ATOM     82  C   UNL A   1      44.137  36.368  31.392  1.00  0.00     0.000 A 
ENDBRANCH  64  77
ENDBRANCH  38  39
ENDBRANCH  31  33
ENDBRANCH  30  31
ENDBRANCH  29  30
ENDBRANCH  28  29
ENDBRANCH  27  28
ENDBRANCH  26  27
ENDBRANCH  25  26
ENDBRANCH  24  25
ENDBRANCH  23  24
ENDBRANCH   1  23
TORSDOF 25
ENDMDL
MODEL 2
REMARK VINA RESULT:      -7.6      4.786      6.390
REMARK SMILES Cc1nnc(S[C@@H](C)CCO)c(C(=O)OCCOCCOCCOCCOC(=O)c2ccc(-c3c4nc(c(-c5ccccc5)c5ccc([nH]5)c(-c5ccccc5)c5nc(c(-c6ccccc6)c6ccc3[nH]6)C=C5)C=C4)cc2)c1C
REMARK SMILES IDX 19 1 18 2 17 3 16 4 15 5 13 6 14 7 12 8 1 9 2 10 3 11 78 12
REMARK SMILES IDX 4 13 79 14 5 15 6 16 7 17 8 18 9 19 10 20 11 21 20 23 21 24
REMARK SMILES IDX 22 25 23 26 24 27 25 28 26 29 27 30 28 31 29 32 30 33 31 34
REMARK SMILES IDX 77 35 32 36 76 37 33 38 34 39 35 40 70 41 36 42 75 43 69 44
REMARK SMILES IDX 71 45 37 46 74 47 68 48 67 49 38 51 60 52 45 53 59 54 46 55
REMARK SMILES IDX 49 56 58 57 72 58 47 59 48 60 57 62 73 63 50 64 39 65 40 66
REMARK SMILES IDX 44 67 41 68 43 69 42 70 61 71 62 72 66 73 63 74 65 75 64 76
REMARK SMILES IDX 51 77 52 78 56 79 53 80 55 81 54 82
REMARK H PARENT 11 22 71 50 49 61
REMARK Flexibility Score: inf
ROOT
ATOM      1  C   UNL A   1      32.262  21.914  24.204  1.00  0.00     0.188 C 
ENDROOT
BRANCH   1   2
ATOM      2  O   UNL A   1      32.023  22.501  22.932  1.00  0.00    -0.376 OA
BRANCH   2   3
ATOM      3  C   UNL A   1      32.867  23.522  22.423  1.00  0.00     0.202 C 
BRANCH   3   4
ATOM      4  C   UNL A   1      32.150  24.830  22.130  1.00  0.00     0.261 C 
BRANCH   4   5
ATOM      5  O   UNL A   1      32.427  25.773  23.169  1.00  0.00    -0.460 OA
BRANCH   5   6
ATOM      6  C   UNL A   1      31.469  26.018  24.095  1.00  0.00     0.341 C 
ATOM      7  O   UNL A   1      31.259  25.362  25.095  1.00  0.00    -0.246 OA
BRANCH   6   8
ATOM      8  C   UNL A   1      30.861  27.316  23.727  1.00  0.00     0.098 A 
ATOM      9  C   UNL A   1      27.420  28.881  23.091  1.00  0.00     0.069 C 
ATOM     10  C   UNL A   1      28.894  28.618  23.177  1.00  0.00     0.064 A 
ATOM     11  N   UNL A   1      29.696  29.640  22.839  1.00  0.00    -0.155 NA
ATOM     12  C   UNL A   1      29.435  27.405  23.591  1.00  0.00    -0.011 A 
ATOM     13  N   UNL A   1      31.070  29.535  22.969  1.00  0.00    -0.143 NA
ATOM     14  C   UNL A   1      28.515  26.227  23.828  1.00  0.00     0.047 C 
ATOM     15  C   UNL A   1      31.673  28.420  23.442  1.00  0.00     0.134 A 
BRANCH  15  16
ATOM     16  S   UNL A   1      33.346  28.803  23.918  1.00  0.00    -0.100 SA
BRANCH  16  17
ATOM     17  C   UNL A   1      33.634  28.990  25.745  1.00  0.00     0.052 C 
ATOM     18  C   UNL A   1      33.115  30.368  26.178  1.00  0.00     0.020 C 
BRANCH  17  19
ATOM     19  C   UNL A   1      33.203  27.921  26.744  1.00  0.00     0.043 C 
BRANCH  19  20
ATOM     20  C   UNL A   1      31.895  28.149  27.486  1.00  0.00     0.157 C 
BRANCH  20  21
ATOM     21  O   UNL A   1      31.073  26.994  27.401  1.00  0.00    -0.396 OA
ATOM     22  H   UNL A   1      31.163  26.473  28.214  1.00  0.00     0.210 HD
ENDBRANCH  20  21
ENDBRANCH  19  20
ENDBRANCH  17  19
ENDBRANCH  16  17
ENDBRANCH  15  16
ENDBRANCH   6   8
ENDBRANCH   5   6
ENDBRANCH   4   5
ENDBRANCH   3   4
ENDBRANCH   2   3
ENDBRANCH   1   2
BRANCH   1  23
ATOM     23  C   UNL A   1      33.731  21.638  24.573  1.00  0.00     0.188 C 
BRANCH  23  24
ATOM     24  O   UNL A   1      34.650  22.694  24.808  1.00  0.00    -0.377 OA
BRANCH  24  25
ATOM     25  C   UNL A   1      35.550  22.566  25.893  1.00  0.00     0.188 C 
BRANCH  25  26
ATOM     26  C   UNL A   1      36.695  23.598  26.002  1.00  0.00     0.188 C 
BRANCH  26  27
ATOM     27  O   UNL A   1      37.989  23.077  25.702  1.00  0.00    -0.376 OA
BRANCH  27  28
ATOM     28  C   UNL A   1      38.906  23.050  26.790  1.00  0.00     0.202 C 
BRANCH  28  29
ATOM     29  C   UNL A   1      40.141  23.922  26.536  1.00  0.00     0.261 C 
BRANCH  29  30
ATOM     30  O   UNL A   1      39.875  25.331  26.544  1.00  0.00    -0.460 OA
BRANCH  30  31
ATOM     31  C   UNL A   1      40.933  26.149  26.730  1.00  0.00     0.338 C 
ATOM     32  O   UNL A   1      41.931  26.238  26.038  1.00  0.00    -0.246 OA
BRANCH  31  33
ATOM     33  C   UNL A   1      40.566  27.104  27.795  1.00  0.00     0.060 A 
ATOM     34  C   UNL A   1      41.121  28.392  27.755  1.00  0.00     0.016 A 
ATOM     35  C   UNL A   1      39.631  26.761  28.776  1.00  0.00     0.016 A 
ATOM     36  C   UNL A   1      40.729  29.346  28.691  1.00  0.00     0.010 A 
ATOM     37  C   UNL A   1      39.301  27.690  29.761  1.00  0.00     0.010 A 
ATOM     38  C   UNL A   1      39.875  28.971  29.739  1.00  0.00    -0.014 A 
BRANCH  38  39
ATOM     39  C   UNL A   1      39.874  29.775  30.980  1.00  0.00     0.031 A 
ATOM     40  C   UNL A   1      41.002  29.521  31.944  1.00  0.00     0.074 A 
ATOM     41  C   UNL A   1      38.912  30.668  31.264  1.00  0.00     0.049 A 
ATOM     42  N   UNL A   1      41.229  30.056  33.114  1.00  0.00    -0.248 NA
ATOM     43  C   UNL A   1      42.023  28.539  31.526  1.00  0.00     0.031 C 
ATOM     44  C   UNL A   1      37.800  31.037  30.390  1.00  0.00     0.029 A 
ATOM     45  N   UNL A   1      38.721  31.425  32.393  1.00  0.00    -0.354 N 
ATOM     46  C   UNL A   1      42.426  29.501  33.546  1.00  0.00     0.074 A 
ATOM     47  C   UNL A   1      42.879  28.586  32.530  1.00  0.00     0.031 C 
ATOM     48  C   UNL A   1      37.034  31.944  31.024  1.00  0.00     0.029 A 
ATOM     49  C   UNL A   1      37.586  32.194  32.355  1.00  0.00     0.049 A 
ATOM     50  H   UNL A   1      39.341  31.416  33.157  1.00  0.00     0.167 HD
ATOM     51  C   UNL A   1      43.088  29.719  34.702  1.00  0.00     0.031 A 
ATOM     52  C   UNL A   1      37.049  32.989  33.301  1.00  0.00     0.031 A 
ATOM     53  C   UNL A   1      42.595  30.545  35.761  1.00  0.00     0.049 A 
ATOM     54  C   UNL A   1      37.732  33.107  34.640  1.00  0.00     0.074 A 
ATOM     55  C   UNL A   1      43.157  30.783  36.999  1.00  0.00     0.029 A 
ATOM     56  N   UNL A   1      41.402  31.245  35.709  1.00  0.00    -0.354 N 
ATOM     57  N   UNL A   1      38.862  32.575  35.040  1.00  0.00    -0.248 NA
ATOM     58  C   UNL A   1      37.059  33.925  35.661  1.00  0.00     0.031 C 
ATOM     59  C   UNL A   1      42.278  31.595  37.719  1.00  0.00     0.029 A 
ATOM     60  C   UNL A   1      41.195  31.900  36.907  1.00  0.00     0.049 A 
ATOM     61  H   UNL A   1      40.792  31.272  34.936  1.00  0.00     0.167 HD
ATOM     62  C   UNL A   1      39.041  33.001  36.350  1.00  0.00     0.074 A 
ATOM     63  C   UNL A   1      37.909  33.843  36.676  1.00  0.00     0.031 C 
ATOM     64  C   UNL A   1      40.053  32.721  37.207  1.00  0.00     0.031 A 
BRANCH  51  65
ATOM     65  C   UNL A   1      44.390  29.003  34.885  1.00  0.00    -0.014 A 
ATOM     66  C   UNL A   1      44.424  27.718  35.448  1.00  0.00     0.009 A 
ATOM     67  C   UNL A   1      45.588  29.614  34.490  1.00  0.00     0.009 A 
ATOM     68  C   UNL A   1      45.641  27.060  35.620  1.00  0.00     0.001 A 
ATOM     69  C   UNL A   1      46.803  28.946  34.649  1.00  0.00     0.001 A 
ATOM     70  C   UNL A   1      46.828  27.671  35.216  1.00  0.00     0.000 A 
ENDBRANCH  51  65
BRANCH  52  71
ATOM     71  C   UNL A   1      35.783  33.717  33.031  1.00  0.00    -0.014 A 
ATOM     72  C   UNL A   1      35.805  35.066  32.648  1.00  0.00     0.009 A 
ATOM     73  C   UNL A   1      34.545  33.067  33.155  1.00  0.00     0.009 A 
ATOM     74  C   UNL A   1      34.614  35.751  32.400  1.00  0.00     0.001 A 
ATOM     75  C   UNL A   1      33.355  33.749  32.889  1.00  0.00     0.001 A 
ATOM     76  C   UNL A   1      33.390  35.091  32.515  1.00  0.00     0.000 A 
ENDBRANCH  52  71
BRANCH  64  77
ATOM     77  C   UNL A   1      40.000  33.329  38.577  1.00  0.00    -0.014 A 
ATOM     78  C   UNL A   1      40.955  34.272  38.983  1.00  0.00     0.009 A 
ATOM     79  C   UNL A   1      38.914  33.044  39.420  1.00  0.00     0.009 A 
ATOM     80  C   UNL A   1      40.827  34.913  40.217  1.00  0.00     0.001 A 
ATOM     81  C   UNL A   1      38.778  33.701  40.642  1.00  0.00     0.001 A 
ATOM     82  C   UNL A   1      39.736  34.633  41.040  1.00  0.00     0.000 A 
ENDBRANCH  64  77
ENDBRANCH  38  39
ENDBRANCH  31  33
ENDBRANCH  30  31
ENDBRANCH  29  30
ENDBRANCH  28  29
ENDBRANCH  27  28
ENDBRANCH  26  27
ENDBRANCH  25  26
ENDBRANCH  24  25
ENDBRANCH  23  24
ENDBRANCH   1  23
TORSDOF 25
ENDMDL
MODEL 3
REMARK VINA RESULT:      -7.3      5.937     10.027
REMARK SMILES Cc1nnc(S[C@@H](C)CCO)c(C(=O)OCCOCCOCCOCCOC(=O)c2ccc(-c3c4nc(c(-c5ccccc5)c5ccc([nH]5)c(-c5ccccc5)c5nc(c(-c6ccccc6)c6ccc3[nH]6)C=C5)C=C4)cc2)c1C
REMARK SMILES IDX 19 1 18 2 17 3 16 4 15 5 13 6 14 7 12 8 1 9 2 10 3 11 78 12
REMARK SMILES IDX 4 13 79 14 5 15 6 16 7 17 8 18 9 19 10 20 11 21 20 23 21 24
REMARK SMILES IDX 22 25 23 26 24 27 25 28 26 29 27 30 28 31 29 32 30 33 31 34
REMARK SMILES IDX 77 35 32 36 76 37 33 38 34 39 35 40 70 41 36 42 75 43 69 44
REMARK SMILES IDX 71 45 37 46 74 47 68 48 67 49 38 51 60 52 45 53 59 54 46 55
REMARK SMILES IDX 49 56 58 57 72 58 47 59 48 60 57 62 73 63 50 64 39 65 40 66
REMARK SMILES IDX 44 67 41 68 43 69 42 70 61 71 62 72 66 73 63 74 65 75 64 76
REMARK SMILES IDX 51 77 52 78 56 79 53 80 55 81 54 82
REMARK H PARENT 11 22 71 50 49 61
REMARK Flexibility Score: inf
ROOT
ATOM      1  C   UNL A   1      39.462  24.458  27.483  1.00  0.00     0.188 C 
ENDROOT
BRANCH   1   2
ATOM      2  O   UNL A   1      38.117  24.281  27.059  1.00  0.00    -0.376 OA
BRANCH   2   3
ATOM      3  C   UNL A   1      37.814  23.808  25.755  1.00  0.00     0.202 C 
BRANCH   3   4
ATOM      4  C   UNL A   1      36.655  22.825  25.707  1.00  0.00     0.261 C 
BRANCH   4   5
ATOM      5  O   UNL A   1      35.417  23.539  25.753  1.00  0.00    -0.460 OA
BRANCH   5   6
ATOM      6  C   UNL A   1      34.352  22.953  26.352  1.00  0.00     0.341 C 
ATOM      7  O   UNL A   1      34.205  22.792  27.546  1.00  0.00    -0.246 OA
BRANCH   6   8
ATOM      8  C   UNL A   1      33.358  22.713  25.283  1.00  0.00     0.098 A 
ATOM      9  C   UNL A   1      32.250  19.959  22.857  1.00  0.00     0.069 C 
ATOM     10  C   UNL A   1      32.444  21.264  23.569  1.00  0.00     0.064 A 
ATOM     11  N   UNL A   1      31.681  22.285  23.149  1.00  0.00    -0.155 NA
ATOM     12  C   UNL A   1      33.341  21.441  24.618  1.00  0.00    -0.011 A 
ATOM     13  N   UNL A   1      31.713  23.508  23.797  1.00  0.00    -0.143 NA
ATOM     14  C   UNL A   1      34.290  20.318  24.976  1.00  0.00     0.047 C 
ATOM     15  C   UNL A   1      32.497  23.739  24.875  1.00  0.00     0.134 A 
BRANCH  15  16
ATOM     16  S   UNL A   1      31.938  25.207  25.715  1.00  0.00    -0.100 SA
BRANCH  16  17
ATOM     17  C   UNL A   1      33.036  26.697  25.537  1.00  0.00     0.052 C 
ATOM     18  C   UNL A   1      33.763  26.605  24.189  1.00  0.00     0.020 C 
BRANCH  17  19
ATOM     19  C   UNL A   1      32.517  28.114  25.766  1.00  0.00     0.043 C 
BRANCH  19  20
ATOM     20  C   UNL A   1      31.976  28.441  27.149  1.00  0.00     0.157 C 
BRANCH  20  21
ATOM     21  O   UNL A   1      33.045  28.685  28.051  1.00  0.00    -0.396 OA
ATOM     22  H   UNL A   1      32.718  28.629  28.963  1.00  0.00     0.210 HD
ENDBRANCH  20  21
ENDBRANCH  19  20
ENDBRANCH  17  19
ENDBRANCH  16  17
ENDBRANCH  15  16
ENDBRANCH   6   8
ENDBRANCH   5   6
ENDBRANCH   4   5
ENDBRANCH   3   4
ENDBRANCH   2   3
ENDBRANCH   1   2
BRANCH   1  23
ATOM     23  C   UNL A   1      40.234  25.637  26.863  1.00  0.00     0.188 C 
BRANCH  23  24
ATOM     24  O   UNL A   1      40.780  26.674  27.665  1.00  0.00    -0.377 OA
BRANCH  24  25
ATOM     25  C   UNL A   1      40.436  28.011  27.351  1.00  0.00     0.188 C 
BRANCH  25  26
ATOM     26  C   UNL A   1      39.614  28.803  28.392  1.00  0.00     0.188 C 
BRANCH  26  27
ATOM     27  O   UNL A   1      38.568  29.599  27.836  1.00  0.00    -0.376 OA
BRANCH  27  28
ATOM     28  C   UNL A   1      37.248  29.108  28.044  1.00  0.00     0.202 C 
BRANCH  28  29
ATOM     29  C   UNL A   1      36.212  30.235  28.128  1.00  0.00     0.261 C 
BRANCH  29  30
ATOM     30  O   UNL A   1      36.688  31.422  28.776  1.00  0.00    -0.460 OA
BRANCH  30  31
ATOM     31  C   UNL A   1      35.932  31.911  29.782  1.00  0.00     0.338 C 
ATOM     32  O   UNL A   1      34.739  32.150  29.763  1.00  0.00    -0.246 OA
BRANCH  31  33
ATOM     33  C   UNL A   1      36.761  31.881  31.005  1.00  0.00     0.060 A 
ATOM     34  C   UNL A   1      37.940  32.641  31.028  1.00  0.00     0.016 A 
ATOM     35  C   UNL A   1      36.345  31.176  32.137  1.00  0.00     0.016 A 
ATOM     36  C   UNL A   1      38.699  32.708  32.194  1.00  0.00     0.010 A 
ATOM     37  C   UNL A   1      37.147  31.177  33.276  1.00  0.00     0.010 A 
ATOM     38  C   UNL A   1      38.341  31.915  33.294  1.00  0.00    -0.014 A 
BRANCH  38  39
ATOM     39  C   UNL A   1      39.376  31.575  34.294  1.00  0.00     0.031 A 
ATOM     40  C   UNL A   1      39.533  32.530  35.448  1.00  0.00     0.074 A 
ATOM     41  C   UNL A   1      40.165  30.494  34.182  1.00  0.00     0.049 A 
ATOM     42  N   UNL A   1      40.377  32.495  36.443  1.00  0.00    -0.248 NA
ATOM     43  C   UNL A   1      38.600  33.673  35.493  1.00  0.00     0.031 C 
ATOM     44  C   UNL A   1      40.075  29.472  33.140  1.00  0.00     0.029 A 
ATOM     45  N   UNL A   1      41.214  30.086  34.967  1.00  0.00    -0.354 N 
ATOM     46  C   UNL A   1      40.052  33.584  37.240  1.00  0.00     0.074 A 
ATOM     47  C   UNL A   1      38.946  34.268  36.620  1.00  0.00     0.031 C 
ATOM     48  C   UNL A   1      41.042  28.558  33.346  1.00  0.00     0.029 A 
ATOM     49  C   UNL A   1      41.833  28.948  34.513  1.00  0.00     0.049 A 
ATOM     50  H   UNL A   1      41.495  30.564  35.780  1.00  0.00     0.167 HD
ATOM     51  C   UNL A   1      40.635  33.996  38.385  1.00  0.00     0.031 A 
ATOM     52  C   UNL A   1      42.927  28.315  34.979  1.00  0.00     0.031 A 
ATOM     53  C   UNL A   1      41.797  33.386  38.953  1.00  0.00     0.049 A 
ATOM     54  C   UNL A   1      43.648  28.875  36.178  1.00  0.00     0.074 A 
ATOM     55  C   UNL A   1      42.506  33.764  40.076  1.00  0.00     0.029 A 
ATOM     56  N   UNL A   1      42.437  32.281  38.416  1.00  0.00    -0.354 N 
ATOM     57  N   UNL A   1      43.334  29.909  36.923  1.00  0.00    -0.248 NA
ATOM     58  C   UNL A   1      44.880  28.188  36.595  1.00  0.00     0.031 C 
ATOM     59  C   UNL A   1      43.606  32.913  40.195  1.00  0.00     0.029 A 
ATOM     60  C   UNL A   1      43.550  31.976  39.173  1.00  0.00     0.049 A 
ATOM     61  H   UNL A   1      42.143  31.789  37.616  1.00  0.00     0.167 HD
ATOM     62  C   UNL A   1      44.320  29.990  37.898  1.00  0.00     0.074 A 
ATOM     63  C   UNL A   1      45.238  28.896  37.659  1.00  0.00     0.031 C 
ATOM     64  C   UNL A   1      44.453  30.888  38.904  1.00  0.00     0.031 A 
BRANCH  51  65
ATOM     65  C   UNL A   1      40.042  35.196  39.056  1.00  0.00    -0.014 A 
ATOM     66  C   UNL A   1      39.107  35.044  40.091  1.00  0.00     0.009 A 
ATOM     67  C   UNL A   1      40.422  36.484  38.654  1.00  0.00     0.009 A 
ATOM     68  C   UNL A   1      38.555  36.167  40.707  1.00  0.00     0.001 A 
ATOM     69  C   UNL A   1      39.880  37.604  39.284  1.00  0.00     0.001 A 
ATOM     70  C   UNL A   1      38.946  37.445  40.307  1.00  0.00     0.000 A 
ENDBRANCH  51  65
BRANCH  52  71
ATOM     71  C   UNL A   1      43.427  27.094  34.298  1.00  0.00    -0.014 A 
ATOM     72  C   UNL A   1      44.209  27.196  33.138  1.00  0.00     0.009 A 
ATOM     73  C   UNL A   1      43.125  25.819  34.803  1.00  0.00     0.009 A 
ATOM     74  C   UNL A   1      44.675  26.048  32.495  1.00  0.00     0.001 A 
ATOM     75  C   UNL A   1      43.607  24.672  34.167  1.00  0.00     0.001 A 
ATOM     76  C   UNL A   1      44.378  24.786  33.013  1.00  0.00     0.000 A 
ENDBRANCH  52  71
BRANCH  64  77
ATOM     77  C   UNL A   1      45.621  30.735  39.831  1.00  0.00    -0.014 A 
ATOM     78  C   UNL A   1      46.819  31.426  39.597  1.00  0.00     0.009 A 
ATOM     79  C   UNL A   1      45.477  29.990  41.011  1.00  0.00     0.009 A 
ATOM     80  C   UNL A   1      47.857  31.364  40.529  1.00  0.00     0.001 A 
ATOM     81  C   UNL A   1      46.508  29.948  41.949  1.00  0.00     0.001 A 
ATOM     82  C   UNL A   1      47.697  30.633  41.706  1.00  0.00     0.000 A 
ENDBRANCH  64  77
ENDBRANCH  38  39
ENDBRANCH  31  33
ENDBRANCH  30  31
ENDBRANCH  29  30
ENDBRANCH  28  29
ENDBRANCH  27  28
ENDBRANCH  26  27
ENDBRANCH  25  26
ENDBRANCH  24  25
ENDBRANCH  23  24
ENDBRANCH   1  23
TORSDOF 25
ENDMDL
