MODEL 1
REMARK VINA RESULT:     -10.4      0.000      0.000
REMARK SMILES CCn1ncc(NC(=O)[C@@H]2CCCC[C@@H]2C(=O)OCCOCCOCCOCCOC(=O)c2ccc(-c3c4nc(c(-c5ccccc5)c5ccc([nH]5)c(-c5ccccc5)c5nc(c(-c6ccccc6)c6ccc3[nH]6)C=C5)C=C4)cc2)c1C(=O)Nc1cnn(C)c1C
REMARK SMILES IDX 23 1 22 2 21 3 20 4 19 5 18 6 16 7 17 8 15 9 10 10 11 11
REMARK SMILES IDX 12 12 14 13 13 14 8 15 7 16 9 18 6 19 3 20 4 21 81 22 5 23
REMARK SMILES IDX 2 24 1 25 82 26 83 27 84 28 85 30 86 31 90 32 87 33 88 34
REMARK SMILES IDX 91 35 89 36 24 37 25 38 26 39 27 40 28 41 29 42 30 43 31 44
REMARK SMILES IDX 32 45 33 46 34 47 80 48 35 49 79 50 36 51 37 52 38 53 73 54
REMARK SMILES IDX 39 55 78 56 72 57 74 58 40 59 77 60 71 61 70 62 41 64 63 65
REMARK SMILES IDX 48 66 62 67 49 68 52 69 61 70 75 71 50 72 51 73 60 75 76 76
REMARK SMILES IDX 53 77 42 78 43 79 47 80 44 81 46 82 45 83 64 84 65 85 69 86
REMARK SMILES IDX 66 87 68 88 67 89 54 90 55 91 59 92 56 93 58 94 57 95
REMARK H PARENT 7 17 84 29 74 63 52 74
REMARK Flexibility Score: inf
ROOT
ATOM      1  C   UNL A   1      31.834  30.618  26.891  1.00  0.00     0.188 C 
ENDROOT
BRANCH   1   2
ATOM      2  C   UNL A   1      31.712  30.244  25.400  1.00  0.00     0.188 C 
BRANCH   2   3
ATOM      3  O   UNL A   1      32.494  29.191  24.853  1.00  0.00    -0.376 OA
BRANCH   3   4
ATOM      4  C   UNL A   1      32.694  28.010  25.608  1.00  0.00     0.202 C 
BRANCH   4   5
ATOM      5  C   UNL A   1      33.155  26.745  24.866  1.00  0.00     0.261 C 
BRANCH   5   6
ATOM      6  O   UNL A   1      32.916  25.481  25.520  1.00  0.00    -0.463 OA
BRANCH   6   7
ATOM      7  C   UNL A   1      31.631  25.051  25.570  1.00  0.00     0.309 C 
ATOM      8  O   UNL A   1      30.884  25.204  26.530  1.00  0.00    -0.252 OA
BRANCH   7   9
ATOM      9  C   UNL A   1      31.177  24.302  24.309  1.00  0.00     0.111 C 
ATOM     10  C   UNL A   1      31.751  22.894  24.229  1.00  0.00     0.093 C 
ATOM     11  C   UNL A   1      33.181  22.870  23.711  1.00  0.00     0.014 C 
ATOM     12  C   UNL A   1      33.139  23.313  22.249  1.00  0.00     0.001 C 
ATOM     13  C   UNL A   1      31.271  25.013  22.952  1.00  0.00     0.016 C 
ATOM     14  C   UNL A   1      32.481  24.679  22.055  1.00  0.00     0.001 C 
BRANCH  10  15
ATOM     15  C   UNL A   1      31.469  22.140  25.490  1.00  0.00     0.228 C 
ATOM     16  N   UNL A   1      32.514  21.673  26.236  1.00  0.00    -0.322 N 
ATOM     17  H   UNL A   1      32.222  21.001  26.894  1.00  0.00     0.170 HD
ATOM     18  O   UNL A   1      30.319  21.830  25.805  1.00  0.00    -0.274 OA
BRANCH  16  19
ATOM     19  C   UNL A   1      33.892  21.903  26.307  1.00  0.00     0.092 A 
ATOM     20  N   UNL A   1      36.060  22.238  26.074  1.00  0.00    -0.258 N 
ATOM     21  N   UNL A   1      35.673  23.221  26.906  1.00  0.00    -0.178 NA
ATOM     22  C   UNL A   1      35.068  21.304  25.826  1.00  0.00     0.150 A 
ATOM     23  C   UNL A   1      34.361  23.053  26.995  1.00  0.00     0.162 A 
BRANCH  20  24
ATOM     24  C   UNL A   1      37.392  22.363  25.500  1.00  0.00     0.142 C 
ATOM     25  C   UNL A   1      38.252  23.515  26.002  1.00  0.00     0.029 C 
ENDBRANCH  20  24
BRANCH  22  26
ATOM     26  C   UNL A   1      35.330  20.146  25.010  1.00  0.00     0.276 C 
ATOM     27  O   UNL A   1      36.452  19.660  24.871  1.00  0.00    -0.267 OA
ATOM     28  N   UNL A   1      34.287  19.645  24.239  1.00  0.00    -0.318 N 
ATOM     29  H   UNL A   1      34.098  20.031  23.354  1.00  0.00     0.170 HD
BRANCH  28  30
ATOM     30  C   UNL A   1      33.513  18.599  24.725  1.00  0.00     0.082 A 
ATOM     31  C   UNL A   1      32.602  18.554  25.794  1.00  0.00     0.161 A 
ATOM     32  C   UNL A   1      33.493  17.332  24.177  1.00  0.00     0.059 A 
ATOM     33  N   UNL A   1      32.185  17.306  26.032  1.00  0.00    -0.179 NA
ATOM     34  N   UNL A   1      32.823  16.569  25.101  1.00  0.00    -0.271 N 
ATOM     35  C   UNL A   1      34.168  16.770  22.978  1.00  0.00     0.068 C 
ATOM     36  C   UNL A   1      32.958  15.143  25.309  1.00  0.00     0.174 C 
ENDBRANCH  28  30
ENDBRANCH  22  26
ENDBRANCH  16  19
ENDBRANCH  10  15
ENDBRANCH   7   9
ENDBRANCH   6   7
ENDBRANCH   5   6
ENDBRANCH   4   5
ENDBRANCH   3   4
ENDBRANCH   2   3
ENDBRANCH   1   2
BRANCH   1  37
ATOM     37  O   UNL A   1      33.042  31.219  27.316  1.00  0.00    -0.377 OA
BRANCH  37  38
ATOM     38  C   UNL A   1      32.952  32.590  27.644  1.00  0.00     0.188 C 
BRANCH  38  39
ATOM     39  C   UNL A   1      34.145  33.132  28.450  1.00  0.00     0.188 C 
BRANCH  39  40
ATOM     40  O   UNL A   1      33.764  33.872  29.610  1.00  0.00    -0.376 OA
BRANCH  40  41
ATOM     41  C   UNL A   1      34.649  34.008  30.709  1.00  0.00     0.202 C 
BRANCH  41  42
ATOM     42  C   UNL A   1      34.613  32.889  31.753  1.00  0.00     0.261 C 
BRANCH  42  43
ATOM     43  O   UNL A   1      35.325  31.725  31.375  1.00  0.00    -0.460 OA
BRANCH  43  44
ATOM     44  C   UNL A   1      36.641  31.762  31.661  1.00  0.00     0.338 C 
ATOM     45  O   UNL A   1      37.187  32.356  32.569  1.00  0.00    -0.246 OA
BRANCH  44  46
ATOM     46  C   UNL A   1      37.364  31.044  30.609  1.00  0.00     0.060 A 
ATOM     47  C   UNL A   1      37.022  29.700  30.479  1.00  0.00     0.016 A 
ATOM     48  C   UNL A   1      38.589  31.572  30.180  1.00  0.00     0.016 A 
ATOM     49  C   UNL A   1      38.048  28.822  30.264  1.00  0.00     0.010 A 
ATOM     50  C   UNL A   1      39.616  30.692  29.983  1.00  0.00     0.010 A 
ATOM     51  C   UNL A   1      39.343  29.340  30.156  1.00  0.00    -0.014 A 
BRANCH  51  52
ATOM     52  C   UNL A   1      40.426  28.398  30.228  1.00  0.00     0.031 A 
ATOM     53  C   UNL A   1      41.017  28.317  31.568  1.00  0.00     0.074 A 
ATOM     54  C   UNL A   1      40.794  27.651  29.173  1.00  0.00     0.049 A 
ATOM     55  N   UNL A   1      42.185  28.718  31.936  1.00  0.00    -0.248 NA
ATOM     56  C   UNL A   1      40.125  27.909  32.663  1.00  0.00     0.031 C 
ATOM     57  C   UNL A   1      40.095  27.462  27.899  1.00  0.00     0.029 A 
ATOM     58  N   UNL A   1      41.841  26.796  29.087  1.00  0.00    -0.354 N 
ATOM     59  C   UNL A   1      42.249  28.432  33.291  1.00  0.00     0.074 A 
ATOM     60  C   UNL A   1      40.905  28.134  33.717  1.00  0.00     0.031 C 
ATOM     61  C   UNL A   1      40.608  26.374  27.278  1.00  0.00     0.029 A 
ATOM     62  C   UNL A   1      41.740  25.884  28.051  1.00  0.00     0.049 A 
ATOM     63  H   UNL A   1      42.606  26.821  29.706  1.00  0.00     0.167 HD
ATOM     64  C   UNL A   1      43.434  28.168  33.897  1.00  0.00     0.031 A 
ATOM     65  C   UNL A   1      42.481  24.759  27.915  1.00  0.00     0.031 A 
ATOM     66  C   UNL A   1      44.554  28.645  33.128  1.00  0.00     0.049 A 
ATOM     67  C   UNL A   1      43.686  24.908  28.767  1.00  0.00     0.074 A 
ATOM     68  C   UNL A   1      44.961  29.884  32.671  1.00  0.00     0.029 A 
ATOM     69  N   UNL A   1      45.249  27.720  32.386  1.00  0.00    -0.354 N 
ATOM     70  N   UNL A   1      44.639  25.761  28.523  1.00  0.00    -0.248 NA
ATOM     71  C   UNL A   1      43.632  24.418  30.138  1.00  0.00     0.031 C 
ATOM     72  C   UNL A   1      45.536  29.640  31.390  1.00  0.00     0.029 A 
ATOM     73  C   UNL A   1      45.485  28.265  31.150  1.00  0.00     0.049 A 
ATOM     74  H   UNL A   1      45.528  26.826  32.688  1.00  0.00     0.167 HD
ATOM     75  C   UNL A   1      45.021  26.238  29.770  1.00  0.00     0.074 A 
ATOM     76  C   UNL A   1      44.455  25.292  30.727  1.00  0.00     0.031 C 
ATOM     77  C   UNL A   1      45.512  27.506  29.918  1.00  0.00     0.031 A 
BRANCH  64  78
ATOM     78  C   UNL A   1      43.562  27.091  34.941  1.00  0.00    -0.014 A 
ATOM     79  C   UNL A   1      43.141  25.791  34.623  1.00  0.00     0.009 A 
ATOM     80  C   UNL A   1      43.819  27.361  36.302  1.00  0.00     0.009 A 
ATOM     81  C   UNL A   1      42.930  24.836  35.623  1.00  0.00     0.001 A 
ATOM     82  C   UNL A   1      43.656  26.398  37.296  1.00  0.00     0.001 A 
ATOM     83  C   UNL A   1      43.183  25.141  36.958  1.00  0.00     0.000 A 
ENDBRANCH  64  78
BRANCH  65  84
ATOM     84  C   UNL A   1      42.058  23.460  27.351  1.00  0.00    -0.014 A 
ATOM     85  C   UNL A   1      42.693  22.930  26.219  1.00  0.00     0.009 A 
ATOM     86  C   UNL A   1      41.199  22.613  28.077  1.00  0.00     0.009 A 
ATOM     87  C   UNL A   1      42.502  21.592  25.849  1.00  0.00     0.001 A 
ATOM     88  C   UNL A   1      41.002  21.280  27.703  1.00  0.00     0.001 A 
ATOM     89  C   UNL A   1      41.666  20.766  26.596  1.00  0.00     0.000 A 
ENDBRANCH  65  84
BRANCH  77  90
ATOM     90  C   UNL A   1      45.845  28.276  28.662  1.00  0.00    -0.014 A 
ATOM     91  C   UNL A   1      47.140  28.315  28.116  1.00  0.00     0.009 A 
ATOM     92  C   UNL A   1      44.797  28.850  27.929  1.00  0.00     0.009 A 
ATOM     93  C   UNL A   1      47.383  28.939  26.887  1.00  0.00     0.001 A 
ATOM     94  C   UNL A   1      45.036  29.455  26.691  1.00  0.00     0.001 A 
ATOM     95  C   UNL A   1      46.329  29.504  26.174  1.00  0.00     0.000 A 
ENDBRANCH  77  90
ENDBRANCH  51  52
ENDBRANCH  44  46
ENDBRANCH  43  44
ENDBRANCH  42  43
ENDBRANCH  41  42
ENDBRANCH  40  41
ENDBRANCH  39  40
ENDBRANCH  38  39
ENDBRANCH  37  38
ENDBRANCH   1  37
TORSDOF 25
ENDMDL
MODEL 2
REMARK VINA RESULT:     -10.0      2.660      5.995
REMARK SMILES CCn1ncc(NC(=O)[C@@H]2CCCC[C@@H]2C(=O)OCCOCCOCCOCCOC(=O)c2ccc(-c3c4nc(c(-c5ccccc5)c5ccc([nH]5)c(-c5ccccc5)c5nc(c(-c6ccccc6)c6ccc3[nH]6)C=C5)C=C4)cc2)c1C(=O)Nc1cnn(C)c1C
REMARK SMILES IDX 23 1 22 2 21 3 20 4 19 5 18 6 16 7 17 8 15 9 10 10 11 11
REMARK SMILES IDX 12 12 14 13 13 14 8 15 7 16 9 18 6 19 3 20 4 21 81 22 5 23
REMARK SMILES IDX 2 24 1 25 82 26 83 27 84 28 85 30 86 31 90 32 87 33 88 34
REMARK SMILES IDX 91 35 89 36 24 37 25 38 26 39 27 40 28 41 29 42 30 43 31 44
REMARK SMILES IDX 32 45 33 46 34 47 80 48 35 49 79 50 36 51 37 52 38 53 73 54
REMARK SMILES IDX 39 55 78 56 72 57 74 58 40 59 77 60 71 61 70 62 41 64 63 65
REMARK SMILES IDX 48 66 62 67 49 68 52 69 61 70 75 71 50 72 51 73 60 75 76 76
REMARK SMILES IDX 53 77 42 78 43 79 47 80 44 81 46 82 45 83 64 84 65 85 69 86
REMARK SMILES IDX 66 87 68 88 67 89 54 90 55 91 59 92 56 93 58 94 57 95
REMARK H PARENT 7 17 84 29 74 63 52 74
REMARK Flexibility Score: inf
ROOT
ATOM      1  C   UNL A   1      31.981  30.593  26.948  1.00  0.00     0.188 C 
ENDROOT
BRANCH   1   2
ATOM      2  C   UNL A   1      31.595  30.059  25.554  1.00  0.00     0.188 C 
BRANCH   2   3
ATOM      3  O   UNL A   1      31.820  28.698  25.213  1.00  0.00    -0.376 OA
BRANCH   3   4
ATOM      4  C   UNL A   1      32.112  27.765  26.238  1.00  0.00     0.202 C 
BRANCH   4   5
ATOM      5  C   UNL A   1      32.862  26.479  25.854  1.00  0.00     0.261 C 
BRANCH   5   6
ATOM      6  O   UNL A   1      32.239  25.228  26.214  1.00  0.00    -0.463 OA
BRANCH   6   7
ATOM      7  C   UNL A   1      30.952  25.051  25.824  1.00  0.00     0.309 C 
ATOM      8  O   UNL A   1      29.975  25.424  26.463  1.00  0.00    -0.252 OA
BRANCH   7   9
ATOM      9  C   UNL A   1      30.804  24.294  24.496  1.00  0.00     0.111 C 
ATOM     10  C   UNL A   1      31.650  23.028  24.450  1.00  0.00     0.093 C 
ATOM     11  C   UNL A   1      33.107  23.306  24.112  1.00  0.00     0.014 C 
ATOM     12  C   UNL A   1      33.148  23.806  22.669  1.00  0.00     0.001 C 
ATOM     13  C   UNL A   1      30.914  25.078  23.181  1.00  0.00     0.016 C 
ATOM     14  C   UNL A   1      32.262  25.029  22.432  1.00  0.00     0.001 C 
BRANCH  10  15
ATOM     15  C   UNL A   1      31.377  22.171  25.645  1.00  0.00     0.228 C 
ATOM     16  N   UNL A   1      32.426  21.628  26.331  1.00  0.00    -0.322 N 
ATOM     17  H   UNL A   1      32.135  20.905  26.932  1.00  0.00     0.170 HD
ATOM     18  O   UNL A   1      30.227  21.849  25.951  1.00  0.00    -0.274 OA
BRANCH  16  19
ATOM     19  C   UNL A   1      33.808  21.834  26.398  1.00  0.00     0.092 A 
ATOM     20  N   UNL A   1      35.978  22.156  26.160  1.00  0.00    -0.258 N 
ATOM     21  N   UNL A   1      35.615  23.084  27.064  1.00  0.00    -0.178 NA
ATOM     22  C   UNL A   1      34.970  21.255  25.862  1.00  0.00     0.150 A 
ATOM     23  C   UNL A   1      34.302  22.928  27.158  1.00  0.00     0.162 A 
BRANCH  20  24
ATOM     24  C   UNL A   1      37.304  22.303  25.578  1.00  0.00     0.142 C 
ATOM     25  C   UNL A   1      38.026  23.618  25.837  1.00  0.00     0.029 C 
ENDBRANCH  20  24
BRANCH  22  26
ATOM     26  C   UNL A   1      35.205  20.153  24.963  1.00  0.00     0.276 C 
ATOM     27  O   UNL A   1      36.328  19.716  24.713  1.00  0.00    -0.267 OA
ATOM     28  N   UNL A   1      34.122  19.658  24.246  1.00  0.00    -0.318 N 
ATOM     29  H   UNL A   1      33.853  20.083  23.401  1.00  0.00     0.170 HD
BRANCH  28  30
ATOM     30  C   UNL A   1      33.421  18.559  24.729  1.00  0.00     0.082 A 
ATOM     31  C   UNL A   1      32.550  18.438  25.824  1.00  0.00     0.161 A 
ATOM     32  C   UNL A   1      33.452  17.307  24.148  1.00  0.00     0.059 A 
ATOM     33  N   UNL A   1      32.209  17.164  26.043  1.00  0.00    -0.179 NA
ATOM     34  N   UNL A   1      32.854  16.485  25.073  1.00  0.00    -0.271 N 
ATOM     35  C   UNL A   1      34.115  16.812  22.914  1.00  0.00     0.068 C 
ATOM     36  C   UNL A   1      33.071  15.065  25.239  1.00  0.00     0.174 C 
ENDBRANCH  28  30
ENDBRANCH  22  26
ENDBRANCH  16  19
ENDBRANCH  10  15
ENDBRANCH   7   9
ENDBRANCH   6   7
ENDBRANCH   5   6
ENDBRANCH   4   5
ENDBRANCH   3   4
ENDBRANCH   2   3
ENDBRANCH   1   2
BRANCH   1  37
ATOM     37  O   UNL A   1      32.901  31.667  27.003  1.00  0.00    -0.377 OA
BRANCH  37  38
ATOM     38  C   UNL A   1      32.351  32.915  27.369  1.00  0.00     0.188 C 
BRANCH  38  39
ATOM     39  C   UNL A   1      33.285  33.802  28.208  1.00  0.00     0.188 C 
BRANCH  39  40
ATOM     40  O   UNL A   1      32.617  34.881  28.862  1.00  0.00    -0.376 OA
BRANCH  40  41
ATOM     41  C   UNL A   1      33.314  35.734  29.755  1.00  0.00     0.202 C 
BRANCH  41  42
ATOM     42  C   UNL A   1      33.465  35.234  31.194  1.00  0.00     0.261 C 
BRANCH  42  43
ATOM     43  O   UNL A   1      34.618  34.441  31.411  1.00  0.00    -0.460 OA
BRANCH  43  44
ATOM     44  C   UNL A   1      34.407  33.353  32.178  1.00  0.00     0.338 C 
ATOM     45  O   UNL A   1      33.730  33.274  33.183  1.00  0.00    -0.246 OA
BRANCH  44  46
ATOM     46  C   UNL A   1      35.234  32.259  31.667  1.00  0.00     0.060 A 
ATOM     47  C   UNL A   1      36.188  31.780  32.563  1.00  0.00     0.016 A 
ATOM     48  C   UNL A   1      35.344  32.115  30.277  1.00  0.00     0.016 A 
ATOM     49  C   UNL A   1      37.423  31.493  32.052  1.00  0.00     0.010 A 
ATOM     50  C   UNL A   1      36.584  31.846  29.770  1.00  0.00     0.010 A 
ATOM     51  C   UNL A   1      37.622  31.665  30.679  1.00  0.00    -0.014 A 
BRANCH  51  52
ATOM     52  C   UNL A   1      38.981  31.647  30.212  1.00  0.00     0.031 A 
ATOM     53  C   UNL A   1      39.342  30.378  29.570  1.00  0.00     0.074 A 
ATOM     54  C   UNL A   1      39.787  32.716  30.321  1.00  0.00     0.049 A 
ATOM     55  N   UNL A   1      40.153  29.479  30.011  1.00  0.00    -0.248 NA
ATOM     56  C   UNL A   1      38.560  29.986  28.388  1.00  0.00     0.031 C 
ATOM     57  C   UNL A   1      39.437  34.091  30.684  1.00  0.00     0.029 A 
ATOM     58  N   UNL A   1      41.101  32.800  30.000  1.00  0.00    -0.354 N 
ATOM     59  C   UNL A   1      40.130  28.479  29.051  1.00  0.00     0.074 A 
ATOM     60  C   UNL A   1      38.999  28.745  28.199  1.00  0.00     0.031 C 
ATOM     61  C   UNL A   1      40.456  34.909  30.327  1.00  0.00     0.029 A 
ATOM     62  C   UNL A   1      41.559  34.096  29.837  1.00  0.00     0.049 A 
ATOM     63  H   UNL A   1      41.678  32.011  29.892  1.00  0.00     0.167 HD
ATOM     64  C   UNL A   1      41.208  27.681  28.845  1.00  0.00     0.031 A 
ATOM     65  C   UNL A   1      42.723  34.453  29.244  1.00  0.00     0.031 A 
ATOM     66  C   UNL A   1      42.114  27.693  29.964  1.00  0.00     0.049 A 
ATOM     67  C   UNL A   1      43.604  33.259  29.229  1.00  0.00     0.074 A 
ATOM     68  C   UNL A   1      42.011  27.360  31.300  1.00  0.00     0.029 A 
ATOM     69  N   UNL A   1      43.243  28.471  29.853  1.00  0.00    -0.354 N 
ATOM     70  N   UNL A   1      44.121  32.732  30.302  1.00  0.00    -0.248 NA
ATOM     71  C   UNL A   1      43.563  32.381  28.068  1.00  0.00     0.031 C 
ATOM     72  C   UNL A   1      42.819  28.313  31.987  1.00  0.00     0.029 A 
ATOM     73  C   UNL A   1      43.402  29.149  31.034  1.00  0.00     0.049 A 
ATOM     74  H   UNL A   1      43.831  28.529  29.066  1.00  0.00     0.167 HD
ATOM     75  C   UNL A   1      44.069  31.361  30.089  1.00  0.00     0.074 A 
ATOM     76  C   UNL A   1      43.830  31.210  28.656  1.00  0.00     0.031 C 
ATOM     77  C   UNL A   1      43.938  30.491  31.134  1.00  0.00     0.031 A 
BRANCH  64  78
ATOM     78  C   UNL A   1      41.630  27.270  27.458  1.00  0.00    -0.014 A 
ATOM     79  C   UNL A   1      41.808  25.906  27.185  1.00  0.00     0.009 A 
ATOM     80  C   UNL A   1      42.122  28.180  26.499  1.00  0.00     0.009 A 
ATOM     81  C   UNL A   1      42.497  25.483  26.044  1.00  0.00     0.001 A 
ATOM     82  C   UNL A   1      42.768  27.762  25.337  1.00  0.00     0.001 A 
ATOM     83  C   UNL A   1      42.980  26.410  25.124  1.00  0.00     0.000 A 
ENDBRANCH  64  78
BRANCH  65  84
ATOM     84  C   UNL A   1      42.991  35.653  28.425  1.00  0.00    -0.014 A 
ATOM     85  C   UNL A   1      42.047  36.110  27.495  1.00  0.00     0.009 A 
ATOM     86  C   UNL A   1      44.070  36.503  28.736  1.00  0.00     0.009 A 
ATOM     87  C   UNL A   1      42.160  37.385  26.925  1.00  0.00     0.001 A 
ATOM     88  C   UNL A   1      44.187  37.772  28.161  1.00  0.00     0.001 A 
ATOM     89  C   UNL A   1      43.223  38.218  27.266  1.00  0.00     0.000 A 
ENDBRANCH  65  84
BRANCH  77  90
ATOM     90  C   UNL A   1      44.090  31.049  32.530  1.00  0.00    -0.014 A 
ATOM     91  C   UNL A   1      43.035  31.678  33.215  1.00  0.00     0.009 A 
ATOM     92  C   UNL A   1      45.280  30.800  33.227  1.00  0.00     0.009 A 
ATOM     93  C   UNL A   1      43.180  32.075  34.549  1.00  0.00     0.001 A 
ATOM     94  C   UNL A   1      45.417  31.177  34.566  1.00  0.00     0.001 A 
ATOM     95  C   UNL A   1      44.370  31.819  35.225  1.00  0.00     0.000 A 
ENDBRANCH  77  90
ENDBRANCH  51  52
ENDBRANCH  44  46
ENDBRANCH  43  44
ENDBRANCH  42  43
ENDBRANCH  41  42
ENDBRANCH  40  41
ENDBRANCH  39  40
ENDBRANCH  38  39
ENDBRANCH  37  38
ENDBRANCH   1  37
TORSDOF 25
ENDMDL
MODEL 3
REMARK VINA RESULT:      -9.1      7.940     10.978
REMARK SMILES CCn1ncc(NC(=O)[C@@H]2CCCC[C@@H]2C(=O)OCCOCCOCCOCCOC(=O)c2ccc(-c3c4nc(c(-c5ccccc5)c5ccc([nH]5)c(-c5ccccc5)c5nc(c(-c6ccccc6)c6ccc3[nH]6)C=C5)C=C4)cc2)c1C(=O)Nc1cnn(C)c1C
REMARK SMILES IDX 23 1 22 2 21 3 20 4 19 5 18 6 16 7 17 8 15 9 10 10 11 11
REMARK SMILES IDX 12 12 14 13 13 14 8 15 7 16 9 18 6 19 3 20 4 21 81 22 5 23
REMARK SMILES IDX 2 24 1 25 82 26 83 27 84 28 85 30 86 31 90 32 87 33 88 34
REMARK SMILES IDX 91 35 89 36 24 37 25 38 26 39 27 40 28 41 29 42 30 43 31 44
REMARK SMILES IDX 32 45 33 46 34 47 80 48 35 49 79 50 36 51 37 52 38 53 73 54
REMARK SMILES IDX 39 55 78 56 72 57 74 58 40 59 77 60 71 61 70 62 41 64 63 65
REMARK SMILES IDX 48 66 62 67 49 68 52 69 61 70 75 71 50 72 51 73 60 75 76 76
REMARK SMILES IDX 53 77 42 78 43 79 47 80 44 81 46 82 45 83 64 84 65 85 69 86
REMARK SMILES IDX 66 87 68 88 67 89 54 90 55 91 59 92 56 93 58 94 57 95
REMARK H PARENT 7 17 84 29 74 63 52 74
REMARK Flexibility Score: inf
ROOT
ATOM      1  C   UNL A   1      36.683  30.769  30.090  1.00  0.00     0.188 C 
ENDROOT
BRANCH   1   2
ATOM      2  C   UNL A   1      35.703  31.114  28.951  1.00  0.00     0.188 C 
BRANCH   2   3
ATOM      3  O   UNL A   1      35.843  30.515  27.670  1.00  0.00    -0.376 OA
BRANCH   3   4
ATOM      4  C   UNL A   1      35.200  29.281  27.407  1.00  0.00     0.202 C 
BRANCH   4   5
ATOM      5  C   UNL A   1      34.034  29.272  26.404  1.00  0.00     0.261 C 
BRANCH   5   6
ATOM      6  O   UNL A   1      33.569  27.982  25.955  1.00  0.00    -0.463 OA
BRANCH   6   7
ATOM      7  C   UNL A   1      32.236  27.852  25.742  1.00  0.00     0.309 C 
ATOM      8  O   UNL A   1      31.410  27.631  26.620  1.00  0.00    -0.252 OA
BRANCH   7   9
ATOM      9  C   UNL A   1      31.829  27.971  24.266  1.00  0.00     0.111 C 
ATOM     10  C   UNL A   1      31.575  26.615  23.621  1.00  0.00     0.093 C 
ATOM     11  C   UNL A   1      32.857  25.916  23.195  1.00  0.00     0.014 C 
ATOM     12  C   UNL A   1      33.462  26.736  22.057  1.00  0.00     0.001 C 
ATOM     13  C   UNL A   1      32.655  28.875  23.341  1.00  0.00     0.016 C 
ATOM     14  C   UNL A   1      33.704  28.198  22.433  1.00  0.00     0.001 C 
BRANCH  10  15
ATOM     15  C   UNL A   1      30.601  25.822  24.434  1.00  0.00     0.228 C 
ATOM     16  N   UNL A   1      31.008  24.650  25.006  1.00  0.00    -0.322 N 
ATOM     17  H   UNL A   1      30.245  24.104  25.304  1.00  0.00     0.170 HD
ATOM     18  O   UNL A   1      29.413  26.142  24.499  1.00  0.00    -0.274 OA
BRANCH  16  19
ATOM     19  C   UNL A   1      32.230  24.025  25.277  1.00  0.00     0.092 A 
ATOM     20  N   UNL A   1      34.231  23.100  25.374  1.00  0.00    -0.258 N 
ATOM     21  N   UNL A   1      34.201  23.907  26.449  1.00  0.00    -0.178 NA
ATOM     22  C   UNL A   1      33.008  22.989  24.735  1.00  0.00     0.150 A 
ATOM     23  C   UNL A   1      33.022  24.506  26.353  1.00  0.00     0.162 A 
BRANCH  20  24
ATOM     24  C   UNL A   1      35.532  22.565  25.002  1.00  0.00     0.142 C 
ATOM     25  C   UNL A   1      35.837  21.137  25.431  1.00  0.00     0.029 C 
ENDBRANCH  20  24
BRANCH  22  26
ATOM     26  C   UNL A   1      32.841  22.112  23.603  1.00  0.00     0.276 C 
ATOM     27  O   UNL A   1      33.362  22.320  22.508  1.00  0.00    -0.267 OA
ATOM     28  N   UNL A   1      31.938  21.062  23.722  1.00  0.00    -0.318 N 
ATOM     29  H   UNL A   1      30.981  21.211  23.548  1.00  0.00     0.170 HD
BRANCH  28  30
ATOM     30  C   UNL A   1      32.393  19.801  24.091  1.00  0.00     0.082 A 
ATOM     31  C   UNL A   1      32.772  19.296  25.345  1.00  0.00     0.161 A 
ATOM     32  C   UNL A   1      32.537  18.745  23.213  1.00  0.00     0.059 A 
ATOM     33  N   UNL A   1      33.304  18.074  25.242  1.00  0.00    -0.179 NA
ATOM     34  N   UNL A   1      33.245  17.805  23.922  1.00  0.00    -0.271 N 
ATOM     35  C   UNL A   1      32.217  18.617  21.768  1.00  0.00     0.068 C 
ATOM     36  C   UNL A   1      34.103  16.775  23.378  1.00  0.00     0.174 C 
ENDBRANCH  28  30
ENDBRANCH  22  26
ENDBRANCH  16  19
ENDBRANCH  10  15
ENDBRANCH   7   9
ENDBRANCH   6   7
ENDBRANCH   5   6
ENDBRANCH   4   5
ENDBRANCH   3   4
ENDBRANCH   2   3
ENDBRANCH   1   2
BRANCH   1  37
ATOM     37  O   UNL A   1      36.305  29.742  30.986  1.00  0.00    -0.377 OA
BRANCH  37  38
ATOM     38  C   UNL A   1      36.849  29.844  32.286  1.00  0.00     0.188 C 
BRANCH  38  39
ATOM     39  C   UNL A   1      36.998  31.284  32.803  1.00  0.00     0.188 C 
BRANCH  39  40
ATOM     40  O   UNL A   1      38.354  31.700  32.962  1.00  0.00    -0.376 OA
BRANCH  40  41
ATOM     41  C   UNL A   1      38.765  33.004  32.586  1.00  0.00     0.202 C 
BRANCH  41  42
ATOM     42  C   UNL A   1      40.031  33.097  31.732  1.00  0.00     0.261 C 
BRANCH  42  43
ATOM     43  O   UNL A   1      40.427  34.423  31.430  1.00  0.00    -0.460 OA
BRANCH  43  44
ATOM     44  C   UNL A   1      40.062  34.845  30.204  1.00  0.00     0.338 C 
ATOM     45  O   UNL A   1      38.941  35.090  29.806  1.00  0.00    -0.246 OA
BRANCH  44  46
ATOM     46  C   UNL A   1      41.250  34.862  29.348  1.00  0.00     0.060 A 
ATOM     47  C   UNL A   1      42.451  35.077  30.020  1.00  0.00     0.016 A 
ATOM     48  C   UNL A   1      41.070  35.137  27.985  1.00  0.00     0.016 A 
ATOM     49  C   UNL A   1      43.352  35.913  29.418  1.00  0.00     0.010 A 
ATOM     50  C   UNL A   1      41.962  35.986  27.393  1.00  0.00     0.010 A 
ATOM     51  C   UNL A   1      43.016  36.452  28.173  1.00  0.00    -0.014 A 
BRANCH  51  52
ATOM     52  C   UNL A   1      43.823  37.542  27.698  1.00  0.00     0.031 A 
ATOM     53  C   UNL A   1      45.230  37.168  27.518  1.00  0.00     0.074 A 
ATOM     54  C   UNL A   1      43.300  38.745  27.410  1.00  0.00     0.049 A 
ATOM     55  N   UNL A   1      46.241  37.559  28.215  1.00  0.00    -0.248 NA
ATOM     56  C   UNL A   1      45.512  36.083  26.567  1.00  0.00     0.031 C 
ATOM     57  C   UNL A   1      41.890  39.124  27.292  1.00  0.00     0.029 A 
ATOM     58  N   UNL A   1      43.959  39.869  27.039  1.00  0.00    -0.354 N 
ATOM     59  C   UNL A   1      47.331  36.909  27.656  1.00  0.00     0.074 A 
ATOM     60  C   UNL A   1      46.805  35.876  26.800  1.00  0.00     0.031 C 
ATOM     61  C   UNL A   1      41.810  40.310  26.644  1.00  0.00     0.029 A 
ATOM     62  C   UNL A   1      43.156  40.817  26.428  1.00  0.00     0.049 A 
ATOM     63  H   UNL A   1      44.923  40.001  27.189  1.00  0.00     0.167 HD
ATOM     64  C   UNL A   1      48.572  37.455  27.702  1.00  0.00     0.031 A 
ATOM     65  C   UNL A   1      43.596  41.881  25.714  1.00  0.00     0.031 A 
ATOM     66  C   UNL A   1      48.682  38.466  28.721  1.00  0.00     0.049 A 
ATOM     67  C   UNL A   1      45.014  42.114  26.080  1.00  0.00     0.074 A 
ATOM     68  C   UNL A   1      48.527  38.483  30.093  1.00  0.00     0.029 A 
ATOM     69  N   UNL A   1      48.619  39.779  28.316  1.00  0.00    -0.354 N 
ATOM     70  N   UNL A   1      45.395  42.536  27.252  1.00  0.00    -0.248 NA
ATOM     71  C   UNL A   1      46.051  41.463  25.291  1.00  0.00     0.031 C 
ATOM     72  C   UNL A   1      47.936  39.747  30.388  1.00  0.00     0.029 A 
ATOM     73  C   UNL A   1      47.799  40.447  29.187  1.00  0.00     0.049 A 
ATOM     74  H   UNL A   1      49.081  40.168  27.539  1.00  0.00     0.167 HD
ATOM     75  C   UNL A   1      46.564  41.837  27.523  1.00  0.00     0.074 A 
ATOM     76  C   UNL A   1      46.981  41.286  26.237  1.00  0.00     0.031 C 
ATOM     77  C   UNL A   1      46.921  41.534  28.807  1.00  0.00     0.031 A 
BRANCH  64  78
ATOM     78  C   UNL A   1      49.512  37.374  26.528  1.00  0.00    -0.014 A 
ATOM     79  C   UNL A   1      48.972  37.213  25.243  1.00  0.00     0.009 A 
ATOM     80  C   UNL A   1      50.902  37.174  26.663  1.00  0.00     0.009 A 
ATOM     81  C   UNL A   1      49.773  36.813  24.169  1.00  0.00     0.001 A 
ATOM     82  C   UNL A   1      51.712  36.822  25.585  1.00  0.00     0.001 A 
ATOM     83  C   UNL A   1      51.141  36.613  24.341  1.00  0.00     0.000 A 
ENDBRANCH  64  78
BRANCH  65  84
ATOM     84  C   UNL A   1      42.968  42.494  24.525  1.00  0.00    -0.014 A 
ATOM     85  C   UNL A   1      43.535  43.623  23.918  1.00  0.00     0.009 A 
ATOM     86  C   UNL A   1      41.949  41.817  23.827  1.00  0.00     0.009 A 
ATOM     87  C   UNL A   1      43.122  44.038  22.645  1.00  0.00     0.001 A 
ATOM     88  C   UNL A   1      41.530  42.236  22.561  1.00  0.00     0.001 A 
ATOM     89  C   UNL A   1      42.128  43.339  21.963  1.00  0.00     0.000 A 
ENDBRANCH  65  84
BRANCH  77  90
ATOM     90  C   UNL A   1      46.135  42.184  29.921  1.00  0.00    -0.014 A 
ATOM     91  C   UNL A   1      46.683  42.434  31.192  1.00  0.00     0.009 A 
ATOM     92  C   UNL A   1      44.861  42.693  29.635  1.00  0.00     0.009 A 
ATOM     93  C   UNL A   1      45.963  43.145  32.158  1.00  0.00     0.001 A 
ATOM     94  C   UNL A   1      44.150  43.422  30.594  1.00  0.00     0.001 A 
ATOM     95  C   UNL A   1      44.699  43.643  31.855  1.00  0.00     0.000 A 
ENDBRANCH  77  90
ENDBRANCH  51  52
ENDBRANCH  44  46
ENDBRANCH  43  44
ENDBRANCH  42  43
ENDBRANCH  41  42
ENDBRANCH  40  41
ENDBRANCH  39  40
ENDBRANCH  38  39
ENDBRANCH  37  38
ENDBRANCH   1  37
TORSDOF 25
ENDMDL
