MODEL 1
REMARK VINA RESULT:      -9.8      0.000      0.000
REMARK SMILES C[C@H](c1cnccn1)[N@@H+]1[C@@H](C(=O)OCCOCCOCCOCCOC(=O)c2ccc(-c3c4nc(c(-c5ccccc5)c5ccc([nH]5)c(-c5ccccc5)c5nc(c(-c6ccccc6)c6ccc3[nH]6)C=C5)C=C4)cc2)CC[C@H]2CCCC[C@H]21
REMARK SMILES IDX 19 1 18 2 17 3 16 4 15 5 14 6 13 7 11 8 12 9 10 10 9 11
REMARK SMILES IDX 83 12 76 14 78 15 82 16 77 17 79 18 81 19 80 20 2 21 1 22
REMARK SMILES IDX 3 23 4 24 8 25 5 26 7 27 6 28 20 29 21 30 22 31 23 32 24 33
REMARK SMILES IDX 25 34 26 35 27 36 28 37 29 38 75 39 30 40 74 41 31 42 32 43
REMARK SMILES IDX 33 44 68 45 34 46 73 47 67 48 69 49 35 50 72 51 66 52 65 53
REMARK SMILES IDX 36 55 58 56 43 57 57 58 44 59 47 60 56 61 70 62 45 63 46 64
REMARK SMILES IDX 55 66 71 67 48 68 37 69 38 70 42 71 39 72 41 73 40 74 59 75
REMARK SMILES IDX 60 76 64 77 61 78 63 79 62 80 49 81 50 82 54 83 51 84 53 85
REMARK SMILES IDX 52 86
REMARK H PARENT 9 13 69 54 47 65
REMARK Flexibility Score: inf
ROOT
ATOM      1  O   UNL A   1      35.379  32.183  27.906  1.00  0.00    -0.377 OA
ENDROOT
BRANCH   1   2
ATOM      2  C   UNL A   1      35.102  30.800  27.962  1.00  0.00     0.188 C 
BRANCH   2   3
ATOM      3  C   UNL A   1      34.144  30.296  26.887  1.00  0.00     0.188 C 
BRANCH   3   4
ATOM      4  O   UNL A   1      32.778  30.247  27.218  1.00  0.00    -0.376 OA
BRANCH   4   5
ATOM      5  C   UNL A   1      31.891  29.178  26.933  1.00  0.00     0.202 C 
BRANCH   5   6
ATOM      6  C   UNL A   1      32.048  27.647  27.121  1.00  0.00     0.261 C 
BRANCH   6   7
ATOM      7  O   UNL A   1      30.913  26.791  27.203  1.00  0.00    -0.459 OA
BRANCH   7   8
ATOM      8  C   UNL A   1      31.092  25.630  26.542  1.00  0.00     0.365 C 
ATOM      9  O   UNL A   1      31.315  24.586  27.144  1.00  0.00    -0.245 OA
BRANCH   8  10
ATOM     10  C   UNL A   1      30.982  25.732  24.999  1.00  0.00     0.295 C 
ATOM     11  N   UNL A   1      32.342  25.832  24.354  1.00  0.00    -0.313 N 
ATOM     12  C   UNL A   1      32.323  26.174  22.906  1.00  0.00     0.188 C 
ATOM     13  H   UNL A   1      32.809  26.667  24.704  1.00  0.00     0.349 HD
ATOM     14  C   UNL A   1      30.014  26.828  24.542  1.00  0.00     0.078 C 
ATOM     15  C   UNL A   1      31.223  27.179  22.444  1.00  0.00     0.048 C 
ATOM     16  C   UNL A   1      33.625  26.801  22.372  1.00  0.00     0.065 C 
ATOM     17  C   UNL A   1      29.875  26.816  23.033  1.00  0.00     0.016 C 
ATOM     18  C   UNL A   1      31.498  28.685  22.670  1.00  0.00     0.010 C 
ATOM     19  C   UNL A   1      33.979  28.062  23.141  1.00  0.00     0.006 C 
ATOM     20  C   UNL A   1      32.900  29.130  23.069  1.00  0.00     0.001 C 
BRANCH  11  21
ATOM     21  C   UNL A   1      33.226  24.681  24.804  1.00  0.00     0.233 C 
ATOM     22  C   UNL A   1      34.729  24.909  24.948  1.00  0.00     0.083 C 
BRANCH  21  23
ATOM     23  C   UNL A   1      32.994  23.299  24.174  1.00  0.00     0.116 A 
ATOM     24  C   UNL A   1      32.946  23.077  22.804  1.00  0.00     0.141 A 
ATOM     25  N   UNL A   1      32.726  22.275  25.031  1.00  0.00    -0.252 NA
ATOM     26  N   UNL A   1      32.521  21.910  22.253  1.00  0.00    -0.261 NA
ATOM     27  C   UNL A   1      32.259  21.129  24.495  1.00  0.00     0.131 A 
ATOM     28  C   UNL A   1      32.149  20.954  23.131  1.00  0.00     0.131 A 
ENDBRANCH  21  23
ENDBRANCH  11  21
ENDBRANCH   8  10
ENDBRANCH   7   8
ENDBRANCH   6   7
ENDBRANCH   5   6
ENDBRANCH   4   5
ENDBRANCH   3   4
ENDBRANCH   2   3
ENDBRANCH   1   2
BRANCH   1  29
ATOM     29  C   UNL A   1      34.558  33.076  28.655  1.00  0.00     0.188 C 
BRANCH  29  30
ATOM     30  C   UNL A   1      33.333  33.762  28.012  1.00  0.00     0.188 C 
BRANCH  30  31
ATOM     31  O   UNL A   1      32.643  34.681  28.841  1.00  0.00    -0.376 OA
BRANCH  31  32
ATOM     32  C   UNL A   1      33.335  35.807  29.360  1.00  0.00     0.202 C 
BRANCH  32  33
ATOM     33  C   UNL A   1      32.646  36.644  30.451  1.00  0.00     0.261 C 
BRANCH  33  34
ATOM     34  O   UNL A   1      32.332  35.966  31.677  1.00  0.00    -0.460 OA
BRANCH  34  35
ATOM     35  C   UNL A   1      33.102  36.198  32.759  1.00  0.00     0.338 C 
ATOM     36  O   UNL A   1      32.880  36.957  33.685  1.00  0.00    -0.246 OA
BRANCH  35  37
ATOM     37  C   UNL A   1      34.191  35.203  32.734  1.00  0.00     0.060 A 
ATOM     38  C   UNL A   1      33.901  33.860  33.024  1.00  0.00     0.016 A 
ATOM     39  C   UNL A   1      35.490  35.597  32.412  1.00  0.00     0.016 A 
ATOM     40  C   UNL A   1      34.921  32.911  33.025  1.00  0.00     0.010 A 
ATOM     41  C   UNL A   1      36.515  34.653  32.445  1.00  0.00     0.010 A 
ATOM     42  C   UNL A   1      36.240  33.317  32.789  1.00  0.00    -0.014 A 
BRANCH  42  43
ATOM     43  C   UNL A   1      37.369  32.438  33.160  1.00  0.00     0.031 A 
ATOM     44  C   UNL A   1      38.063  32.720  34.464  1.00  0.00     0.074 A 
ATOM     45  C   UNL A   1      37.795  31.448  32.359  1.00  0.00     0.049 A 
ATOM     46  N   UNL A   1      39.180  32.233  34.933  1.00  0.00    -0.248 NA
ATOM     47  C   UNL A   1      37.408  33.699  35.350  1.00  0.00     0.031 C 
ATOM     48  C   UNL A   1      37.158  31.027  31.112  1.00  0.00     0.029 A 
ATOM     49  N   UNL A   1      38.891  30.630  32.475  1.00  0.00    -0.354 N 
ATOM     50  C   UNL A   1      39.372  32.862  36.158  1.00  0.00     0.074 A 
ATOM     51  C   UNL A   1      38.271  33.778  36.349  1.00  0.00     0.031 C 
ATOM     52  C   UNL A   1      37.892  30.040  30.565  1.00  0.00     0.029 A 
ATOM     53  C   UNL A   1      39.072  29.803  31.394  1.00  0.00     0.049 A 
ATOM     54  H   UNL A   1      39.488  30.636  33.257  1.00  0.00     0.167 HD
ATOM     55  C   UNL A   1      40.381  32.693  37.043  1.00  0.00     0.031 A 
ATOM     56  C   UNL A   1      40.099  28.982  31.096  1.00  0.00     0.031 A 
ATOM     57  C   UNL A   1      41.485  31.799  36.834  1.00  0.00     0.049 A 
ATOM     58  C   UNL A   1      41.271  28.895  32.042  1.00  0.00     0.074 A 
ATOM     59  C   UNL A   1      42.567  31.558  37.660  1.00  0.00     0.029 A 
ATOM     60  N   UNL A   1      41.647  31.002  35.712  1.00  0.00    -0.354 N 
ATOM     61  N   UNL A   1      41.453  29.495  33.194  1.00  0.00    -0.248 NA
ATOM     62  C   UNL A   1      42.381  28.015  31.644  1.00  0.00     0.031 C 
ATOM     63  C   UNL A   1      43.416  30.659  37.010  1.00  0.00     0.029 A 
ATOM     64  C   UNL A   1      42.823  30.283  35.814  1.00  0.00     0.049 A 
ATOM     65  H   UNL A   1      41.019  30.955  34.955  1.00  0.00     0.167 HD
ATOM     66  C   UNL A   1      42.671  29.031  33.678  1.00  0.00     0.074 A 
ATOM     67  C   UNL A   1      43.186  28.102  32.695  1.00  0.00     0.031 C 
ATOM     68  C   UNL A   1      43.304  29.341  34.836  1.00  0.00     0.031 A 
BRANCH  55  69
ATOM     69  C   UNL A   1      40.356  33.532  38.288  1.00  0.00    -0.014 A 
ATOM     70  C   UNL A   1      39.691  33.104  39.447  1.00  0.00     0.009 A 
ATOM     71  C   UNL A   1      41.028  34.765  38.307  1.00  0.00     0.009 A 
ATOM     72  C   UNL A   1      39.669  33.909  40.588  1.00  0.00     0.001 A 
ATOM     73  C   UNL A   1      41.033  35.551  39.459  1.00  0.00     0.001 A 
ATOM     74  C   UNL A   1      40.346  35.128  40.595  1.00  0.00     0.000 A 
ENDBRANCH  55  69
BRANCH  56  75
ATOM     75  C   UNL A   1      40.094  28.201  29.830  1.00  0.00    -0.014 A 
ATOM     76  C   UNL A   1      40.639  28.743  28.655  1.00  0.00     0.009 A 
ATOM     77  C   UNL A   1      39.512  26.924  29.776  1.00  0.00     0.009 A 
ATOM     78  C   UNL A   1      40.574  28.037  27.451  1.00  0.00     0.001 A 
ATOM     79  C   UNL A   1      39.477  26.207  28.578  1.00  0.00     0.001 A 
ATOM     80  C   UNL A   1      39.997  26.769  27.414  1.00  0.00     0.000 A 
ENDBRANCH  56  75
BRANCH  68  81
ATOM     81  C   UNL A   1      44.582  28.618  35.155  1.00  0.00    -0.014 A 
ATOM     82  C   UNL A   1      44.590  27.409  35.865  1.00  0.00     0.009 A 
ATOM     83  C   UNL A   1      45.794  29.115  34.644  1.00  0.00     0.009 A 
ATOM     84  C   UNL A   1      45.788  26.723  36.075  1.00  0.00     0.001 A 
ATOM     85  C   UNL A   1      46.984  28.412  34.828  1.00  0.00     0.001 A 
ATOM     86  C   UNL A   1      46.981  27.219  35.548  1.00  0.00     0.000 A 
ENDBRANCH  68  81
ENDBRANCH  42  43
ENDBRANCH  35  37
ENDBRANCH  34  35
ENDBRANCH  33  34
ENDBRANCH  32  33
ENDBRANCH  31  32
ENDBRANCH  30  31
ENDBRANCH  29  30
ENDBRANCH   1  29
TORSDOF 22
ENDMDL
MODEL 2
REMARK VINA RESULT:      -9.2      5.135      8.567
REMARK SMILES C[C@H](c1cnccn1)[N@@H+]1[C@@H](C(=O)OCCOCCOCCOCCOC(=O)c2ccc(-c3c4nc(c(-c5ccccc5)c5ccc([nH]5)c(-c5ccccc5)c5nc(c(-c6ccccc6)c6ccc3[nH]6)C=C5)C=C4)cc2)CC[C@H]2CCCC[C@H]21
REMARK SMILES IDX 19 1 18 2 17 3 16 4 15 5 14 6 13 7 11 8 12 9 10 10 9 11
REMARK SMILES IDX 83 12 76 14 78 15 82 16 77 17 79 18 81 19 80 20 2 21 1 22
REMARK SMILES IDX 3 23 4 24 8 25 5 26 7 27 6 28 20 29 21 30 22 31 23 32 24 33
REMARK SMILES IDX 25 34 26 35 27 36 28 37 29 38 75 39 30 40 74 41 31 42 32 43
REMARK SMILES IDX 33 44 68 45 34 46 73 47 67 48 69 49 35 50 72 51 66 52 65 53
REMARK SMILES IDX 36 55 58 56 43 57 57 58 44 59 47 60 56 61 70 62 45 63 46 64
REMARK SMILES IDX 55 66 71 67 48 68 37 69 38 70 42 71 39 72 41 73 40 74 59 75
REMARK SMILES IDX 60 76 64 77 61 78 63 79 62 80 49 81 50 82 54 83 51 84 53 85
REMARK SMILES IDX 52 86
REMARK H PARENT 9 13 69 54 47 65
REMARK Flexibility Score: inf
ROOT
ATOM      1  O   UNL A   1      36.975  31.447  28.721  1.00  0.00    -0.377 OA
ENDROOT
BRANCH   1   2
ATOM      2  C   UNL A   1      36.302  30.209  28.807  1.00  0.00     0.188 C 
BRANCH   2   3
ATOM      3  C   UNL A   1      37.207  29.005  29.044  1.00  0.00     0.188 C 
BRANCH   3   4
ATOM      4  O   UNL A   1      38.592  29.207  28.904  1.00  0.00    -0.376 OA
BRANCH   4   5
ATOM      5  C   UNL A   1      39.448  28.509  28.016  1.00  0.00     0.202 C 
BRANCH   5   6
ATOM      6  C   UNL A   1      39.648  26.990  27.777  1.00  0.00     0.261 C 
BRANCH   6   7
ATOM      7  O   UNL A   1      40.324  26.174  28.728  1.00  0.00    -0.459 OA
BRANCH   7   8
ATOM      8  C   UNL A   1      41.663  26.193  28.569  1.00  0.00     0.365 C 
ATOM      9  O   UNL A   1      42.403  26.571  29.470  1.00  0.00    -0.245 OA
BRANCH   8  10
ATOM     10  C   UNL A   1      42.165  25.700  27.187  1.00  0.00     0.295 C 
ATOM     11  N   UNL A   1      42.999  24.450  27.317  1.00  0.00    -0.313 N 
ATOM     12  C   UNL A   1      43.718  24.046  26.078  1.00  0.00     0.188 C 
ATOM     13  H   UNL A   1      43.806  24.655  27.905  1.00  0.00     0.349 HD
ATOM     14  C   UNL A   1      42.851  26.802  26.375  1.00  0.00     0.078 C 
ATOM     15  C   UNL A   1      44.273  25.202  25.190  1.00  0.00     0.048 C 
ATOM     16  C   UNL A   1      44.950  23.150  26.308  1.00  0.00     0.065 C 
ATOM     17  C   UNL A   1      43.233  26.288  25.002  1.00  0.00     0.016 C 
ATOM     18  C   UNL A   1      45.617  25.840  25.614  1.00  0.00     0.010 C 
ATOM     19  C   UNL A   1      45.954  23.826  27.226  1.00  0.00     0.006 C 
ATOM     20  C   UNL A   1      46.455  25.157  26.689  1.00  0.00     0.001 C 
BRANCH  11  21
ATOM     21  C   UNL A   1      42.234  23.380  28.079  1.00  0.00     0.233 C 
ATOM     22  C   UNL A   1      42.845  22.786  29.346  1.00  0.00     0.083 C 
BRANCH  21  23
ATOM     23  C   UNL A   1      41.571  22.251  27.274  1.00  0.00     0.116 A 
ATOM     24  C   UNL A   1      40.339  22.376  26.646  1.00  0.00     0.141 A 
ATOM     25  N   UNL A   1      42.204  21.046  27.279  1.00  0.00    -0.252 NA
ATOM     26  N   UNL A   1      39.655  21.322  26.131  1.00  0.00    -0.261 NA
ATOM     27  C   UNL A   1      41.514  19.985  26.812  1.00  0.00     0.131 A 
ATOM     28  C   UNL A   1      40.258  20.119  26.258  1.00  0.00     0.131 A 
ENDBRANCH  21  23
ENDBRANCH  11  21
ENDBRANCH   8  10
ENDBRANCH   7   8
ENDBRANCH   6   7
ENDBRANCH   5   6
ENDBRANCH   4   5
ENDBRANCH   3   4
ENDBRANCH   2   3
ENDBRANCH   1   2
BRANCH   1  29
ATOM     29  C   UNL A   1      36.308  32.621  29.177  1.00  0.00     0.188 C 
BRANCH  29  30
ATOM     30  C   UNL A   1      34.803  32.840  28.906  1.00  0.00     0.188 C 
BRANCH  30  31
ATOM     31  O   UNL A   1      34.070  33.421  29.970  1.00  0.00    -0.376 OA
BRANCH  31  32
ATOM     32  C   UNL A   1      34.765  33.947  31.092  1.00  0.00     0.202 C 
BRANCH  32  33
ATOM     33  C   UNL A   1      34.541  33.285  32.462  1.00  0.00     0.261 C 
BRANCH  33  34
ATOM     34  O   UNL A   1      35.512  32.309  32.868  1.00  0.00    -0.460 OA
BRANCH  34  35
ATOM     35  C   UNL A   1      36.378  32.629  33.851  1.00  0.00     0.338 C 
ATOM     36  O   UNL A   1      36.134  33.171  34.914  1.00  0.00    -0.246 OA
BRANCH  35  37
ATOM     37  C   UNL A   1      37.673  32.016  33.501  1.00  0.00     0.060 A 
ATOM     38  C   UNL A   1      38.802  32.303  34.284  1.00  0.00     0.016 A 
ATOM     39  C   UNL A   1      37.764  31.150  32.411  1.00  0.00     0.016 A 
ATOM     40  C   UNL A   1      40.038  31.748  33.956  1.00  0.00     0.010 A 
ATOM     41  C   UNL A   1      39.006  30.622  32.064  1.00  0.00     0.010 A 
ATOM     42  C   UNL A   1      40.152  30.950  32.812  1.00  0.00    -0.014 A 
BRANCH  42  43
ATOM     43  C   UNL A   1      41.480  30.674  32.224  1.00  0.00     0.031 A 
ATOM     44  C   UNL A   1      42.017  31.671  31.235  1.00  0.00     0.074 A 
ATOM     45  C   UNL A   1      42.174  29.564  32.520  1.00  0.00     0.049 A 
ATOM     46  N   UNL A   1      43.051  31.582  30.442  1.00  0.00    -0.248 NA
ATOM     47  C   UNL A   1      41.272  32.938  31.120  1.00  0.00     0.031 C 
ATOM     48  C   UNL A   1      41.798  28.564  33.519  1.00  0.00     0.029 A 
ATOM     49  N   UNL A   1      43.341  29.083  31.982  1.00  0.00    -0.354 N 
ATOM     50  C   UNL A   1      43.067  32.769  29.720  1.00  0.00     0.074 A 
ATOM     51  C   UNL A   1      41.932  33.552  30.152  1.00  0.00     0.031 C 
ATOM     52  C   UNL A   1      42.709  27.574  33.504  1.00  0.00     0.029 A 
ATOM     53  C   UNL A   1      43.696  27.846  32.460  1.00  0.00     0.049 A 
ATOM     54  H   UNL A   1      43.873  29.578  31.318  1.00  0.00     0.167 HD
ATOM     55  C   UNL A   1      43.948  33.169  28.775  1.00  0.00     0.031 A 
ATOM     56  C   UNL A   1      44.681  27.015  32.064  1.00  0.00     0.031 A 
ATOM     57  C   UNL A   1      45.060  32.374  28.333  1.00  0.00     0.049 A 
ATOM     58  C   UNL A   1      45.584  27.432  30.929  1.00  0.00     0.074 A 
ATOM     59  C   UNL A   1      46.010  32.678  27.374  1.00  0.00     0.029 A 
ATOM     60  N   UNL A   1      45.366  31.113  28.821  1.00  0.00    -0.354 N 
ATOM     61  N   UNL A   1      45.592  28.551  30.244  1.00  0.00    -0.248 NA
ATOM     62  C   UNL A   1      46.614  26.468  30.513  1.00  0.00     0.031 C 
ATOM     63  C   UNL A   1      46.855  31.574  27.239  1.00  0.00     0.029 A 
ATOM     64  C   UNL A   1      46.477  30.616  28.167  1.00  0.00     0.049 A 
ATOM     65  H   UNL A   1      44.866  30.642  29.526  1.00  0.00     0.167 HD
ATOM     66  C   UNL A   1      46.652  28.443  29.351  1.00  0.00     0.074 A 
ATOM     67  C   UNL A   1      47.264  27.151  29.579  1.00  0.00     0.031 C 
ATOM     68  C   UNL A   1      47.087  29.337  28.429  1.00  0.00     0.031 A 
BRANCH  55  69
ATOM     69  C   UNL A   1      43.709  34.502  28.126  1.00  0.00    -0.014 A 
ATOM     70  C   UNL A   1      44.175  35.692  28.705  1.00  0.00     0.009 A 
ATOM     71  C   UNL A   1      43.023  34.564  26.903  1.00  0.00     0.009 A 
ATOM     72  C   UNL A   1      43.926  36.921  28.090  1.00  0.00     0.001 A 
ATOM     73  C   UNL A   1      42.807  35.790  26.273  1.00  0.00     0.001 A 
ATOM     74  C   UNL A   1      43.250  36.968  26.871  1.00  0.00     0.000 A 
ENDBRANCH  55  69
BRANCH  56  75
ATOM     75  C   UNL A   1      44.852  25.688  32.714  1.00  0.00    -0.014 A 
ATOM     76  C   UNL A   1      44.195  24.556  32.206  1.00  0.00     0.009 A 
ATOM     77  C   UNL A   1      45.641  25.549  33.866  1.00  0.00     0.009 A 
ATOM     78  C   UNL A   1      44.301  23.323  32.856  1.00  0.00     0.001 A 
ATOM     79  C   UNL A   1      45.773  24.309  34.495  1.00  0.00     0.001 A 
ATOM     80  C   UNL A   1      45.092  23.200  33.996  1.00  0.00     0.000 A 
ENDBRANCH  56  75
BRANCH  68  81
ATOM     81  C   UNL A   1      48.325  28.998  27.649  1.00  0.00    -0.014 A 
ATOM     82  C   UNL A   1      49.609  29.249  28.154  1.00  0.00     0.009 A 
ATOM     83  C   UNL A   1      48.197  28.323  26.422  1.00  0.00     0.009 A 
ATOM     84  C   UNL A   1      50.739  28.848  27.437  1.00  0.00     0.001 A 
ATOM     85  C   UNL A   1      49.325  27.896  25.724  1.00  0.00     0.001 A 
ATOM     86  C   UNL A   1      50.596  28.164  26.229  1.00  0.00     0.000 A 
ENDBRANCH  68  81
ENDBRANCH  42  43
ENDBRANCH  35  37
ENDBRANCH  34  35
ENDBRANCH  33  34
ENDBRANCH  32  33
ENDBRANCH  31  32
ENDBRANCH  30  31
ENDBRANCH  29  30
ENDBRANCH   1  29
TORSDOF 22
ENDMDL
MODEL 3
REMARK VINA RESULT:      -8.6      8.261     12.607
REMARK SMILES C[C@H](c1cnccn1)[N@@H+]1[C@@H](C(=O)OCCOCCOCCOCCOC(=O)c2ccc(-c3c4nc(c(-c5ccccc5)c5ccc([nH]5)c(-c5ccccc5)c5nc(c(-c6ccccc6)c6ccc3[nH]6)C=C5)C=C4)cc2)CC[C@H]2CCCC[C@H]21
REMARK SMILES IDX 19 1 18 2 17 3 16 4 15 5 14 6 13 7 11 8 12 9 10 10 9 11
REMARK SMILES IDX 83 12 76 14 78 15 82 16 77 17 79 18 81 19 80 20 2 21 1 22
REMARK SMILES IDX 3 23 4 24 8 25 5 26 7 27 6 28 20 29 21 30 22 31 23 32 24 33
REMARK SMILES IDX 25 34 26 35 27 36 28 37 29 38 75 39 30 40 74 41 31 42 32 43
REMARK SMILES IDX 33 44 68 45 34 46 73 47 67 48 69 49 35 50 72 51 66 52 65 53
REMARK SMILES IDX 36 55 58 56 43 57 57 58 44 59 47 60 56 61 70 62 45 63 46 64
REMARK SMILES IDX 55 66 71 67 48 68 37 69 38 70 42 71 39 72 41 73 40 74 59 75
REMARK SMILES IDX 60 76 64 77 61 78 63 79 62 80 49 81 50 82 54 83 51 84 53 85
REMARK SMILES IDX 52 86
REMARK H PARENT 9 13 69 54 47 65
REMARK Flexibility Score: inf
ROOT
ATOM      1  O   UNL A   1      40.100  26.263  27.142  1.00  0.00    -0.377 OA
ENDROOT
BRANCH   1   2
ATOM      2  C   UNL A   1      39.678  25.287  28.070  1.00  0.00     0.188 C 
BRANCH   2   3
ATOM      3  C   UNL A   1      38.615  24.326  27.550  1.00  0.00     0.188 C 
BRANCH   3   4
ATOM      4  O   UNL A   1      38.721  23.918  26.208  1.00  0.00    -0.376 OA
BRANCH   4   5
ATOM      5  C   UNL A   1      38.743  22.579  25.746  1.00  0.00     0.202 C 
BRANCH   5   6
ATOM      6  C   UNL A   1      37.657  21.472  25.780  1.00  0.00     0.261 C 
BRANCH   6   7
ATOM      7  O   UNL A   1      36.896  21.146  24.622  1.00  0.00    -0.459 OA
BRANCH   7   8
ATOM      8  C   UNL A   1      35.812  21.935  24.476  1.00  0.00     0.365 C 
ATOM      9  O   UNL A   1      35.690  22.670  23.503  1.00  0.00    -0.245 OA
BRANCH   8  10
ATOM     10  C   UNL A   1      34.763  21.822  25.612  1.00  0.00     0.295 C 
ATOM     11  N   UNL A   1      33.365  21.686  25.060  1.00  0.00    -0.313 N 
ATOM     12  C   UNL A   1      32.280  21.815  26.071  1.00  0.00     0.188 C 
ATOM     13  H   UNL A   1      33.153  22.511  24.499  1.00  0.00     0.349 HD
ATOM     14  C   UNL A   1      34.895  22.934  26.657  1.00  0.00     0.078 C 
ATOM     15  C   UNL A   1      32.514  22.850  27.213  1.00  0.00     0.048 C 
ATOM     16  C   UNL A   1      30.908  22.220  25.498  1.00  0.00     0.065 C 
ATOM     17  C   UNL A   1      33.910  22.718  27.788  1.00  0.00     0.016 C 
ATOM     18  C   UNL A   1      32.225  24.337  26.894  1.00  0.00     0.010 C 
ATOM     19  C   UNL A   1      30.997  23.536  24.745  1.00  0.00     0.006 C 
ATOM     20  C   UNL A   1      31.486  24.688  25.608  1.00  0.00     0.001 C 
BRANCH  11  21
ATOM     21  C   UNL A   1      33.294  20.528  24.080  1.00  0.00     0.233 C 
ATOM     22  C   UNL A   1      32.167  20.492  23.050  1.00  0.00     0.083 C 
BRANCH  21  23
ATOM     23  C   UNL A   1      33.515  19.106  24.619  1.00  0.00     0.116 A 
ATOM     24  C   UNL A   1      34.619  18.325  24.300  1.00  0.00     0.141 A 
ATOM     25  N   UNL A   1      32.510  18.575  25.369  1.00  0.00    -0.252 NA
ATOM     26  N   UNL A   1      34.704  17.001  24.590  1.00  0.00    -0.261 NA
ATOM     27  C   UNL A   1      32.563  17.251  25.622  1.00  0.00     0.131 A 
ATOM     28  C   UNL A   1      33.636  16.477  25.230  1.00  0.00     0.131 A 
ENDBRANCH  21  23
ENDBRANCH  11  21
ENDBRANCH   8  10
ENDBRANCH   7   8
ENDBRANCH   6   7
ENDBRANCH   5   6
ENDBRANCH   4   5
ENDBRANCH   3   4
ENDBRANCH   2   3
ENDBRANCH   1   2
BRANCH   1  29
ATOM     29  C   UNL A   1      41.421  26.181  26.615  1.00  0.00     0.188 C 
BRANCH  29  30
ATOM     30  C   UNL A   1      42.229  24.867  26.690  1.00  0.00     0.188 C 
BRANCH  30  31
ATOM     31  O   UNL A   1      41.905  23.894  25.713  1.00  0.00    -0.376 OA
BRANCH  31  32
ATOM     32  C   UNL A   1      42.726  22.744  25.575  1.00  0.00     0.202 C 
BRANCH  32  33
ATOM     33  C   UNL A   1      43.259  22.072  26.852  1.00  0.00     0.261 C 
BRANCH  33  34
ATOM     34  O   UNL A   1      44.494  22.584  27.377  1.00  0.00    -0.460 OA
BRANCH  34  35
ATOM     35  C   UNL A   1      45.542  22.727  26.541  1.00  0.00     0.338 C 
ATOM     36  O   UNL A   1      46.061  21.876  25.843  1.00  0.00    -0.246 OA
BRANCH  35  37
ATOM     37  C   UNL A   1      45.834  24.171  26.459  1.00  0.00     0.060 A 
ATOM     38  C   UNL A   1      45.618  24.848  25.249  1.00  0.00     0.016 A 
ATOM     39  C   UNL A   1      46.307  24.852  27.581  1.00  0.00     0.016 A 
ATOM     40  C   UNL A   1      45.908  26.207  25.148  1.00  0.00     0.010 A 
ATOM     41  C   UNL A   1      46.628  26.204  27.471  1.00  0.00     0.010 A 
ATOM     42  C   UNL A   1      46.466  26.875  26.244  1.00  0.00    -0.014 A 
BRANCH  42  43
ATOM     43  C   UNL A   1      47.135  28.180  26.062  1.00  0.00     0.031 A 
ATOM     44  C   UNL A   1      48.617  28.165  25.806  1.00  0.00     0.074 A 
ATOM     45  C   UNL A   1      46.470  29.342  26.156  1.00  0.00     0.049 A 
ATOM     46  N   UNL A   1      49.469  29.154  25.796  1.00  0.00    -0.248 NA
ATOM     47  C   UNL A   1      49.216  26.846  25.535  1.00  0.00     0.031 C 
ATOM     48  C   UNL A   1      45.024  29.486  26.323  1.00  0.00     0.029 A 
ATOM     49  N   UNL A   1      46.940  30.631  26.147  1.00  0.00    -0.354 N 
ATOM     50  C   UNL A   1      50.706  28.575  25.542  1.00  0.00     0.074 A 
ATOM     51  C   UNL A   1      50.498  27.150  25.423  1.00  0.00     0.031 C 
ATOM     52  C   UNL A   1      44.729  30.794  26.424  1.00  0.00     0.029 A 
ATOM     53  C   UNL A   1      45.968  31.570  26.384  1.00  0.00     0.049 A 
ATOM     54  H   UNL A   1      47.884  30.860  25.986  1.00  0.00     0.167 HD
ATOM     55  C   UNL A   1      51.911  29.178  25.423  1.00  0.00     0.031 A 
ATOM     56  C   UNL A   1      46.078  32.899  26.588  1.00  0.00     0.031 A 
ATOM     57  C   UNL A   1      52.113  30.592  25.567  1.00  0.00     0.049 A 
ATOM     58  C   UNL A   1      47.446  33.536  26.565  1.00  0.00     0.074 A 
ATOM     59  C   UNL A   1      53.293  31.308  25.476  1.00  0.00     0.029 A 
ATOM     60  N   UNL A   1      51.106  31.505  25.838  1.00  0.00    -0.354 N 
ATOM     61  N   UNL A   1      48.614  32.984  26.331  1.00  0.00    -0.248 NA
ATOM     62  C   UNL A   1      47.510  34.980  26.835  1.00  0.00     0.031 C 
ATOM     63  C   UNL A   1      53.009  32.648  25.752  1.00  0.00     0.029 A 
ATOM     64  C   UNL A   1      51.640  32.776  25.939  1.00  0.00     0.049 A 
ATOM     65  H   UNL A   1      50.153  31.282  25.943  1.00  0.00     0.167 HD
ATOM     66  C   UNL A   1      49.540  34.019  26.381  1.00  0.00     0.074 A 
ATOM     67  C   UNL A   1      48.802  35.231  26.668  1.00  0.00     0.031 C 
ATOM     68  C   UNL A   1      50.883  33.973  26.198  1.00  0.00     0.031 A 
BRANCH  55  69
ATOM     69  C   UNL A   1      53.103  28.299  25.175  1.00  0.00    -0.014 A 
ATOM     70  C   UNL A   1      53.523  27.987  23.873  1.00  0.00     0.009 A 
ATOM     71  C   UNL A   1      53.829  27.791  26.263  1.00  0.00     0.009 A 
ATOM     72  C   UNL A   1      54.627  27.155  23.667  1.00  0.00     0.001 A 
ATOM     73  C   UNL A   1      54.950  26.988  26.055  1.00  0.00     0.001 A 
ATOM     74  C   UNL A   1      55.343  26.662  24.758  1.00  0.00     0.000 A 
ENDBRANCH  55  69
BRANCH  56  75
ATOM     75  C   UNL A   1      44.870  33.719  26.869  1.00  0.00    -0.014 A 
ATOM     76  C   UNL A   1      44.221  34.412  25.834  1.00  0.00     0.009 A 
ATOM     77  C   UNL A   1      44.378  33.847  28.178  1.00  0.00     0.009 A 
ATOM     78  C   UNL A   1      43.126  35.236  26.110  1.00  0.00     0.001 A 
ATOM     79  C   UNL A   1      43.264  34.645  28.446  1.00  0.00     0.001 A 
ATOM     80  C   UNL A   1      42.647  35.349  27.413  1.00  0.00     0.000 A 
ENDBRANCH  56  75
BRANCH  68  81
ATOM     81  C   UNL A   1      51.641  35.271  26.218  1.00  0.00    -0.014 A 
ATOM     82  C   UNL A   1      51.983  35.945  25.036  1.00  0.00     0.009 A 
ATOM     83  C   UNL A   1      51.930  35.874  27.454  1.00  0.00     0.009 A 
ATOM     84  C   UNL A   1      52.617  37.188  25.094  1.00  0.00     0.001 A 
ATOM     85  C   UNL A   1      52.535  37.129  27.508  1.00  0.00     0.001 A 
ATOM     86  C   UNL A   1      52.884  37.783  26.328  1.00  0.00     0.000 A 
ENDBRANCH  68  81
ENDBRANCH  42  43
ENDBRANCH  35  37
ENDBRANCH  34  35
ENDBRANCH  33  34
ENDBRANCH  32  33
ENDBRANCH  31  32
ENDBRANCH  30  31
ENDBRANCH  29  30
ENDBRANCH   1  29
TORSDOF 22
ENDMDL
