MODEL 1
REMARK VINA RESULT:     -10.1      0.000      0.000
REMARK SMILES O=C(OCCOCCOCCOCCOC(=O)c1ccc(-c2c3nc(c(-c4ccccc4)c4ccc([nH]4)c(-c4ccccc4)c4nc(c(-c5ccccc5)c5ccc2[nH]5)C=C4)C=C3)cc1)C1=Cc2c(ccc(Cl)c2Oc2ccccc2)O[C@H]1C(F)(F)F
REMARK SMILES IDX 9 1 8 2 7 3 6 4 5 5 4 6 3 7 2 8 1 9 66 10 67 11 83 12 68 13
REMARK SMILES IDX 82 14 69 15 74 16 70 17 72 18 71 19 73 20 84 21 85 22 86 23
REMARK SMILES IDX 87 24 75 25 76 26 77 27 81 28 78 29 80 30 79 31 10 32 11 33
REMARK SMILES IDX 12 34 13 35 14 36 15 37 16 38 17 39 18 40 19 41 65 42 20 43
REMARK SMILES IDX 64 44 21 45 22 46 23 47 58 48 24 49 63 50 57 51 59 52 25 53
REMARK SMILES IDX 62 54 56 55 55 56 26 58 48 59 33 60 47 61 34 62 37 63 46 64
REMARK SMILES IDX 60 65 35 66 36 67 45 69 61 70 38 71 27 72 28 73 32 74 29 75
REMARK SMILES IDX 31 76 30 77 49 78 50 79 54 80 51 81 53 82 52 83 39 84 40 85
REMARK SMILES IDX 44 86 41 87 43 88 42 89
REMARK H PARENT 59 57 37 68
REMARK Flexibility Score: inf
ROOT
ATOM      1  O   UNL A   1      30.417  28.761  22.967  1.00  0.00    -0.377 OA
ENDROOT
BRANCH   1   2
ATOM      2  C   UNL A   1      30.345  27.329  23.056  1.00  0.00     0.188 C 
BRANCH   2   3
ATOM      3  C   UNL A   1      29.557  26.813  24.276  1.00  0.00     0.188 C 
BRANCH   3   4
ATOM      4  O   UNL A   1      30.313  26.326  25.383  1.00  0.00    -0.376 OA
BRANCH   4   5
ATOM      5  C   UNL A   1      29.601  25.511  26.305  1.00  0.00     0.202 C 
BRANCH   5   6
ATOM      6  C   UNL A   1      29.968  24.033  26.375  1.00  0.00     0.261 C 
BRANCH   6   7
ATOM      7  O   UNL A   1      31.066  23.806  27.297  1.00  0.00    -0.460 OA
BRANCH   7   8
ATOM      8  C   UNL A   1      32.292  23.284  27.064  1.00  0.00     0.338 C 
ATOM      9  O   UNL A   1      32.858  22.655  27.956  1.00  0.00    -0.246 OA
BRANCH   8  10
ATOM     10  C   UNL A   1      32.991  23.397  25.774  1.00  0.00     0.088 C 
ATOM     11  C   UNL A   1      33.141  22.447  24.845  1.00  0.00     0.031 C 
ATOM     12  C   UNL A   1      33.830  24.628  25.543  1.00  0.00     0.316 C 
ATOM     13  C   UNL A   1      34.579  22.073  24.748  1.00  0.00     0.062 A 
ATOM     14  O   UNL A   1      35.249  24.265  25.591  1.00  0.00    -0.475 OA
ATOM     15  C   UNL A   1      35.528  22.941  25.323  1.00  0.00     0.131 A 
ATOM     16  C   UNL A   1      34.915  20.763  24.401  1.00  0.00     0.156 A 
ATOM     17  C   UNL A   1      36.743  22.438  25.768  1.00  0.00     0.049 A 
ATOM     18  C   UNL A   1      36.087  20.239  24.976  1.00  0.00     0.084 A 
ATOM     19  C   UNL A   1      36.984  21.069  25.666  1.00  0.00     0.028 A 
ATOM     20  Cl  UNL A   1      36.440  18.546  25.040  1.00  0.00    -0.080 Cl
BRANCH  12  21
ATOM     21  C   UNL A   1      33.423  25.331  24.226  1.00  0.00     0.430 C 
ATOM     22  F   UNL A   1      32.244  24.849  23.749  1.00  0.00    -0.167 F 
ATOM     23  F   UNL A   1      33.260  26.661  24.390  1.00  0.00    -0.167 F 
ATOM     24  F   UNL A   1      34.335  25.149  23.240  1.00  0.00    -0.167 F 
ENDBRANCH  12  21
BRANCH  16  25
ATOM     25  O   UNL A   1      34.052  19.937  23.710  1.00  0.00    -0.455 OA
BRANCH  25  26
ATOM     26  C   UNL A   1      33.567  18.759  24.259  1.00  0.00     0.127 A 
ATOM     27  C   UNL A   1      33.730  17.590  23.501  1.00  0.00     0.047 A 
ATOM     28  C   UNL A   1      32.904  18.675  25.477  1.00  0.00     0.047 A 
ATOM     29  C   UNL A   1      33.386  16.336  23.996  1.00  0.00     0.004 A 
ATOM     30  C   UNL A   1      32.528  17.416  25.970  1.00  0.00     0.004 A 
ATOM     31  C   UNL A   1      32.797  16.248  25.246  1.00  0.00     0.000 A 
ENDBRANCH  25  26
ENDBRANCH  16  25
ENDBRANCH   8  10
ENDBRANCH   7   8
ENDBRANCH   6   7
ENDBRANCH   5   6
ENDBRANCH   4   5
ENDBRANCH   3   4
ENDBRANCH   2   3
ENDBRANCH   1   2
BRANCH   1  32
ATOM     32  C   UNL A   1      30.641  29.376  24.243  1.00  0.00     0.188 C 
BRANCH  32  33
ATOM     33  C   UNL A   1      32.120  29.585  24.656  1.00  0.00     0.188 C 
BRANCH  33  34
ATOM     34  O   UNL A   1      32.496  29.676  26.024  1.00  0.00    -0.376 OA
BRANCH  34  35
ATOM     35  C   UNL A   1      32.152  30.836  26.757  1.00  0.00     0.202 C 
BRANCH  35  36
ATOM     36  C   UNL A   1      33.295  31.572  27.466  1.00  0.00     0.261 C 
BRANCH  36  37
ATOM     37  O   UNL A   1      34.290  30.688  28.001  1.00  0.00    -0.460 OA
BRANCH  37  38
ATOM     38  C   UNL A   1      35.244  31.255  28.793  1.00  0.00     0.338 C 
ATOM     39  O   UNL A   1      35.131  32.209  29.521  1.00  0.00    -0.246 OA
BRANCH  38  40
ATOM     40  C   UNL A   1      36.404  30.321  28.803  1.00  0.00     0.060 A 
ATOM     41  C   UNL A   1      36.767  29.688  30.007  1.00  0.00     0.016 A 
ATOM     42  C   UNL A   1      37.057  29.999  27.612  1.00  0.00     0.016 A 
ATOM     43  C   UNL A   1      37.789  28.740  30.026  1.00  0.00     0.010 A 
ATOM     44  C   UNL A   1      38.108  29.091  27.638  1.00  0.00     0.010 A 
ATOM     45  C   UNL A   1      38.503  28.495  28.850  1.00  0.00    -0.014 A 
BRANCH  45  46
ATOM     46  C   UNL A   1      39.872  27.948  28.907  1.00  0.00     0.031 A 
ATOM     47  C   UNL A   1      40.976  28.948  29.098  1.00  0.00     0.074 A 
ATOM     48  C   UNL A   1      40.137  26.655  28.668  1.00  0.00     0.049 A 
ATOM     49  N   UNL A   1      42.262  28.814  28.924  1.00  0.00    -0.248 NA
ATOM     50  C   UNL A   1      40.554  30.302  29.500  1.00  0.00     0.031 C 
ATOM     51  C   UNL A   1      39.145  25.596  28.509  1.00  0.00     0.029 A 
ATOM     52  N   UNL A   1      41.343  26.032  28.468  1.00  0.00    -0.354 N 
ATOM     53  C   UNL A   1      42.795  30.076  29.155  1.00  0.00     0.074 A 
ATOM     54  C   UNL A   1      41.697  30.962  29.460  1.00  0.00     0.031 C 
ATOM     55  C   UNL A   1      39.783  24.454  28.192  1.00  0.00     0.029 A 
ATOM     56  C   UNL A   1      41.218  24.723  28.079  1.00  0.00     0.049 A 
ATOM     57  H   UNL A   1      42.211  26.480  28.592  1.00  0.00     0.167 HD
ATOM     58  C   UNL A   1      44.088  30.467  29.104  1.00  0.00     0.031 A 
ATOM     59  C   UNL A   1      42.153  23.861  27.634  1.00  0.00     0.031 A 
ATOM     60  C   UNL A   1      45.164  29.583  28.760  1.00  0.00     0.049 A 
ATOM     61  C   UNL A   1      43.584  24.322  27.526  1.00  0.00     0.074 A 
ATOM     62  C   UNL A   1      46.517  29.855  28.699  1.00  0.00     0.029 A 
ATOM     63  N   UNL A   1      44.999  28.253  28.399  1.00  0.00    -0.354 N 
ATOM     64  N   UNL A   1      44.094  25.506  27.778  1.00  0.00    -0.248 NA
ATOM     65  C   UNL A   1      44.570  23.329  27.075  1.00  0.00     0.031 C 
ATOM     66  C   UNL A   1      47.165  28.706  28.233  1.00  0.00     0.029 A 
ATOM     67  C   UNL A   1      46.224  27.697  28.083  1.00  0.00     0.049 A 
ATOM     68  H   UNL A   1      44.137  27.778  28.372  1.00  0.00     0.167 HD
ATOM     69  C   UNL A   1      45.461  25.391  27.551  1.00  0.00     0.074 A 
ATOM     70  C   UNL A   1      45.700  24.022  27.141  1.00  0.00     0.031 C 
ATOM     71  C   UNL A   1      46.433  26.329  27.679  1.00  0.00     0.031 A 
BRANCH  58  72
ATOM     72  C   UNL A   1      44.370  31.922  29.354  1.00  0.00    -0.014 A 
ATOM     73  C   UNL A   1      44.318  32.873  28.321  1.00  0.00     0.009 A 
ATOM     74  C   UNL A   1      44.738  32.343  30.641  1.00  0.00     0.009 A 
ATOM     75  C   UNL A   1      44.686  34.198  28.559  1.00  0.00     0.001 A 
ATOM     76  C   UNL A   1      45.068  33.676  30.885  1.00  0.00     0.001 A 
ATOM     77  C   UNL A   1      45.058  34.599  29.841  1.00  0.00     0.000 A 
ENDBRANCH  58  72
BRANCH  59  78
ATOM     78  C   UNL A   1      41.753  22.486  27.235  1.00  0.00    -0.014 A 
ATOM     79  C   UNL A   1      42.159  21.377  27.991  1.00  0.00     0.009 A 
ATOM     80  C   UNL A   1      40.933  22.278  26.114  1.00  0.00     0.009 A 
ATOM     81  C   UNL A   1      41.760  20.087  27.628  1.00  0.00     0.001 A 
ATOM     82  C   UNL A   1      40.513  20.991  25.770  1.00  0.00     0.001 A 
ATOM     83  C   UNL A   1      40.930  19.897  26.524  1.00  0.00     0.000 A 
ENDBRANCH  59  78
BRANCH  71  84
ATOM     84  C   UNL A   1      47.854  25.902  27.430  1.00  0.00    -0.014 A 
ATOM     85  C   UNL A   1      48.465  26.068  26.179  1.00  0.00     0.009 A 
ATOM     86  C   UNL A   1      48.618  25.411  28.502  1.00  0.00     0.009 A 
ATOM     87  C   UNL A   1      49.808  25.728  26.003  1.00  0.00     0.001 A 
ATOM     88  C   UNL A   1      49.967  25.104  28.332  1.00  0.00     0.001 A 
ATOM     89  C   UNL A   1      50.560  25.256  27.080  1.00  0.00     0.000 A 
ENDBRANCH  71  84
ENDBRANCH  45  46
ENDBRANCH  38  40
ENDBRANCH  37  38
ENDBRANCH  36  37
ENDBRANCH  35  36
ENDBRANCH  34  35
ENDBRANCH  33  34
ENDBRANCH  32  33
ENDBRANCH   1  32
TORSDOF 23
ENDMDL
MODEL 2
REMARK VINA RESULT:      -9.8      1.903      3.118
REMARK SMILES O=C(OCCOCCOCCOCCOC(=O)c1ccc(-c2c3nc(c(-c4ccccc4)c4ccc([nH]4)c(-c4ccccc4)c4nc(c(-c5ccccc5)c5ccc2[nH]5)C=C4)C=C3)cc1)C1=Cc2c(ccc(Cl)c2Oc2ccccc2)O[C@H]1C(F)(F)F
REMARK SMILES IDX 9 1 8 2 7 3 6 4 5 5 4 6 3 7 2 8 1 9 66 10 67 11 83 12 68 13
REMARK SMILES IDX 82 14 69 15 74 16 70 17 72 18 71 19 73 20 84 21 85 22 86 23
REMARK SMILES IDX 87 24 75 25 76 26 77 27 81 28 78 29 80 30 79 31 10 32 11 33
REMARK SMILES IDX 12 34 13 35 14 36 15 37 16 38 17 39 18 40 19 41 65 42 20 43
REMARK SMILES IDX 64 44 21 45 22 46 23 47 58 48 24 49 63 50 57 51 59 52 25 53
REMARK SMILES IDX 62 54 56 55 55 56 26 58 48 59 33 60 47 61 34 62 37 63 46 64
REMARK SMILES IDX 60 65 35 66 36 67 45 69 61 70 38 71 27 72 28 73 32 74 29 75
REMARK SMILES IDX 31 76 30 77 49 78 50 79 54 80 51 81 53 82 52 83 39 84 40 85
REMARK SMILES IDX 44 86 41 87 43 88 42 89
REMARK H PARENT 59 57 37 68
REMARK Flexibility Score: inf
ROOT
ATOM      1  O   UNL A   1      30.786  28.098  23.804  1.00  0.00    -0.377 OA
ENDROOT
BRANCH   1   2
ATOM      2  C   UNL A   1      30.437  26.901  24.516  1.00  0.00     0.188 C 
BRANCH   2   3
ATOM      3  C   UNL A   1      31.348  26.598  25.723  1.00  0.00     0.188 C 
BRANCH   3   4
ATOM      4  O   UNL A   1      32.358  25.607  25.547  1.00  0.00    -0.376 OA
BRANCH   4   5
ATOM      5  C   UNL A   1      32.616  24.782  26.675  1.00  0.00     0.202 C 
BRANCH   5   6
ATOM      6  C   UNL A   1      31.603  23.690  27.002  1.00  0.00     0.261 C 
BRANCH   6   7
ATOM      7  O   UNL A   1      32.250  22.532  27.592  1.00  0.00    -0.460 OA
BRANCH   7   8
ATOM      8  C   UNL A   1      33.271  21.782  27.117  1.00  0.00     0.338 C 
ATOM      9  O   UNL A   1      34.184  21.460  27.875  1.00  0.00    -0.246 OA
BRANCH   8  10
ATOM     10  C   UNL A   1      33.343  21.292  25.732  1.00  0.00     0.088 C 
ATOM     11  C   UNL A   1      34.199  21.674  24.778  1.00  0.00     0.031 C 
ATOM     12  C   UNL A   1      32.207  20.433  25.238  1.00  0.00     0.316 C 
ATOM     13  C   UNL A   1      33.454  22.384  23.702  1.00  0.00     0.062 A 
ATOM     14  O   UNL A   1      31.400  21.197  24.283  1.00  0.00    -0.475 OA
ATOM     15  C   UNL A   1      32.053  22.244  23.665  1.00  0.00     0.131 A 
ATOM     16  C   UNL A   1      34.098  23.399  22.991  1.00  0.00     0.156 A 
ATOM     17  C   UNL A   1      31.273  23.248  23.109  1.00  0.00     0.049 A 
ATOM     18  C   UNL A   1      33.296  24.470  22.556  1.00  0.00     0.084 A 
ATOM     19  C   UNL A   1      31.896  24.399  22.630  1.00  0.00     0.028 A 
ATOM     20  Cl  UNL A   1      33.939  26.000  22.067  1.00  0.00    -0.080 Cl
BRANCH  12  21
ATOM     21  C   UNL A   1      32.738  19.099  24.660  1.00  0.00     0.430 C 
ATOM     22  F   UNL A   1      34.068  18.946  24.902  1.00  0.00    -0.167 F 
ATOM     23  F   UNL A   1      32.119  18.029  25.202  1.00  0.00    -0.167 F 
ATOM     24  F   UNL A   1      32.585  19.022  23.315  1.00  0.00    -0.167 F 
ENDBRANCH  12  21
BRANCH  16  25
ATOM     25  O   UNL A   1      35.472  23.477  22.894  1.00  0.00    -0.455 OA
BRANCH  25  26
ATOM     26  C   UNL A   1      36.297  23.272  23.990  1.00  0.00     0.127 A 
ATOM     27  C   UNL A   1      37.054  22.091  24.005  1.00  0.00     0.047 A 
ATOM     28  C   UNL A   1      36.388  24.135  25.077  1.00  0.00     0.047 A 
ATOM     29  C   UNL A   1      37.998  21.833  24.993  1.00  0.00     0.004 A 
ATOM     30  C   UNL A   1      37.319  23.865  26.092  1.00  0.00     0.004 A 
ATOM     31  C   UNL A   1      38.142  22.735  26.034  1.00  0.00     0.000 A 
ENDBRANCH  25  26
ENDBRANCH  16  25
ENDBRANCH   8  10
ENDBRANCH   7   8
ENDBRANCH   6   7
ENDBRANCH   5   6
ENDBRANCH   4   5
ENDBRANCH   3   4
ENDBRANCH   2   3
ENDBRANCH   1   2
BRANCH   1  32
ATOM     32  C   UNL A   1      30.924  29.230  24.675  1.00  0.00     0.188 C 
BRANCH  32  33
ATOM     33  C   UNL A   1      32.371  29.704  24.962  1.00  0.00     0.188 C 
BRANCH  33  34
ATOM     34  O   UNL A   1      32.877  29.759  26.290  1.00  0.00    -0.376 OA
BRANCH  34  35
ATOM     35  C   UNL A   1      32.807  30.978  27.003  1.00  0.00     0.202 C 
BRANCH  35  36
ATOM     36  C   UNL A   1      34.129  31.552  27.528  1.00  0.00     0.261 C 
BRANCH  36  37
ATOM     37  O   UNL A   1      34.643  30.841  28.663  1.00  0.00    -0.460 OA
BRANCH  37  38
ATOM     38  C   UNL A   1      35.663  31.438  29.343  1.00  0.00     0.338 C 
ATOM     39  O   UNL A   1      35.609  32.407  30.057  1.00  0.00    -0.246 OA
BRANCH  38  40
ATOM     40  C   UNL A   1      36.830  30.517  29.258  1.00  0.00     0.060 A 
ATOM     41  C   UNL A   1      37.165  29.727  30.374  1.00  0.00     0.016 A 
ATOM     42  C   UNL A   1      37.519  30.366  28.054  1.00  0.00     0.016 A 
ATOM     43  C   UNL A   1      38.196  28.791  30.293  1.00  0.00     0.010 A 
ATOM     44  C   UNL A   1      38.577  29.469  27.985  1.00  0.00     0.010 A 
ATOM     45  C   UNL A   1      38.944  28.714  29.114  1.00  0.00    -0.014 A 
BRANCH  45  46
ATOM     46  C   UNL A   1      40.317  28.171  29.136  1.00  0.00     0.031 A 
ATOM     47  C   UNL A   1      41.419  29.171  29.337  1.00  0.00     0.074 A 
ATOM     48  C   UNL A   1      40.583  26.887  28.857  1.00  0.00     0.049 A 
ATOM     49  N   UNL A   1      42.703  29.048  29.140  1.00  0.00    -0.248 NA
ATOM     50  C   UNL A   1      40.998  30.512  29.783  1.00  0.00     0.031 C 
ATOM     51  C   UNL A   1      39.593  25.828  28.685  1.00  0.00     0.029 A 
ATOM     52  N   UNL A   1      41.788  26.274  28.622  1.00  0.00    -0.354 N 
ATOM     53  C   UNL A   1      43.235  30.305  29.398  1.00  0.00     0.074 A 
ATOM     54  C   UNL A   1      42.138  31.177  29.743  1.00  0.00     0.031 C 
ATOM     55  C   UNL A   1      40.231  24.698  28.326  1.00  0.00     0.029 A 
ATOM     56  C   UNL A   1      41.662  24.976  28.199  1.00  0.00     0.049 A 
ATOM     57  H   UNL A   1      42.656  26.723  28.745  1.00  0.00     0.167 HD
ATOM     58  C   UNL A   1      44.525  30.703  29.338  1.00  0.00     0.031 A 
ATOM     59  C   UNL A   1      42.594  24.131  27.717  1.00  0.00     0.031 A 
ATOM     60  C   UNL A   1      45.599  29.834  28.952  1.00  0.00     0.049 A 
ATOM     61  C   UNL A   1      44.021  24.601  27.600  1.00  0.00     0.074 A 
ATOM     62  C   UNL A   1      46.950  30.113  28.879  1.00  0.00     0.029 A 
ATOM     63  N   UNL A   1      45.433  28.513  28.558  1.00  0.00    -0.354 N 
ATOM     64  N   UNL A   1      44.530  25.780  27.876  1.00  0.00    -0.248 NA
ATOM     65  C   UNL A   1      45.004  23.625  27.106  1.00  0.00     0.031 C 
ATOM     66  C   UNL A   1      47.595  28.980  28.371  1.00  0.00     0.029 A 
ATOM     67  C   UNL A   1      46.656  27.971  28.208  1.00  0.00     0.049 A 
ATOM     68  H   UNL A   1      44.574  28.035  28.531  1.00  0.00     0.167 HD
ATOM     69  C   UNL A   1      45.894  25.677  27.625  1.00  0.00     0.074 A 
ATOM     70  C   UNL A   1      46.132  24.321  27.174  1.00  0.00     0.031 C 
ATOM     71  C   UNL A   1      46.864  26.615  27.764  1.00  0.00     0.031 A 
BRANCH  58  72
ATOM     72  C   UNL A   1      44.805  32.152  29.622  1.00  0.00    -0.014 A 
ATOM     73  C   UNL A   1      44.786  33.122  28.607  1.00  0.00     0.009 A 
ATOM     74  C   UNL A   1      45.136  32.547  30.928  1.00  0.00     0.009 A 
ATOM     75  C   UNL A   1      45.152  34.441  28.880  1.00  0.00     0.001 A 
ATOM     76  C   UNL A   1      45.464  33.874  31.206  1.00  0.00     0.001 A 
ATOM     77  C   UNL A   1      45.488  34.817  30.180  1.00  0.00     0.000 A 
ENDBRANCH  58  72
BRANCH  59  78
ATOM     78  C   UNL A   1      42.194  22.766  27.286  1.00  0.00    -0.014 A 
ATOM     79  C   UNL A   1      41.972  21.755  28.233  1.00  0.00     0.009 A 
ATOM     80  C   UNL A   1      41.996  22.476  25.926  1.00  0.00     0.009 A 
ATOM     81  C   UNL A   1      41.570  20.479  27.826  1.00  0.00     0.001 A 
ATOM     82  C   UNL A   1      41.567  21.208  25.525  1.00  0.00     0.001 A 
ATOM     83  C   UNL A   1      41.359  20.210  26.474  1.00  0.00     0.000 A 
ENDBRANCH  59  78
BRANCH  71  84
ATOM     84  C   UNL A   1      48.283  26.202  27.482  1.00  0.00    -0.014 A 
ATOM     85  C   UNL A   1      49.069  25.559  28.448  1.00  0.00     0.009 A 
ATOM     86  C   UNL A   1      48.802  26.381  26.189  1.00  0.00     0.009 A 
ATOM     87  C   UNL A   1      50.358  25.123  28.128  1.00  0.00     0.001 A 
ATOM     88  C   UNL A   1      50.076  25.916  25.864  1.00  0.00     0.001 A 
ATOM     89  C   UNL A   1      50.855  25.293  26.836  1.00  0.00     0.000 A 
ENDBRANCH  71  84
ENDBRANCH  45  46
ENDBRANCH  38  40
ENDBRANCH  37  38
ENDBRANCH  36  37
ENDBRANCH  35  36
ENDBRANCH  34  35
ENDBRANCH  33  34
ENDBRANCH  32  33
ENDBRANCH   1  32
TORSDOF 23
ENDMDL
MODEL 3
REMARK VINA RESULT:      -9.5      3.932      5.862
REMARK SMILES O=C(OCCOCCOCCOCCOC(=O)c1ccc(-c2c3nc(c(-c4ccccc4)c4ccc([nH]4)c(-c4ccccc4)c4nc(c(-c5ccccc5)c5ccc2[nH]5)C=C4)C=C3)cc1)C1=Cc2c(ccc(Cl)c2Oc2ccccc2)O[C@H]1C(F)(F)F
REMARK SMILES IDX 9 1 8 2 7 3 6 4 5 5 4 6 3 7 2 8 1 9 66 10 67 11 83 12 68 13
REMARK SMILES IDX 82 14 69 15 74 16 70 17 72 18 71 19 73 20 84 21 85 22 86 23
REMARK SMILES IDX 87 24 75 25 76 26 77 27 81 28 78 29 80 30 79 31 10 32 11 33
REMARK SMILES IDX 12 34 13 35 14 36 15 37 16 38 17 39 18 40 19 41 65 42 20 43
REMARK SMILES IDX 64 44 21 45 22 46 23 47 58 48 24 49 63 50 57 51 59 52 25 53
REMARK SMILES IDX 62 54 56 55 55 56 26 58 48 59 33 60 47 61 34 62 37 63 46 64
REMARK SMILES IDX 60 65 35 66 36 67 45 69 61 70 38 71 27 72 28 73 32 74 29 75
REMARK SMILES IDX 31 76 30 77 49 78 50 79 54 80 51 81 53 82 52 83 39 84 40 85
REMARK SMILES IDX 44 86 41 87 43 88 42 89
REMARK H PARENT 59 57 37 68
REMARK Flexibility Score: inf
ROOT
ATOM      1  O   UNL A   1      31.784  28.454  24.036  1.00  0.00    -0.377 OA
ENDROOT
BRANCH   1   2
ATOM      2  C   UNL A   1      30.985  27.278  24.237  1.00  0.00     0.188 C 
BRANCH   2   3
ATOM      3  C   UNL A   1      31.405  26.433  25.456  1.00  0.00     0.188 C 
BRANCH   3   4
ATOM      4  O   UNL A   1      30.378  25.712  26.136  1.00  0.00    -0.376 OA
BRANCH   4   5
ATOM      5  C   UNL A   1      30.737  24.416  26.597  1.00  0.00     0.202 C 
BRANCH   5   6
ATOM      6  C   UNL A   1      32.202  24.164  26.933  1.00  0.00     0.261 C 
BRANCH   6   7
ATOM      7  O   UNL A   1      32.401  22.820  27.445  1.00  0.00    -0.460 OA
BRANCH   7   8
ATOM      8  C   UNL A   1      33.251  21.856  27.023  1.00  0.00     0.338 C 
ATOM      9  O   UNL A   1      34.005  21.321  27.834  1.00  0.00    -0.246 OA
BRANCH   8  10
ATOM     10  C   UNL A   1      33.310  21.375  25.634  1.00  0.00     0.088 C 
ATOM     11  C   UNL A   1      34.136  21.785  24.666  1.00  0.00     0.031 C 
ATOM     12  C   UNL A   1      32.187  20.490  25.155  1.00  0.00     0.316 C 
ATOM     13  C   UNL A   1      33.353  22.482  23.608  1.00  0.00     0.062 A 
ATOM     14  O   UNL A   1      31.342  21.239  24.221  1.00  0.00    -0.475 OA
ATOM     15  C   UNL A   1      31.955  22.305  23.597  1.00  0.00     0.131 A 
ATOM     16  C   UNL A   1      33.956  23.517  22.892  1.00  0.00     0.156 A 
ATOM     17  C   UNL A   1      31.139  23.293  23.063  1.00  0.00     0.049 A 
ATOM     18  C   UNL A   1      33.119  24.570  22.479  1.00  0.00     0.084 A 
ATOM     19  C   UNL A   1      31.723  24.462  22.579  1.00  0.00     0.028 A 
ATOM     20  Cl  UNL A   1      33.712  26.119  21.987  1.00  0.00    -0.080 Cl
BRANCH  12  21
ATOM     21  C   UNL A   1      32.741  19.174  24.559  1.00  0.00     0.430 C 
ATOM     22  F   UNL A   1      32.750  19.208  23.200  1.00  0.00    -0.167 F 
ATOM     23  F   UNL A   1      34.011  18.936  24.950  1.00  0.00    -0.167 F 
ATOM     24  F   UNL A   1      31.997  18.096  24.909  1.00  0.00    -0.167 F 
ENDBRANCH  12  21
BRANCH  16  25
ATOM     25  O   UNL A   1      35.326  23.632  22.769  1.00  0.00    -0.455 OA
BRANCH  25  26
ATOM     26  C   UNL A   1      36.187  23.269  23.794  1.00  0.00     0.127 A 
ATOM     27  C   UNL A   1      36.239  24.114  24.912  1.00  0.00     0.047 A 
ATOM     28  C   UNL A   1      37.019  22.155  23.763  1.00  0.00     0.047 A 
ATOM     29  C   UNL A   1      36.978  23.795  26.045  1.00  0.00     0.004 A 
ATOM     30  C   UNL A   1      37.789  21.842  24.894  1.00  0.00     0.004 A 
ATOM     31  C   UNL A   1      37.745  22.642  26.042  1.00  0.00     0.000 A 
ENDBRANCH  25  26
ENDBRANCH  16  25
ENDBRANCH   8  10
ENDBRANCH   7   8
ENDBRANCH   6   7
ENDBRANCH   5   6
ENDBRANCH   4   5
ENDBRANCH   3   4
ENDBRANCH   2   3
ENDBRANCH   1   2
BRANCH   1  32
ATOM     32  C   UNL A   1      31.511  29.472  25.010  1.00  0.00     0.188 C 
BRANCH  32  33
ATOM     33  C   UNL A   1      32.648  29.782  26.017  1.00  0.00     0.188 C 
BRANCH  33  34
ATOM     34  O   UNL A   1      32.578  30.910  26.881  1.00  0.00    -0.376 OA
BRANCH  34  35
ATOM     35  C   UNL A   1      31.540  31.853  26.698  1.00  0.00     0.202 C 
BRANCH  35  36
ATOM     36  C   UNL A   1      31.840  33.301  27.105  1.00  0.00     0.261 C 
BRANCH  36  37
ATOM     37  O   UNL A   1      33.207  33.507  27.491  1.00  0.00    -0.460 OA
BRANCH  37  38
ATOM     38  C   UNL A   1      33.424  34.398  28.501  1.00  0.00     0.338 C 
ATOM     39  O   UNL A   1      32.723  35.316  28.842  1.00  0.00    -0.246 OA
BRANCH  38  40
ATOM     40  C   UNL A   1      34.573  33.876  29.292  1.00  0.00     0.060 A 
ATOM     41  C   UNL A   1      35.885  34.125  28.846  1.00  0.00     0.016 A 
ATOM     42  C   UNL A   1      34.352  33.236  30.512  1.00  0.00     0.016 A 
ATOM     43  C   UNL A   1      36.979  33.727  29.613  1.00  0.00     0.010 A 
ATOM     44  C   UNL A   1      35.441  32.795  31.255  1.00  0.00     0.010 A 
ATOM     45  C   UNL A   1      36.751  33.001  30.786  1.00  0.00    -0.014 A 
BRANCH  45  46
ATOM     46  C   UNL A   1      37.802  32.121  31.334  1.00  0.00     0.031 A 
ATOM     47  C   UNL A   1      38.520  32.630  32.551  1.00  0.00     0.074 A 
ATOM     48  C   UNL A   1      38.192  30.999  30.713  1.00  0.00     0.049 A 
ATOM     49  N   UNL A   1      39.638  32.226  33.089  1.00  0.00    -0.248 NA
ATOM     50  C   UNL A   1      37.904  33.787  33.225  1.00  0.00     0.031 C 
ATOM     51  C   UNL A   1      37.543  30.395  29.553  1.00  0.00     0.029 A 
ATOM     52  N   UNL A   1      39.276  30.195  30.959  1.00  0.00    -0.354 N 
ATOM     53  C   UNL A   1      39.878  33.106  34.137  1.00  0.00     0.074 A 
ATOM     54  C   UNL A   1      38.806  34.073  34.146  1.00  0.00     0.031 C 
ATOM     55  C   UNL A   1      38.270  29.334  29.158  1.00  0.00     0.029 A 
ATOM     56  C   UNL A   1      39.455  29.222  30.009  1.00  0.00     0.049 A 
ATOM     57  H   UNL A   1      39.867  30.306  31.739  1.00  0.00     0.167 HD
ATOM     58  C   UNL A   1      40.911  33.118  35.008  1.00  0.00     0.031 A 
ATOM     59  C   UNL A   1      40.486  28.375  29.824  1.00  0.00     0.031 A 
ATOM     60  C   UNL A   1      41.991  32.174  34.961  1.00  0.00     0.049 A 
ATOM     61  C   UNL A   1      41.661  28.432  30.767  1.00  0.00     0.074 A 
ATOM     62  C   UNL A   1      43.080  32.067  35.803  1.00  0.00     0.029 A 
ATOM     63  N   UNL A   1      42.121  31.183  33.998  1.00  0.00    -0.354 N 
ATOM     64  N   UNL A   1      41.872  29.241  31.779  1.00  0.00    -0.248 NA
ATOM     65  C   UNL A   1      42.740  27.458  30.544  1.00  0.00     0.031 C 
ATOM     66  C   UNL A   1      43.907  31.054  35.308  1.00  0.00     0.029 A 
ATOM     67  C   UNL A   1      43.291  30.477  34.206  1.00  0.00     0.049 A 
ATOM     68  H   UNL A   1      41.476  31.009  33.275  1.00  0.00     0.167 HD
ATOM     69  C   UNL A   1      43.087  28.853  32.335  1.00  0.00     0.074 A 
ATOM     70  C   UNL A   1      43.565  27.735  31.546  1.00  0.00     0.031 C 
ATOM     71  C   UNL A   1      43.743  29.366  33.406  1.00  0.00     0.031 A 
BRANCH  58  72
ATOM     72  C   UNL A   1      40.938  34.230  36.018  1.00  0.00    -0.014 A 
ATOM     73  C   UNL A   1      40.144  34.196  37.177  1.00  0.00     0.009 A 
ATOM     74  C   UNL A   1      41.742  35.356  35.783  1.00  0.00     0.009 A 
ATOM     75  C   UNL A   1      40.110  35.289  38.044  1.00  0.00     0.001 A 
ATOM     76  C   UNL A   1      41.736  36.431  36.673  1.00  0.00     0.001 A 
ATOM     77  C   UNL A   1      40.908  36.404  37.794  1.00  0.00     0.000 A 
ENDBRANCH  58  72
BRANCH  59  78
ATOM     78  C   UNL A   1      40.459  27.423  28.684  1.00  0.00    -0.014 A 
ATOM     79  C   UNL A   1      39.750  26.216  28.778  1.00  0.00     0.009 A 
ATOM     80  C   UNL A   1      41.112  27.732  27.479  1.00  0.00     0.009 A 
ATOM     81  C   UNL A   1      39.704  25.334  27.693  1.00  0.00     0.001 A 
ATOM     82  C   UNL A   1      41.041  26.862  26.388  1.00  0.00     0.001 A 
ATOM     83  C   UNL A   1      40.341  25.663  26.498  1.00  0.00     0.000 A 
ENDBRANCH  59  78
BRANCH  71  84
ATOM     84  C   UNL A   1      45.020  28.696  33.831  1.00  0.00    -0.014 A 
ATOM     85  C   UNL A   1      45.023  27.600  34.706  1.00  0.00     0.009 A 
ATOM     86  C   UNL A   1      46.235  29.118  33.264  1.00  0.00     0.009 A 
ATOM     87  C   UNL A   1      46.221  26.956  35.021  1.00  0.00     0.001 A 
ATOM     88  C   UNL A   1      47.424  28.453  33.555  1.00  0.00     0.001 A 
ATOM     89  C   UNL A   1      47.418  27.376  34.440  1.00  0.00     0.000 A 
ENDBRANCH  71  84
ENDBRANCH  45  46
ENDBRANCH  38  40
ENDBRANCH  37  38
ENDBRANCH  36  37
ENDBRANCH  35  36
ENDBRANCH  34  35
ENDBRANCH  33  34
ENDBRANCH  32  33
ENDBRANCH   1  32
TORSDOF 23
ENDMDL
