MODEL 1
REMARK VINA RESULT:     -10.7      0.000      0.000
REMARK SMILES Cc1ccc(S(=O)(=O)N[C@@H](C)C(=O)Oc2csc(C(=O)OCCOCCOCCOCCOC(=O)c3ccc(-c4c5nc(c(-c6ccccc6)c6ccc([nH]6)c(-c6ccccc6)c6nc(c(-c7ccccc7)c7ccc4[nH]7)C=C6)C=C5)cc3)c2C)cc1
REMARK SMILES IDX 25 1 24 2 23 3 22 4 21 5 19 6 20 7 18 8 15 9 16 10 84 11
REMARK SMILES IDX 17 12 85 13 14 14 12 15 13 16 10 17 11 18 9 19 6 21 7 22
REMARK SMILES IDX 8 23 5 24 1 25 2 26 3 27 87 28 4 29 86 30 26 31 27 32 28 33
REMARK SMILES IDX 29 34 30 35 31 36 32 37 33 38 34 39 35 40 36 41 37 42 83 43
REMARK SMILES IDX 38 44 82 45 39 46 40 47 41 48 76 49 42 50 81 51 75 52 77 53
REMARK SMILES IDX 43 54 80 55 74 56 73 57 44 59 66 60 51 61 65 62 52 63 55 64
REMARK SMILES IDX 64 65 78 66 53 67 54 68 63 70 79 71 56 72 45 73 46 74 50 75
REMARK SMILES IDX 47 76 49 77 48 78 67 79 68 80 72 81 69 82 71 83 70 84 57 85
REMARK SMILES IDX 58 86 62 87 59 88 61 89 60 90
REMARK H PARENT 9 20 77 58 55 69
REMARK Flexibility Score: inf
ROOT
ATOM      1  C   UNL A   1      33.653  29.531  27.153  1.00  0.00     0.188 C 
ENDROOT
BRANCH   1   2
ATOM      2  O   UNL A   1      33.092  29.623  25.871  1.00  0.00    -0.376 OA
BRANCH   2   3
ATOM      3  C   UNL A   1      31.794  30.157  25.750  1.00  0.00     0.202 C 
BRANCH   3   4
ATOM      4  C   UNL A   1      31.045  29.677  24.528  1.00  0.00     0.261 C 
BRANCH   4   5
ATOM      5  O   UNL A   1      31.651  28.583  23.839  1.00  0.00    -0.459 OA
BRANCH   5   6
ATOM      6  C   UNL A   1      30.970  28.068  22.779  1.00  0.00     0.348 C 
ATOM      7  O   UNL A   1      30.342  28.725  21.966  1.00  0.00    -0.245 OA
BRANCH   6   8
ATOM      8  C   UNL A   1      30.913  26.639  22.918  1.00  0.00     0.119 A 
ATOM      9  C   UNL A   1      31.625  24.493  23.067  1.00  0.00     0.145 A 
ATOM     10  C   UNL A   1      30.641  24.471  24.020  1.00  0.00     0.113 A 
ATOM     11  C   UNL A   1      31.624  25.658  22.248  1.00  0.00     0.017 A 
ATOM     12  S   UNL A   1      29.881  25.992  24.125  1.00  0.00    -0.133 S 
ATOM     13  C   UNL A   1      32.482  25.800  21.028  1.00  0.00     0.050 C 
BRANCH   9  14
ATOM     14  O   UNL A   1      32.514  23.493  22.927  1.00  0.00    -0.424 OA
BRANCH  14  15
ATOM     15  C   UNL A   1      33.775  23.781  23.407  1.00  0.00     0.329 C 
ATOM     16  O   UNL A   1      34.819  23.811  22.764  1.00  0.00    -0.250 OA
BRANCH  15  17
ATOM     17  C   UNL A   1      33.693  24.113  24.880  1.00  0.00     0.177 C 
ATOM     18  C   UNL A   1      34.403  25.412  25.209  1.00  0.00     0.038 C 
BRANCH  17  19
ATOM     19  N   UNL A   1      34.254  22.933  25.532  1.00  0.00    -0.197 NA
ATOM     20  H   UNL A   1      34.784  22.444  24.809  1.00  0.00     0.142 HD
BRANCH  19  21
ATOM     21  S   UNL A   1      33.356  21.777  26.284  1.00  0.00     0.241 S 
ATOM     22  O   UNL A   1      31.975  22.221  26.239  1.00  0.00    -0.207 OA
ATOM     23  O   UNL A   1      34.029  21.516  27.528  1.00  0.00    -0.207 OA
BRANCH  21  24
ATOM     24  C   UNL A   1      33.487  20.325  25.281  1.00  0.00     0.082 A 
ATOM     25  C   UNL A   1      34.070  16.591  23.248  1.00  0.00     0.044 C 
ATOM     26  C   UNL A   1      33.849  17.897  23.950  1.00  0.00    -0.051 A 
ATOM     27  C   UNL A   1      34.954  18.619  24.418  1.00  0.00     0.005 A 
ATOM     28  C   UNL A   1      32.561  18.419  24.125  1.00  0.00     0.005 A 
ATOM     29  C   UNL A   1      34.774  19.820  25.096  1.00  0.00     0.022 A 
ATOM     30  C   UNL A   1      32.378  19.645  24.771  1.00  0.00     0.022 A 
ENDBRANCH  21  24
ENDBRANCH  19  21
ENDBRANCH  17  19
ENDBRANCH  15  17
ENDBRANCH  14  15
ENDBRANCH   9  14
ENDBRANCH   6   8
ENDBRANCH   5   6
ENDBRANCH   4   5
ENDBRANCH   3   4
ENDBRANCH   2   3
ENDBRANCH   1   2
BRANCH   1  31
ATOM     31  C   UNL A   1      35.007  30.226  27.368  1.00  0.00     0.188 C 
BRANCH  31  32
ATOM     32  O   UNL A   1      35.041  31.621  27.617  1.00  0.00    -0.377 OA
BRANCH  32  33
ATOM     33  C   UNL A   1      34.004  32.328  28.269  1.00  0.00     0.188 C 
BRANCH  33  34
ATOM     34  C   UNL A   1      33.901  33.815  27.973  1.00  0.00     0.188 C 
BRANCH  34  35
ATOM     35  O   UNL A   1      33.001  34.464  28.854  1.00  0.00    -0.376 OA
BRANCH  35  36
ATOM     36  C   UNL A   1      33.043  35.881  28.877  1.00  0.00     0.202 C 
BRANCH  36  37
ATOM     37  C   UNL A   1      32.779  36.407  30.289  1.00  0.00     0.261 C 
BRANCH  37  38
ATOM     38  O   UNL A   1      32.979  35.320  31.221  1.00  0.00    -0.460 OA
BRANCH  38  39
ATOM     39  C   UNL A   1      34.099  35.401  31.994  1.00  0.00     0.338 C 
ATOM     40  O   UNL A   1      34.514  36.413  32.534  1.00  0.00    -0.246 OA
BRANCH  39  41
ATOM     41  C   UNL A   1      34.898  34.140  31.897  1.00  0.00     0.060 A 
ATOM     42  C   UNL A   1      34.603  33.042  32.729  1.00  0.00     0.016 A 
ATOM     43  C   UNL A   1      36.081  34.137  31.168  1.00  0.00     0.016 A 
ATOM     44  C   UNL A   1      35.513  31.975  32.872  1.00  0.00     0.010 A 
ATOM     45  C   UNL A   1      36.999  33.119  31.365  1.00  0.00     0.010 A 
ATOM     46  C   UNL A   1      36.735  32.017  32.203  1.00  0.00    -0.014 A 
BRANCH  46  47
ATOM     47  C   UNL A   1      37.872  31.093  32.410  1.00  0.00     0.031 A 
ATOM     48  C   UNL A   1      38.086  29.923  31.505  1.00  0.00     0.074 A 
ATOM     49  C   UNL A   1      38.956  31.527  33.095  1.00  0.00     0.049 A 
ATOM     50  N   UNL A   1      39.079  29.100  31.591  1.00  0.00    -0.248 NA
ATOM     51  C   UNL A   1      37.180  29.561  30.417  1.00  0.00     0.031 C 
ATOM     52  C   UNL A   1      40.340  31.192  32.768  1.00  0.00     0.029 A 
ATOM     53  N   UNL A   1      39.107  32.465  34.092  1.00  0.00    -0.354 N 
ATOM     54  C   UNL A   1      39.206  28.503  30.359  1.00  0.00     0.074 A 
ATOM     55  C   UNL A   1      37.895  28.632  29.774  1.00  0.00     0.031 C 
ATOM     56  C   UNL A   1      41.175  31.714  33.667  1.00  0.00     0.029 A 
ATOM     57  C   UNL A   1      40.367  32.367  34.667  1.00  0.00     0.049 A 
ATOM     58  H   UNL A   1      38.417  33.113  34.360  1.00  0.00     0.167 HD
ATOM     59  C   UNL A   1      40.445  28.147  29.900  1.00  0.00     0.031 A 
ATOM     60  C   UNL A   1      40.700  32.450  35.974  1.00  0.00     0.031 A 
ATOM     61  C   UNL A   1      41.522  28.412  30.894  1.00  0.00     0.049 A 
ATOM     62  C   UNL A   1      41.301  31.091  36.266  1.00  0.00     0.074 A 
ATOM     63  C   UNL A   1      42.696  29.151  30.865  1.00  0.00     0.029 A 
ATOM     64  N   UNL A   1      41.333  28.082  32.247  1.00  0.00    -0.354 N 
ATOM     65  N   UNL A   1      40.956  30.039  35.548  1.00  0.00    -0.248 NA
ATOM     66  C   UNL A   1      42.496  30.846  37.072  1.00  0.00     0.031 C 
ATOM     67  C   UNL A   1      43.165  29.305  32.212  1.00  0.00     0.029 A 
ATOM     68  C   UNL A   1      42.291  28.654  33.077  1.00  0.00     0.049 A 
ATOM     69  H   UNL A   1      40.602  27.509  32.573  1.00  0.00     0.167 HD
ATOM     70  C   UNL A   1      42.020  29.185  35.514  1.00  0.00     0.074 A 
ATOM     71  C   UNL A   1      42.901  29.659  36.578  1.00  0.00     0.031 C 
ATOM     72  C   UNL A   1      42.357  28.321  34.507  1.00  0.00     0.031 A 
BRANCH  59  73
ATOM     73  C   UNL A   1      40.717  27.715  28.453  1.00  0.00    -0.014 A 
ATOM     74  C   UNL A   1      40.819  26.351  28.123  1.00  0.00     0.009 A 
ATOM     75  C   UNL A   1      40.900  28.595  27.363  1.00  0.00     0.009 A 
ATOM     76  C   UNL A   1      41.046  25.906  26.804  1.00  0.00     0.001 A 
ATOM     77  C   UNL A   1      41.091  28.163  26.039  1.00  0.00     0.001 A 
ATOM     78  C   UNL A   1      41.162  26.812  25.758  1.00  0.00     0.000 A 
ENDBRANCH  59  73
BRANCH  60  79
ATOM     79  C   UNL A   1      39.896  33.463  36.707  1.00  0.00    -0.014 A 
ATOM     80  C   UNL A   1      38.521  33.144  36.845  1.00  0.00     0.009 A 
ATOM     81  C   UNL A   1      40.489  34.219  37.732  1.00  0.00     0.009 A 
ATOM     82  C   UNL A   1      37.827  33.400  38.039  1.00  0.00     0.001 A 
ATOM     83  C   UNL A   1      39.803  34.436  38.942  1.00  0.00     0.001 A 
ATOM     84  C   UNL A   1      38.488  33.997  39.107  1.00  0.00     0.000 A 
ENDBRANCH  60  79
BRANCH  72  85
ATOM     85  C   UNL A   1      42.705  26.918  34.904  1.00  0.00    -0.014 A 
ATOM     86  C   UNL A   1      41.788  26.070  35.543  1.00  0.00     0.009 A 
ATOM     87  C   UNL A   1      43.918  26.356  34.465  1.00  0.00     0.009 A 
ATOM     88  C   UNL A   1      42.090  24.731  35.774  1.00  0.00     0.001 A 
ATOM     89  C   UNL A   1      44.201  25.006  34.648  1.00  0.00     0.001 A 
ATOM     90  C   UNL A   1      43.293  24.198  35.319  1.00  0.00     0.000 A 
ENDBRANCH  72  85
ENDBRANCH  46  47
ENDBRANCH  39  41
ENDBRANCH  38  39
ENDBRANCH  37  38
ENDBRANCH  36  37
ENDBRANCH  35  36
ENDBRANCH  34  35
ENDBRANCH  33  34
ENDBRANCH  32  33
ENDBRANCH  31  32
ENDBRANCH   1  31
TORSDOF 26
ENDMDL
MODEL 2
REMARK VINA RESULT:     -10.1      1.147      2.568
REMARK SMILES Cc1ccc(S(=O)(=O)N[C@@H](C)C(=O)Oc2csc(C(=O)OCCOCCOCCOCCOC(=O)c3ccc(-c4c5nc(c(-c6ccccc6)c6ccc([nH]6)c(-c6ccccc6)c6nc(c(-c7ccccc7)c7ccc4[nH]7)C=C6)C=C5)cc3)c2C)cc1
REMARK SMILES IDX 25 1 24 2 23 3 22 4 21 5 19 6 20 7 18 8 15 9 16 10 84 11
REMARK SMILES IDX 17 12 85 13 14 14 12 15 13 16 10 17 11 18 9 19 6 21 7 22
REMARK SMILES IDX 8 23 5 24 1 25 2 26 3 27 87 28 4 29 86 30 26 31 27 32 28 33
REMARK SMILES IDX 29 34 30 35 31 36 32 37 33 38 34 39 35 40 36 41 37 42 83 43
REMARK SMILES IDX 38 44 82 45 39 46 40 47 41 48 76 49 42 50 81 51 75 52 77 53
REMARK SMILES IDX 43 54 80 55 74 56 73 57 44 59 66 60 51 61 65 62 52 63 55 64
REMARK SMILES IDX 64 65 78 66 53 67 54 68 63 70 79 71 56 72 45 73 46 74 50 75
REMARK SMILES IDX 47 76 49 77 48 78 67 79 68 80 72 81 69 82 71 83 70 84 57 85
REMARK SMILES IDX 58 86 62 87 59 88 61 89 60 90
REMARK H PARENT 9 20 77 58 55 69
REMARK Flexibility Score: inf
ROOT
ATOM      1  C   UNL A   1      32.744  30.158  25.815  1.00  0.00     0.188 C 
ENDROOT
BRANCH   1   2
ATOM      2  O   UNL A   1      32.818  28.966  25.080  1.00  0.00    -0.376 OA
BRANCH   2   3
ATOM      3  C   UNL A   1      33.224  29.040  23.733  1.00  0.00     0.202 C 
BRANCH   3   4
ATOM      4  C   UNL A   1      32.254  28.402  22.764  1.00  0.00     0.261 C 
BRANCH   4   5
ATOM      5  O   UNL A   1      31.958  27.029  23.021  1.00  0.00    -0.459 OA
BRANCH   5   6
ATOM      6  C   UNL A   1      32.738  26.103  22.399  1.00  0.00     0.348 C 
ATOM      7  O   UNL A   1      33.677  26.360  21.664  1.00  0.00    -0.245 OA
BRANCH   6   8
ATOM      8  C   UNL A   1      32.129  24.811  22.554  1.00  0.00     0.119 A 
ATOM      9  C   UNL A   1      31.953  22.576  22.882  1.00  0.00     0.145 A 
ATOM     10  C   UNL A   1      30.882  22.999  23.625  1.00  0.00     0.113 A 
ATOM     11  C   UNL A   1      32.528  23.583  22.056  1.00  0.00     0.017 A 
ATOM     12  S   UNL A   1      30.737  24.694  23.549  1.00  0.00    -0.133 S 
ATOM     13  C   UNL A   1      33.575  23.292  21.024  1.00  0.00     0.050 C 
BRANCH   9  14
ATOM     14  O   UNL A   1      32.415  21.314  22.940  1.00  0.00    -0.424 OA
BRANCH  14  15
ATOM     15  C   UNL A   1      32.512  20.801  24.216  1.00  0.00     0.329 C 
ATOM     16  O   UNL A   1      31.647  20.822  25.086  1.00  0.00    -0.250 OA
BRANCH  15  17
ATOM     17  C   UNL A   1      33.862  20.143  24.398  1.00  0.00     0.177 C 
ATOM     18  C   UNL A   1      33.736  18.653  24.652  1.00  0.00     0.038 C 
BRANCH  17  19
ATOM     19  N   UNL A   1      34.468  20.896  25.491  1.00  0.00    -0.197 NA
ATOM     20  H   UNL A   1      33.707  21.107  26.137  1.00  0.00     0.142 HD
BRANCH  19  21
ATOM     21  S   UNL A   1      35.291  22.308  25.296  1.00  0.00     0.241 S 
ATOM     22  O   UNL A   1      35.465  22.501  23.869  1.00  0.00    -0.207 OA
ATOM     23  O   UNL A   1      36.413  22.226  26.192  1.00  0.00    -0.207 OA
BRANCH  21  24
ATOM     24  C   UNL A   1      34.219  23.586  25.886  1.00  0.00     0.082 A 
ATOM     25  C   UNL A   1      31.563  26.826  26.817  1.00  0.00     0.044 C 
ATOM     26  C   UNL A   1      32.484  25.684  26.506  1.00  0.00    -0.051 A 
ATOM     27  C   UNL A   1      33.667  25.930  25.799  1.00  0.00     0.005 A 
ATOM     28  C   UNL A   1      32.192  24.381  26.930  1.00  0.00     0.005 A 
ATOM     29  C   UNL A   1      34.524  24.883  25.476  1.00  0.00     0.022 A 
ATOM     30  C   UNL A   1      33.069  23.332  26.640  1.00  0.00     0.022 A 
ENDBRANCH  21  24
ENDBRANCH  19  21
ENDBRANCH  17  19
ENDBRANCH  15  17
ENDBRANCH  14  15
ENDBRANCH   9  14
ENDBRANCH   6   8
ENDBRANCH   5   6
ENDBRANCH   4   5
ENDBRANCH   3   4
ENDBRANCH   2   3
ENDBRANCH   1   2
BRANCH   1  31
ATOM     31  C   UNL A   1      33.525  30.208  27.137  1.00  0.00     0.188 C 
BRANCH  31  32
ATOM     32  O   UNL A   1      34.442  31.264  27.364  1.00  0.00    -0.377 OA
BRANCH  32  33
ATOM     33  C   UNL A   1      34.331  32.185  28.431  1.00  0.00     0.188 C 
BRANCH  33  34
ATOM     34  C   UNL A   1      34.362  33.660  28.066  1.00  0.00     0.188 C 
BRANCH  34  35
ATOM     35  O   UNL A   1      33.251  34.356  28.602  1.00  0.00    -0.376 OA
BRANCH  35  36
ATOM     36  C   UNL A   1      33.434  35.737  28.870  1.00  0.00     0.202 C 
BRANCH  36  37
ATOM     37  C   UNL A   1      32.708  36.139  30.156  1.00  0.00     0.261 C 
BRANCH  37  38
ATOM     38  O   UNL A   1      32.939  35.112  31.146  1.00  0.00    -0.460 OA
BRANCH  38  39
ATOM     39  C   UNL A   1      34.082  35.240  31.878  1.00  0.00     0.338 C 
ATOM     40  O   UNL A   1      34.449  36.257  32.443  1.00  0.00    -0.246 OA
BRANCH  39  41
ATOM     41  C   UNL A   1      34.961  34.043  31.698  1.00  0.00     0.060 A 
ATOM     42  C   UNL A   1      34.564  32.785  32.195  1.00  0.00     0.016 A 
ATOM     43  C   UNL A   1      36.271  34.218  31.266  1.00  0.00     0.016 A 
ATOM     44  C   UNL A   1      35.488  31.726  32.308  1.00  0.00     0.010 A 
ATOM     45  C   UNL A   1      37.187  33.194  31.443  1.00  0.00     0.010 A 
ATOM     46  C   UNL A   1      36.820  31.932  31.951  1.00  0.00    -0.014 A 
BRANCH  46  47
ATOM     47  C   UNL A   1      37.942  31.002  32.207  1.00  0.00     0.031 A 
ATOM     48  C   UNL A   1      38.167  29.811  31.333  1.00  0.00     0.074 A 
ATOM     49  C   UNL A   1      39.012  31.440  32.910  1.00  0.00     0.049 A 
ATOM     50  N   UNL A   1      39.149  28.981  31.460  1.00  0.00    -0.248 NA
ATOM     51  C   UNL A   1      37.285  29.434  30.230  1.00  0.00     0.031 C 
ATOM     52  C   UNL A   1      40.401  31.086  32.625  1.00  0.00     0.029 A 
ATOM     53  N   UNL A   1      39.148  32.398  33.890  1.00  0.00    -0.354 N 
ATOM     54  C   UNL A   1      39.302  28.356  30.246  1.00  0.00     0.074 A 
ATOM     55  C   UNL A   1      38.007  28.486  29.625  1.00  0.00     0.031 C 
ATOM     56  C   UNL A   1      41.219  31.619  33.534  1.00  0.00     0.029 A 
ATOM     57  C   UNL A   1      40.392  32.300  34.499  1.00  0.00     0.049 A 
ATOM     58  H   UNL A   1      38.458  33.058  34.127  1.00  0.00     0.167 HD
ATOM     59  C   UNL A   1      40.547  27.979  29.825  1.00  0.00     0.031 A 
ATOM     60  C   UNL A   1      40.693  32.408  35.812  1.00  0.00     0.031 A 
ATOM     61  C   UNL A   1      41.602  28.255  30.840  1.00  0.00     0.049 A 
ATOM     62  C   UNL A   1      41.272  31.050  36.148  1.00  0.00     0.074 A 
ATOM     63  C   UNL A   1      42.784  28.982  30.826  1.00  0.00     0.029 A 
ATOM     64  N   UNL A   1      41.376  27.956  32.195  1.00  0.00    -0.354 N 
ATOM     65  N   UNL A   1      40.936  29.986  35.444  1.00  0.00    -0.248 NA
ATOM     66  C   UNL A   1      42.444  30.811  36.988  1.00  0.00     0.031 C 
ATOM     67  C   UNL A   1      43.220  29.161  32.181  1.00  0.00     0.029 A 
ATOM     68  C   UNL A   1      42.318  28.536  33.037  1.00  0.00     0.049 A 
ATOM     69  H   UNL A   1      40.631  27.397  32.514  1.00  0.00     0.167 HD
ATOM     70  C   UNL A   1      41.991  29.122  35.454  1.00  0.00     0.074 A 
ATOM     71  C   UNL A   1      42.850  29.610  36.530  1.00  0.00     0.031 C 
ATOM     72  C   UNL A   1      42.345  28.234  34.474  1.00  0.00     0.031 A 
BRANCH  59  73
ATOM     73  C   UNL A   1      40.852  27.514  28.395  1.00  0.00    -0.014 A 
ATOM     74  C   UNL A   1      41.019  26.146  28.111  1.00  0.00     0.009 A 
ATOM     75  C   UNL A   1      41.004  28.366  27.278  1.00  0.00     0.009 A 
ATOM     76  C   UNL A   1      41.278  25.670  26.809  1.00  0.00     0.001 A 
ATOM     77  C   UNL A   1      41.226  27.901  25.971  1.00  0.00     0.001 A 
ATOM     78  C   UNL A   1      41.362  26.546  25.734  1.00  0.00     0.000 A 
ENDBRANCH  59  73
BRANCH  60  79
ATOM     79  C   UNL A   1      39.881  33.444  36.502  1.00  0.00    -0.014 A 
ATOM     80  C   UNL A   1      39.133  32.972  37.612  1.00  0.00     0.009 A 
ATOM     81  C   UNL A   1      40.336  34.773  36.550  1.00  0.00     0.009 A 
ATOM     82  C   UNL A   1      39.015  33.728  38.789  1.00  0.00     0.001 A 
ATOM     83  C   UNL A   1      40.251  35.510  37.747  1.00  0.00     0.001 A 
ATOM     84  C   UNL A   1      39.624  34.975  38.873  1.00  0.00     0.000 A 
ENDBRANCH  60  79
BRANCH  72  85
ATOM     85  C   UNL A   1      42.669  26.836  34.910  1.00  0.00    -0.014 A 
ATOM     86  C   UNL A   1      41.690  25.956  35.396  1.00  0.00     0.009 A 
ATOM     87  C   UNL A   1      43.950  26.312  34.657  1.00  0.00     0.009 A 
ATOM     88  C   UNL A   1      41.992  24.623  35.660  1.00  0.00     0.001 A 
ATOM     89  C   UNL A   1      44.241  24.969  34.871  1.00  0.00     0.001 A 
ATOM     90  C   UNL A   1      43.265  24.129  35.390  1.00  0.00     0.000 A 
ENDBRANCH  72  85
ENDBRANCH  46  47
ENDBRANCH  39  41
ENDBRANCH  38  39
ENDBRANCH  37  38
ENDBRANCH  36  37
ENDBRANCH  35  36
ENDBRANCH  34  35
ENDBRANCH  33  34
ENDBRANCH  32  33
ENDBRANCH  31  32
ENDBRANCH   1  31
TORSDOF 26
ENDMDL
MODEL 3
REMARK VINA RESULT:      -9.8      1.653      3.329
REMARK SMILES Cc1ccc(S(=O)(=O)N[C@@H](C)C(=O)Oc2csc(C(=O)OCCOCCOCCOCCOC(=O)c3ccc(-c4c5nc(c(-c6ccccc6)c6ccc([nH]6)c(-c6ccccc6)c6nc(c(-c7ccccc7)c7ccc4[nH]7)C=C6)C=C5)cc3)c2C)cc1
REMARK SMILES IDX 25 1 24 2 23 3 22 4 21 5 19 6 20 7 18 8 15 9 16 10 84 11
REMARK SMILES IDX 17 12 85 13 14 14 12 15 13 16 10 17 11 18 9 19 6 21 7 22
REMARK SMILES IDX 8 23 5 24 1 25 2 26 3 27 87 28 4 29 86 30 26 31 27 32 28 33
REMARK SMILES IDX 29 34 30 35 31 36 32 37 33 38 34 39 35 40 36 41 37 42 83 43
REMARK SMILES IDX 38 44 82 45 39 46 40 47 41 48 76 49 42 50 81 51 75 52 77 53
REMARK SMILES IDX 43 54 80 55 74 56 73 57 44 59 66 60 51 61 65 62 52 63 55 64
REMARK SMILES IDX 64 65 78 66 53 67 54 68 63 70 79 71 56 72 45 73 46 74 50 75
REMARK SMILES IDX 47 76 49 77 48 78 67 79 68 80 72 81 69 82 71 83 70 84 57 85
REMARK SMILES IDX 58 86 62 87 59 88 61 89 60 90
REMARK H PARENT 9 20 77 58 55 69
REMARK Flexibility Score: inf
ROOT
ATOM      1  C   UNL A   1      32.816  30.450  26.767  1.00  0.00     0.188 C 
ENDROOT
BRANCH   1   2
ATOM      2  O   UNL A   1      32.937  29.302  25.971  1.00  0.00    -0.376 OA
BRANCH   2   3
ATOM      3  C   UNL A   1      31.779  28.538  25.725  1.00  0.00     0.202 C 
BRANCH   3   4
ATOM      4  C   UNL A   1      31.755  27.211  26.449  1.00  0.00     0.261 C 
BRANCH   4   5
ATOM      5  O   UNL A   1      32.395  26.135  25.762  1.00  0.00    -0.459 OA
BRANCH   5   6
ATOM      6  C   UNL A   1      32.306  24.901  26.328  1.00  0.00     0.348 C 
ATOM      7  O   UNL A   1      31.320  24.464  26.898  1.00  0.00    -0.245 OA
BRANCH   6   8
ATOM      8  C   UNL A   1      33.616  24.311  26.355  1.00  0.00     0.119 A 
ATOM      9  C   UNL A   1      35.222  22.713  26.344  1.00  0.00     0.145 A 
ATOM     10  C   UNL A   1      35.828  23.649  25.547  1.00  0.00     0.113 A 
ATOM     11  C   UNL A   1      34.061  23.183  27.022  1.00  0.00     0.017 A 
ATOM     12  S   UNL A   1      34.836  25.024  25.384  1.00  0.00    -0.133 S 
ATOM     13  C   UNL A   1      33.362  22.394  28.086  1.00  0.00     0.050 C 
BRANCH   9  14
ATOM     14  O   UNL A   1      35.692  21.459  26.465  1.00  0.00    -0.424 OA
BRANCH  14  15
ATOM     15  C   UNL A   1      35.767  20.762  25.278  1.00  0.00     0.329 C 
ATOM     16  O   UNL A   1      36.761  20.606  24.576  1.00  0.00    -0.250 OA
BRANCH  15  17
ATOM     17  C   UNL A   1      34.419  20.152  24.962  1.00  0.00     0.177 C 
ATOM     18  C   UNL A   1      34.547  18.730  24.451  1.00  0.00     0.038 C 
BRANCH  17  19
ATOM     19  N   UNL A   1      33.832  21.088  24.007  1.00  0.00    -0.197 NA
ATOM     20  H   UNL A   1      34.124  22.016  24.315  1.00  0.00     0.142 HD
BRANCH  19  21
ATOM     21  S   UNL A   1      32.218  21.207  23.704  1.00  0.00     0.241 S 
ATOM     22  O   UNL A   1      31.532  20.904  24.946  1.00  0.00    -0.207 OA
ATOM     23  O   UNL A   1      31.994  20.442  22.507  1.00  0.00    -0.207 OA
BRANCH  21  24
ATOM     24  C   UNL A   1      31.916  22.909  23.324  1.00  0.00     0.082 A 
ATOM     25  C   UNL A   1      31.300  26.913  21.908  1.00  0.00     0.044 C 
ATOM     26  C   UNL A   1      31.501  25.517  22.415  1.00  0.00    -0.051 A 
ATOM     27  C   UNL A   1      32.732  24.883  22.207  1.00  0.00     0.005 A 
ATOM     28  C   UNL A   1      30.489  24.845  23.113  1.00  0.00     0.005 A 
ATOM     29  C   UNL A   1      32.934  23.578  22.645  1.00  0.00     0.022 A 
ATOM     30  C   UNL A   1      30.701  23.548  23.588  1.00  0.00     0.022 A 
ENDBRANCH  21  24
ENDBRANCH  19  21
ENDBRANCH  17  19
ENDBRANCH  15  17
ENDBRANCH  14  15
ENDBRANCH   9  14
ENDBRANCH   6   8
ENDBRANCH   5   6
ENDBRANCH   4   5
ENDBRANCH   3   4
ENDBRANCH   2   3
ENDBRANCH   1   2
BRANCH   1  31
ATOM     31  C   UNL A   1      34.032  30.831  27.625  1.00  0.00     0.188 C 
BRANCH  31  32
ATOM     32  O   UNL A   1      34.594  32.126  27.499  1.00  0.00    -0.377 OA
BRANCH  32  33
ATOM     33  C   UNL A   1      34.732  33.030  28.578  1.00  0.00     0.188 C 
BRANCH  33  34
ATOM     34  C   UNL A   1      34.229  34.446  28.351  1.00  0.00     0.188 C 
BRANCH  34  35
ATOM     35  O   UNL A   1      33.207  34.793  29.269  1.00  0.00    -0.376 OA
BRANCH  35  36
ATOM     36  C   UNL A   1      32.919  36.175  29.408  1.00  0.00     0.202 C 
BRANCH  36  37
ATOM     37  C   UNL A   1      32.857  36.568  30.886  1.00  0.00     0.261 C 
BRANCH  37  38
ATOM     38  O   UNL A   1      33.410  35.483  31.666  1.00  0.00    -0.460 OA
BRANCH  38  39
ATOM     39  C   UNL A   1      33.905  35.825  32.889  1.00  0.00     0.338 C 
ATOM     40  O   UNL A   1      33.455  36.695  33.616  1.00  0.00    -0.246 OA
BRANCH  39  41
ATOM     41  C   UNL A   1      35.228  35.166  33.124  1.00  0.00     0.060 A 
ATOM     42  C   UNL A   1      36.177  35.080  32.086  1.00  0.00     0.016 A 
ATOM     43  C   UNL A   1      35.423  34.423  34.283  1.00  0.00     0.016 A 
ATOM     44  C   UNL A   1      37.285  34.214  32.187  1.00  0.00     0.010 A 
ATOM     45  C   UNL A   1      36.476  33.526  34.345  1.00  0.00     0.010 A 
ATOM     46  C   UNL A   1      37.430  33.409  33.315  1.00  0.00    -0.014 A 
BRANCH  46  47
ATOM     47  C   UNL A   1      38.406  32.309  33.477  1.00  0.00     0.031 A 
ATOM     48  C   UNL A   1      38.345  31.094  32.610  1.00  0.00     0.074 A 
ATOM     49  C   UNL A   1      39.600  32.568  34.061  1.00  0.00     0.049 A 
ATOM     50  N   UNL A   1      39.187  30.114  32.656  1.00  0.00    -0.248 NA
ATOM     51  C   UNL A   1      37.306  30.862  31.608  1.00  0.00     0.031 C 
ATOM     52  C   UNL A   1      40.876  31.990  33.648  1.00  0.00     0.029 A 
ATOM     53  N   UNL A   1      39.988  33.494  35.004  1.00  0.00    -0.354 N 
ATOM     54  C   UNL A   1      39.112  29.468  31.445  1.00  0.00     0.074 A 
ATOM     55  C   UNL A   1      37.800  29.805  30.954  1.00  0.00     0.031 C 
ATOM     56  C   UNL A   1      41.857  32.386  34.459  1.00  0.00     0.029 A 
ATOM     57  C   UNL A   1      41.254  33.197  35.488  1.00  0.00     0.049 A 
ATOM     58  H   UNL A   1      39.442  34.260  35.294  1.00  0.00     0.167 HD
ATOM     59  C   UNL A   1      40.231  28.890  30.912  1.00  0.00     0.031 A 
ATOM     60  C   UNL A   1      41.700  33.259  36.762  1.00  0.00     0.031 A 
ATOM     61  C   UNL A   1      41.414  28.994  31.811  1.00  0.00     0.049 A 
ATOM     62  C   UNL A   1      42.082  31.826  37.067  1.00  0.00     0.074 A 
ATOM     63  C   UNL A   1      42.690  29.517  31.664  1.00  0.00     0.029 A 
ATOM     64  N   UNL A   1      41.280  28.741  33.188  1.00  0.00    -0.354 N 
ATOM     65  N   UNL A   1      41.507  30.829  36.421  1.00  0.00    -0.248 NA
ATOM     66  C   UNL A   1      43.278  31.401  37.792  1.00  0.00     0.031 C 
ATOM     67  C   UNL A   1      43.285  29.627  32.966  1.00  0.00     0.029 A 
ATOM     68  C   UNL A   1      42.385  29.162  33.919  1.00  0.00     0.049 A 
ATOM     69  H   UNL A   1      40.490  28.313  33.590  1.00  0.00     0.167 HD
ATOM     70  C   UNL A   1      42.403  29.803  36.345  1.00  0.00     0.074 A 
ATOM     71  C   UNL A   1      43.435  30.149  37.320  1.00  0.00     0.031 C 
ATOM     72  C   UNL A   1      42.507  28.865  35.353  1.00  0.00     0.031 A 
BRANCH  59  73
ATOM     73  C   UNL A   1      40.309  28.376  29.468  1.00  0.00    -0.014 A 
ATOM     74  C   UNL A   1      39.707  27.155  29.113  1.00  0.00     0.009 A 
ATOM     75  C   UNL A   1      40.972  29.031  28.406  1.00  0.00     0.009 A 
ATOM     76  C   UNL A   1      39.734  26.652  27.795  1.00  0.00     0.001 A 
ATOM     77  C   UNL A   1      40.975  28.559  27.083  1.00  0.00     0.001 A 
ATOM     78  C   UNL A   1      40.351  27.365  26.775  1.00  0.00     0.000 A 
ENDBRANCH  59  73
BRANCH  60  79
ATOM     79  C   UNL A   1      41.142  34.417  37.508  1.00  0.00    -0.014 A 
ATOM     80  C   UNL A   1      40.384  34.074  38.658  1.00  0.00     0.009 A 
ATOM     81  C   UNL A   1      41.842  35.635  37.537  1.00  0.00     0.009 A 
ATOM     82  C   UNL A   1      40.482  34.817  39.846  1.00  0.00     0.001 A 
ATOM     83  C   UNL A   1      41.970  36.352  38.742  1.00  0.00     0.001 A 
ATOM     84  C   UNL A   1      41.320  35.925  39.901  1.00  0.00     0.000 A 
ENDBRANCH  60  79
BRANCH  72  85
ATOM     85  C   UNL A   1      42.642  27.435  35.783  1.00  0.00    -0.014 A 
ATOM     86  C   UNL A   1      41.821  26.868  36.770  1.00  0.00     0.009 A 
ATOM     87  C   UNL A   1      43.483  26.571  35.057  1.00  0.00     0.009 A 
ATOM     88  C   UNL A   1      41.873  25.505  37.049  1.00  0.00     0.001 A 
ATOM     89  C   UNL A   1      43.499  25.201  35.299  1.00  0.00     0.001 A 
ATOM     90  C   UNL A   1      42.706  24.672  36.308  1.00  0.00     0.000 A 
ENDBRANCH  72  85
ENDBRANCH  46  47
ENDBRANCH  39  41
ENDBRANCH  38  39
ENDBRANCH  37  38
ENDBRANCH  36  37
ENDBRANCH  35  36
ENDBRANCH  34  35
ENDBRANCH  33  34
ENDBRANCH  32  33
ENDBRANCH  31  32
ENDBRANCH   1  31
TORSDOF 26
ENDMDL
