MODEL 1
REMARK VINA RESULT:     -10.8      0.000      0.000
REMARK SMILES Cc1cc(NC(=O)c2ccc(Br)cc2N)ccc1C(=O)OCCOCCOCCOCCOC(=O)c1ccc(-c2c3nc(c(-c4ccccc4)c4ccc([nH]4)c(-c4ccccc4)c4nc(c(-c5ccccc5)c5ccc2[nH]5)C=C4)C=C3)cc1
REMARK SMILES IDX 26 1 25 2 24 3 23 4 22 5 21 6 19 7 20 8 18 9 1 10 2 11 3 12
REMARK SMILES IDX 4 13 17 14 16 15 5 16 6 17 7 19 8 20 9 21 14 22 10 23 13 24
REMARK SMILES IDX 11 25 12 26 15 27 27 30 28 31 29 32 30 33 31 34 32 35 33 36
REMARK SMILES IDX 34 37 35 38 36 39 37 40 83 41 38 42 82 43 39 44 40 45 41 46
REMARK SMILES IDX 76 47 42 48 81 49 75 50 77 51 43 52 80 53 74 54 73 55 44 57
REMARK SMILES IDX 66 58 51 59 65 60 52 61 55 62 64 63 78 64 53 65 54 66 63 68
REMARK SMILES IDX 79 69 56 70 45 71 46 72 50 73 47 74 49 75 48 76 67 77 68 78
REMARK SMILES IDX 72 79 69 80 71 81 70 82 57 83 58 84 62 85 59 86 61 87 60 88
REMARK H PARENT 5 18 15 28 15 29 77 56 55 67
REMARK Flexibility Score: inf
ROOT
ATOM      1  C   UNL A   1      40.057  23.025  26.868  1.00  0.00     0.188 C 
ENDROOT
BRANCH   1   2
ATOM      2  C   UNL A   1      38.684  23.576  26.431  1.00  0.00     0.188 C 
BRANCH   2   3
ATOM      3  O   UNL A   1      37.615  22.713  26.087  1.00  0.00    -0.376 OA
BRANCH   3   4
ATOM      4  C   UNL A   1      37.496  22.361  24.713  1.00  0.00     0.202 C 
BRANCH   4   5
ATOM      5  C   UNL A   1      36.357  22.945  23.898  1.00  0.00     0.261 C 
BRANCH   5   6
ATOM      6  O   UNL A   1      35.240  23.079  24.766  1.00  0.00    -0.460 OA
BRANCH   6   7
ATOM      7  C   UNL A   1      34.455  21.998  24.821  1.00  0.00     0.338 C 
ATOM      8  O   UNL A   1      34.748  20.881  25.189  1.00  0.00    -0.246 OA
BRANCH   7   9
ATOM      9  C   UNL A   1      33.068  22.493  24.726  1.00  0.00     0.063 A 
ATOM     10  C   UNL A   1      32.604  22.801  27.252  1.00  0.00     0.045 C 
ATOM     11  C   UNL A   1      32.241  22.863  25.801  1.00  0.00    -0.035 A 
ATOM     12  C   UNL A   1      31.026  23.468  25.494  1.00  0.00     0.030 A 
ATOM     13  C   UNL A   1      30.704  23.740  24.171  1.00  0.00     0.041 A 
ATOM     14  C   UNL A   1      32.577  22.506  23.409  1.00  0.00     0.018 A 
ATOM     15  C   UNL A   1      31.365  23.106  23.126  1.00  0.00     0.027 A 
BRANCH  13  16
ATOM     16  N   UNL A   1      29.904  24.828  23.840  1.00  0.00    -0.322 N 
ATOM     17  C   UNL A   1      30.092  26.165  24.137  1.00  0.00     0.257 C 
ATOM     18  H   UNL A   1      29.093  24.617  23.323  1.00  0.00     0.170 HD
ATOM     19  O   UNL A   1      29.184  26.943  23.833  1.00  0.00    -0.269 OA
BRANCH  17  20
ATOM     20  C   UNL A   1      31.325  26.741  24.783  1.00  0.00     0.063 A 
ATOM     21  C   UNL A   1      31.083  27.314  26.047  1.00  0.00     0.017 A 
ATOM     22  C   UNL A   1      32.630  26.826  24.234  1.00  0.00     0.045 A 
ATOM     23  C   UNL A   1      32.090  27.965  26.761  1.00  0.00     0.016 A 
ATOM     24  C   UNL A   1      33.639  27.467  24.984  1.00  0.00     0.042 A 
ATOM     25  C   UNL A   1      33.368  28.034  26.227  1.00  0.00     0.020 A 
ATOM     26  Br  UNL A   1      34.731  28.953  27.160  1.00  0.00    -0.051 Br
BRANCH  22  27
ATOM     27  N   UNL A   1      32.975  26.478  22.927  1.00  0.00    -0.398 N 
ATOM     28  H   UNL A   1      32.774  27.094  22.185  1.00  0.00     0.156 HD
ATOM     29  H   UNL A   1      33.418  25.619  22.746  1.00  0.00     0.156 HD
ENDBRANCH  22  27
ENDBRANCH  17  20
ENDBRANCH  13  16
ENDBRANCH   7   9
ENDBRANCH   6   7
ENDBRANCH   5   6
ENDBRANCH   4   5
ENDBRANCH   3   4
ENDBRANCH   2   3
ENDBRANCH   1   2
BRANCH   1  30
ATOM     30  O   UNL A   1      40.645  21.917  26.210  1.00  0.00    -0.377 OA
BRANCH  30  31
ATOM     31  C   UNL A   1      40.797  20.693  26.922  1.00  0.00     0.188 C 
BRANCH  31  32
ATOM     32  C   UNL A   1      40.713  19.398  26.126  1.00  0.00     0.188 C 
BRANCH  32  33
ATOM     33  O   UNL A   1      41.916  19.252  25.376  1.00  0.00    -0.376 OA
BRANCH  33  34
ATOM     34  C   UNL A   1      43.004  18.630  26.053  1.00  0.00     0.202 C 
BRANCH  34  35
ATOM     35  C   UNL A   1      44.357  18.841  25.369  1.00  0.00     0.261 C 
BRANCH  35  36
ATOM     36  O   UNL A   1      44.336  20.080  24.632  1.00  0.00    -0.460 OA
BRANCH  36  37
ATOM     37  C   UNL A   1      45.034  21.104  25.195  1.00  0.00     0.338 C 
ATOM     38  O   UNL A   1      46.199  21.051  25.553  1.00  0.00    -0.246 OA
BRANCH  37  39
ATOM     39  C   UNL A   1      44.101  22.198  25.589  1.00  0.00     0.060 A 
ATOM     40  C   UNL A   1      43.640  23.110  24.623  1.00  0.00     0.016 A 
ATOM     41  C   UNL A   1      43.996  22.521  26.932  1.00  0.00     0.016 A 
ATOM     42  C   UNL A   1      43.278  24.414  25.001  1.00  0.00     0.010 A 
ATOM     43  C   UNL A   1      43.757  23.834  27.275  1.00  0.00     0.010 A 
ATOM     44  C   UNL A   1      43.453  24.814  26.321  1.00  0.00    -0.014 A 
BRANCH  44  45
ATOM     45  C   UNL A   1      43.491  26.212  26.801  1.00  0.00     0.031 A 
ATOM     46  C   UNL A   1      42.189  26.953  26.950  1.00  0.00     0.074 A 
ATOM     47  C   UNL A   1      44.605  26.648  27.455  1.00  0.00     0.049 A 
ATOM     48  N   UNL A   1      42.058  28.104  27.509  1.00  0.00    -0.248 NA
ATOM     49  C   UNL A   1      40.885  26.411  26.557  1.00  0.00     0.031 C 
ATOM     50  C   UNL A   1      44.697  27.747  28.420  1.00  0.00     0.029 A 
ATOM     51  N   UNL A   1      45.917  26.189  27.454  1.00  0.00    -0.354 N 
ATOM     52  C   UNL A   1      40.736  28.287  27.867  1.00  0.00     0.074 A 
ATOM     53  C   UNL A   1      40.033  27.233  27.185  1.00  0.00     0.031 C 
ATOM     54  C   UNL A   1      45.969  27.992  28.761  1.00  0.00     0.029 A 
ATOM     55  C   UNL A   1      46.765  27.235  27.837  1.00  0.00     0.049 A 
ATOM     56  H   UNL A   1      46.203  25.275  27.224  1.00  0.00     0.167 HD
ATOM     57  C   UNL A   1      40.433  29.239  28.802  1.00  0.00     0.031 A 
ATOM     58  C   UNL A   1      47.621  27.843  26.964  1.00  0.00     0.031 A 
ATOM     59  C   UNL A   1      41.611  30.075  29.122  1.00  0.00     0.049 A 
ATOM     60  C   UNL A   1      47.099  29.273  26.725  1.00  0.00     0.074 A 
ATOM     61  C   UNL A   1      42.277  30.424  30.283  1.00  0.00     0.029 A 
ATOM     62  N   UNL A   1      42.424  30.524  28.075  1.00  0.00    -0.354 N 
ATOM     63  N   UNL A   1      45.817  29.592  26.723  1.00  0.00    -0.248 NA
ATOM     64  C   UNL A   1      47.955  30.456  26.833  1.00  0.00     0.031 C 
ATOM     65  C   UNL A   1      43.575  30.901  29.914  1.00  0.00     0.029 A 
ATOM     66  C   UNL A   1      43.666  30.927  28.525  1.00  0.00     0.049 A 
ATOM     67  H   UNL A   1      42.144  30.550  27.132  1.00  0.00     0.167 HD
ATOM     68  C   UNL A   1      45.683  30.921  27.059  1.00  0.00     0.074 A 
ATOM     69  C   UNL A   1      47.050  31.433  27.033  1.00  0.00     0.031 C 
ATOM     70  C   UNL A   1      44.598  31.565  27.603  1.00  0.00     0.031 A 
BRANCH  57  71
ATOM     71  C   UNL A   1      39.121  29.334  29.579  1.00  0.00    -0.014 A 
ATOM     72  C   UNL A   1      38.082  30.158  29.095  1.00  0.00     0.009 A 
ATOM     73  C   UNL A   1      38.862  28.721  30.822  1.00  0.00     0.009 A 
ATOM     74  C   UNL A   1      36.878  30.358  29.793  1.00  0.00     0.001 A 
ATOM     75  C   UNL A   1      37.644  28.889  31.513  1.00  0.00     0.001 A 
ATOM     76  C   UNL A   1      36.653  29.714  30.999  1.00  0.00     0.000 A 
ENDBRANCH  57  71
BRANCH  58  77
ATOM     77  C   UNL A   1      48.307  26.817  26.114  1.00  0.00    -0.014 A 
ATOM     78  C   UNL A   1      48.619  27.284  24.809  1.00  0.00     0.009 A 
ATOM     79  C   UNL A   1      49.178  25.873  26.685  1.00  0.00     0.009 A 
ATOM     80  C   UNL A   1      49.882  27.062  24.242  1.00  0.00     0.001 A 
ATOM     81  C   UNL A   1      50.427  25.617  26.082  1.00  0.00     0.001 A 
ATOM     82  C   UNL A   1      50.809  26.272  24.909  1.00  0.00     0.000 A 
ENDBRANCH  58  77
BRANCH  70  83
ATOM     83  C   UNL A   1      44.245  32.976  27.185  1.00  0.00    -0.014 A 
ATOM     84  C   UNL A   1      44.052  33.340  25.849  1.00  0.00     0.009 A 
ATOM     85  C   UNL A   1      43.849  33.915  28.169  1.00  0.00     0.009 A 
ATOM     86  C   UNL A   1      43.500  34.578  25.513  1.00  0.00     0.001 A 
ATOM     87  C   UNL A   1      43.248  35.128  27.838  1.00  0.00     0.001 A 
ATOM     88  C   UNL A   1      43.081  35.461  26.504  1.00  0.00     0.000 A 
ENDBRANCH  70  83
ENDBRANCH  44  45
ENDBRANCH  37  39
ENDBRANCH  36  37
ENDBRANCH  35  36
ENDBRANCH  34  35
ENDBRANCH  33  34
ENDBRANCH  32  33
ENDBRANCH  31  32
ENDBRANCH  30  31
ENDBRANCH   1  30
TORSDOF 23
ENDMDL
MODEL 2
REMARK VINA RESULT:      -9.5      3.209      8.415
REMARK SMILES Cc1cc(NC(=O)c2ccc(Br)cc2N)ccc1C(=O)OCCOCCOCCOCCOC(=O)c1ccc(-c2c3nc(c(-c4ccccc4)c4ccc([nH]4)c(-c4ccccc4)c4nc(c(-c5ccccc5)c5ccc2[nH]5)C=C4)C=C3)cc1
REMARK SMILES IDX 26 1 25 2 24 3 23 4 22 5 21 6 19 7 20 8 18 9 1 10 2 11 3 12
REMARK SMILES IDX 4 13 17 14 16 15 5 16 6 17 7 19 8 20 9 21 14 22 10 23 13 24
REMARK SMILES IDX 11 25 12 26 15 27 27 30 28 31 29 32 30 33 31 34 32 35 33 36
REMARK SMILES IDX 34 37 35 38 36 39 37 40 83 41 38 42 82 43 39 44 40 45 41 46
REMARK SMILES IDX 76 47 42 48 81 49 75 50 77 51 43 52 80 53 74 54 73 55 44 57
REMARK SMILES IDX 66 58 51 59 65 60 52 61 55 62 64 63 78 64 53 65 54 66 63 68
REMARK SMILES IDX 79 69 56 70 45 71 46 72 50 73 47 74 49 75 48 76 67 77 68 78
REMARK SMILES IDX 72 79 69 80 71 81 70 82 57 83 58 84 62 85 59 86 61 87 60 88
REMARK H PARENT 5 18 15 28 15 29 77 56 55 67
REMARK Flexibility Score: inf
ROOT
ATOM      1  C   UNL A   1      34.223  33.466  29.314  1.00  0.00     0.188 C 
ENDROOT
BRANCH   1   2
ATOM      2  C   UNL A   1      34.632  32.511  28.174  1.00  0.00     0.188 C 
BRANCH   2   3
ATOM      3  O   UNL A   1      33.665  31.814  27.408  1.00  0.00    -0.376 OA
BRANCH   3   4
ATOM      4  C   UNL A   1      33.640  30.397  27.550  1.00  0.00     0.202 C 
BRANCH   4   5
ATOM      5  C   UNL A   1      34.551  29.554  26.677  1.00  0.00     0.261 C 
BRANCH   5   6
ATOM      6  O   UNL A   1      33.797  28.434  26.234  1.00  0.00    -0.460 OA
BRANCH   6   7
ATOM      7  C   UNL A   1      32.991  28.692  25.198  1.00  0.00     0.338 C 
ATOM      8  O   UNL A   1      33.225  29.370  24.222  1.00  0.00    -0.246 OA
BRANCH   7   9
ATOM      9  C   UNL A   1      31.910  27.690  25.261  1.00  0.00     0.063 A 
ATOM     10  C   UNL A   1      31.261  27.679  22.756  1.00  0.00     0.045 C 
ATOM     11  C   UNL A   1      31.143  27.225  24.178  1.00  0.00    -0.035 A 
ATOM     12  C   UNL A   1      30.288  26.152  24.415  1.00  0.00     0.030 A 
ATOM     13  C   UNL A   1      30.268  25.546  25.664  1.00  0.00     0.041 A 
ATOM     14  C   UNL A   1      31.638  27.255  26.569  1.00  0.00     0.018 A 
ATOM     15  C   UNL A   1      30.781  26.191  26.783  1.00  0.00     0.027 A 
BRANCH  13  16
ATOM     16  N   UNL A   1      29.976  24.194  25.797  1.00  0.00    -0.322 N 
ATOM     17  C   UNL A   1      30.847  23.121  25.862  1.00  0.00     0.257 C 
ATOM     18  H   UNL A   1      29.019  23.969  25.855  1.00  0.00     0.170 HD
ATOM     19  O   UNL A   1      30.349  21.992  25.867  1.00  0.00    -0.269 OA
BRANCH  17  20
ATOM     20  C   UNL A   1      32.346  23.230  25.943  1.00  0.00     0.063 A 
ATOM     21  C   UNL A   1      32.936  23.758  24.777  1.00  0.00     0.017 A 
ATOM     22  C   UNL A   1      33.189  22.802  27.001  1.00  0.00     0.045 A 
ATOM     23  C   UNL A   1      34.322  23.861  24.640  1.00  0.00     0.016 A 
ATOM     24  C   UNL A   1      34.586  22.937  26.850  1.00  0.00     0.042 A 
ATOM     25  C   UNL A   1      35.142  23.453  25.682  1.00  0.00     0.020 A 
ATOM     26  Br  UNL A   1      37.020  23.541  25.492  1.00  0.00    -0.051 Br
BRANCH  22  27
ATOM     27  N   UNL A   1      32.767  22.091  28.125  1.00  0.00    -0.398 N 
ATOM     28  H   UNL A   1      33.160  21.211  28.327  1.00  0.00     0.156 HD
ATOM     29  H   UNL A   1      32.077  22.469  28.716  1.00  0.00     0.156 HD
ENDBRANCH  22  27
ENDBRANCH  17  20
ENDBRANCH  13  16
ENDBRANCH   7   9
ENDBRANCH   6   7
ENDBRANCH   5   6
ENDBRANCH   4   5
ENDBRANCH   3   4
ENDBRANCH   2   3
ENDBRANCH   1   2
BRANCH   1  30
ATOM     30  O   UNL A   1      35.192  34.222  30.019  1.00  0.00    -0.377 OA
BRANCH  30  31
ATOM     31  C   UNL A   1      35.985  33.574  31.010  1.00  0.00     0.188 C 
BRANCH  31  32
ATOM     32  C   UNL A   1      35.257  32.846  32.131  1.00  0.00     0.188 C 
BRANCH  32  33
ATOM     33  O   UNL A   1      35.811  31.538  32.251  1.00  0.00    -0.376 OA
BRANCH  33  34
ATOM     34  C   UNL A   1      36.847  31.210  31.331  1.00  0.00     0.202 C 
BRANCH  34  35
ATOM     35  C   UNL A   1      36.843  29.741  30.898  1.00  0.00     0.261 C 
BRANCH  35  36
ATOM     36  O   UNL A   1      37.427  29.625  29.585  1.00  0.00    -0.460 OA
BRANCH  36  37
ATOM     37  C   UNL A   1      38.385  28.668  29.456  1.00  0.00     0.338 C 
ATOM     38  O   UNL A   1      38.420  27.616  30.075  1.00  0.00    -0.246 OA
BRANCH  37  39
ATOM     39  C   UNL A   1      39.541  29.206  28.683  1.00  0.00     0.060 A 
ATOM     40  C   UNL A   1      39.697  28.870  27.327  1.00  0.00     0.016 A 
ATOM     41  C   UNL A   1      40.621  29.715  29.386  1.00  0.00     0.016 A 
ATOM     42  C   UNL A   1      40.977  28.846  26.750  1.00  0.00     0.010 A 
ATOM     43  C   UNL A   1      41.881  29.570  28.846  1.00  0.00     0.010 A 
ATOM     44  C   UNL A   1      42.090  29.082  27.549  1.00  0.00    -0.014 A 
BRANCH  44  45
ATOM     45  C   UNL A   1      43.486  28.729  27.213  1.00  0.00     0.031 A 
ATOM     46  C   UNL A   1      44.465  29.845  26.963  1.00  0.00     0.074 A 
ATOM     47  C   UNL A   1      43.936  27.480  27.519  1.00  0.00     0.049 A 
ATOM     48  N   UNL A   1      45.736  29.692  26.826  1.00  0.00    -0.248 NA
ATOM     49  C   UNL A   1      44.104  31.265  26.936  1.00  0.00     0.031 C 
ATOM     50  C   UNL A   1      45.322  27.066  27.751  1.00  0.00     0.029 A 
ATOM     51  N   UNL A   1      43.264  26.284  27.744  1.00  0.00    -0.354 N 
ATOM     52  C   UNL A   1      46.365  30.901  27.050  1.00  0.00     0.074 A 
ATOM     53  C   UNL A   1      45.297  31.866  27.043  1.00  0.00     0.031 C 
ATOM     54  C   UNL A   1      45.418  25.737  27.891  1.00  0.00     0.029 A 
ATOM     55  C   UNL A   1      44.138  25.218  27.501  1.00  0.00     0.049 A 
ATOM     56  H   UNL A   1      42.325  26.200  28.031  1.00  0.00     0.167 HD
ATOM     57  C   UNL A   1      47.702  30.902  27.341  1.00  0.00     0.031 A 
ATOM     58  C   UNL A   1      44.001  24.387  26.426  1.00  0.00     0.031 A 
ATOM     59  C   UNL A   1      48.296  29.561  27.151  1.00  0.00     0.049 A 
ATOM     60  C   UNL A   1      45.176  24.667  25.471  1.00  0.00     0.074 A 
ATOM     61  C   UNL A   1      49.036  28.697  27.939  1.00  0.00     0.029 A 
ATOM     62  N   UNL A   1      47.948  28.823  26.014  1.00  0.00    -0.354 N 
ATOM     63  N   UNL A   1      45.724  25.859  25.317  1.00  0.00    -0.248 NA
ATOM     64  C   UNL A   1      46.021  23.604  24.921  1.00  0.00     0.031 C 
ATOM     65  C   UNL A   1      48.952  27.394  27.355  1.00  0.00     0.029 A 
ATOM     66  C   UNL A   1      48.237  27.481  26.163  1.00  0.00     0.049 A 
ATOM     67  H   UNL A   1      47.545  29.213  25.206  1.00  0.00     0.167 HD
ATOM     68  C   UNL A   1      47.027  25.705  24.897  1.00  0.00     0.074 A 
ATOM     69  C   UNL A   1      47.133  24.284  24.584  1.00  0.00     0.031 C 
ATOM     70  C   UNL A   1      48.082  26.576  25.030  1.00  0.00     0.031 A 
BRANCH  57  71
ATOM     71  C   UNL A   1      48.474  32.063  27.967  1.00  0.00    -0.014 A 
ATOM     72  C   UNL A   1      49.210  32.937  27.138  1.00  0.00     0.009 A 
ATOM     73  C   UNL A   1      48.595  32.312  29.348  1.00  0.00     0.009 A 
ATOM     74  C   UNL A   1      50.007  33.979  27.646  1.00  0.00     0.001 A 
ATOM     75  C   UNL A   1      49.364  33.375  29.864  1.00  0.00     0.001 A 
ATOM     76  C   UNL A   1      50.076  34.206  29.011  1.00  0.00     0.000 A 
ENDBRANCH  57  71
BRANCH  58  77
ATOM     77  C   UNL A   1      42.560  24.014  26.243  1.00  0.00    -0.014 A 
ATOM     78  C   UNL A   1      42.122  23.003  27.140  1.00  0.00     0.009 A 
ATOM     79  C   UNL A   1      41.614  24.970  25.839  1.00  0.00     0.009 A 
ATOM     80  C   UNL A   1      40.908  23.123  27.831  1.00  0.00     0.001 A 
ATOM     81  C   UNL A   1      40.373  25.054  26.506  1.00  0.00     0.001 A 
ATOM     82  C   UNL A   1      40.058  24.185  27.553  1.00  0.00     0.000 A 
ENDBRANCH  58  77
BRANCH  70  83
ATOM     83  C   UNL A   1      49.112  26.718  23.931  1.00  0.00    -0.014 A 
ATOM     84  C   UNL A   1      48.766  27.000  22.607  1.00  0.00     0.009 A 
ATOM     85  C   UNL A   1      50.484  26.822  24.272  1.00  0.00     0.009 A 
ATOM     86  C   UNL A   1      49.738  27.359  21.670  1.00  0.00     0.001 A 
ATOM     87  C   UNL A   1      51.447  27.231  23.353  1.00  0.00     0.001 A 
ATOM     88  C   UNL A   1      51.071  27.493  22.046  1.00  0.00     0.000 A 
ENDBRANCH  70  83
ENDBRANCH  44  45
ENDBRANCH  37  39
ENDBRANCH  36  37
ENDBRANCH  35  36
ENDBRANCH  34  35
ENDBRANCH  33  34
ENDBRANCH  32  33
ENDBRANCH  31  32
ENDBRANCH  30  31
ENDBRANCH   1  30
TORSDOF 23
ENDMDL
MODEL 3
REMARK VINA RESULT:      -9.2      1.723      2.244
REMARK SMILES Cc1cc(NC(=O)c2ccc(Br)cc2N)ccc1C(=O)OCCOCCOCCOCCOC(=O)c1ccc(-c2c3nc(c(-c4ccccc4)c4ccc([nH]4)c(-c4ccccc4)c4nc(c(-c5ccccc5)c5ccc2[nH]5)C=C4)C=C3)cc1
REMARK SMILES IDX 26 1 25 2 24 3 23 4 22 5 21 6 19 7 20 8 18 9 1 10 2 11 3 12
REMARK SMILES IDX 4 13 17 14 16 15 5 16 6 17 7 19 8 20 9 21 14 22 10 23 13 24
REMARK SMILES IDX 11 25 12 26 15 27 27 30 28 31 29 32 30 33 31 34 32 35 33 36
REMARK SMILES IDX 34 37 35 38 36 39 37 40 83 41 38 42 82 43 39 44 40 45 41 46
REMARK SMILES IDX 76 47 42 48 81 49 75 50 77 51 43 52 80 53 74 54 73 55 44 57
REMARK SMILES IDX 66 58 51 59 65 60 52 61 55 62 64 63 78 64 53 65 54 66 63 68
REMARK SMILES IDX 79 69 56 70 45 71 46 72 50 73 47 74 49 75 48 76 67 77 68 78
REMARK SMILES IDX 72 79 69 80 71 81 70 82 57 83 58 84 62 85 59 86 61 87 60 88
REMARK H PARENT 5 18 15 28 15 29 77 56 55 67
REMARK Flexibility Score: inf
ROOT
ATOM      1  C   UNL A   1      37.480  23.252  25.747  1.00  0.00     0.188 C 
ENDROOT
BRANCH   1   2
ATOM      2  C   UNL A   1      36.018  22.762  25.697  1.00  0.00     0.188 C 
BRANCH   2   3
ATOM      3  O   UNL A   1      35.414  22.121  26.806  1.00  0.00    -0.376 OA
BRANCH   3   4
ATOM      4  C   UNL A   1      34.291  21.291  26.528  1.00  0.00     0.202 C 
BRANCH   4   5
ATOM      5  C   UNL A   1      34.141  20.695  25.140  1.00  0.00     0.261 C 
BRANCH   5   6
ATOM      6  O   UNL A   1      32.761  20.742  24.805  1.00  0.00    -0.460 OA
BRANCH   6   7
ATOM      7  C   UNL A   1      32.511  21.206  23.576  1.00  0.00     0.338 C 
ATOM      8  O   UNL A   1      32.048  20.606  22.631  1.00  0.00    -0.246 OA
BRANCH   7   9
ATOM      9  C   UNL A   1      32.531  22.678  23.682  1.00  0.00     0.063 A 
ATOM     10  C   UNL A   1      30.884  22.936  25.661  1.00  0.00     0.045 C 
ATOM     11  C   UNL A   1      31.819  23.455  24.613  1.00  0.00    -0.035 A 
ATOM     12  C   UNL A   1      32.106  24.816  24.662  1.00  0.00     0.030 A 
ATOM     13  C   UNL A   1      33.107  25.341  23.855  1.00  0.00     0.041 A 
ATOM     14  C   UNL A   1      33.307  23.292  22.683  1.00  0.00     0.018 A 
ATOM     15  C   UNL A   1      33.574  24.646  22.747  1.00  0.00     0.027 A 
BRANCH  13  16
ATOM     16  N   UNL A   1      33.850  26.443  24.265  1.00  0.00    -0.322 N 
ATOM     17  C   UNL A   1      33.501  27.781  24.245  1.00  0.00     0.257 C 
ATOM     18  H   UNL A   1      34.746  26.242  24.619  1.00  0.00     0.170 HD
ATOM     19  O   UNL A   1      34.374  28.595  24.558  1.00  0.00    -0.269 OA
BRANCH  17  20
ATOM     20  C   UNL A   1      32.138  28.312  23.888  1.00  0.00     0.063 A 
ATOM     21  C   UNL A   1      31.569  27.690  22.759  1.00  0.00     0.017 A 
ATOM     22  C   UNL A   1      31.437  29.380  24.505  1.00  0.00     0.045 A 
ATOM     23  C   UNL A   1      30.344  28.105  22.234  1.00  0.00     0.016 A 
ATOM     24  C   UNL A   1      30.188  29.767  23.972  1.00  0.00     0.042 A 
ATOM     25  C   UNL A   1      29.655  29.141  22.848  1.00  0.00     0.020 A 
ATOM     26  Br  UNL A   1      28.019  29.745  22.121  1.00  0.00    -0.051 Br
BRANCH  22  27
ATOM     27  N   UNL A   1      31.953  30.209  25.502  1.00  0.00    -0.398 N 
ATOM     28  H   UNL A   1      32.059  31.173  25.334  1.00  0.00     0.156 HD
ATOM     29  H   UNL A   1      32.211  29.830  26.372  1.00  0.00     0.156 HD
ENDBRANCH  22  27
ENDBRANCH  17  20
ENDBRANCH  13  16
ENDBRANCH   7   9
ENDBRANCH   6   7
ENDBRANCH   5   6
ENDBRANCH   4   5
ENDBRANCH   3   4
ENDBRANCH   2   3
ENDBRANCH   1   2
BRANCH   1  30
ATOM     30  O   UNL A   1      38.546  22.421  25.322  1.00  0.00    -0.377 OA
BRANCH  30  31
ATOM     31  C   UNL A   1      38.859  21.257  26.081  1.00  0.00     0.188 C 
BRANCH  31  32
ATOM     32  C   UNL A   1      40.328  20.894  26.242  1.00  0.00     0.188 C 
BRANCH  32  33
ATOM     33  O   UNL A   1      40.555  19.641  25.601  1.00  0.00    -0.376 OA
BRANCH  33  34
ATOM     34  C   UNL A   1      41.767  18.975  25.940  1.00  0.00     0.202 C 
BRANCH  34  35
ATOM     35  C   UNL A   1      42.873  19.918  26.425  1.00  0.00     0.261 C 
BRANCH  35  36
ATOM     36  O   UNL A   1      43.826  20.126  25.364  1.00  0.00    -0.460 OA
BRANCH  36  37
ATOM     37  C   UNL A   1      44.587  21.248  25.478  1.00  0.00     0.338 C 
ATOM     38  O   UNL A   1      45.802  21.268  25.600  1.00  0.00    -0.246 OA
BRANCH  37  39
ATOM     39  C   UNL A   1      43.715  22.429  25.735  1.00  0.00     0.060 A 
ATOM     40  C   UNL A   1      43.526  23.396  24.732  1.00  0.00     0.016 A 
ATOM     41  C   UNL A   1      43.408  22.746  27.049  1.00  0.00     0.016 A 
ATOM     42  C   UNL A   1      43.237  24.725  25.079  1.00  0.00     0.010 A 
ATOM     43  C   UNL A   1      43.246  24.073  27.384  1.00  0.00     0.010 A 
ATOM     44  C   UNL A   1      43.216  25.090  26.421  1.00  0.00    -0.014 A 
BRANCH  44  45
ATOM     45  C   UNL A   1      43.310  26.471  26.942  1.00  0.00     0.031 A 
ATOM     46  C   UNL A   1      42.033  27.218  27.223  1.00  0.00     0.074 A 
ATOM     47  C   UNL A   1      44.479  26.875  27.514  1.00  0.00     0.049 A 
ATOM     48  N   UNL A   1      41.962  28.350  27.829  1.00  0.00    -0.248 NA
ATOM     49  C   UNL A   1      40.695  26.700  26.923  1.00  0.00     0.031 C 
ATOM     50  C   UNL A   1      44.664  27.940  28.503  1.00  0.00     0.029 A 
ATOM     51  N   UNL A   1      45.781  26.406  27.388  1.00  0.00    -0.354 N 
ATOM     52  C   UNL A   1      40.677  28.532  28.302  1.00  0.00     0.074 A 
ATOM     53  C   UNL A   1      39.907  27.507  27.648  1.00  0.00     0.031 C 
ATOM     54  C   UNL A   1      45.963  28.163  28.743  1.00  0.00     0.029 A 
ATOM     55  C   UNL A   1      46.670  27.431  27.732  1.00  0.00     0.049 A 
ATOM     56  H   UNL A   1      46.037  25.498  27.104  1.00  0.00     0.167 HD
ATOM     57  C   UNL A   1      40.464  29.455  29.290  1.00  0.00     0.031 A 
ATOM     58  C   UNL A   1      47.456  28.061  26.811  1.00  0.00     0.031 A 
ATOM     59  C   UNL A   1      41.674  30.269  29.537  1.00  0.00     0.049 A 
ATOM     60  C   UNL A   1      46.933  29.502  26.663  1.00  0.00     0.074 A 
ATOM     61  C   UNL A   1      42.439  30.573  30.649  1.00  0.00     0.029 A 
ATOM     62  N   UNL A   1      42.401  30.746  28.441  1.00  0.00    -0.354 N 
ATOM     63  N   UNL A   1      45.659  29.832  26.779  1.00  0.00    -0.248 NA
ATOM     64  C   UNL A   1      47.808  30.674  26.738  1.00  0.00     0.031 C 
ATOM     65  C   UNL A   1      43.706  31.052  30.188  1.00  0.00     0.029 A 
ATOM     66  C   UNL A   1      43.681  31.124  28.798  1.00  0.00     0.049 A 
ATOM     67  H   UNL A   1      42.044  30.806  27.527  1.00  0.00     0.167 HD
ATOM     68  C   UNL A   1      45.569  31.150  27.169  1.00  0.00     0.074 A 
ATOM     69  C   UNL A   1      46.934  31.651  27.044  1.00  0.00     0.031 C 
ATOM     70  C   UNL A   1      44.540  31.785  27.822  1.00  0.00     0.031 A 
BRANCH  57  71
ATOM     71  C   UNL A   1      39.222  29.535  30.178  1.00  0.00    -0.014 A 
ATOM     72  C   UNL A   1      39.295  29.099  31.518  1.00  0.00     0.009 A 
ATOM     73  C   UNL A   1      37.941  29.940  29.753  1.00  0.00     0.009 A 
ATOM     74  C   UNL A   1      38.177  29.069  32.372  1.00  0.00     0.001 A 
ATOM     75  C   UNL A   1      36.822  29.944  30.612  1.00  0.00     0.001 A 
ATOM     76  C   UNL A   1      36.940  29.503  31.922  1.00  0.00     0.000 A 
ENDBRANCH  57  71
BRANCH  58  77
ATOM     77  C   UNL A   1      48.058  27.057  25.873  1.00  0.00    -0.014 A 
ATOM     78  C   UNL A   1      47.727  27.291  24.511  1.00  0.00     0.009 A 
ATOM     79  C   UNL A   1      49.310  26.481  26.141  1.00  0.00     0.009 A 
ATOM     80  C   UNL A   1      48.706  27.243  23.508  1.00  0.00     0.001 A 
ATOM     81  C   UNL A   1      50.274  26.389  25.115  1.00  0.00     0.001 A 
ATOM     82  C   UNL A   1      49.999  26.845  23.824  1.00  0.00     0.000 A 
ENDBRANCH  58  77
BRANCH  70  83
ATOM     83  C   UNL A   1      44.169  33.211  27.482  1.00  0.00    -0.014 A 
ATOM     84  C   UNL A   1      43.999  33.652  26.166  1.00  0.00     0.009 A 
ATOM     85  C   UNL A   1      43.732  34.081  28.511  1.00  0.00     0.009 A 
ATOM     86  C   UNL A   1      43.431  34.898  25.892  1.00  0.00     0.001 A 
ATOM     87  C   UNL A   1      43.115  35.301  28.239  1.00  0.00     0.001 A 
ATOM     88  C   UNL A   1      42.972  35.711  26.924  1.00  0.00     0.000 A 
ENDBRANCH  70  83
ENDBRANCH  44  45
ENDBRANCH  37  39
ENDBRANCH  36  37
ENDBRANCH  35  36
ENDBRANCH  34  35
ENDBRANCH  33  34
ENDBRANCH  32  33
ENDBRANCH  31  32
ENDBRANCH  30  31
ENDBRANCH   1  30
TORSDOF 23
ENDMDL
