MODEL 1
REMARK VINA RESULT:      -8.5      0.000      0.000
REMARK SMILES CC[NH2+][C@]1(C(=O)OCCOCCOCCOCCOC(=O)c2ccc(-c3c4nc(c(-c5ccccc5)c5ccc([nH]5)c(-c5ccccc5)c5nc(c(-c6ccccc6)c6ccc3[nH]6)C=C5)C=C4)cc2)CCC[C@@H]([N@@H+](C)CC2CCCC2)C1
REMARK SMILES IDX 12 1 11 2 10 3 9 4 8 5 7 6 5 7 6 8 4 9 70 10 82 11 71 12
REMARK SMILES IDX 73 13 72 14 3 15 2 18 1 19 74 20 75 21 76 23 77 24 78 25
REMARK SMILES IDX 81 26 79 27 80 28 13 29 14 30 15 31 16 32 17 33 18 34 19 35
REMARK SMILES IDX 20 36 21 37 22 38 23 39 69 40 24 41 68 42 25 43 26 44 27 45
REMARK SMILES IDX 62 46 28 47 67 48 61 49 63 50 29 51 66 52 60 53 59 54 30 56
REMARK SMILES IDX 52 57 37 58 51 59 38 60 41 61 50 62 64 63 39 64 40 65 49 67
REMARK SMILES IDX 65 68 42 69 31 70 32 71 36 72 33 73 35 74 34 75 53 76 54 77
REMARK SMILES IDX 58 78 55 79 57 80 56 81 43 82 44 83 48 84 45 85 47 86 46 87
REMARK H PARENT 3 16 3 17 74 22 63 55 41 66
REMARK Flexibility Score: inf
ROOT
ATOM      1  C   UNL A   1      39.496  21.995  25.871  1.00  0.00     0.188 C 
ENDROOT
BRANCH   1   2
ATOM      2  C   UNL A   1      38.094  22.601  25.939  1.00  0.00     0.188 C 
BRANCH   2   3
ATOM      3  O   UNL A   1      37.070  21.984  25.163  1.00  0.00    -0.376 OA
BRANCH   3   4
ATOM      4  C   UNL A   1      35.894  21.466  25.780  1.00  0.00     0.202 C 
BRANCH   4   5
ATOM      5  C   UNL A   1      34.570  22.250  25.782  1.00  0.00     0.261 C 
BRANCH   5   6
ATOM      6  O   UNL A   1      34.737  23.652  25.497  1.00  0.00    -0.459 OA
BRANCH   6   7
ATOM      7  C   UNL A   1      34.312  24.078  24.280  1.00  0.00     0.368 C 
ATOM      8  O   UNL A   1      34.997  23.988  23.264  1.00  0.00    -0.245 OA
BRANCH   7   9
ATOM      9  C   UNL A   1      32.840  24.624  24.272  1.00  0.00     0.200 C 
ATOM     10  C   UNL A   1      32.337  25.162  25.639  1.00  0.00     0.081 C 
ATOM     11  C   UNL A   1      32.881  25.877  23.388  1.00  0.00     0.146 C 
ATOM     12  C   UNL A   1      30.880  25.616  25.598  1.00  0.00     0.013 C 
ATOM     13  C   UNL A   1      31.558  26.653  23.270  1.00  0.00     0.190 C 
ATOM     14  C   UNL A   1      30.484  26.410  24.356  1.00  0.00     0.065 C 
BRANCH   9  15
ATOM     15  N   UNL A   1      31.904  23.557  23.816  1.00  0.00    -0.332 N 
ATOM     16  H   UNL A   1      31.722  22.948  24.613  1.00  0.00     0.347 HD
ATOM     17  H   UNL A   1      31.091  24.058  23.458  1.00  0.00     0.347 HD
BRANCH  15  18
ATOM     18  C   UNL A   1      32.341  22.712  22.708  1.00  0.00     0.257 C 
ATOM     19  C   UNL A   1      32.273  21.257  23.161  1.00  0.00     0.071 C 
ENDBRANCH  15  18
ENDBRANCH   9  15
BRANCH  13  20
ATOM     20  N   UNL A   1      31.736  28.058  22.874  1.00  0.00    -0.334 N 
ATOM     21  C   UNL A   1      30.513  28.759  22.531  1.00  0.00     0.332 C 
ATOM     22  H   UNL A   1      32.229  27.852  22.005  1.00  0.00     0.348 HD
BRANCH  20  23
ATOM     23  C   UNL A   1      32.828  28.884  23.388  1.00  0.00     0.265 C 
BRANCH  23  24
ATOM     24  C   UNL A   1      33.012  29.285  24.864  1.00  0.00     0.044 C 
ATOM     25  C   UNL A   1      31.728  29.483  25.670  1.00  0.00     0.009 C 
ATOM     26  C   UNL A   1      33.862  28.410  25.773  1.00  0.00     0.009 C 
ATOM     27  C   UNL A   1      32.160  29.445  27.139  1.00  0.00     0.001 C 
ATOM     28  C   UNL A   1      33.625  29.016  27.151  1.00  0.00     0.001 C 
ENDBRANCH  23  24
ENDBRANCH  20  23
ENDBRANCH  13  20
ENDBRANCH   7   9
ENDBRANCH   6   7
ENDBRANCH   5   6
ENDBRANCH   4   5
ENDBRANCH   3   4
ENDBRANCH   2   3
ENDBRANCH   1   2
BRANCH   1  29
ATOM     29  O   UNL A   1      39.860  20.996  26.792  1.00  0.00    -0.377 OA
BRANCH  29  30
ATOM     30  C   UNL A   1      40.472  19.854  26.234  1.00  0.00     0.188 C 
BRANCH  30  31
ATOM     31  C   UNL A   1      41.919  19.727  26.701  1.00  0.00     0.188 C 
BRANCH  31  32
ATOM     32  O   UNL A   1      42.739  20.898  26.730  1.00  0.00    -0.376 OA
BRANCH  32  33
ATOM     33  C   UNL A   1      43.578  21.175  25.613  1.00  0.00     0.202 C 
BRANCH  33  34
ATOM     34  C   UNL A   1      43.413  22.615  25.092  1.00  0.00     0.261 C 
BRANCH  34  35
ATOM     35  O   UNL A   1      42.601  23.468  25.918  1.00  0.00    -0.460 OA
BRANCH  35  36
ATOM     36  C   UNL A   1      42.659  24.794  25.623  1.00  0.00     0.338 C 
ATOM     37  O   UNL A   1      42.679  25.321  24.533  1.00  0.00    -0.246 OA
BRANCH  36  38
ATOM     38  C   UNL A   1      42.603  25.562  26.887  1.00  0.00     0.060 A 
ATOM     39  C   UNL A   1      41.665  25.194  27.865  1.00  0.00     0.016 A 
ATOM     40  C   UNL A   1      43.446  26.656  27.089  1.00  0.00     0.016 A 
ATOM     41  C   UNL A   1      41.541  25.948  29.033  1.00  0.00     0.010 A 
ATOM     42  C   UNL A   1      43.296  27.432  28.238  1.00  0.00     0.010 A 
ATOM     43  C   UNL A   1      42.315  27.105  29.192  1.00  0.00    -0.014 A 
BRANCH  43  44
ATOM     44  C   UNL A   1      41.913  28.130  30.183  1.00  0.00     0.031 A 
ATOM     45  C   UNL A   1      42.663  28.158  31.488  1.00  0.00     0.074 A 
ATOM     46  C   UNL A   1      40.906  28.988  29.956  1.00  0.00     0.049 A 
ATOM     47  N   UNL A   1      42.436  28.867  32.563  1.00  0.00    -0.248 NA
ATOM     48  C   UNL A   1      43.824  27.257  31.593  1.00  0.00     0.031 C 
ATOM     49  C   UNL A   1      40.146  29.101  28.714  1.00  0.00     0.029 A 
ATOM     50  N   UNL A   1      40.342  29.926  30.785  1.00  0.00    -0.354 N 
ATOM     51  C   UNL A   1      43.420  28.490  33.470  1.00  0.00     0.074 A 
ATOM     52  C   UNL A   1      44.232  27.481  32.830  1.00  0.00     0.031 C 
ATOM     53  C   UNL A   1      39.199  30.045  28.869  1.00  0.00     0.029 A 
ATOM     54  C   UNL A   1      39.262  30.570  30.232  1.00  0.00     0.049 A 
ATOM     55  H   UNL A   1      40.679  30.118  31.690  1.00  0.00     0.167 HD
ATOM     56  C   UNL A   1      43.628  28.941  34.728  1.00  0.00     0.031 A 
ATOM     57  C   UNL A   1      38.410  31.457  30.781  1.00  0.00     0.031 A 
ATOM     58  C   UNL A   1      42.799  29.917  35.377  1.00  0.00     0.049 A 
ATOM     59  C   UNL A   1      38.599  31.872  32.218  1.00  0.00     0.074 A 
ATOM     60  C   UNL A   1      42.907  30.427  36.658  1.00  0.00     0.029 A 
ATOM     61  N   UNL A   1      41.699  30.522  34.791  1.00  0.00    -0.354 N 
ATOM     62  N   UNL A   1      39.532  31.512  33.067  1.00  0.00    -0.248 NA
ATOM     63  C   UNL A   1      37.616  32.815  32.772  1.00  0.00     0.031 C 
ATOM     64  C   UNL A   1      41.843  31.310  36.862  1.00  0.00     0.029 A 
ATOM     65  C   UNL A   1      41.108  31.390  35.689  1.00  0.00     0.049 A 
ATOM     66  H   UNL A   1      41.385  30.358  33.873  1.00  0.00     0.167 HD
ATOM     67  C   UNL A   1      39.272  32.215  34.239  1.00  0.00     0.074 A 
ATOM     68  C   UNL A   1      38.095  33.021  33.992  1.00  0.00     0.031 C 
ATOM     69  C   UNL A   1      39.949  32.198  35.413  1.00  0.00     0.031 A 
BRANCH  56  70
ATOM     70  C   UNL A   1      44.771  28.337  35.491  1.00  0.00    -0.014 A 
ATOM     71  C   UNL A   1      46.052  28.910  35.456  1.00  0.00     0.009 A 
ATOM     72  C   UNL A   1      44.563  27.181  36.257  1.00  0.00     0.009 A 
ATOM     73  C   UNL A   1      47.110  28.316  36.147  1.00  0.00     0.001 A 
ATOM     74  C   UNL A   1      45.616  26.604  36.968  1.00  0.00     0.001 A 
ATOM     75  C   UNL A   1      46.890  27.166  36.905  1.00  0.00     0.000 A 
ENDBRANCH  56  70
BRANCH  57  76
ATOM     76  C   UNL A   1      37.275  32.001  29.987  1.00  0.00    -0.014 A 
ATOM     77  C   UNL A   1      36.033  31.348  29.974  1.00  0.00     0.009 A 
ATOM     78  C   UNL A   1      37.440  33.157  29.208  1.00  0.00     0.009 A 
ATOM     79  C   UNL A   1      34.989  31.825  29.177  1.00  0.00     0.001 A 
ATOM     80  C   UNL A   1      36.386  33.646  28.431  1.00  0.00     0.001 A 
ATOM     81  C   UNL A   1      35.165  32.974  28.409  1.00  0.00     0.000 A 
ENDBRANCH  57  76
BRANCH  69  82
ATOM     82  C   UNL A   1      39.481  33.123  36.500  1.00  0.00    -0.014 A 
ATOM     83  C   UNL A   1      38.551  32.710  37.465  1.00  0.00     0.009 A 
ATOM     84  C   UNL A   1      40.042  34.407  36.597  1.00  0.00     0.009 A 
ATOM     85  C   UNL A   1      38.175  33.576  38.495  1.00  0.00     0.001 A 
ATOM     86  C   UNL A   1      39.685  35.259  37.642  1.00  0.00     0.001 A 
ATOM     87  C   UNL A   1      38.747  34.845  38.586  1.00  0.00     0.000 A 
ENDBRANCH  69  82
ENDBRANCH  43  44
ENDBRANCH  36  38
ENDBRANCH  35  36
ENDBRANCH  34  35
ENDBRANCH  33  34
ENDBRANCH  32  33
ENDBRANCH  31  32
ENDBRANCH  30  31
ENDBRANCH  29  30
ENDBRANCH   1  29
TORSDOF 25
ENDMDL
MODEL 2
REMARK VINA RESULT:      -8.3      5.775      9.840
REMARK SMILES CC[NH2+][C@]1(C(=O)OCCOCCOCCOCCOC(=O)c2ccc(-c3c4nc(c(-c5ccccc5)c5ccc([nH]5)c(-c5ccccc5)c5nc(c(-c6ccccc6)c6ccc3[nH]6)C=C5)C=C4)cc2)CCC[C@@H]([N@@H+](C)CC2CCCC2)C1
REMARK SMILES IDX 12 1 11 2 10 3 9 4 8 5 7 6 5 7 6 8 4 9 70 10 82 11 71 12
REMARK SMILES IDX 73 13 72 14 3 15 2 18 1 19 74 20 75 21 76 23 77 24 78 25
REMARK SMILES IDX 81 26 79 27 80 28 13 29 14 30 15 31 16 32 17 33 18 34 19 35
REMARK SMILES IDX 20 36 21 37 22 38 23 39 69 40 24 41 68 42 25 43 26 44 27 45
REMARK SMILES IDX 62 46 28 47 67 48 61 49 63 50 29 51 66 52 60 53 59 54 30 56
REMARK SMILES IDX 52 57 37 58 51 59 38 60 41 61 50 62 64 63 39 64 40 65 49 67
REMARK SMILES IDX 65 68 42 69 31 70 32 71 36 72 33 73 35 74 34 75 53 76 54 77
REMARK SMILES IDX 58 78 55 79 57 80 56 81 43 82 44 83 48 84 45 85 47 86 46 87
REMARK H PARENT 3 16 3 17 74 22 63 55 41 66
REMARK Flexibility Score: inf
ROOT
ATOM      1  C   UNL A   1      31.697  29.151  24.763  1.00  0.00     0.188 C 
ENDROOT
BRANCH   1   2
ATOM      2  C   UNL A   1      30.821  29.313  23.520  1.00  0.00     0.188 C 
BRANCH   2   3
ATOM      3  O   UNL A   1      30.268  28.133  22.942  1.00  0.00    -0.376 OA
BRANCH   3   4
ATOM      4  C   UNL A   1      29.096  27.530  23.484  1.00  0.00     0.202 C 
BRANCH   4   5
ATOM      5  C   UNL A   1      29.166  26.258  24.345  1.00  0.00     0.261 C 
BRANCH   5   6
ATOM      6  O   UNL A   1      30.242  26.275  25.302  1.00  0.00    -0.459 OA
BRANCH   6   7
ATOM      7  C   UNL A   1      30.597  25.078  25.837  1.00  0.00     0.368 C 
ATOM      8  O   UNL A   1      29.901  24.476  26.650  1.00  0.00    -0.245 OA
BRANCH   7   9
ATOM      9  C   UNL A   1      31.938  24.495  25.264  1.00  0.00     0.200 C 
ATOM     10  C   UNL A   1      32.976  24.069  26.338  1.00  0.00     0.081 C 
ATOM     11  C   UNL A   1      31.548  23.170  24.597  1.00  0.00     0.146 C 
ATOM     12  C   UNL A   1      34.288  23.576  25.733  1.00  0.00     0.013 C 
ATOM     13  C   UNL A   1      32.712  22.353  24.008  1.00  0.00     0.190 C 
ATOM     14  C   UNL A   1      34.138  22.665  24.518  1.00  0.00     0.065 C 
BRANCH   9  15
ATOM     15  N   UNL A   1      32.581  25.493  24.362  1.00  0.00    -0.332 N 
ATOM     16  H   UNL A   1      32.281  26.419  24.666  1.00  0.00     0.347 HD
ATOM     17  H   UNL A   1      33.582  25.314  24.444  1.00  0.00     0.347 HD
BRANCH  15  18
ATOM     18  C   UNL A   1      32.296  25.386  22.934  1.00  0.00     0.257 C 
ATOM     19  C   UNL A   1      33.288  26.267  22.181  1.00  0.00     0.071 C 
ENDBRANCH  15  18
ENDBRANCH   9  15
BRANCH  13  20
ATOM     20  N   UNL A   1      32.404  20.924  23.853  1.00  0.00    -0.334 N 
ATOM     21  C   UNL A   1      32.089  20.507  22.500  1.00  0.00     0.332 C 
ATOM     22  H   UNL A   1      31.531  20.954  24.380  1.00  0.00     0.348 HD
BRANCH  20  23
ATOM     23  C   UNL A   1      32.982  19.900  24.723  1.00  0.00     0.265 C 
BRANCH  23  24
ATOM     24  C   UNL A   1      32.824  18.380  24.523  1.00  0.00     0.044 C 
ATOM     25  C   UNL A   1      33.899  17.700  23.677  1.00  0.00     0.009 C 
ATOM     26  C   UNL A   1      32.718  17.476  25.743  1.00  0.00     0.009 C 
ATOM     27  C   UNL A   1      33.771  16.204  23.980  1.00  0.00     0.001 C 
ATOM     28  C   UNL A   1      32.786  16.078  25.140  1.00  0.00     0.001 C 
ENDBRANCH  23  24
ENDBRANCH  20  23
ENDBRANCH  13  20
ENDBRANCH   7   9
ENDBRANCH   6   7
ENDBRANCH   5   6
ENDBRANCH   4   5
ENDBRANCH   3   4
ENDBRANCH   2   3
ENDBRANCH   1   2
BRANCH   1  29
ATOM     29  O   UNL A   1      31.619  30.107  25.791  1.00  0.00    -0.377 OA
BRANCH  29  30
ATOM     30  C   UNL A   1      32.372  29.814  26.947  1.00  0.00     0.188 C 
BRANCH  30  31
ATOM     31  C   UNL A   1      33.612  30.700  27.030  1.00  0.00     0.188 C 
BRANCH  31  32
ATOM     32  O   UNL A   1      33.898  31.372  28.259  1.00  0.00    -0.376 OA
BRANCH  32  33
ATOM     33  C   UNL A   1      35.220  31.303  28.785  1.00  0.00     0.202 C 
BRANCH  33  34
ATOM     34  C   UNL A   1      35.657  32.617  29.461  1.00  0.00     0.261 C 
BRANCH  34  35
ATOM     35  O   UNL A   1      36.129  32.474  30.812  1.00  0.00    -0.460 OA
BRANCH  35  36
ATOM     36  C   UNL A   1      35.183  32.610  31.779  1.00  0.00     0.338 C 
ATOM     37  O   UNL A   1      33.978  32.593  31.659  1.00  0.00    -0.246 OA
BRANCH  36  38
ATOM     38  C   UNL A   1      35.860  32.700  33.092  1.00  0.00     0.060 A 
ATOM     39  C   UNL A   1      35.516  33.745  33.964  1.00  0.00     0.016 A 
ATOM     40  C   UNL A   1      36.850  31.781  33.442  1.00  0.00     0.016 A 
ATOM     41  C   UNL A   1      36.194  33.896  35.175  1.00  0.00     0.010 A 
ATOM     42  C   UNL A   1      37.554  31.954  34.634  1.00  0.00     0.010 A 
ATOM     43  C   UNL A   1      37.256  33.035  35.483  1.00  0.00    -0.014 A 
BRANCH  43  44
ATOM     44  C   UNL A   1      38.242  33.423  36.518  1.00  0.00     0.031 A 
ATOM     45  C   UNL A   1      39.428  34.236  36.069  1.00  0.00     0.074 A 
ATOM     46  C   UNL A   1      38.117  33.050  37.801  1.00  0.00     0.049 A 
ATOM     47  N   UNL A   1      40.488  34.601  36.742  1.00  0.00    -0.248 NA
ATOM     48  C   UNL A   1      39.413  34.693  34.668  1.00  0.00     0.031 C 
ATOM     49  C   UNL A   1      36.988  32.317  38.370  1.00  0.00     0.029 A 
ATOM     50  N   UNL A   1      38.970  33.234  38.861  1.00  0.00    -0.354 N 
ATOM     51  C   UNL A   1      41.267  35.322  35.843  1.00  0.00     0.074 A 
ATOM     52  C   UNL A   1      40.570  35.328  34.577  1.00  0.00     0.031 C 
ATOM     53  C   UNL A   1      37.228  32.095  39.675  1.00  0.00     0.029 A 
ATOM     54  C   UNL A   1      38.542  32.635  40.021  1.00  0.00     0.049 A 
ATOM     55  H   UNL A   1      39.808  33.745  38.796  1.00  0.00     0.167 HD
ATOM     56  C   UNL A   1      42.460  35.923  36.050  1.00  0.00     0.031 A 
ATOM     57  C   UNL A   1      39.161  32.515  41.212  1.00  0.00     0.031 A 
ATOM     58  C   UNL A   1      43.171  35.886  37.297  1.00  0.00     0.049 A 
ATOM     59  C   UNL A   1      40.536  33.107  41.392  1.00  0.00     0.074 A 
ATOM     60  C   UNL A   1      44.398  36.443  37.608  1.00  0.00     0.029 A 
ATOM     61  N   UNL A   1      42.715  35.244  38.437  1.00  0.00    -0.354 N 
ATOM     62  N   UNL A   1      41.263  33.787  40.539  1.00  0.00    -0.248 NA
ATOM     63  C   UNL A   1      41.175  32.912  42.702  1.00  0.00     0.031 C 
ATOM     64  C   UNL A   1      44.705  36.098  38.928  1.00  0.00     0.029 A 
ATOM     65  C   UNL A   1      43.643  35.377  39.452  1.00  0.00     0.049 A 
ATOM     66  H   UNL A   1      41.858  34.766  38.514  1.00  0.00     0.167 HD
ATOM     67  C   UNL A   1      42.425  34.135  41.220  1.00  0.00     0.074 A 
ATOM     68  C   UNL A   1      42.305  33.592  42.557  1.00  0.00     0.031 C 
ATOM     69  C   UNL A   1      43.492  34.845  40.781  1.00  0.00     0.031 A 
BRANCH  56  70
ATOM     70  C   UNL A   1      43.085  36.625  34.880  1.00  0.00    -0.014 A 
ATOM     71  C   UNL A   1      42.864  37.992  34.649  1.00  0.00     0.009 A 
ATOM     72  C   UNL A   1      43.908  35.910  33.997  1.00  0.00     0.009 A 
ATOM     73  C   UNL A   1      43.428  38.621  33.538  1.00  0.00     0.001 A 
ATOM     74  C   UNL A   1      44.492  36.548  32.901  1.00  0.00     0.001 A 
ATOM     75  C   UNL A   1      44.244  37.899  32.667  1.00  0.00     0.000 A 
ENDBRANCH  56  70
BRANCH  57  76
ATOM     76  C   UNL A   1      38.508  31.781  42.329  1.00  0.00    -0.014 A 
ATOM     77  C   UNL A   1      37.687  32.456  43.246  1.00  0.00     0.009 A 
ATOM     78  C   UNL A   1      38.732  30.407  42.506  1.00  0.00     0.009 A 
ATOM     79  C   UNL A   1      37.128  31.777  44.331  1.00  0.00     0.001 A 
ATOM     80  C   UNL A   1      38.151  29.724  43.578  1.00  0.00     0.001 A 
ATOM     81  C   UNL A   1      37.357  30.412  44.495  1.00  0.00     0.000 A 
ENDBRANCH  57  76
BRANCH  69  82
ATOM     82  C   UNL A   1      44.588  35.137  41.767  1.00  0.00    -0.014 A 
ATOM     83  C   UNL A   1      44.500  36.211  42.665  1.00  0.00     0.009 A 
ATOM     84  C   UNL A   1      45.691  34.271  41.842  1.00  0.00     0.009 A 
ATOM     85  C   UNL A   1      45.511  36.424  43.606  1.00  0.00     0.001 A 
ATOM     86  C   UNL A   1      46.684  34.472  42.801  1.00  0.00     0.001 A 
ATOM     87  C   UNL A   1      46.596  35.551  43.677  1.00  0.00     0.000 A 
ENDBRANCH  69  82
ENDBRANCH  43  44
ENDBRANCH  36  38
ENDBRANCH  35  36
ENDBRANCH  34  35
ENDBRANCH  33  34
ENDBRANCH  32  33
ENDBRANCH  31  32
ENDBRANCH  30  31
ENDBRANCH  29  30
ENDBRANCH   1  29
TORSDOF 25
ENDMDL
MODEL 3
REMARK VINA RESULT:      -8.3      3.359      8.592
REMARK SMILES CC[NH2+][C@]1(C(=O)OCCOCCOCCOCCOC(=O)c2ccc(-c3c4nc(c(-c5ccccc5)c5ccc([nH]5)c(-c5ccccc5)c5nc(c(-c6ccccc6)c6ccc3[nH]6)C=C5)C=C4)cc2)CCC[C@@H]([N@@H+](C)CC2CCCC2)C1
REMARK SMILES IDX 12 1 11 2 10 3 9 4 8 5 7 6 5 7 6 8 4 9 70 10 82 11 71 12
REMARK SMILES IDX 73 13 72 14 3 15 2 18 1 19 74 20 75 21 76 23 77 24 78 25
REMARK SMILES IDX 81 26 79 27 80 28 13 29 14 30 15 31 16 32 17 33 18 34 19 35
REMARK SMILES IDX 20 36 21 37 22 38 23 39 69 40 24 41 68 42 25 43 26 44 27 45
REMARK SMILES IDX 62 46 28 47 67 48 61 49 63 50 29 51 66 52 60 53 59 54 30 56
REMARK SMILES IDX 52 57 37 58 51 59 38 60 41 61 50 62 64 63 39 64 40 65 49 67
REMARK SMILES IDX 65 68 42 69 31 70 32 71 36 72 33 73 35 74 34 75 53 76 54 77
REMARK SMILES IDX 58 78 55 79 57 80 56 81 43 82 44 83 48 84 45 85 47 86 46 87
REMARK H PARENT 3 16 3 17 74 22 63 55 41 66
REMARK Flexibility Score: inf
ROOT
ATOM      1  C   UNL A   1      30.230  28.827  23.411  1.00  0.00     0.188 C 
ENDROOT
BRANCH   1   2
ATOM      2  C   UNL A   1      29.411  27.604  22.997  1.00  0.00     0.188 C 
BRANCH   2   3
ATOM      3  O   UNL A   1      29.762  26.348  23.571  1.00  0.00    -0.376 OA
BRANCH   3   4
ATOM      4  C   UNL A   1      29.491  26.066  24.942  1.00  0.00     0.202 C 
BRANCH   4   5
ATOM      5  C   UNL A   1      30.613  25.705  25.930  1.00  0.00     0.261 C 
BRANCH   5   6
ATOM      6  O   UNL A   1      30.879  24.291  26.001  1.00  0.00    -0.459 OA
BRANCH   6   7
ATOM      7  C   UNL A   1      31.422  23.720  24.895  1.00  0.00     0.368 C 
ATOM      8  O   UNL A   1      30.754  23.134  24.048  1.00  0.00    -0.245 OA
BRANCH   7   9
ATOM      9  C   UNL A   1      32.970  23.942  24.758  1.00  0.00     0.200 C 
ATOM     10  C   UNL A   1      33.685  24.385  26.063  1.00  0.00     0.081 C 
ATOM     11  C   UNL A   1      33.553  22.549  24.486  1.00  0.00     0.146 C 
ATOM     12  C   UNL A   1      35.174  24.656  25.863  1.00  0.00     0.013 C 
ATOM     13  C   UNL A   1      35.087  22.478  24.379  1.00  0.00     0.190 C 
ATOM     14  C   UNL A   1      35.904  23.641  24.988  1.00  0.00     0.065 C 
BRANCH   9  15
ATOM     15  N   UNL A   1      33.247  24.960  23.704  1.00  0.00    -0.332 N 
ATOM     16  H   UNL A   1      32.654  25.768  23.896  1.00  0.00     0.347 HD
ATOM     17  H   UNL A   1      34.249  25.134  23.765  1.00  0.00     0.347 HD
BRANCH  15  18
ATOM     18  C   UNL A   1      33.017  24.567  22.317  1.00  0.00     0.257 C 
ATOM     19  C   UNL A   1      32.682  25.820  21.514  1.00  0.00     0.071 C 
ENDBRANCH  15  18
ENDBRANCH   9  15
BRANCH  13  20
ATOM     20  N   UNL A   1      35.630  21.135  24.632  1.00  0.00    -0.334 N 
ATOM     21  C   UNL A   1      36.997  21.107  25.115  1.00  0.00     0.332 C 
ATOM     22  H   UNL A   1      35.641  20.848  23.653  1.00  0.00     0.348 HD
BRANCH  20  23
ATOM     23  C   UNL A   1      34.784  20.012  25.032  1.00  0.00     0.265 C 
BRANCH  23  24
ATOM     24  C   UNL A   1      34.224  18.943  24.073  1.00  0.00     0.044 C 
ATOM     25  C   UNL A   1      34.468  17.489  24.474  1.00  0.00     0.009 C 
ATOM     26  C   UNL A   1      32.745  18.962  23.718  1.00  0.00     0.009 C 
ATOM     27  C   UNL A   1      33.485  16.665  23.637  1.00  0.00     0.001 C 
ATOM     28  C   UNL A   1      32.561  17.663  22.944  1.00  0.00     0.001 C 
ENDBRANCH  23  24
ENDBRANCH  20  23
ENDBRANCH  13  20
ENDBRANCH   7   9
ENDBRANCH   6   7
ENDBRANCH   5   6
ENDBRANCH   4   5
ENDBRANCH   3   4
ENDBRANCH   2   3
ENDBRANCH   1   2
BRANCH   1  29
ATOM     29  O   UNL A   1      31.425  28.644  24.132  1.00  0.00    -0.377 OA
BRANCH  29  30
ATOM     30  C   UNL A   1      31.832  29.744  24.915  1.00  0.00     0.188 C 
BRANCH  30  31
ATOM     31  C   UNL A   1      32.050  29.329  26.367  1.00  0.00     0.188 C 
BRANCH  31  32
ATOM     32  O   UNL A   1      32.453  30.320  27.315  1.00  0.00    -0.376 OA
BRANCH  32  33
ATOM     33  C   UNL A   1      32.079  31.676  27.090  1.00  0.00     0.202 C 
BRANCH  33  34
ATOM     34  C   UNL A   1      33.126  32.674  27.620  1.00  0.00     0.261 C 
BRANCH  34  35
ATOM     35  O   UNL A   1      32.625  33.625  28.576  1.00  0.00    -0.460 OA
BRANCH  35  36
ATOM     36  C   UNL A   1      33.406  34.720  28.776  1.00  0.00     0.338 C 
ATOM     37  O   UNL A   1      33.156  35.877  28.525  1.00  0.00    -0.246 OA
BRANCH  36  38
ATOM     38  C   UNL A   1      34.646  34.294  29.464  1.00  0.00     0.060 A 
ATOM     39  C   UNL A   1      35.875  34.437  28.800  1.00  0.00     0.016 A 
ATOM     40  C   UNL A   1      34.590  33.729  30.739  1.00  0.00     0.016 A 
ATOM     41  C   UNL A   1      37.049  33.974  29.396  1.00  0.00     0.010 A 
ATOM     42  C   UNL A   1      35.757  33.232  31.318  1.00  0.00     0.010 A 
ATOM     43  C   UNL A   1      36.981  33.315  30.631  1.00  0.00    -0.014 A 
BRANCH  43  44
ATOM     44  C   UNL A   1      38.107  32.458  31.071  1.00  0.00     0.031 A 
ATOM     45  C   UNL A   1      38.949  32.960  32.213  1.00  0.00     0.074 A 
ATOM     46  C   UNL A   1      38.396  31.292  30.470  1.00  0.00     0.049 A 
ATOM     47  N   UNL A   1      40.054  32.468  32.710  1.00  0.00    -0.248 NA
ATOM     48  C   UNL A   1      38.480  34.188  32.879  1.00  0.00     0.031 C 
ATOM     49  C   UNL A   1      37.622  30.670  29.398  1.00  0.00     0.029 A 
ATOM     50  N   UNL A   1      39.442  30.428  30.678  1.00  0.00    -0.354 N 
ATOM     51  C   UNL A   1      40.414  33.332  33.739  1.00  0.00     0.074 A 
ATOM     52  C   UNL A   1      39.424  34.384  33.784  1.00  0.00     0.031 C 
ATOM     53  C   UNL A   1      38.233  29.530  29.028  1.00  0.00     0.029 A 
ATOM     54  C   UNL A   1      39.458  29.365  29.809  1.00  0.00     0.049 A 
ATOM     55  H   UNL A   1      40.117  30.558  31.383  1.00  0.00     0.167 HD
ATOM     56  C   UNL A   1      41.477  33.259  34.571  1.00  0.00     0.031 A 
ATOM     57  C   UNL A   1      40.377  28.393  29.648  1.00  0.00     0.031 A 
ATOM     58  C   UNL A   1      42.480  32.235  34.503  1.00  0.00     0.049 A 
ATOM     59  C   UNL A   1      41.606  28.387  30.520  1.00  0.00     0.074 A 
ATOM     60  C   UNL A   1      43.611  32.081  35.284  1.00  0.00     0.029 A 
ATOM     61  N   UNL A   1      42.473  31.195  33.588  1.00  0.00    -0.354 N 
ATOM     62  N   UNL A   1      41.937  29.205  31.490  1.00  0.00    -0.248 NA
ATOM     63  C   UNL A   1      42.590  27.322  30.273  1.00  0.00     0.031 C 
ATOM     64  C   UNL A   1      44.314  30.968  34.811  1.00  0.00     0.029 A 
ATOM     65  C   UNL A   1      43.589  30.400  33.774  1.00  0.00     0.049 A 
ATOM     66  H   UNL A   1      41.778  31.043  32.909  1.00  0.00     0.167 HD
ATOM     67  C   UNL A   1      43.144  28.731  31.994  1.00  0.00     0.074 A 
ATOM     68  C   UNL A   1      43.486  27.554  31.224  1.00  0.00     0.031 C 
ATOM     69  C   UNL A   1      43.898  29.222  33.008  1.00  0.00     0.031 A 
BRANCH  56  70
ATOM     70  C   UNL A   1      41.623  34.352  35.591  1.00  0.00    -0.014 A 
ATOM     71  C   UNL A   1      41.052  34.237  36.868  1.00  0.00     0.009 A 
ATOM     72  C   UNL A   1      42.345  35.511  35.270  1.00  0.00     0.009 A 
ATOM     73  C   UNL A   1      41.172  35.277  37.791  1.00  0.00     0.001 A 
ATOM     74  C   UNL A   1      42.486  36.538  36.204  1.00  0.00     0.001 A 
ATOM     75  C   UNL A   1      41.892  36.425  37.460  1.00  0.00     0.000 A 
ENDBRANCH  56  70
BRANCH  57  76
ATOM     76  C   UNL A   1      40.196  27.352  28.601  1.00  0.00    -0.014 A 
ATOM     77  C   UNL A   1      39.471  26.181  28.872  1.00  0.00     0.009 A 
ATOM     78  C   UNL A   1      40.780  27.506  27.333  1.00  0.00     0.009 A 
ATOM     79  C   UNL A   1      39.358  25.177  27.908  1.00  0.00     0.001 A 
ATOM     80  C   UNL A   1      40.643  26.512  26.362  1.00  0.00     0.001 A 
ATOM     81  C   UNL A   1      39.941  25.343  26.653  1.00  0.00     0.000 A 
ENDBRANCH  57  76
BRANCH  69  82
ATOM     82  C   UNL A   1      45.132  28.456  33.391  1.00  0.00    -0.014 A 
ATOM     83  C   UNL A   1      46.362  28.683  32.757  1.00  0.00     0.009 A 
ATOM     84  C   UNL A   1      45.071  27.545  34.458  1.00  0.00     0.009 A 
ATOM     85  C   UNL A   1      47.505  27.994  33.172  1.00  0.00     0.001 A 
ATOM     86  C   UNL A   1      46.219  26.879  34.887  1.00  0.00     0.001 A 
ATOM     87  C   UNL A   1      47.433  27.099  34.239  1.00  0.00     0.000 A 
ENDBRANCH  69  82
ENDBRANCH  43  44
ENDBRANCH  36  38
ENDBRANCH  35  36
ENDBRANCH  34  35
ENDBRANCH  33  34
ENDBRANCH  32  33
ENDBRANCH  31  32
ENDBRANCH  30  31
ENDBRANCH  29  30
ENDBRANCH   1  29
TORSDOF 25
ENDMDL
