MODEL 1
REMARK VINA RESULT:      -9.1      0.000      0.000
REMARK SMILES CCCOc1ccccc1O[C@@H]1CC[C@@]([NH3+])(C(=O)OCCOCCOCCOCCOC(=O)c2ccc(-c3c4nc(c(-c5ccccc5)c5ccc([nH]5)c(-c5ccccc5)c5nc(c(-c6ccccc6)c6ccc3[nH]6)C=C5)C=C4)cc2)C1
REMARK SMILES IDX 23 1 22 2 21 3 20 4 19 5 17 6 18 7 15 8 12 9 13 10 82 11
REMARK SMILES IDX 14 12 11 13 10 14 5 15 6 16 7 17 9 18 8 19 4 20 3 21 2 22
REMARK SMILES IDX 1 23 16 24 24 28 25 29 26 30 27 31 28 32 29 33 30 34 31 35
REMARK SMILES IDX 32 36 33 37 34 38 35 39 81 40 36 41 80 42 37 43 38 44 39 45
REMARK SMILES IDX 74 46 40 47 79 48 73 49 75 50 41 51 78 52 72 53 71 54 42 56
REMARK SMILES IDX 64 57 49 58 63 59 50 60 53 61 62 62 76 63 51 64 52 65 61 67
REMARK SMILES IDX 77 68 54 69 43 70 44 71 48 72 45 73 47 74 46 75 65 76 66 77
REMARK SMILES IDX 70 78 67 79 69 80 68 81 55 82 56 83 60 84 57 85 59 86 58 87
REMARK H PARENT 16 25 16 26 16 27 75 55 53 66
REMARK Flexibility Score: inf
ROOT
ATOM      1  C   UNL A   1      34.644  30.109  27.515  1.00  0.00     0.188 C 
ENDROOT
BRANCH   1   2
ATOM      2  O   UNL A   1      34.233  28.784  27.258  1.00  0.00    -0.376 OA
BRANCH   2   3
ATOM      3  C   UNL A   1      32.982  28.608  26.616  1.00  0.00     0.202 C 
BRANCH   3   4
ATOM      4  C   UNL A   1      32.205  29.762  25.910  1.00  0.00     0.261 C 
BRANCH   4   5
ATOM      5  O   UNL A   1      31.715  29.624  24.553  1.00  0.00    -0.459 OA
BRANCH   5   6
ATOM      6  C   UNL A   1      32.459  28.955  23.612  1.00  0.00     0.368 C 
ATOM      7  O   UNL A   1      33.554  29.324  23.201  1.00  0.00    -0.245 OA
BRANCH   6   8
ATOM      8  C   UNL A   1      31.667  27.600  23.004  1.00  0.00     0.196 C 
ATOM      9  C   UNL A   1      32.741  24.497  23.299  1.00  0.00     0.180 C 
ATOM     10  C   UNL A   1      31.178  24.751  24.563  1.00  0.00     0.052 C 
ATOM     11  C   UNL A   1      32.966  26.239  22.243  1.00  0.00     0.126 C 
ATOM     12  C   UNL A   1      30.604  26.660  24.430  1.00  0.00     0.085 C 
BRANCH   9  13
ATOM     13  O   UNL A   1      33.109  23.282  22.699  1.00  0.00    -0.486 OA
BRANCH  13  14
ATOM     14  C   UNL A   1      34.074  22.603  23.330  1.00  0.00     0.161 A 
ATOM     15  C   UNL A   1      33.818  21.416  23.975  1.00  0.00     0.161 A 
ATOM     16  C   UNL A   1      34.825  20.804  24.707  1.00  0.00     0.050 A 
ATOM     17  C   UNL A   1      36.092  21.399  24.769  1.00  0.00     0.004 A 
ATOM     18  C   UNL A   1      35.318  23.222  23.406  1.00  0.00     0.050 A 
ATOM     19  C   UNL A   1      36.335  22.616  24.129  1.00  0.00     0.004 A 
BRANCH  15  20
ATOM     20  O   UNL A   1      32.526  21.026  24.126  1.00  0.00    -0.490 OA
BRANCH  20  21
ATOM     21  C   UNL A   1      31.776  21.368  25.399  1.00  0.00     0.229 C 
BRANCH  21  22
ATOM     22  C   UNL A   1      32.441  22.356  27.233  1.00  0.00     0.038 C 
ATOM     23  C   UNL A   1      34.052  22.715  27.867  1.00  0.00     0.007 C 
ENDBRANCH  21  22
ENDBRANCH  20  21
ENDBRANCH  15  20
ENDBRANCH  13  14
ENDBRANCH   9  13
BRANCH   8  24
ATOM     24  N   UNL A   1      30.757  28.254  22.019  1.00  0.00    -0.343 N 
ATOM     25  H   UNL A   1      31.267  28.979  21.514  1.00  0.00     0.345 HD
ATOM     26  H   UNL A   1      29.968  28.673  22.510  1.00  0.00     0.345 HD
ATOM     27  H   UNL A   1      30.414  27.557  21.358  1.00  0.00     0.345 HD
ENDBRANCH   8  24
ENDBRANCH   6   8
ENDBRANCH   5   6
ENDBRANCH   4   5
ENDBRANCH   3   4
ENDBRANCH   2   3
ENDBRANCH   1   2
BRANCH   1  28
ATOM     28  C   UNL A   1      35.771  30.349  28.526  1.00  0.00     0.188 C 
BRANCH  28  29
ATOM     29  O   UNL A   1      35.571  31.500  29.312  1.00  0.00    -0.377 OA
BRANCH  29  30
ATOM     30  C   UNL A   1      35.083  32.608  28.590  1.00  0.00     0.188 C 
BRANCH  30  31
ATOM     31  C   UNL A   1      34.041  33.480  29.318  1.00  0.00     0.188 C 
BRANCH  31  32
ATOM     32  O   UNL A   1      34.579  34.227  30.400  1.00  0.00    -0.376 OA
BRANCH  32  33
ATOM     33  C   UNL A   1      34.407  33.848  31.752  1.00  0.00     0.202 C 
BRANCH  33  34
ATOM     34  C   UNL A   1      35.235  32.712  32.377  1.00  0.00     0.261 C 
BRANCH  34  35
ATOM     35  O   UNL A   1      36.037  33.035  33.512  1.00  0.00    -0.460 OA
BRANCH  35  36
ATOM     36  C   UNL A   1      37.172  33.729  33.284  1.00  0.00     0.338 C 
ATOM     37  O   UNL A   1      37.543  34.740  33.847  1.00  0.00    -0.246 OA
BRANCH  36  38
ATOM     38  C   UNL A   1      37.999  32.910  32.372  1.00  0.00     0.060 A 
ATOM     39  C   UNL A   1      38.719  31.835  32.909  1.00  0.00     0.016 A 
ATOM     40  C   UNL A   1      38.006  33.155  30.995  1.00  0.00     0.016 A 
ATOM     41  C   UNL A   1      39.453  31.000  32.073  1.00  0.00     0.010 A 
ATOM     42  C   UNL A   1      38.789  32.352  30.164  1.00  0.00     0.010 A 
ATOM     43  C   UNL A   1      39.535  31.292  30.708  1.00  0.00    -0.014 A 
BRANCH  43  44
ATOM     44  C   UNL A   1      40.618  30.668  29.919  1.00  0.00     0.031 A 
ATOM     45  C   UNL A   1      41.861  31.482  29.693  1.00  0.00     0.074 A 
ATOM     46  C   UNL A   1      40.530  29.407  29.467  1.00  0.00     0.049 A 
ATOM     47  N   UNL A   1      42.944  31.180  29.026  1.00  0.00    -0.248 NA
ATOM     48  C   UNL A   1      41.886  32.821  30.310  1.00  0.00     0.031 C 
ATOM     49  C   UNL A   1      39.407  28.499  29.689  1.00  0.00     0.029 A 
ATOM     50  N   UNL A   1      41.418  28.674  28.721  1.00  0.00    -0.354 N 
ATOM     51  C   UNL A   1      43.770  32.290  29.139  1.00  0.00     0.074 A 
ATOM     52  C   UNL A   1      43.058  33.282  29.910  1.00  0.00     0.031 C 
ATOM     53  C   UNL A   1      39.669  27.328  29.079  1.00  0.00     0.029 A 
ATOM     54  C   UNL A   1      40.960  27.420  28.399  1.00  0.00     0.049 A 
ATOM     55  H   UNL A   1      42.298  29.014  28.443  1.00  0.00     0.167 HD
ATOM     56  C   UNL A   1      45.018  32.467  28.645  1.00  0.00     0.031 A 
ATOM     57  C   UNL A   1      41.516  26.471  27.621  1.00  0.00     0.031 A 
ATOM     58  C   UNL A   1      45.710  31.488  27.854  1.00  0.00     0.049 A 
ATOM     59  C   UNL A   1      42.860  26.736  26.990  1.00  0.00     0.074 A 
ATOM     60  C   UNL A   1      46.973  31.567  27.299  1.00  0.00     0.029 A 
ATOM     61  N   UNL A   1      45.188  30.254  27.499  1.00  0.00    -0.354 N 
ATOM     62  N   UNL A   1      43.643  27.782  27.112  1.00  0.00    -0.248 NA
ATOM     63  C   UNL A   1      43.399  25.683  26.117  1.00  0.00     0.031 C 
ATOM     64  C   UNL A   1      47.190  30.407  26.549  1.00  0.00     0.029 A 
ATOM     65  C   UNL A   1      46.092  29.574  26.703  1.00  0.00     0.049 A 
ATOM     66  H   UNL A   1      44.306  29.913  27.771  1.00  0.00     0.167 HD
ATOM     67  C   UNL A   1      44.780  27.496  26.364  1.00  0.00     0.074 A 
ATOM     68  C   UNL A   1      44.589  26.173  25.805  1.00  0.00     0.031 C 
ATOM     69  C   UNL A   1      45.885  28.256  26.160  1.00  0.00     0.031 A 
BRANCH  56  70
ATOM     70  C   UNL A   1      45.681  33.788  28.910  1.00  0.00    -0.014 A 
ATOM     71  C   UNL A   1      45.504  34.884  28.051  1.00  0.00     0.009 A 
ATOM     72  C   UNL A   1      46.487  33.942  30.048  1.00  0.00     0.009 A 
ATOM     73  C   UNL A   1      46.147  36.097  28.310  1.00  0.00     0.001 A 
ATOM     74  C   UNL A   1      47.103  35.164  30.322  1.00  0.00     0.001 A 
ATOM     75  C   UNL A   1      46.940  36.237  29.448  1.00  0.00     0.000 A 
ENDBRANCH  56  70
BRANCH  57  76
ATOM     76  C   UNL A   1      40.800  25.192  27.365  1.00  0.00    -0.014 A 
ATOM     77  C   UNL A   1      39.567  25.180  26.697  1.00  0.00     0.009 A 
ATOM     78  C   UNL A   1      41.329  23.976  27.829  1.00  0.00     0.009 A 
ATOM     79  C   UNL A   1      38.864  23.984  26.526  1.00  0.00     0.001 A 
ATOM     80  C   UNL A   1      40.641  22.779  27.627  1.00  0.00     0.001 A 
ATOM     81  C   UNL A   1      39.403  22.785  26.988  1.00  0.00     0.000 A 
ENDBRANCH  57  76
BRANCH  69  82
ATOM     82  C   UNL A   1      46.996  27.658  25.340  1.00  0.00    -0.014 A 
ATOM     83  C   UNL A   1      47.984  26.847  25.918  1.00  0.00     0.009 A 
ATOM     84  C   UNL A   1      47.020  27.873  23.951  1.00  0.00     0.009 A 
ATOM     85  C   UNL A   1      48.994  26.293  25.128  1.00  0.00     0.001 A 
ATOM     86  C   UNL A   1      48.009  27.290  23.160  1.00  0.00     0.001 A 
ATOM     87  C   UNL A   1      49.002  26.511  23.750  1.00  0.00     0.000 A 
ENDBRANCH  69  82
ENDBRANCH  43  44
ENDBRANCH  36  38
ENDBRANCH  35  36
ENDBRANCH  34  35
ENDBRANCH  33  34
ENDBRANCH  32  33
ENDBRANCH  31  32
ENDBRANCH  30  31
ENDBRANCH  29  30
ENDBRANCH  28  29
ENDBRANCH   1  28
TORSDOF 26
ENDMDL
MODEL 2
REMARK VINA RESULT:      -8.9      2.829      9.020
REMARK SMILES CCCOc1ccccc1O[C@@H]1CC[C@@]([NH3+])(C(=O)OCCOCCOCCOCCOC(=O)c2ccc(-c3c4nc(c(-c5ccccc5)c5ccc([nH]5)c(-c5ccccc5)c5nc(c(-c6ccccc6)c6ccc3[nH]6)C=C5)C=C4)cc2)C1
REMARK SMILES IDX 23 1 22 2 21 3 20 4 19 5 17 6 18 7 15 8 12 9 13 10 82 11
REMARK SMILES IDX 14 12 11 13 10 14 5 15 6 16 7 17 9 18 8 19 4 20 3 21 2 22
REMARK SMILES IDX 1 23 16 24 24 28 25 29 26 30 27 31 28 32 29 33 30 34 31 35
REMARK SMILES IDX 32 36 33 37 34 38 35 39 81 40 36 41 80 42 37 43 38 44 39 45
REMARK SMILES IDX 74 46 40 47 79 48 73 49 75 50 41 51 78 52 72 53 71 54 42 56
REMARK SMILES IDX 64 57 49 58 63 59 50 60 53 61 62 62 76 63 51 64 52 65 61 67
REMARK SMILES IDX 77 68 54 69 43 70 44 71 48 72 45 73 47 74 46 75 65 76 66 77
REMARK SMILES IDX 70 78 67 79 69 80 68 81 55 82 56 83 60 84 57 85 59 86 58 87
REMARK H PARENT 16 25 16 26 16 27 75 55 53 66
REMARK Flexibility Score: inf
ROOT
ATOM      1  C   UNL A   1      32.097  17.240  24.648  1.00  0.00     0.188 C 
ENDROOT
BRANCH   1   2
ATOM      2  O   UNL A   1      32.403  18.200  23.660  1.00  0.00    -0.376 OA
BRANCH   2   3
ATOM      3  C   UNL A   1      32.585  19.537  24.092  1.00  0.00     0.202 C 
BRANCH   3   4
ATOM      4  C   UNL A   1      32.778  19.943  25.586  1.00  0.00     0.261 C 
BRANCH   4   5
ATOM      5  O   UNL A   1      32.971  21.325  25.975  1.00  0.00    -0.459 OA
BRANCH   5   6
ATOM      6  C   UNL A   1      33.504  22.228  25.088  1.00  0.00     0.368 C 
ATOM      7  O   UNL A   1      34.543  22.053  24.460  1.00  0.00    -0.245 OA
BRANCH   6   8
ATOM      8  C   UNL A   1      32.621  23.658  25.009  1.00  0.00     0.196 C 
ATOM      9  C   UNL A   1      33.617  26.410  23.492  1.00  0.00     0.180 C 
ATOM     10  C   UNL A   1      32.177  25.546  22.359  1.00  0.00     0.052 C 
ATOM     11  C   UNL A   1      33.807  25.295  25.201  1.00  0.00     0.126 C 
ATOM     12  C   UNL A   1      31.654  23.839  23.254  1.00  0.00     0.085 C 
BRANCH   9  13
ATOM     13  O   UNL A   1      33.893  27.786  23.540  1.00  0.00    -0.486 OA
BRANCH  13  14
ATOM     14  C   UNL A   1      33.172  28.483  24.427  1.00  0.00     0.161 A 
ATOM     15  C   UNL A   1      31.926  28.974  24.115  1.00  0.00     0.161 A 
ATOM     16  C   UNL A   1      31.263  29.782  25.027  1.00  0.00     0.050 A 
ATOM     17  C   UNL A   1      31.867  30.076  26.257  1.00  0.00     0.004 A 
ATOM     18  C   UNL A   1      33.798  28.790  25.630  1.00  0.00     0.050 A 
ATOM     19  C   UNL A   1      33.142  29.591  26.553  1.00  0.00     0.004 A 
BRANCH  15  20
ATOM     20  O   UNL A   1      31.506  28.905  22.827  1.00  0.00    -0.490 OA
BRANCH  20  21
ATOM     21  C   UNL A   1      30.053  28.596  22.520  1.00  0.00     0.229 C 
BRANCH  21  22
ATOM     22  C   UNL A   1      28.285  29.883  22.508  1.00  0.00     0.038 C 
ATOM     23  C   UNL A   1      27.755  31.177  23.591  1.00  0.00     0.007 C 
ENDBRANCH  21  22
ENDBRANCH  20  21
ENDBRANCH  15  20
ENDBRANCH  13  14
ENDBRANCH   9  13
BRANCH   8  24
ATOM     24  N   UNL A   1      31.652  23.423  26.119  1.00  0.00    -0.343 N 
ATOM     25  H   UNL A   1      30.728  23.754  25.839  1.00  0.00     0.345 HD
ATOM     26  H   UNL A   1      31.956  23.931  26.950  1.00  0.00     0.345 HD
ATOM     27  H   UNL A   1      31.608  22.426  26.327  1.00  0.00     0.345 HD
ENDBRANCH   8  24
ENDBRANCH   6   8
ENDBRANCH   5   6
ENDBRANCH   4   5
ENDBRANCH   3   4
ENDBRANCH   2   3
ENDBRANCH   1   2
BRANCH   1  28
ATOM     28  C   UNL A   1      33.161  16.203  25.023  1.00  0.00     0.188 C 
BRANCH  28  29
ATOM     29  O   UNL A   1      34.336  16.315  24.253  1.00  0.00    -0.377 OA
BRANCH  29  30
ATOM     30  C   UNL A   1      35.434  16.845  24.960  1.00  0.00     0.188 C 
BRANCH  30  31
ATOM     31  C   UNL A   1      35.763  18.325  24.683  1.00  0.00     0.188 C 
BRANCH  31  32
ATOM     32  O   UNL A   1      37.069  18.705  25.094  1.00  0.00    -0.376 OA
BRANCH  32  33
ATOM     33  C   UNL A   1      37.664  19.932  24.717  1.00  0.00     0.202 C 
BRANCH  33  34
ATOM     34  C   UNL A   1      37.919  21.047  25.745  1.00  0.00     0.261 C 
BRANCH  34  35
ATOM     35  O   UNL A   1      39.193  21.690  25.711  1.00  0.00    -0.460 OA
BRANCH  35  36
ATOM     36  C   UNL A   1      39.987  21.536  26.791  1.00  0.00     0.338 C 
ATOM     37  O   UNL A   1      40.451  20.498  27.222  1.00  0.00    -0.246 OA
BRANCH  36  38
ATOM     38  C   UNL A   1      40.377  22.891  27.235  1.00  0.00     0.060 A 
ATOM     39  C   UNL A   1      39.712  23.991  26.676  1.00  0.00     0.016 A 
ATOM     40  C   UNL A   1      41.332  23.070  28.239  1.00  0.00     0.016 A 
ATOM     41  C   UNL A   1      40.003  25.278  27.117  1.00  0.00     0.010 A 
ATOM     42  C   UNL A   1      41.664  24.365  28.641  1.00  0.00     0.010 A 
ATOM     43  C   UNL A   1      41.019  25.471  28.059  1.00  0.00    -0.014 A 
BRANCH  43  44
ATOM     44  C   UNL A   1      41.590  26.825  28.209  1.00  0.00     0.031 A 
ATOM     45  C   UNL A   1      42.897  27.101  27.519  1.00  0.00     0.074 A 
ATOM     46  C   UNL A   1      40.951  27.794  28.885  1.00  0.00     0.049 A 
ATOM     47  N   UNL A   1      43.616  28.193  27.505  1.00  0.00    -0.248 NA
ATOM     48  C   UNL A   1      43.466  25.993  26.731  1.00  0.00     0.031 C 
ATOM     49  C   UNL A   1      39.647  27.663  29.531  1.00  0.00     0.029 A 
ATOM     50  N   UNL A   1      41.326  29.090  29.134  1.00  0.00    -0.354 N 
ATOM     51  C   UNL A   1      44.721  27.898  26.717  1.00  0.00     0.074 A 
ATOM     52  C   UNL A   1      44.595  26.523  26.294  1.00  0.00     0.031 C 
ATOM     53  C   UNL A   1      39.334  28.834  30.116  1.00  0.00     0.029 A 
ATOM     54  C   UNL A   1      40.431  29.780  29.913  1.00  0.00     0.049 A 
ATOM     55  H   UNL A   1      42.158  29.486  28.790  1.00  0.00     0.167 HD
ATOM     56  C   UNL A   1      45.750  28.706  26.371  1.00  0.00     0.031 A 
ATOM     57  C   UNL A   1      40.508  31.026  30.420  1.00  0.00     0.031 A 
ATOM     58  C   UNL A   1      45.884  30.064  26.818  1.00  0.00     0.049 A 
ATOM     59  C   UNL A   1      41.719  31.868  30.111  1.00  0.00     0.074 A 
ATOM     60  C   UNL A   1      46.891  30.968  26.534  1.00  0.00     0.029 A 
ATOM     61  N   UNL A   1      44.987  30.708  27.655  1.00  0.00    -0.354 N 
ATOM     62  N   UNL A   1      42.753  31.590  29.353  1.00  0.00    -0.248 NA
ATOM     63  C   UNL A   1      41.769  33.203  30.726  1.00  0.00     0.031 C 
ATOM     64  C   UNL A   1      46.637  32.139  27.254  1.00  0.00     0.029 A 
ATOM     65  C   UNL A   1      45.432  31.989  27.924  1.00  0.00     0.049 A 
ATOM     66  H   UNL A   1      44.156  30.312  28.006  1.00  0.00     0.167 HD
ATOM     67  C   UNL A   1      43.556  32.725  29.370  1.00  0.00     0.074 A 
ATOM     68  C   UNL A   1      42.880  33.700  30.202  1.00  0.00     0.031 C 
ATOM     69  C   UNL A   1      44.742  32.946  28.751  1.00  0.00     0.031 A 
BRANCH  56  70
ATOM     70  C   UNL A   1      46.828  28.114  25.509  1.00  0.00    -0.014 A 
ATOM     71  C   UNL A   1      47.996  27.568  26.064  1.00  0.00     0.009 A 
ATOM     72  C   UNL A   1      46.665  28.091  24.115  1.00  0.00     0.009 A 
ATOM     73  C   UNL A   1      48.992  27.040  25.239  1.00  0.00     0.001 A 
ATOM     74  C   UNL A   1      47.647  27.535  23.295  1.00  0.00     0.001 A 
ATOM     75  C   UNL A   1      48.814  27.019  23.856  1.00  0.00     0.000 A 
ENDBRANCH  56  70
BRANCH  57  76
ATOM     76  C   UNL A   1      39.425  31.550  31.296  1.00  0.00    -0.014 A 
ATOM     77  C   UNL A   1      39.528  31.469  32.692  1.00  0.00     0.009 A 
ATOM     78  C   UNL A   1      38.260  32.099  30.735  1.00  0.00     0.009 A 
ATOM     79  C   UNL A   1      38.476  31.895  33.507  1.00  0.00     0.001 A 
ATOM     80  C   UNL A   1      37.225  32.555  31.552  1.00  0.00     0.001 A 
ATOM     81  C   UNL A   1      37.327  32.441  32.937  1.00  0.00     0.000 A 
ENDBRANCH  57  76
BRANCH  69  82
ATOM     82  C   UNL A   1      45.363  34.308  28.906  1.00  0.00    -0.014 A 
ATOM     83  C   UNL A   1      46.288  34.584  29.924  1.00  0.00     0.009 A 
ATOM     84  C   UNL A   1      45.050  35.317  27.979  1.00  0.00     0.009 A 
ATOM     85  C   UNL A   1      46.859  35.855  30.033  1.00  0.00     0.001 A 
ATOM     86  C   UNL A   1      45.649  36.573  28.069  1.00  0.00     0.001 A 
ATOM     87  C   UNL A   1      46.543  36.845  29.102  1.00  0.00     0.000 A 
ENDBRANCH  69  82
ENDBRANCH  43  44
ENDBRANCH  36  38
ENDBRANCH  35  36
ENDBRANCH  34  35
ENDBRANCH  33  34
ENDBRANCH  32  33
ENDBRANCH  31  32
ENDBRANCH  30  31
ENDBRANCH  29  30
ENDBRANCH  28  29
ENDBRANCH   1  28
TORSDOF 26
ENDMDL
MODEL 3
REMARK VINA RESULT:      -8.4      2.291      9.084
REMARK SMILES CCCOc1ccccc1O[C@@H]1CC[C@@]([NH3+])(C(=O)OCCOCCOCCOCCOC(=O)c2ccc(-c3c4nc(c(-c5ccccc5)c5ccc([nH]5)c(-c5ccccc5)c5nc(c(-c6ccccc6)c6ccc3[nH]6)C=C5)C=C4)cc2)C1
REMARK SMILES IDX 23 1 22 2 21 3 20 4 19 5 17 6 18 7 15 8 12 9 13 10 82 11
REMARK SMILES IDX 14 12 11 13 10 14 5 15 6 16 7 17 9 18 8 19 4 20 3 21 2 22
REMARK SMILES IDX 1 23 16 24 24 28 25 29 26 30 27 31 28 32 29 33 30 34 31 35
REMARK SMILES IDX 32 36 33 37 34 38 35 39 81 40 36 41 80 42 37 43 38 44 39 45
REMARK SMILES IDX 74 46 40 47 79 48 73 49 75 50 41 51 78 52 72 53 71 54 42 56
REMARK SMILES IDX 64 57 49 58 63 59 50 60 53 61 62 62 76 63 51 64 52 65 61 67
REMARK SMILES IDX 77 68 54 69 43 70 44 71 48 72 45 73 47 74 46 75 65 76 66 77
REMARK SMILES IDX 70 78 67 79 69 80 68 81 55 82 56 83 60 84 57 85 59 86 58 87
REMARK H PARENT 16 25 16 26 16 27 75 55 53 66
REMARK Flexibility Score: inf
ROOT
ATOM      1  C   UNL A   1      32.169  16.952  24.410  1.00  0.00     0.188 C 
ENDROOT
BRANCH   1   2
ATOM      2  O   UNL A   1      32.709  18.095  23.783  1.00  0.00    -0.376 OA
BRANCH   2   3
ATOM      3  C   UNL A   1      32.334  19.357  24.306  1.00  0.00     0.202 C 
BRANCH   3   4
ATOM      4  C   UNL A   1      33.153  20.118  25.393  1.00  0.00     0.261 C 
BRANCH   4   5
ATOM      5  O   UNL A   1      33.005  21.546  25.590  1.00  0.00    -0.459 OA
BRANCH   5   6
ATOM      6  C   UNL A   1      33.493  22.430  24.657  1.00  0.00     0.368 C 
ATOM      7  O   UNL A   1      34.490  22.233  23.971  1.00  0.00    -0.245 OA
BRANCH   6   8
ATOM      8  C   UNL A   1      32.623  23.869  24.611  1.00  0.00     0.196 C 
ATOM      9  C   UNL A   1      33.625  26.632  23.118  1.00  0.00     0.180 C 
ATOM     10  C   UNL A   1      32.161  25.798  21.994  1.00  0.00     0.052 C 
ATOM     11  C   UNL A   1      33.827  25.491  24.809  1.00  0.00     0.126 C 
ATOM     12  C   UNL A   1      31.635  24.083  22.872  1.00  0.00     0.085 C 
BRANCH   9  13
ATOM     13  O   UNL A   1      33.916  28.005  23.181  1.00  0.00    -0.486 OA
BRANCH  13  14
ATOM     14  C   UNL A   1      33.013  28.750  23.830  1.00  0.00     0.161 A 
ATOM     15  C   UNL A   1      33.255  29.237  25.093  1.00  0.00     0.161 A 
ATOM     16  C   UNL A   1      32.249  29.911  25.769  1.00  0.00     0.050 A 
ATOM     17  C   UNL A   1      31.005  30.096  25.152  1.00  0.00     0.004 A 
ATOM     18  C   UNL A   1      31.775  28.899  23.215  1.00  0.00     0.050 A 
ATOM     19  C   UNL A   1      30.763  29.578  23.878  1.00  0.00     0.004 A 
BRANCH  15  20
ATOM     20  O   UNL A   1      34.353  28.797  25.759  1.00  0.00    -0.490 OA
BRANCH  20  21
ATOM     21  C   UNL A   1      34.660  29.327  27.146  1.00  0.00     0.229 C 
BRANCH  21  22
ATOM     22  C   UNL A   1      35.895  31.011  27.797  1.00  0.00     0.038 C 
ATOM     23  C   UNL A   1      35.538  32.730  28.005  1.00  0.00     0.007 C 
ENDBRANCH  21  22
ENDBRANCH  20  21
ENDBRANCH  15  20
ENDBRANCH  13  14
ENDBRANCH   9  13
BRANCH   8  24
ATOM     24  N   UNL A   1      31.667  23.628  25.731  1.00  0.00    -0.343 N 
ATOM     25  H   UNL A   1      30.718  23.834  25.418  1.00  0.00     0.345 HD
ATOM     26  H   UNL A   1      31.904  24.233  26.517  1.00  0.00     0.345 HD
ATOM     27  H   UNL A   1      31.724  22.653  26.023  1.00  0.00     0.345 HD
ENDBRANCH   8  24
ENDBRANCH   6   8
ENDBRANCH   5   6
ENDBRANCH   4   5
ENDBRANCH   3   4
ENDBRANCH   2   3
ENDBRANCH   1   2
BRANCH   1  28
ATOM     28  C   UNL A   1      33.072  16.119  25.326  1.00  0.00     0.188 C 
BRANCH  28  29
ATOM     29  O   UNL A   1      34.274  15.724  24.706  1.00  0.00    -0.377 OA
BRANCH  29  30
ATOM     30  C   UNL A   1      35.415  16.394  25.192  1.00  0.00     0.188 C 
BRANCH  30  31
ATOM     31  C   UNL A   1      35.650  17.813  24.638  1.00  0.00     0.188 C 
BRANCH  31  32
ATOM     32  O   UNL A   1      36.912  18.361  24.993  1.00  0.00    -0.376 OA
BRANCH  32  33
ATOM     33  C   UNL A   1      37.360  19.618  24.525  1.00  0.00     0.202 C 
BRANCH  33  34
ATOM     34  C   UNL A   1      37.310  20.870  25.417  1.00  0.00     0.261 C 
BRANCH  34  35
ATOM     35  O   UNL A   1      38.479  21.687  25.466  1.00  0.00    -0.460 OA
BRANCH  35  36
ATOM     36  C   UNL A   1      39.376  21.416  26.437  1.00  0.00     0.338 C 
ATOM     37  O   UNL A   1      39.784  20.323  26.779  1.00  0.00    -0.246 OA
BRANCH  36  38
ATOM     38  C   UNL A   1      39.945  22.710  26.868  1.00  0.00     0.060 A 
ATOM     39  C   UNL A   1      39.431  23.885  26.304  1.00  0.00     0.016 A 
ATOM     40  C   UNL A   1      40.921  22.767  27.868  1.00  0.00     0.016 A 
ATOM     41  C   UNL A   1      39.894  25.125  26.734  1.00  0.00     0.010 A 
ATOM     42  C   UNL A   1      41.426  24.009  28.258  1.00  0.00     0.010 A 
ATOM     43  C   UNL A   1      40.932  25.186  27.670  1.00  0.00    -0.014 A 
BRANCH  43  44
ATOM     44  C   UNL A   1      41.680  26.454  27.807  1.00  0.00     0.031 A 
ATOM     45  C   UNL A   1      41.066  27.524  28.666  1.00  0.00     0.074 A 
ATOM     46  C   UNL A   1      42.883  26.633  27.239  1.00  0.00     0.049 A 
ATOM     47  N   UNL A   1      41.503  28.726  28.936  1.00  0.00    -0.248 NA
ATOM     48  C   UNL A   1      39.786  27.188  29.314  1.00  0.00     0.031 C 
ATOM     49  C   UNL A   1      43.608  25.640  26.448  1.00  0.00     0.029 A 
ATOM     50  N   UNL A   1      43.708  27.729  27.249  1.00  0.00    -0.354 N 
ATOM     51  C   UNL A   1      40.549  29.287  29.776  1.00  0.00     0.074 A 
ATOM     52  C   UNL A   1      39.499  28.311  29.949  1.00  0.00     0.031 C 
ATOM     53  C   UNL A   1      44.770  26.180  26.037  1.00  0.00     0.029 A 
ATOM     54  C   UNL A   1      44.851  27.562  26.507  1.00  0.00     0.049 A 
ATOM     55  H   UNL A   1      43.500  28.555  27.740  1.00  0.00     0.167 HD
ATOM     56  C   UNL A   1      40.551  30.509  30.356  1.00  0.00     0.031 A 
ATOM     57  C   UNL A   1      45.834  28.439  26.226  1.00  0.00     0.031 A 
ATOM     58  C   UNL A   1      41.584  31.486  30.158  1.00  0.00     0.049 A 
ATOM     59  C   UNL A   1      45.756  29.833  26.795  1.00  0.00     0.074 A 
ATOM     60  C   UNL A   1      41.680  32.758  30.692  1.00  0.00     0.029 A 
ATOM     61  N   UNL A   1      42.696  31.301  29.351  1.00  0.00    -0.354 N 
ATOM     62  N   UNL A   1      44.860  30.353  27.600  1.00  0.00    -0.248 NA
ATOM     63  C   UNL A   1      46.833  30.761  26.419  1.00  0.00     0.031 C 
ATOM     64  C   UNL A   1      42.817  33.368  30.154  1.00  0.00     0.029 A 
ATOM     65  C   UNL A   1      43.469  32.448  29.347  1.00  0.00     0.049 A 
ATOM     66  H   UNL A   1      42.904  30.477  28.854  1.00  0.00     0.167 HD
ATOM     67  C   UNL A   1      45.284  31.652  27.856  1.00  0.00     0.074 A 
ATOM     68  C   UNL A   1      46.526  31.835  27.132  1.00  0.00     0.031 C 
ATOM     69  C   UNL A   1      44.704  32.608  28.623  1.00  0.00     0.031 A 
BRANCH  56  70
ATOM     70  C   UNL A   1      39.371  30.863  31.216  1.00  0.00    -0.014 A 
ATOM     71  C   UNL A   1      39.463  30.882  32.617  1.00  0.00     0.009 A 
ATOM     72  C   UNL A   1      38.150  31.198  30.612  1.00  0.00     0.009 A 
ATOM     73  C   UNL A   1      38.346  31.197  33.394  1.00  0.00     0.001 A 
ATOM     74  C   UNL A   1      37.045  31.544  31.390  1.00  0.00     0.001 A 
ATOM     75  C   UNL A   1      37.140  31.533  32.780  1.00  0.00     0.000 A 
ENDBRANCH  56  70
BRANCH  57  76
ATOM     76  C   UNL A   1      46.964  28.045  25.341  1.00  0.00    -0.014 A 
ATOM     77  C   UNL A   1      48.206  27.681  25.881  1.00  0.00     0.009 A 
ATOM     78  C   UNL A   1      46.816  28.073  23.945  1.00  0.00     0.009 A 
ATOM     79  C   UNL A   1      49.285  27.385  25.043  1.00  0.00     0.001 A 
ATOM     80  C   UNL A   1      47.885  27.745  23.110  1.00  0.00     0.001 A 
ATOM     81  C   UNL A   1      49.122  27.413  23.659  1.00  0.00     0.000 A 
ENDBRANCH  57  76
BRANCH  69  82
ATOM     82  C   UNL A   1      45.428  33.920  28.763  1.00  0.00    -0.014 A 
ATOM     83  C   UNL A   1      46.307  34.166  29.829  1.00  0.00     0.009 A 
ATOM     84  C   UNL A   1      45.263  34.907  27.776  1.00  0.00     0.009 A 
ATOM     85  C   UNL A   1      46.976  35.388  29.923  1.00  0.00     0.001 A 
ATOM     86  C   UNL A   1      45.960  36.112  27.855  1.00  0.00     0.001 A 
ATOM     87  C   UNL A   1      46.807  36.356  28.933  1.00  0.00     0.000 A 
ENDBRANCH  69  82
ENDBRANCH  43  44
ENDBRANCH  36  38
ENDBRANCH  35  36
ENDBRANCH  34  35
ENDBRANCH  33  34
ENDBRANCH  32  33
ENDBRANCH  31  32
ENDBRANCH  30  31
ENDBRANCH  29  30
ENDBRANCH  28  29
ENDBRANCH   1  28
TORSDOF 26
ENDMDL
