MODEL 1
REMARK VINA RESULT:      -8.9      0.000      0.000
REMARK SMILES O=C(OCCOCCOCCOCCOC(=O)[C@@H]1CCCN(C(=O)Nc2ccccc2)C1)c1ccc(-c2c3nc(c(-c4ccccc4)c4ccc([nH]4)c(-c4ccccc4)c4nc(c(-c5ccccc5)c5ccc2[nH]5)C=C4)C=C3)cc1
REMARK SMILES IDX 9 1 8 2 7 3 6 4 5 5 4 6 3 7 2 8 1 9 33 10 34 11 80 12 35 13
REMARK SMILES IDX 79 14 36 15 37 16 38 17 73 18 39 19 78 20 72 21 74 22 40 23
REMARK SMILES IDX 77 24 71 25 70 26 41 28 63 29 48 30 62 31 49 32 52 33 61 34
REMARK SMILES IDX 75 35 50 36 51 37 60 39 76 40 53 41 42 42 43 43 47 44 44 45
REMARK SMILES IDX 46 46 45 47 64 48 65 49 69 50 66 51 68 52 67 53 54 54 55 55
REMARK SMILES IDX 59 56 56 57 58 58 57 59 10 60 11 61 12 62 13 63 14 64 15 65
REMARK SMILES IDX 16 66 17 67 18 68 19 69 32 70 20 71 22 72 21 73 23 74 24 75
REMARK SMILES IDX 25 76 26 78 27 79 31 80 28 81 30 82 29 83
REMARK H PARENT 74 27 52 38 25 77
REMARK Flexibility Score: inf
ROOT
ATOM      1  O   UNL A   1      37.643  22.675  26.310  1.00  0.00    -0.377 OA
ENDROOT
BRANCH   1   2
ATOM      2  C   UNL A   1      39.048  22.771  26.446  1.00  0.00     0.188 C 
BRANCH   2   3
ATOM      3  C   UNL A   1      39.749  21.435  26.265  1.00  0.00     0.188 C 
BRANCH   3   4
ATOM      4  O   UNL A   1      40.476  21.075  27.432  1.00  0.00    -0.376 OA
BRANCH   4   5
ATOM      5  C   UNL A   1      41.249  19.881  27.362  1.00  0.00     0.202 C 
BRANCH   5   6
ATOM      6  C   UNL A   1      41.256  19.368  25.928  1.00  0.00     0.261 C 
BRANCH   6   7
ATOM      7  O   UNL A   1      42.519  18.751  25.643  1.00  0.00    -0.460 OA
BRANCH   7   8
ATOM      8  C   UNL A   1      43.626  19.330  25.124  1.00  0.00     0.338 C 
ATOM      9  O   UNL A   1      44.381  18.628  24.451  1.00  0.00    -0.246 OA
BRANCH   8  10
ATOM     10  C   UNL A   1      43.976  20.784  25.255  1.00  0.00     0.060 A 
ATOM     11  C   UNL A   1      43.887  21.757  24.254  1.00  0.00     0.016 A 
ATOM     12  C   UNL A   1      44.312  21.215  26.550  1.00  0.00     0.016 A 
ATOM     13  C   UNL A   1      44.057  23.109  24.525  1.00  0.00     0.010 A 
ATOM     14  C   UNL A   1      44.491  22.570  26.834  1.00  0.00     0.010 A 
ATOM     15  C   UNL A   1      44.335  23.522  25.821  1.00  0.00    -0.014 A 
BRANCH  15  16
ATOM     16  C   UNL A   1      44.543  24.953  26.084  1.00  0.00     0.031 A 
ATOM     17  C   UNL A   1      45.903  25.518  25.847  1.00  0.00     0.074 A 
ATOM     18  C   UNL A   1      43.510  25.722  26.475  1.00  0.00     0.049 A 
ATOM     19  N   UNL A   1      46.392  26.671  26.206  1.00  0.00    -0.248 NA
ATOM     20  C   UNL A   1      46.843  24.661  25.102  1.00  0.00     0.031 C 
ATOM     21  C   UNL A   1      42.116  25.282  26.589  1.00  0.00     0.029 A 
ATOM     22  N   UNL A   1      43.475  27.039  26.843  1.00  0.00    -0.354 N 
ATOM     23  C   UNL A   1      47.715  26.655  25.788  1.00  0.00     0.074 A 
ATOM     24  C   UNL A   1      47.947  25.392  25.127  1.00  0.00     0.031 C 
ATOM     25  C   UNL A   1      41.363  26.316  26.997  1.00  0.00     0.029 A 
ATOM     26  C   UNL A   1      42.231  27.456  27.258  1.00  0.00     0.049 A 
ATOM     27  H   UNL A   1      44.262  27.630  26.814  1.00  0.00     0.167 HD
ATOM     28  C   UNL A   1      48.651  27.611  25.976  1.00  0.00     0.031 A 
ATOM     29  C   UNL A   1      41.867  28.611  27.843  1.00  0.00     0.031 A 
ATOM     30  C   UNL A   1      48.374  28.854  26.639  1.00  0.00     0.049 A 
ATOM     31  C   UNL A   1      42.947  29.623  28.121  1.00  0.00     0.074 A 
ATOM     32  C   UNL A   1      49.238  29.886  26.948  1.00  0.00     0.029 A 
ATOM     33  N   UNL A   1      47.115  29.230  27.089  1.00  0.00    -0.354 N 
ATOM     34  N   UNL A   1      44.223  29.577  27.810  1.00  0.00    -0.248 NA
ATOM     35  C   UNL A   1      42.548  30.831  28.853  1.00  0.00     0.031 C 
ATOM     36  C   UNL A   1      48.508  30.870  27.625  1.00  0.00     0.029 A 
ATOM     37  C   UNL A   1      47.180  30.473  27.688  1.00  0.00     0.049 A 
ATOM     38  H   UNL A   1      46.296  28.690  26.994  1.00  0.00     0.167 HD
ATOM     39  C   UNL A   1      44.775  30.754  28.294  1.00  0.00     0.074 A 
ATOM     40  C   UNL A   1      43.690  31.503  28.896  1.00  0.00     0.031 C 
ATOM     41  C   UNL A   1      46.062  31.179  28.260  1.00  0.00     0.031 A 
BRANCH  28  42
ATOM     42  C   UNL A   1      50.052  27.291  25.546  1.00  0.00    -0.014 A 
ATOM     43  C   UNL A   1      50.542  27.657  24.284  1.00  0.00     0.009 A 
ATOM     44  C   UNL A   1      50.887  26.576  26.419  1.00  0.00     0.009 A 
ATOM     45  C   UNL A   1      51.830  27.282  23.891  1.00  0.00     0.001 A 
ATOM     46  C   UNL A   1      52.182  26.224  26.034  1.00  0.00     0.001 A 
ATOM     47  C   UNL A   1      52.648  26.569  24.767  1.00  0.00     0.000 A 
ENDBRANCH  28  42
BRANCH  29  48
ATOM     48  C   UNL A   1      40.466  28.836  28.292  1.00  0.00    -0.014 A 
ATOM     49  C   UNL A   1      39.493  29.325  27.407  1.00  0.00     0.009 A 
ATOM     50  C   UNL A   1      40.100  28.608  29.630  1.00  0.00     0.009 A 
ATOM     51  C   UNL A   1      38.199  29.611  27.858  1.00  0.00     0.001 A 
ATOM     52  C   UNL A   1      38.799  28.861  30.071  1.00  0.00     0.001 A 
ATOM     53  C   UNL A   1      37.854  29.377  29.188  1.00  0.00     0.000 A 
ENDBRANCH  29  48
BRANCH  41  54
ATOM     54  C   UNL A   1      46.339  32.528  28.852  1.00  0.00    -0.014 A 
ATOM     55  C   UNL A   1      46.721  32.666  30.194  1.00  0.00     0.009 A 
ATOM     56  C   UNL A   1      46.267  33.666  28.035  1.00  0.00     0.009 A 
ATOM     57  C   UNL A   1      46.999  33.930  30.716  1.00  0.00     0.001 A 
ATOM     58  C   UNL A   1      46.576  34.923  28.552  1.00  0.00     0.001 A 
ATOM     59  C   UNL A   1      46.934  35.055  29.893  1.00  0.00     0.000 A 
ENDBRANCH  41  54
ENDBRANCH  15  16
ENDBRANCH   8  10
ENDBRANCH   7   8
ENDBRANCH   6   7
ENDBRANCH   5   6
ENDBRANCH   4   5
ENDBRANCH   3   4
ENDBRANCH   2   3
ENDBRANCH   1   2
BRANCH   1  60
ATOM     60  C   UNL A   1      36.981  23.512  25.381  1.00  0.00     0.188 C 
BRANCH  60  61
ATOM     61  C   UNL A   1      36.069  22.788  24.386  1.00  0.00     0.188 C 
BRANCH  61  62
ATOM     62  O   UNL A   1      35.680  21.445  24.639  1.00  0.00    -0.376 OA
BRANCH  62  63
ATOM     63  C   UNL A   1      34.356  21.171  25.083  1.00  0.00     0.202 C 
BRANCH  63  64
ATOM     64  C   UNL A   1      33.223  21.114  24.041  1.00  0.00     0.261 C 
BRANCH  64  65
ATOM     65  O   UNL A   1      33.003  22.331  23.281  1.00  0.00    -0.463 OA
BRANCH  65  66
ATOM     66  C   UNL A   1      31.924  23.084  23.622  1.00  0.00     0.310 C 
ATOM     67  O   UNL A   1      30.900  23.151  22.951  1.00  0.00    -0.252 OA
BRANCH  66  68
ATOM     68  C   UNL A   1      32.051  23.852  24.949  1.00  0.00     0.119 C 
ATOM     69  C   UNL A   1      31.011  23.633  26.051  1.00  0.00     0.019 C 
ATOM     70  C   UNL A   1      32.451  25.320  24.701  1.00  0.00     0.136 C 
ATOM     71  C   UNL A   1      30.032  24.772  26.301  1.00  0.00     0.023 C 
ATOM     72  N   UNL A   1      31.439  26.362  24.958  1.00  0.00    -0.324 N 
ATOM     73  C   UNL A   1      30.615  26.168  26.141  1.00  0.00     0.121 C 
BRANCH  72  74
ATOM     74  C   UNL A   1      31.506  27.491  24.165  1.00  0.00     0.321 C 
ATOM     75  O   UNL A   1      31.006  27.500  23.033  1.00  0.00    -0.248 OA
ATOM     76  N   UNL A   1      31.976  28.694  24.569  1.00  0.00    -0.308 N 
ATOM     77  H   UNL A   1      31.595  29.422  24.025  1.00  0.00     0.171 HD
BRANCH  76  78
ATOM     78  C   UNL A   1      32.849  29.199  25.540  1.00  0.00     0.042 A 
ATOM     79  C   UNL A   1      32.473  30.396  26.164  1.00  0.00     0.026 A 
ATOM     80  C   UNL A   1      34.058  28.612  25.897  1.00  0.00     0.026 A 
ATOM     81  C   UNL A   1      33.196  30.891  27.252  1.00  0.00     0.002 A 
ATOM     82  C   UNL A   1      34.783  29.100  26.989  1.00  0.00     0.002 A 
ATOM     83  C   UNL A   1      34.333  30.218  27.688  1.00  0.00     0.000 A 
ENDBRANCH  76  78
ENDBRANCH  72  74
ENDBRANCH  66  68
ENDBRANCH  65  66
ENDBRANCH  64  65
ENDBRANCH  63  64
ENDBRANCH  62  63
ENDBRANCH  61  62
ENDBRANCH  60  61
ENDBRANCH   1  60
TORSDOF 22
ENDMDL
MODEL 2
REMARK VINA RESULT:      -8.3      4.867      8.736
REMARK SMILES O=C(OCCOCCOCCOCCOC(=O)[C@@H]1CCCN(C(=O)Nc2ccccc2)C1)c1ccc(-c2c3nc(c(-c4ccccc4)c4ccc([nH]4)c(-c4ccccc4)c4nc(c(-c5ccccc5)c5ccc2[nH]5)C=C4)C=C3)cc1
REMARK SMILES IDX 9 1 8 2 7 3 6 4 5 5 4 6 3 7 2 8 1 9 33 10 34 11 80 12 35 13
REMARK SMILES IDX 79 14 36 15 37 16 38 17 73 18 39 19 78 20 72 21 74 22 40 23
REMARK SMILES IDX 77 24 71 25 70 26 41 28 63 29 48 30 62 31 49 32 52 33 61 34
REMARK SMILES IDX 75 35 50 36 51 37 60 39 76 40 53 41 42 42 43 43 47 44 44 45
REMARK SMILES IDX 46 46 45 47 64 48 65 49 69 50 66 51 68 52 67 53 54 54 55 55
REMARK SMILES IDX 59 56 56 57 58 58 57 59 10 60 11 61 12 62 13 63 14 64 15 65
REMARK SMILES IDX 16 66 17 67 18 68 19 69 32 70 20 71 22 72 21 73 23 74 24 75
REMARK SMILES IDX 25 76 26 78 27 79 31 80 28 81 30 82 29 83
REMARK H PARENT 74 27 52 38 25 77
REMARK Flexibility Score: inf
ROOT
ATOM      1  O   UNL A   1      34.492  32.703  29.370  1.00  0.00    -0.377 OA
ENDROOT
BRANCH   1   2
ATOM      2  C   UNL A   1      34.733  33.392  30.582  1.00  0.00     0.188 C 
BRANCH   2   3
ATOM      3  C   UNL A   1      35.163  32.467  31.710  1.00  0.00     0.188 C 
BRANCH   3   4
ATOM      4  O   UNL A   1      34.659  32.915  32.961  1.00  0.00    -0.376 OA
BRANCH   4   5
ATOM      5  C   UNL A   1      35.618  33.177  33.980  1.00  0.00     0.202 C 
BRANCH   5   6
ATOM      6  C   UNL A   1      37.002  32.779  33.484  1.00  0.00     0.261 C 
BRANCH   6   7
ATOM      7  O   UNL A   1      37.325  31.465  33.960  1.00  0.00    -0.460 OA
BRANCH   7   8
ATOM      8  C   UNL A   1      38.238  30.602  33.459  1.00  0.00     0.338 C 
ATOM      9  O   UNL A   1      38.154  29.419  33.787  1.00  0.00    -0.246 OA
BRANCH   8  10
ATOM     10  C   UNL A   1      39.317  30.968  32.481  1.00  0.00     0.060 A 
ATOM     11  C   UNL A   1      39.232  30.913  31.085  1.00  0.00     0.016 A 
ATOM     12  C   UNL A   1      40.479  31.530  33.038  1.00  0.00     0.016 A 
ATOM     13  C   UNL A   1      40.220  31.448  30.267  1.00  0.00     0.010 A 
ATOM     14  C   UNL A   1      41.480  32.066  32.225  1.00  0.00     0.010 A 
ATOM     15  C   UNL A   1      41.335  32.048  30.835  1.00  0.00    -0.014 A 
BRANCH  15  16
ATOM     16  C   UNL A   1      42.383  32.581  29.954  1.00  0.00     0.031 A 
ATOM     17  C   UNL A   1      43.533  31.691  29.617  1.00  0.00     0.074 A 
ATOM     18  C   UNL A   1      42.263  33.816  29.435  1.00  0.00     0.049 A 
ATOM     19  N   UNL A   1      44.671  31.989  29.057  1.00  0.00    -0.248 NA
ATOM     20  C   UNL A   1      43.378  30.267  29.963  1.00  0.00     0.031 C 
ATOM     21  C   UNL A   1      41.101  34.697  29.594  1.00  0.00     0.029 A 
ATOM     22  N   UNL A   1      43.128  34.542  28.664  1.00  0.00    -0.354 N 
ATOM     23  C   UNL A   1      45.393  30.805  29.040  1.00  0.00     0.074 A 
ATOM     24  C   UNL A   1      44.559  29.778  29.621  1.00  0.00     0.031 C 
ATOM     25  C   UNL A   1      41.329  35.845  28.934  1.00  0.00     0.029 A 
ATOM     26  C   UNL A   1      42.679  35.813  28.389  1.00  0.00     0.049 A 
ATOM     27  H   UNL A   1      43.987  34.190  28.337  1.00  0.00     0.167 HD
ATOM     28  C   UNL A   1      46.657  30.615  28.600  1.00  0.00     0.031 A 
ATOM     29  C   UNL A   1      43.326  36.845  27.818  1.00  0.00     0.031 A 
ATOM     30  C   UNL A   1      47.449  31.667  28.027  1.00  0.00     0.049 A 
ATOM     31  C   UNL A   1      44.763  36.632  27.418  1.00  0.00     0.074 A 
ATOM     32  C   UNL A   1      48.759  31.630  27.592  1.00  0.00     0.029 A 
ATOM     33  N   UNL A   1      46.982  32.956  27.803  1.00  0.00    -0.354 N 
ATOM     34  N   UNL A   1      45.485  35.537  27.483  1.00  0.00    -0.248 NA
ATOM     35  C   UNL A   1      45.482  37.799  26.894  1.00  0.00     0.031 C 
ATOM     36  C   UNL A   1      49.099  32.912  27.145  1.00  0.00     0.029 A 
ATOM     37  C   UNL A   1      47.984  33.730  27.250  1.00  0.00     0.049 A 
ATOM     38  H   UNL A   1      46.071  33.271  28.008  1.00  0.00     0.167 HD
ATOM     39  C   UNL A   1      46.737  35.877  26.994  1.00  0.00     0.074 A 
ATOM     40  C   UNL A   1      46.667  37.275  26.614  1.00  0.00     0.031 C 
ATOM     41  C   UNL A   1      47.854  35.116  26.878  1.00  0.00     0.031 A 
BRANCH  28  42
ATOM     42  C   UNL A   1      47.261  29.261  28.819  1.00  0.00    -0.014 A 
ATOM     43  C   UNL A   1      47.932  28.931  30.007  1.00  0.00     0.009 A 
ATOM     44  C   UNL A   1      47.182  28.304  27.795  1.00  0.00     0.009 A 
ATOM     45  C   UNL A   1      48.541  27.681  30.148  1.00  0.00     0.001 A 
ATOM     46  C   UNL A   1      47.770  27.048  27.948  1.00  0.00     0.001 A 
ATOM     47  C   UNL A   1      48.457  26.741  29.121  1.00  0.00     0.000 A 
ENDBRANCH  28  42
BRANCH  29  48
ATOM     48  C   UNL A   1      42.678  38.179  27.683  1.00  0.00    -0.014 A 
ATOM     49  C   UNL A   1      42.708  39.105  28.737  1.00  0.00     0.009 A 
ATOM     50  C   UNL A   1      41.982  38.518  26.510  1.00  0.00     0.009 A 
ATOM     51  C   UNL A   1      42.027  40.323  28.632  1.00  0.00     0.001 A 
ATOM     52  C   UNL A   1      41.332  39.749  26.394  1.00  0.00     0.001 A 
ATOM     53  C   UNL A   1      41.343  40.644  27.461  1.00  0.00     0.000 A 
ENDBRANCH  29  48
BRANCH  41  54
ATOM     54  C   UNL A   1      49.058  35.777  26.279  1.00  0.00    -0.014 A 
ATOM     55  C   UNL A   1      49.914  36.568  27.058  1.00  0.00     0.009 A 
ATOM     56  C   UNL A   1      49.363  35.555  24.927  1.00  0.00     0.009 A 
ATOM     57  C   UNL A   1      51.044  37.152  26.483  1.00  0.00     0.001 A 
ATOM     58  C   UNL A   1      50.509  36.114  24.365  1.00  0.00     0.001 A 
ATOM     59  C   UNL A   1      51.344  36.918  25.141  1.00  0.00     0.000 A 
ENDBRANCH  41  54
ENDBRANCH  15  16
ENDBRANCH   8  10
ENDBRANCH   7   8
ENDBRANCH   6   7
ENDBRANCH   5   6
ENDBRANCH   4   5
ENDBRANCH   3   4
ENDBRANCH   2   3
ENDBRANCH   1   2
BRANCH   1  60
ATOM     60  C   UNL A   1      35.202  31.508  29.104  1.00  0.00     0.188 C 
BRANCH  60  61
ATOM     61  C   UNL A   1      35.123  31.012  27.657  1.00  0.00     0.188 C 
BRANCH  61  62
ATOM     62  O   UNL A   1      34.159  30.030  27.302  1.00  0.00    -0.376 OA
BRANCH  62  63
ATOM     63  C   UNL A   1      32.825  30.430  27.013  1.00  0.00     0.202 C 
BRANCH  63  64
ATOM     64  C   UNL A   1      32.118  29.819  25.787  1.00  0.00     0.261 C 
BRANCH  64  65
ATOM     65  O   UNL A   1      32.761  28.658  25.202  1.00  0.00    -0.463 OA
BRANCH  65  66
ATOM     66  C   UNL A   1      32.895  28.643  23.850  1.00  0.00     0.310 C 
ATOM     67  O   UNL A   1      33.657  29.379  23.232  1.00  0.00    -0.252 OA
BRANCH  66  68
ATOM     68  C   UNL A   1      32.030  27.604  23.115  1.00  0.00     0.119 C 
ATOM     69  C   UNL A   1      30.679  28.025  22.531  1.00  0.00     0.019 C 
ATOM     70  C   UNL A   1      32.036  26.255  23.860  1.00  0.00     0.136 C 
ATOM     71  C   UNL A   1      29.436  27.511  23.245  1.00  0.00     0.023 C 
ATOM     72  N   UNL A   1      30.793  25.835  24.536  1.00  0.00    -0.324 N 
ATOM     73  C   UNL A   1      29.558  26.106  23.817  1.00  0.00     0.121 C 
BRANCH  72  74
ATOM     74  C   UNL A   1      30.944  25.072  25.678  1.00  0.00     0.321 C 
ATOM     75  O   UNL A   1      30.795  25.574  26.799  1.00  0.00    -0.248 OA
ATOM     76  N   UNL A   1      31.122  23.731  25.694  1.00  0.00    -0.308 N 
ATOM     77  H   UNL A   1      30.827  23.347  26.551  1.00  0.00     0.171 HD
BRANCH  76  78
ATOM     78  C   UNL A   1      31.607  22.734  24.839  1.00  0.00     0.042 A 
ATOM     79  C   UNL A   1      32.299  21.673  25.438  1.00  0.00     0.026 A 
ATOM     80  C   UNL A   1      31.472  22.746  23.455  1.00  0.00     0.026 A 
ATOM     81  C   UNL A   1      32.679  20.557  24.689  1.00  0.00     0.002 A 
ATOM     82  C   UNL A   1      31.847  21.629  22.701  1.00  0.00     0.002 A 
ATOM     83  C   UNL A   1      32.417  20.520  23.323  1.00  0.00     0.000 A 
ENDBRANCH  76  78
ENDBRANCH  72  74
ENDBRANCH  66  68
ENDBRANCH  65  66
ENDBRANCH  64  65
ENDBRANCH  63  64
ENDBRANCH  62  63
ENDBRANCH  61  62
ENDBRANCH  60  61
ENDBRANCH   1  60
TORSDOF 22
ENDMDL
MODEL 3
REMARK VINA RESULT:      -8.0      4.991      9.827
REMARK SMILES O=C(OCCOCCOCCOCCOC(=O)[C@@H]1CCCN(C(=O)Nc2ccccc2)C1)c1ccc(-c2c3nc(c(-c4ccccc4)c4ccc([nH]4)c(-c4ccccc4)c4nc(c(-c5ccccc5)c5ccc2[nH]5)C=C4)C=C3)cc1
REMARK SMILES IDX 9 1 8 2 7 3 6 4 5 5 4 6 3 7 2 8 1 9 33 10 34 11 80 12 35 13
REMARK SMILES IDX 79 14 36 15 37 16 38 17 73 18 39 19 78 20 72 21 74 22 40 23
REMARK SMILES IDX 77 24 71 25 70 26 41 28 63 29 48 30 62 31 49 32 52 33 61 34
REMARK SMILES IDX 75 35 50 36 51 37 60 39 76 40 53 41 42 42 43 43 47 44 44 45
REMARK SMILES IDX 46 46 45 47 64 48 65 49 69 50 66 51 68 52 67 53 54 54 55 55
REMARK SMILES IDX 59 56 56 57 58 58 57 59 10 60 11 61 12 62 13 63 14 64 15 65
REMARK SMILES IDX 16 66 17 67 18 68 19 69 32 70 20 71 22 72 21 73 23 74 24 75
REMARK SMILES IDX 25 76 26 78 27 79 31 80 28 81 30 82 29 83
REMARK H PARENT 74 27 52 38 25 77
REMARK Flexibility Score: inf
ROOT
ATOM      1  O   UNL A   1      32.705  34.943  30.125  1.00  0.00    -0.377 OA
ENDROOT
BRANCH   1   2
ATOM      2  C   UNL A   1      32.889  36.017  31.027  1.00  0.00     0.188 C 
BRANCH   2   3
ATOM      3  C   UNL A   1      32.910  35.570  32.479  1.00  0.00     0.188 C 
BRANCH   3   4
ATOM      4  O   UNL A   1      33.676  34.383  32.639  1.00  0.00    -0.376 OA
BRANCH   4   5
ATOM      5  C   UNL A   1      35.079  34.547  32.820  1.00  0.00     0.202 C 
BRANCH   5   6
ATOM      6  C   UNL A   1      35.421  34.365  34.293  1.00  0.00     0.261 C 
BRANCH   6   7
ATOM      7  O   UNL A   1      36.824  34.099  34.431  1.00  0.00    -0.460 OA
BRANCH   7   8
ATOM      8  C   UNL A   1      37.413  32.978  34.909  1.00  0.00     0.338 C 
ATOM      9  O   UNL A   1      37.030  32.546  35.996  1.00  0.00    -0.246 OA
BRANCH   8  10
ATOM     10  C   UNL A   1      38.460  32.184  34.185  1.00  0.00     0.060 A 
ATOM     11  C   UNL A   1      38.257  31.337  33.090  1.00  0.00     0.016 A 
ATOM     12  C   UNL A   1      39.788  32.419  34.585  1.00  0.00     0.016 A 
ATOM     13  C   UNL A   1      39.317  30.791  32.375  1.00  0.00     0.010 A 
ATOM     14  C   UNL A   1      40.860  31.872  33.878  1.00  0.00     0.010 A 
ATOM     15  C   UNL A   1      40.622  31.078  32.752  1.00  0.00    -0.014 A 
BRANCH  15  16
ATOM     16  C   UNL A   1      41.729  30.468  32.003  1.00  0.00     0.031 A 
ATOM     17  C   UNL A   1      42.263  29.160  32.484  1.00  0.00     0.074 A 
ATOM     18  C   UNL A   1      42.196  31.061  30.890  1.00  0.00     0.049 A 
ATOM     19  N   UNL A   1      43.356  28.538  32.142  1.00  0.00    -0.248 NA
ATOM     20  C   UNL A   1      41.451  28.457  33.494  1.00  0.00     0.031 C 
ATOM     21  C   UNL A   1      41.635  32.264  30.266  1.00  0.00     0.029 A 
ATOM     22  N   UNL A   1      43.248  30.728  30.081  1.00  0.00    -0.354 N 
ATOM     23  C   UNL A   1      43.397  27.403  32.939  1.00  0.00     0.074 A 
ATOM     24  C   UNL A   1      42.210  27.406  33.762  1.00  0.00     0.031 C 
ATOM     25  C   UNL A   1      42.350  32.563  29.169  1.00  0.00     0.029 A 
ATOM     26  C   UNL A   1      43.465  31.632  29.068  1.00  0.00     0.049 A 
ATOM     27  H   UNL A   1      43.795  29.920  30.212  1.00  0.00     0.167 HD
ATOM     28  C   UNL A   1      44.367  26.464  32.987  1.00  0.00     0.031 A 
ATOM     29  C   UNL A   1      44.493  31.720  28.205  1.00  0.00     0.031 A 
ATOM     30  C   UNL A   1      45.530  26.500  32.146  1.00  0.00     0.049 A 
ATOM     31  C   UNL A   1      45.604  30.712  28.339  1.00  0.00     0.074 A 
ATOM     32  C   UNL A   1      46.616  25.648  32.127  1.00  0.00     0.029 A 
ATOM     33  N   UNL A   1      45.745  27.455  31.160  1.00  0.00    -0.354 N 
ATOM     34  N   UNL A   1      45.696  29.685  29.153  1.00  0.00    -0.248 NA
ATOM     35  C   UNL A   1      46.765  30.888  27.458  1.00  0.00     0.031 C 
ATOM     36  C   UNL A   1      47.511  26.113  31.156  1.00  0.00     0.029 A 
ATOM     37  C   UNL A   1      46.955  27.222  30.535  1.00  0.00     0.049 A 
ATOM     38  H   UNL A   1      45.125  28.188  30.938  1.00  0.00     0.167 HD
ATOM     39  C   UNL A   1      46.914  29.084  28.874  1.00  0.00     0.074 A 
ATOM     40  C   UNL A   1      47.514  29.848  27.797  1.00  0.00     0.031 C 
ATOM     41  C   UNL A   1      47.498  28.008  29.457  1.00  0.00     0.031 A 
BRANCH  28  42
ATOM     42  C   UNL A   1      44.239  25.402  34.038  1.00  0.00    -0.014 A 
ATOM     43  C   UNL A   1      44.601  25.632  35.374  1.00  0.00     0.009 A 
ATOM     44  C   UNL A   1      43.772  24.130  33.670  1.00  0.00     0.009 A 
ATOM     45  C   UNL A   1      44.532  24.598  36.311  1.00  0.00     0.001 A 
ATOM     46  C   UNL A   1      43.681  23.105  34.614  1.00  0.00     0.001 A 
ATOM     47  C   UNL A   1      44.070  23.338  35.931  1.00  0.00     0.000 A 
ENDBRANCH  28  42
BRANCH  29  48
ATOM     48  C   UNL A   1      44.579  32.836  27.223  1.00  0.00    -0.014 A 
ATOM     49  C   UNL A   1      45.191  34.052  27.564  1.00  0.00     0.009 A 
ATOM     50  C   UNL A   1      44.006  32.708  25.946  1.00  0.00     0.009 A 
ATOM     51  C   UNL A   1      45.195  35.123  26.664  1.00  0.00     0.001 A 
ATOM     52  C   UNL A   1      44.041  33.767  25.036  1.00  0.00     0.001 A 
ATOM     53  C   UNL A   1      44.623  34.979  25.401  1.00  0.00     0.000 A 
ENDBRANCH  29  48
BRANCH  41  54
ATOM     54  C   UNL A   1      48.824  27.582  28.903  1.00  0.00    -0.014 A 
ATOM     55  C   UNL A   1      48.911  26.841  27.717  1.00  0.00     0.009 A 
ATOM     56  C   UNL A   1      50.001  27.981  29.556  1.00  0.00     0.009 A 
ATOM     57  C   UNL A   1      50.159  26.479  27.207  1.00  0.00     0.001 A 
ATOM     58  C   UNL A   1      51.246  27.644  29.027  1.00  0.00     0.001 A 
ATOM     59  C   UNL A   1      51.324  26.888  27.858  1.00  0.00     0.000 A 
ENDBRANCH  41  54
ENDBRANCH  15  16
ENDBRANCH   8  10
ENDBRANCH   7   8
ENDBRANCH   6   7
ENDBRANCH   5   6
ENDBRANCH   4   5
ENDBRANCH   3   4
ENDBRANCH   2   3
ENDBRANCH   1   2
BRANCH   1  60
ATOM     60  C   UNL A   1      33.695  34.686  29.147  1.00  0.00     0.188 C 
BRANCH  60  61
ATOM     61  C   UNL A   1      34.035  33.207  28.938  1.00  0.00     0.188 C 
BRANCH  61  62
ATOM     62  O   UNL A   1      33.890  32.629  27.648  1.00  0.00    -0.376 OA
BRANCH  62  63
ATOM     63  C   UNL A   1      34.386  31.317  27.409  1.00  0.00     0.202 C 
BRANCH  63  64
ATOM     64  C   UNL A   1      33.428  30.258  26.829  1.00  0.00     0.261 C 
BRANCH  64  65
ATOM     65  O   UNL A   1      32.850  29.337  27.789  1.00  0.00    -0.463 OA
BRANCH  65  66
ATOM     66  C   UNL A   1      32.045  28.359  27.297  1.00  0.00     0.310 C 
ATOM     67  O   UNL A   1      31.019  27.978  27.851  1.00  0.00    -0.252 OA
BRANCH  66  68
ATOM     68  C   UNL A   1      32.489  27.754  25.954  1.00  0.00     0.119 C 
ATOM     69  C   UNL A   1      31.604  27.931  24.716  1.00  0.00     0.019 C 
ATOM     70  C   UNL A   1      33.073  26.342  26.151  1.00  0.00     0.136 C 
ATOM     71  C   UNL A   1      30.866  26.695  24.223  1.00  0.00     0.023 C 
ATOM     72  N   UNL A   1      32.289  25.196  25.652  1.00  0.00    -0.324 N 
ATOM     73  C   UNL A   1      31.631  25.388  24.369  1.00  0.00     0.121 C 
BRANCH  72  74
ATOM     74  C   UNL A   1      32.413  24.014  26.357  1.00  0.00     0.321 C 
ATOM     75  O   UNL A   1      31.651  23.754  27.297  1.00  0.00    -0.248 OA
ATOM     76  N   UNL A   1      33.246  23.000  26.026  1.00  0.00    -0.308 N 
ATOM     77  H   UNL A   1      32.921  22.145  26.391  1.00  0.00     0.171 HD
BRANCH  76  78
ATOM     78  C   UNL A   1      34.437  22.820  25.313  1.00  0.00     0.042 A 
ATOM     79  C   UNL A   1      35.328  21.858  25.806  1.00  0.00     0.026 A 
ATOM     80  C   UNL A   1      34.797  23.546  24.182  1.00  0.00     0.026 A 
ATOM     81  C   UNL A   1      36.463  21.497  25.077  1.00  0.00     0.002 A 
ATOM     82  C   UNL A   1      35.930  23.185  23.445  1.00  0.00     0.002 A 
ATOM     83  C   UNL A   1      36.743  22.137  23.874  1.00  0.00     0.000 A 
ENDBRANCH  76  78
ENDBRANCH  72  74
ENDBRANCH  66  68
ENDBRANCH  65  66
ENDBRANCH  64  65
ENDBRANCH  63  64
ENDBRANCH  62  63
ENDBRANCH  61  62
ENDBRANCH  60  61
ENDBRANCH   1  60
TORSDOF 22
ENDMDL
