MODEL 1
REMARK VINA RESULT:     -10.0      0.000      0.000
REMARK SMILES O=C(CCC(=O)N1CCC(c2nnc3ccccn23)CC1)OCCOCCOCCOCCOC(=O)c1ccc(-c2c3nc(c(-c4ccccc4)c4ccc([nH]4)c(-c4ccccc4)c4nc(c(-c5ccccc5)c5ccc2[nH]5)C=C4)C=C3)cc1
REMARK SMILES IDX 27 1 26 2 25 3 24 4 23 5 22 6 2 7 1 8 3 9 4 10 5 11 6 12
REMARK SMILES IDX 7 13 8 14 21 15 9 16 20 17 10 18 11 19 12 20 19 21 13 22
REMARK SMILES IDX 14 23 18 24 15 25 17 26 16 27 28 28 29 29 30 30 31 31 32 32
REMARK SMILES IDX 33 33 34 34 35 35 36 36 37 37 38 38 84 39 39 40 83 41 40 42
REMARK SMILES IDX 41 43 42 44 77 45 43 46 82 47 76 48 78 49 44 50 81 51 75 52
REMARK SMILES IDX 74 53 45 55 67 56 52 57 66 58 53 59 56 60 65 61 79 62 54 63
REMARK SMILES IDX 55 64 64 66 80 67 57 68 46 69 47 70 51 71 48 72 50 73 49 74
REMARK SMILES IDX 68 75 69 76 73 77 70 78 72 79 71 80 58 81 59 82 63 83 60 84
REMARK SMILES IDX 62 85 61 86
REMARK H PARENT 78 54 56 65
REMARK Flexibility Score: inf
ROOT
ATOM      1  C   UNL A   1      33.020  35.857  29.080  1.00  0.00     0.188 C 
ENDROOT
BRANCH   1   2
ATOM      2  C   UNL A   1      34.383  35.148  29.252  1.00  0.00     0.188 C 
BRANCH   2   3
ATOM      3  O   UNL A   1      34.301  33.729  29.287  1.00  0.00    -0.376 OA
BRANCH   3   4
ATOM      4  C   UNL A   1      33.778  33.021  28.177  1.00  0.00     0.202 C 
BRANCH   4   5
ATOM      5  C   UNL A   1      34.291  31.597  28.019  1.00  0.00     0.261 C 
BRANCH   5   6
ATOM      6  O   UNL A   1      33.564  30.859  27.022  1.00  0.00    -0.463 OA
BRANCH   6   7
ATOM      7  C   UNL A   1      33.403  29.526  26.967  1.00  0.00     0.306 C 
ATOM      8  O   UNL A   1      34.373  28.777  27.042  1.00  0.00    -0.252 OA
BRANCH   7   9
ATOM      9  C   UNL A   1      32.013  29.002  26.955  1.00  0.00     0.132 C 
BRANCH   9  10
ATOM     10  C   UNL A   1      31.833  28.140  25.724  1.00  0.00     0.112 C 
BRANCH  10  11
ATOM     11  C   UNL A   1      31.561  26.693  26.067  1.00  0.00     0.223 C 
ATOM     12  O   UNL A   1      31.346  26.409  27.251  1.00  0.00    -0.275 OA
ATOM     13  N   UNL A   1      31.558  25.726  25.075  1.00  0.00    -0.343 N 
ATOM     14  C   UNL A   1      30.988  24.436  25.411  1.00  0.00     0.120 C 
ATOM     15  C   UNL A   1      32.118  25.787  23.715  1.00  0.00     0.120 C 
ATOM     16  C   UNL A   1      32.057  23.377  25.345  1.00  0.00     0.033 C 
ATOM     17  C   UNL A   1      33.170  24.679  23.467  1.00  0.00     0.033 C 
ATOM     18  C   UNL A   1      32.691  23.298  23.939  1.00  0.00     0.062 C 
BRANCH  18  19
ATOM     19  C   UNL A   1      33.777  22.263  24.042  1.00  0.00     0.140 A 
ATOM     20  N   UNL A   1      34.929  22.366  24.677  1.00  0.00    -0.134 NA
ATOM     21  N   UNL A   1      33.483  20.925  23.868  1.00  0.00    -0.286 N 
ATOM     22  N   UNL A   1      35.303  21.102  25.090  1.00  0.00    -0.130 NA
ATOM     23  C   UNL A   1      34.381  20.256  24.682  1.00  0.00     0.160 A 
ATOM     24  C   UNL A   1      32.420  20.308  23.212  1.00  0.00     0.095 A 
ATOM     25  C   UNL A   1      34.135  18.874  24.917  1.00  0.00     0.050 A 
ATOM     26  C   UNL A   1      32.188  19.008  23.439  1.00  0.00     0.019 A 
ATOM     27  C   UNL A   1      33.070  18.283  24.341  1.00  0.00     0.005 A 
ENDBRANCH  18  19
ENDBRANCH  10  11
ENDBRANCH   9  10
ENDBRANCH   7   9
ENDBRANCH   6   7
ENDBRANCH   5   6
ENDBRANCH   4   5
ENDBRANCH   3   4
ENDBRANCH   2   3
ENDBRANCH   1   2
BRANCH   1  28
ATOM     28  O   UNL A   1      32.472  36.432  30.264  1.00  0.00    -0.377 OA
BRANCH  28  29
ATOM     29  C   UNL A   1      33.434  36.803  31.244  1.00  0.00     0.188 C 
BRANCH  29  30
ATOM     30  C   UNL A   1      33.236  36.192  32.652  1.00  0.00     0.188 C 
BRANCH  30  31
ATOM     31  O   UNL A   1      32.659  34.907  32.863  1.00  0.00    -0.376 OA
BRANCH  31  32
ATOM     32  C   UNL A   1      33.482  33.797  33.165  1.00  0.00     0.202 C 
BRANCH  32  33
ATOM     33  C   UNL A   1      34.802  33.626  32.401  1.00  0.00     0.261 C 
BRANCH  33  34
ATOM     34  O   UNL A   1      35.250  32.274  32.220  1.00  0.00    -0.460 OA
BRANCH  34  35
ATOM     35  C   UNL A   1      36.421  31.975  32.817  1.00  0.00     0.338 C 
ATOM     36  O   UNL A   1      36.744  32.214  33.982  1.00  0.00    -0.246 OA
BRANCH  35  37
ATOM     37  C   UNL A   1      37.274  31.180  31.916  1.00  0.00     0.060 A 
ATOM     38  C   UNL A   1      38.068  30.170  32.473  1.00  0.00     0.016 A 
ATOM     39  C   UNL A   1      37.374  31.487  30.556  1.00  0.00     0.016 A 
ATOM     40  C   UNL A   1      39.003  29.501  31.690  1.00  0.00     0.010 A 
ATOM     41  C   UNL A   1      38.346  30.845  29.778  1.00  0.00     0.010 A 
ATOM     42  C   UNL A   1      39.197  29.889  30.357  1.00  0.00    -0.014 A 
BRANCH  42  43
ATOM     43  C   UNL A   1      40.460  29.478  29.696  1.00  0.00     0.031 A 
ATOM     44  C   UNL A   1      40.462  28.183  28.933  1.00  0.00     0.074 A 
ATOM     45  C   UNL A   1      41.559  30.250  29.724  1.00  0.00     0.049 A 
ATOM     46  N   UNL A   1      41.395  27.669  28.175  1.00  0.00    -0.248 NA
ATOM     47  C   UNL A   1      39.267  27.335  29.079  1.00  0.00     0.031 C 
ATOM     48  C   UNL A   1      41.699  31.476  30.497  1.00  0.00     0.029 A 
ATOM     49  N   UNL A   1      42.752  30.138  29.050  1.00  0.00    -0.354 N 
ATOM     50  C   UNL A   1      40.928  26.411  27.809  1.00  0.00     0.074 A 
ATOM     51  C   UNL A   1      39.623  26.249  28.409  1.00  0.00     0.031 C 
ATOM     52  C   UNL A   1      42.874  32.052  30.188  1.00  0.00     0.029 A 
ATOM     53  C   UNL A   1      43.564  31.243  29.189  1.00  0.00     0.049 A 
ATOM     54  H   UNL A   1      43.002  29.346  28.521  1.00  0.00     0.167 HD
ATOM     55  C   UNL A   1      41.551  25.465  27.069  1.00  0.00     0.031 A 
ATOM     56  C   UNL A   1      44.697  31.574  28.537  1.00  0.00     0.031 A 
ATOM     57  C   UNL A   1      42.856  25.632  26.489  1.00  0.00     0.049 A 
ATOM     58  C   UNL A   1      45.278  30.574  27.567  1.00  0.00     0.074 A 
ATOM     59  C   UNL A   1      43.599  24.728  25.749  1.00  0.00     0.029 A 
ATOM     60  N   UNL A   1      43.610  26.792  26.578  1.00  0.00    -0.354 N 
ATOM     61  N   UNL A   1      44.802  29.413  27.186  1.00  0.00    -0.248 NA
ATOM     62  C   UNL A   1      46.566  30.926  26.949  1.00  0.00     0.031 C 
ATOM     63  C   UNL A   1      44.821  25.329  25.427  1.00  0.00     0.029 A 
ATOM     64  C   UNL A   1      44.812  26.626  25.913  1.00  0.00     0.049 A 
ATOM     65  H   UNL A   1      43.331  27.611  27.047  1.00  0.00     0.167 HD
ATOM     66  C   UNL A   1      45.750  28.883  26.320  1.00  0.00     0.074 A 
ATOM     67  C   UNL A   1      46.767  29.898  26.141  1.00  0.00     0.031 C 
ATOM     68  C   UNL A   1      45.815  27.646  25.769  1.00  0.00     0.031 A 
BRANCH  55  69
ATOM     69  C   UNL A   1      40.856  24.142  26.918  1.00  0.00    -0.014 A 
ATOM     70  C   UNL A   1      39.615  24.029  26.272  1.00  0.00     0.009 A 
ATOM     71  C   UNL A   1      41.463  22.983  27.429  1.00  0.00     0.009 A 
ATOM     72  C   UNL A   1      38.983  22.788  26.168  1.00  0.00     0.001 A 
ATOM     73  C   UNL A   1      40.844  21.739  27.295  1.00  0.00     0.001 A 
ATOM     74  C   UNL A   1      39.601  21.643  26.675  1.00  0.00     0.000 A 
ENDBRANCH  55  69
BRANCH  56  75
ATOM     75  C   UNL A   1      45.350  32.908  28.711  1.00  0.00    -0.014 A 
ATOM     76  C   UNL A   1      46.282  33.104  29.749  1.00  0.00     0.009 A 
ATOM     77  C   UNL A   1      45.035  34.001  27.893  1.00  0.00     0.009 A 
ATOM     78  C   UNL A   1      46.854  34.359  29.982  1.00  0.00     0.001 A 
ATOM     79  C   UNL A   1      45.643  35.245  28.096  1.00  0.00     0.001 A 
ATOM     80  C   UNL A   1      46.541  35.427  29.146  1.00  0.00     0.000 A 
ENDBRANCH  56  75
BRANCH  68  81
ATOM     81  C   UNL A   1      47.050  27.332  24.971  1.00  0.00    -0.014 A 
ATOM     82  C   UNL A   1      48.143  26.680  25.569  1.00  0.00     0.009 A 
ATOM     83  C   UNL A   1      47.131  27.693  23.619  1.00  0.00     0.009 A 
ATOM     84  C   UNL A   1      49.315  26.454  24.847  1.00  0.00     0.001 A 
ATOM     85  C   UNL A   1      48.292  27.432  22.889  1.00  0.00     0.001 A 
ATOM     86  C   UNL A   1      49.387  26.830  23.507  1.00  0.00     0.000 A 
ENDBRANCH  68  81
ENDBRANCH  42  43
ENDBRANCH  35  37
ENDBRANCH  34  35
ENDBRANCH  33  34
ENDBRANCH  32  33
ENDBRANCH  31  32
ENDBRANCH  30  31
ENDBRANCH  29  30
ENDBRANCH  28  29
ENDBRANCH   1  28
TORSDOF 23
ENDMDL
MODEL 2
REMARK VINA RESULT:      -9.7      0.953      5.681
REMARK SMILES O=C(CCC(=O)N1CCC(c2nnc3ccccn23)CC1)OCCOCCOCCOCCOC(=O)c1ccc(-c2c3nc(c(-c4ccccc4)c4ccc([nH]4)c(-c4ccccc4)c4nc(c(-c5ccccc5)c5ccc2[nH]5)C=C4)C=C3)cc1
REMARK SMILES IDX 27 1 26 2 25 3 24 4 23 5 22 6 2 7 1 8 3 9 4 10 5 11 6 12
REMARK SMILES IDX 7 13 8 14 21 15 9 16 20 17 10 18 11 19 12 20 19 21 13 22
REMARK SMILES IDX 14 23 18 24 15 25 17 26 16 27 28 28 29 29 30 30 31 31 32 32
REMARK SMILES IDX 33 33 34 34 35 35 36 36 37 37 38 38 84 39 39 40 83 41 40 42
REMARK SMILES IDX 41 43 42 44 77 45 43 46 82 47 76 48 78 49 44 50 81 51 75 52
REMARK SMILES IDX 74 53 45 55 67 56 52 57 66 58 53 59 56 60 65 61 79 62 54 63
REMARK SMILES IDX 55 64 64 66 80 67 57 68 46 69 47 70 51 71 48 72 50 73 49 74
REMARK SMILES IDX 68 75 69 76 73 77 70 78 72 79 71 80 58 81 59 82 63 83 60 84
REMARK SMILES IDX 62 85 61 86
REMARK H PARENT 78 54 56 65
REMARK Flexibility Score: inf
ROOT
ATOM      1  C   UNL A   1      34.302  34.790  28.208  1.00  0.00     0.188 C 
ENDROOT
BRANCH   1   2
ATOM      2  C   UNL A   1      34.600  33.484  28.978  1.00  0.00     0.188 C 
BRANCH   2   3
ATOM      3  O   UNL A   1      34.070  32.313  28.369  1.00  0.00    -0.376 OA
BRANCH   3   4
ATOM      4  C   UNL A   1      32.950  32.408  27.506  1.00  0.00     0.202 C 
BRANCH   4   5
ATOM      5  C   UNL A   1      32.402  31.078  27.012  1.00  0.00     0.261 C 
BRANCH   5   6
ATOM      6  O   UNL A   1      33.442  30.121  26.742  1.00  0.00    -0.463 OA
BRANCH   6   7
ATOM      7  C   UNL A   1      33.301  28.788  26.646  1.00  0.00     0.306 C 
ATOM      8  O   UNL A   1      34.276  28.071  26.437  1.00  0.00    -0.252 OA
BRANCH   7   9
ATOM      9  C   UNL A   1      31.963  28.215  26.941  1.00  0.00     0.132 C 
BRANCH   9  10
ATOM     10  C   UNL A   1      31.307  27.824  25.633  1.00  0.00     0.112 C 
BRANCH  10  11
ATOM     11  C   UNL A   1      30.865  26.379  25.619  1.00  0.00     0.223 C 
ATOM     12  O   UNL A   1      30.131  25.989  26.534  1.00  0.00    -0.275 OA
ATOM     13  N   UNL A   1      31.280  25.528  24.608  1.00  0.00    -0.343 N 
ATOM     14  C   UNL A   1      30.581  24.265  24.477  1.00  0.00     0.120 C 
ATOM     15  C   UNL A   1      32.396  25.685  23.660  1.00  0.00     0.120 C 
ATOM     16  C   UNL A   1      31.531  23.129  24.749  1.00  0.00     0.033 C 
ATOM     17  C   UNL A   1      33.412  24.521  23.757  1.00  0.00     0.033 C 
ATOM     18  C   UNL A   1      32.729  23.145  23.774  1.00  0.00     0.062 C 
BRANCH  18  19
ATOM     19  C   UNL A   1      33.618  22.012  24.206  1.00  0.00     0.140 A 
ATOM     20  N   UNL A   1      34.501  22.013  25.187  1.00  0.00    -0.134 NA
ATOM     21  N   UNL A   1      33.275  20.707  23.916  1.00  0.00    -0.286 N 
ATOM     22  N   UNL A   1      34.598  20.723  25.672  1.00  0.00    -0.130 NA
ATOM     23  C   UNL A   1      33.788  19.964  24.965  1.00  0.00     0.160 A 
ATOM     24  C   UNL A   1      32.435  20.188  22.933  1.00  0.00     0.095 A 
ATOM     25  C   UNL A   1      33.351  18.614  25.076  1.00  0.00     0.050 A 
ATOM     26  C   UNL A   1      32.022  18.917  23.042  1.00  0.00     0.019 A 
ATOM     27  C   UNL A   1      32.486  18.121  24.168  1.00  0.00     0.005 A 
ENDBRANCH  18  19
ENDBRANCH  10  11
ENDBRANCH   9  10
ENDBRANCH   7   9
ENDBRANCH   6   7
ENDBRANCH   5   6
ENDBRANCH   4   5
ENDBRANCH   3   4
ENDBRANCH   2   3
ENDBRANCH   1   2
BRANCH   1  28
ATOM     28  O   UNL A   1      33.946  35.912  29.012  1.00  0.00    -0.377 OA
BRANCH  28  29
ATOM     29  C   UNL A   1      32.909  35.661  29.954  1.00  0.00     0.188 C 
BRANCH  29  30
ATOM     30  C   UNL A   1      33.220  36.042  31.422  1.00  0.00     0.188 C 
BRANCH  30  31
ATOM     31  O   UNL A   1      33.127  35.112  32.497  1.00  0.00    -0.376 OA
BRANCH  31  32
ATOM     32  C   UNL A   1      34.070  34.063  32.615  1.00  0.00     0.202 C 
BRANCH  32  33
ATOM     33  C   UNL A   1      35.305  34.277  33.501  1.00  0.00     0.261 C 
BRANCH  33  34
ATOM     34  O   UNL A   1      36.542  33.761  32.985  1.00  0.00    -0.460 OA
BRANCH  34  35
ATOM     35  C   UNL A   1      37.004  32.658  33.607  1.00  0.00     0.338 C 
ATOM     36  O   UNL A   1      36.807  32.325  34.776  1.00  0.00    -0.246 OA
BRANCH  35  37
ATOM     37  C   UNL A   1      37.708  31.783  32.653  1.00  0.00     0.060 A 
ATOM     38  C   UNL A   1      38.797  31.034  33.117  1.00  0.00     0.016 A 
ATOM     39  C   UNL A   1      37.373  31.772  31.296  1.00  0.00     0.016 A 
ATOM     40  C   UNL A   1      39.587  30.319  32.224  1.00  0.00     0.010 A 
ATOM     41  C   UNL A   1      38.195  31.088  30.391  1.00  0.00     0.010 A 
ATOM     42  C   UNL A   1      39.333  30.404  30.849  1.00  0.00    -0.014 A 
BRANCH  42  43
ATOM     43  C   UNL A   1      40.420  30.005  29.920  1.00  0.00     0.031 A 
ATOM     44  C   UNL A   1      41.556  30.969  29.718  1.00  0.00     0.074 A 
ATOM     45  C   UNL A   1      40.431  28.806  29.315  1.00  0.00     0.049 A 
ATOM     46  N   UNL A   1      42.674  30.806  29.060  1.00  0.00    -0.248 NA
ATOM     47  C   UNL A   1      41.389  32.311  30.301  1.00  0.00     0.031 C 
ATOM     48  C   UNL A   1      39.350  27.833  29.369  1.00  0.00     0.029 A 
ATOM     49  N   UNL A   1      41.406  28.187  28.568  1.00  0.00    -0.354 N 
ATOM     50  C   UNL A   1      43.311  32.041  29.093  1.00  0.00     0.074 A 
ATOM     51  C   UNL A   1      42.467  32.936  29.852  1.00  0.00     0.031 C 
ATOM     52  C   UNL A   1      39.753  26.703  28.762  1.00  0.00     0.029 A 
ATOM     53  C   UNL A   1      41.122  26.869  28.285  1.00  0.00     0.049 A 
ATOM     54  H   UNL A   1      42.226  28.641  28.266  1.00  0.00     0.167 HD
ATOM     55  C   UNL A   1      44.477  32.403  28.510  1.00  0.00     0.031 A 
ATOM     56  C   UNL A   1      41.905  25.907  27.755  1.00  0.00     0.031 A 
ATOM     57  C   UNL A   1      45.302  31.507  27.744  1.00  0.00     0.049 A 
ATOM     58  C   UNL A   1      43.284  26.295  27.279  1.00  0.00     0.074 A 
ATOM     59  C   UNL A   1      46.486  31.773  27.080  1.00  0.00     0.029 A 
ATOM     60  N   UNL A   1      45.026  30.163  27.550  1.00  0.00    -0.354 N 
ATOM     61  N   UNL A   1      43.898  27.451  27.365  1.00  0.00    -0.248 NA
ATOM     62  C   UNL A   1      44.073  25.245  26.617  1.00  0.00     0.031 C 
ATOM     63  C   UNL A   1      46.905  30.597  26.448  1.00  0.00     0.029 A 
ATOM     64  C   UNL A   1      46.014  29.586  26.771  1.00  0.00     0.049 A 
ATOM     65  H   UNL A   1      44.243  29.689  27.911  1.00  0.00     0.167 HD
ATOM     66  C   UNL A   1      45.122  27.275  26.732  1.00  0.00     0.074 A 
ATOM     67  C   UNL A   1      45.212  25.874  26.375  1.00  0.00     0.031 C 
ATOM     68  C   UNL A   1      46.066  28.194  26.413  1.00  0.00     0.031 A 
BRANCH  55  69
ATOM     69  C   UNL A   1      44.881  33.846  28.616  1.00  0.00    -0.014 A 
ATOM     70  C   UNL A   1      44.395  34.816  27.727  1.00  0.00     0.009 A 
ATOM     71  C   UNL A   1      45.763  34.240  29.636  1.00  0.00     0.009 A 
ATOM     72  C   UNL A   1      44.809  36.146  27.838  1.00  0.00     0.001 A 
ATOM     73  C   UNL A   1      46.150  35.575  29.764  1.00  0.00     0.001 A 
ATOM     74  C   UNL A   1      45.681  36.525  28.859  1.00  0.00     0.000 A 
ENDBRANCH  55  69
BRANCH  56  75
ATOM     75  C   UNL A   1      41.465  24.480  27.677  1.00  0.00    -0.014 A 
ATOM     76  C   UNL A   1      40.518  24.088  26.712  1.00  0.00     0.009 A 
ATOM     77  C   UNL A   1      41.936  23.510  28.571  1.00  0.00     0.009 A 
ATOM     78  C   UNL A   1      40.033  22.777  26.663  1.00  0.00     0.001 A 
ATOM     79  C   UNL A   1      41.486  22.187  28.492  1.00  0.00     0.001 A 
ATOM     80  C   UNL A   1      40.527  21.824  27.548  1.00  0.00     0.000 A 
ENDBRANCH  56  75
BRANCH  68  81
ATOM     81  C   UNL A   1      47.233  27.704  25.604  1.00  0.00    -0.014 A 
ATOM     82  C   UNL A   1      47.195  27.736  24.199  1.00  0.00     0.009 A 
ATOM     83  C   UNL A   1      48.376  27.200  26.241  1.00  0.00     0.009 A 
ATOM     84  C   UNL A   1      48.249  27.214  23.448  1.00  0.00     0.001 A 
ATOM     85  C   UNL A   1      49.444  26.712  25.487  1.00  0.00     0.001 A 
ATOM     86  C   UNL A   1      49.373  26.703  24.094  1.00  0.00     0.000 A 
ENDBRANCH  68  81
ENDBRANCH  42  43
ENDBRANCH  35  37
ENDBRANCH  34  35
ENDBRANCH  33  34
ENDBRANCH  32  33
ENDBRANCH  31  32
ENDBRANCH  30  31
ENDBRANCH  29  30
ENDBRANCH  28  29
ENDBRANCH   1  28
TORSDOF 23
ENDMDL
MODEL 3
REMARK VINA RESULT:      -9.7      4.273      8.365
REMARK SMILES O=C(CCC(=O)N1CCC(c2nnc3ccccn23)CC1)OCCOCCOCCOCCOC(=O)c1ccc(-c2c3nc(c(-c4ccccc4)c4ccc([nH]4)c(-c4ccccc4)c4nc(c(-c5ccccc5)c5ccc2[nH]5)C=C4)C=C3)cc1
REMARK SMILES IDX 27 1 26 2 25 3 24 4 23 5 22 6 2 7 1 8 3 9 4 10 5 11 6 12
REMARK SMILES IDX 7 13 8 14 21 15 9 16 20 17 10 18 11 19 12 20 19 21 13 22
REMARK SMILES IDX 14 23 18 24 15 25 17 26 16 27 28 28 29 29 30 30 31 31 32 32
REMARK SMILES IDX 33 33 34 34 35 35 36 36 37 37 38 38 84 39 39 40 83 41 40 42
REMARK SMILES IDX 41 43 42 44 77 45 43 46 82 47 76 48 78 49 44 50 81 51 75 52
REMARK SMILES IDX 74 53 45 55 67 56 52 57 66 58 53 59 56 60 65 61 79 62 54 63
REMARK SMILES IDX 55 64 64 66 80 67 57 68 46 69 47 70 51 71 48 72 50 73 49 74
REMARK SMILES IDX 68 75 69 76 73 77 70 78 72 79 71 80 58 81 59 82 63 83 60 84
REMARK SMILES IDX 62 85 61 86
REMARK H PARENT 78 54 56 65
REMARK Flexibility Score: inf
ROOT
ATOM      1  C   UNL A   1      34.841  29.667  27.828  1.00  0.00     0.188 C 
ENDROOT
BRANCH   1   2
ATOM      2  C   UNL A   1      34.521  28.494  26.875  1.00  0.00     0.188 C 
BRANCH   2   3
ATOM      3  O   UNL A   1      33.573  28.807  25.863  1.00  0.00    -0.376 OA
BRANCH   3   4
ATOM      4  C   UNL A   1      32.244  29.147  26.217  1.00  0.00     0.202 C 
BRANCH   4   5
ATOM      5  C   UNL A   1      31.532  30.072  25.240  1.00  0.00     0.261 C 
BRANCH   5   6
ATOM      6  O   UNL A   1      30.628  29.364  24.374  1.00  0.00    -0.463 OA
BRANCH   6   7
ATOM      7  C   UNL A   1      30.955  28.640  23.290  1.00  0.00     0.306 C 
ATOM      8  O   UNL A   1      31.989  28.876  22.670  1.00  0.00    -0.252 OA
BRANCH   7   9
ATOM      9  C   UNL A   1      30.102  27.469  22.962  1.00  0.00     0.132 C 
BRANCH   9  10
ATOM     10  C   UNL A   1      30.603  26.273  23.743  1.00  0.00     0.112 C 
BRANCH  10  11
ATOM     11  C   UNL A   1      31.518  25.392  22.923  1.00  0.00     0.223 C 
ATOM     12  O   UNL A   1      31.651  25.654  21.722  1.00  0.00    -0.275 OA
ATOM     13  N   UNL A   1      32.178  24.325  23.512  1.00  0.00    -0.343 N 
ATOM     14  C   UNL A   1      33.264  23.725  22.764  1.00  0.00     0.120 C 
ATOM     15  C   UNL A   1      31.895  23.648  24.789  1.00  0.00     0.120 C 
ATOM     16  C   UNL A   1      32.916  22.301  22.420  1.00  0.00     0.033 C 
ATOM     17  C   UNL A   1      31.617  22.137  24.598  1.00  0.00     0.033 C 
ATOM     18  C   UNL A   1      32.651  21.459  23.687  1.00  0.00     0.062 C 
BRANCH  18  19
ATOM     19  C   UNL A   1      32.250  20.097  23.193  1.00  0.00     0.140 A 
ATOM     20  N   UNL A   1      32.028  19.728  21.945  1.00  0.00    -0.134 NA
ATOM     21  N   UNL A   1      32.520  18.974  23.949  1.00  0.00    -0.286 N 
ATOM     22  N   UNL A   1      32.338  18.386  21.838  1.00  0.00    -0.130 NA
ATOM     23  C   UNL A   1      32.723  17.965  23.023  1.00  0.00     0.160 A 
ATOM     24  C   UNL A   1      32.760  18.836  25.314  1.00  0.00     0.095 A 
ATOM     25  C   UNL A   1      33.290  16.750  23.504  1.00  0.00     0.050 A 
ATOM     26  C   UNL A   1      33.298  17.694  25.764  1.00  0.00     0.019 A 
ATOM     27  C   UNL A   1      33.588  16.631  24.813  1.00  0.00     0.005 A 
ENDBRANCH  18  19
ENDBRANCH  10  11
ENDBRANCH   9  10
ENDBRANCH   7   9
ENDBRANCH   6   7
ENDBRANCH   5   6
ENDBRANCH   4   5
ENDBRANCH   3   4
ENDBRANCH   2   3
ENDBRANCH   1   2
BRANCH   1  28
ATOM     28  O   UNL A   1      34.790  30.966  27.243  1.00  0.00    -0.377 OA
BRANCH  28  29
ATOM     29  C   UNL A   1      34.313  31.989  28.109  1.00  0.00     0.188 C 
BRANCH  29  30
ATOM     30  C   UNL A   1      35.013  33.364  27.984  1.00  0.00     0.188 C 
BRANCH  30  31
ATOM     31  O   UNL A   1      34.792  34.430  28.903  1.00  0.00    -0.376 OA
BRANCH  31  32
ATOM     32  C   UNL A   1      33.522  34.600  29.505  1.00  0.00     0.202 C 
BRANCH  32  33
ATOM     33  C   UNL A   1      33.070  36.015  29.887  1.00  0.00     0.261 C 
BRANCH  33  34
ATOM     34  O   UNL A   1      33.286  36.393  31.256  1.00  0.00    -0.460 OA
BRANCH  34  35
ATOM     35  C   UNL A   1      32.882  35.487  32.169  1.00  0.00     0.338 C 
ATOM     36  O   UNL A   1      31.729  35.109  32.381  1.00  0.00    -0.246 OA
BRANCH  35  37
ATOM     37  C   UNL A   1      34.042  34.875  32.840  1.00  0.00     0.060 A 
ATOM     38  C   UNL A   1      35.212  35.634  32.967  1.00  0.00     0.016 A 
ATOM     39  C   UNL A   1      34.021  33.538  33.249  1.00  0.00     0.016 A 
ATOM     40  C   UNL A   1      36.378  35.048  33.449  1.00  0.00     0.010 A 
ATOM     41  C   UNL A   1      35.206  32.937  33.692  1.00  0.00     0.010 A 
ATOM     42  C   UNL A   1      36.398  33.678  33.743  1.00  0.00    -0.014 A 
BRANCH  42  43
ATOM     43  C   UNL A   1      37.720  33.009  33.827  1.00  0.00     0.031 A 
ATOM     44  C   UNL A   1      38.452  33.068  35.138  1.00  0.00     0.074 A 
ATOM     45  C   UNL A   1      38.235  32.325  32.792  1.00  0.00     0.049 A 
ATOM     46  N   UNL A   1      39.555  32.466  35.500  1.00  0.00    -0.248 NA
ATOM     47  C   UNL A   1      37.886  33.959  36.165  1.00  0.00     0.031 C 
ATOM     48  C   UNL A   1      37.659  32.271  31.457  1.00  0.00     0.029 A 
ATOM     49  N   UNL A   1      39.339  31.509  32.717  1.00  0.00    -0.354 N 
ATOM     50  C   UNL A   1      39.849  32.956  36.767  1.00  0.00     0.074 A 
ATOM     51  C   UNL A   1      38.800  33.887  37.120  1.00  0.00     0.031 C 
ATOM     52  C   UNL A   1      38.362  31.395  30.717  1.00  0.00     0.029 A 
ATOM     53  C   UNL A   1      39.430  30.820  31.528  1.00  0.00     0.049 A 
ATOM     54  H   UNL A   1      40.001  31.426  33.442  1.00  0.00     0.167 HD
ATOM     55  C   UNL A   1      40.919  32.681  37.548  1.00  0.00     0.031 A 
ATOM     56  C   UNL A   1      40.246  29.807  31.171  1.00  0.00     0.031 A 
ATOM     57  C   UNL A   1      41.965  31.763  37.181  1.00  0.00     0.049 A 
ATOM     58  C   UNL A   1      41.322  29.386  32.142  1.00  0.00     0.074 A 
ATOM     59  C   UNL A   1      43.113  31.433  37.878  1.00  0.00     0.029 A 
ATOM     60  N   UNL A   1      41.980  31.022  36.010  1.00  0.00    -0.354 N 
ATOM     61  N   UNL A   1      41.559  29.816  33.359  1.00  0.00    -0.248 NA
ATOM     62  C   UNL A   1      42.256  28.347  31.682  1.00  0.00     0.031 C 
ATOM     63  C   UNL A   1      43.843  30.521  37.108  1.00  0.00     0.029 A 
ATOM     64  C   UNL A   1      43.120  30.239  35.961  1.00  0.00     0.049 A 
ATOM     65  H   UNL A   1      41.283  31.051  35.315  1.00  0.00     0.167 HD
ATOM     66  C   UNL A   1      42.688  29.131  33.787  1.00  0.00     0.074 A 
ATOM     67  C   UNL A   1      43.018  28.175  32.751  1.00  0.00     0.031 C 
ATOM     68  C   UNL A   1      43.432  29.313  34.906  1.00  0.00     0.031 A 
BRANCH  55  69
ATOM     69  C   UNL A   1      41.044  33.441  38.838  1.00  0.00    -0.014 A 
ATOM     70  C   UNL A   1      41.841  34.592  38.942  1.00  0.00     0.009 A 
ATOM     71  C   UNL A   1      40.342  32.997  39.970  1.00  0.00     0.009 A 
ATOM     72  C   UNL A   1      41.955  35.263  40.162  1.00  0.00     0.001 A 
ATOM     73  C   UNL A   1      40.433  33.687  41.179  1.00  0.00     0.001 A 
ATOM     74  C   UNL A   1      41.247  34.814  41.277  1.00  0.00     0.000 A 
ENDBRANCH  55  69
BRANCH  56  75
ATOM     75  C   UNL A   1      40.079  29.071  29.880  1.00  0.00    -0.014 A 
ATOM     76  C   UNL A   1      39.257  27.929  29.824  1.00  0.00     0.009 A 
ATOM     77  C   UNL A   1      40.754  29.456  28.715  1.00  0.00     0.009 A 
ATOM     78  C   UNL A   1      39.139  27.178  28.650  1.00  0.00     0.001 A 
ATOM     79  C   UNL A   1      40.599  28.732  27.527  1.00  0.00     0.001 A 
ATOM     80  C   UNL A   1      39.803  27.588  27.498  1.00  0.00     0.000 A 
ENDBRANCH  56  75
BRANCH  68  81
ATOM     81  C   UNL A   1      44.685  28.492  35.020  1.00  0.00    -0.014 A 
ATOM     82  C   UNL A   1      44.653  27.213  35.604  1.00  0.00     0.009 A 
ATOM     83  C   UNL A   1      45.907  28.993  34.550  1.00  0.00     0.009 A 
ATOM     84  C   UNL A   1      45.829  26.481  35.774  1.00  0.00     0.001 A 
ATOM     85  C   UNL A   1      47.076  28.243  34.689  1.00  0.00     0.001 A 
ATOM     86  C   UNL A   1      47.039  26.998  35.315  1.00  0.00     0.000 A 
ENDBRANCH  68  81
ENDBRANCH  42  43
ENDBRANCH  35  37
ENDBRANCH  34  35
ENDBRANCH  33  34
ENDBRANCH  32  33
ENDBRANCH  31  32
ENDBRANCH  30  31
ENDBRANCH  29  30
ENDBRANCH  28  29
ENDBRANCH   1  28
TORSDOF 23
ENDMDL
