MODEL 1
REMARK VINA RESULT:      -9.7      0.000      0.000
REMARK SMILES NS(=O)(=O)c1ccc(-c2coc(=O)n2-c2ccc(C(=O)OCCOCCOCCOCCOC(=O)c3ccc(-c4c5nc(c(-c6ccccc6)c6ccc([nH]6)c(-c6ccccc6)c6nc(c(-c7ccccc7)c7ccc4[nH]7)C=C6)C=C5)cc3)cc2)cc1
REMARK SMILES IDX 26 1 25 2 24 3 23 4 22 5 21 6 19 7 20 8 18 9 15 10 16 11
REMARK SMILES IDX 85 12 17 13 84 14 14 15 9 16 10 17 11 18 12 19 13 20 8 21
REMARK SMILES IDX 5 22 6 23 87 24 7 25 86 26 2 27 3 28 4 29 1 30 27 33 28 34
REMARK SMILES IDX 29 35 30 36 31 37 32 38 33 39 34 40 35 41 36 42 37 43 83 44
REMARK SMILES IDX 38 45 82 46 39 47 40 48 41 49 76 50 42 51 81 52 75 53 77 54
REMARK SMILES IDX 43 55 80 56 74 57 73 58 44 60 66 61 51 62 65 63 52 64 55 65
REMARK SMILES IDX 64 66 78 67 53 68 54 69 63 71 79 72 56 73 45 74 46 75 50 76
REMARK SMILES IDX 47 77 49 78 48 79 67 80 68 81 72 82 69 83 71 84 70 85 57 86
REMARK SMILES IDX 58 87 62 88 59 89 61 90 60 91
REMARK H PARENT 1 31 1 32 77 59 55 70
REMARK Flexibility Score: inf
ROOT
ATOM      1  C   UNL A   1      36.311  19.930  24.867  1.00  0.00     0.188 C 
ENDROOT
BRANCH   1   2
ATOM      2  C   UNL A   1      35.946  18.447  24.629  1.00  0.00     0.188 C 
BRANCH   2   3
ATOM      3  O   UNL A   1      34.561  18.187  24.605  1.00  0.00    -0.376 OA
BRANCH   3   4
ATOM      4  C   UNL A   1      33.609  19.221  24.643  1.00  0.00     0.202 C 
BRANCH   4   5
ATOM      5  C   UNL A   1      32.936  19.636  25.958  1.00  0.00     0.261 C 
BRANCH   5   6
ATOM      6  O   UNL A   1      33.594  20.648  26.721  1.00  0.00    -0.460 OA
BRANCH   6   7
ATOM      7  C   UNL A   1      32.964  21.840  26.810  1.00  0.00     0.338 C 
ATOM      8  O   UNL A   1      32.627  22.419  27.827  1.00  0.00    -0.246 OA
BRANCH   7   9
ATOM      9  C   UNL A   1      32.925  22.439  25.458  1.00  0.00     0.060 A 
ATOM     10  C   UNL A   1      32.904  23.734  22.990  1.00  0.00     0.053 A 
ATOM     11  C   UNL A   1      34.124  23.471  23.619  1.00  0.00     0.028 A 
ATOM     12  C   UNL A   1      31.713  23.229  23.538  1.00  0.00     0.028 A 
ATOM     13  C   UNL A   1      34.128  22.859  24.874  1.00  0.00     0.018 A 
ATOM     14  C   UNL A   1      31.722  22.564  24.763  1.00  0.00     0.018 A 
BRANCH  10  15
ATOM     15  N   UNL A   1      32.848  24.687  21.951  1.00  0.00    -0.242 N 
ATOM     16  C   UNL A   1      32.632  26.032  22.090  1.00  0.00     0.095 A 
ATOM     17  C   UNL A   1      32.724  26.545  20.870  1.00  0.00     0.228 A 
ATOM     18  O   UNL A   1      33.007  25.611  19.875  1.00  0.00    -0.415 OA
ATOM     19  C   UNL A   1      33.125  24.430  20.613  1.00  0.00     0.424 A 
ATOM     20  O   UNL A   1      33.412  23.357  20.099  1.00  0.00    -0.223 OA
BRANCH  16  21
ATOM     21  C   UNL A   1      32.535  26.740  23.368  1.00  0.00     0.002 A 
ATOM     22  C   UNL A   1      32.258  28.323  25.660  1.00  0.00     0.082 A 
ATOM     23  C   UNL A   1      31.124  27.764  25.074  1.00  0.00     0.022 A 
ATOM     24  C   UNL A   1      33.532  28.055  25.145  1.00  0.00     0.022 A 
ATOM     25  C   UNL A   1      31.269  26.964  23.940  1.00  0.00     0.012 A 
ATOM     26  C   UNL A   1      33.668  27.266  23.996  1.00  0.00     0.012 A 
BRANCH  22  27
ATOM     27  S   UNL A   1      32.107  29.406  27.048  1.00  0.00     0.238 S 
ATOM     28  O   UNL A   1      31.254  28.776  28.020  1.00  0.00    -0.207 OA
ATOM     29  O   UNL A   1      31.882  30.751  26.556  1.00  0.00    -0.207 OA
BRANCH  27  30
ATOM     30  N   UNL A   1      33.646  29.438  27.723  1.00  0.00    -0.225 NA
ATOM     31  H   UNL A   1      33.962  28.484  27.896  1.00  0.00     0.137 HD
ATOM     32  H   UNL A   1      33.622  29.954  28.602  1.00  0.00     0.137 HD
ENDBRANCH  27  30
ENDBRANCH  22  27
ENDBRANCH  16  21
ENDBRANCH  10  15
ENDBRANCH   7   9
ENDBRANCH   6   7
ENDBRANCH   5   6
ENDBRANCH   4   5
ENDBRANCH   3   4
ENDBRANCH   2   3
ENDBRANCH   1   2
BRANCH   1  33
ATOM     33  O   UNL A   1      37.661  20.360  24.921  1.00  0.00    -0.377 OA
BRANCH  33  34
ATOM     34  C   UNL A   1      38.023  21.567  25.577  1.00  0.00     0.188 C 
BRANCH  34  35
ATOM     35  C   UNL A   1      39.430  21.829  26.180  1.00  0.00     0.188 C 
BRANCH  35  36
ATOM     36  O   UNL A   1      40.383  20.790  26.103  1.00  0.00    -0.376 OA
BRANCH  36  37
ATOM     37  C   UNL A   1      41.700  20.823  26.606  1.00  0.00     0.202 C 
BRANCH  37  38
ATOM     38  C   UNL A   1      42.806  21.679  26.008  1.00  0.00     0.261 C 
BRANCH  38  39
ATOM     39  O   UNL A   1      42.355  22.855  25.386  1.00  0.00    -0.460 OA
BRANCH  39  40
ATOM     40  C   UNL A   1      42.867  23.975  25.925  1.00  0.00     0.338 C 
ATOM     41  O   UNL A   1      43.974  24.450  25.742  1.00  0.00    -0.246 OA
BRANCH  40  42
ATOM     42  C   UNL A   1      41.896  24.480  26.898  1.00  0.00     0.060 A 
ATOM     43  C   UNL A   1      40.874  25.253  26.355  1.00  0.00     0.016 A 
ATOM     44  C   UNL A   1      42.337  24.613  28.222  1.00  0.00     0.016 A 
ATOM     45  C   UNL A   1      40.563  26.410  27.017  1.00  0.00     0.010 A 
ATOM     46  C   UNL A   1      42.044  25.779  28.869  1.00  0.00     0.010 A 
ATOM     47  C   UNL A   1      41.265  26.708  28.192  1.00  0.00    -0.014 A 
BRANCH  47  48
ATOM     48  C   UNL A   1      41.084  28.011  28.769  1.00  0.00     0.031 A 
ATOM     49  C   UNL A   1      42.142  28.929  28.325  1.00  0.00     0.074 A 
ATOM     50  C   UNL A   1      40.043  28.339  29.552  1.00  0.00     0.049 A 
ATOM     51  N   UNL A   1      43.212  29.234  28.975  1.00  0.00    -0.248 NA
ATOM     52  C   UNL A   1      42.147  29.326  26.908  1.00  0.00     0.031 C 
ATOM     53  C   UNL A   1      38.805  27.603  29.818  1.00  0.00     0.029 A 
ATOM     54  N   UNL A   1      39.856  29.498  30.228  1.00  0.00    -0.354 N 
ATOM     55  C   UNL A   1      43.917  30.067  28.123  1.00  0.00     0.074 A 
ATOM     56  C   UNL A   1      43.361  29.866  26.809  1.00  0.00     0.031 C 
ATOM     57  C   UNL A   1      37.908  28.443  30.394  1.00  0.00     0.029 A 
ATOM     58  C   UNL A   1      38.560  29.714  30.666  1.00  0.00     0.049 A 
ATOM     59  H   UNL A   1      40.586  30.137  30.396  1.00  0.00     0.167 HD
ATOM     60  C   UNL A   1      44.649  31.098  28.618  1.00  0.00     0.031 A 
ATOM     61  C   UNL A   1      38.078  30.890  31.145  1.00  0.00     0.031 A 
ATOM     62  C   UNL A   1      44.882  30.948  30.036  1.00  0.00     0.049 A 
ATOM     63  C   UNL A   1      39.246  31.712  31.551  1.00  0.00     0.074 A 
ATOM     64  C   UNL A   1      45.496  29.997  30.826  1.00  0.00     0.029 A 
ATOM     65  N   UNL A   1      44.063  31.669  30.874  1.00  0.00    -0.354 N 
ATOM     66  N   UNL A   1      40.023  31.405  32.550  1.00  0.00    -0.248 NA
ATOM     67  C   UNL A   1      39.837  32.594  30.554  1.00  0.00     0.031 C 
ATOM     68  C   UNL A   1      44.679  29.899  31.992  1.00  0.00     0.029 A 
ATOM     69  C   UNL A   1      43.654  30.842  31.889  1.00  0.00     0.049 A 
ATOM     70  H   UNL A   1      43.813  32.614  30.765  1.00  0.00     0.167 HD
ATOM     71  C   UNL A   1      41.308  31.670  32.097  1.00  0.00     0.074 A 
ATOM     72  C   UNL A   1      41.124  32.481  30.894  1.00  0.00     0.031 C 
ATOM     73  C   UNL A   1      42.379  30.962  32.565  1.00  0.00     0.031 A 
BRANCH  60  74
ATOM     74  C   UNL A   1      44.708  32.439  27.931  1.00  0.00    -0.014 A 
ATOM     75  C   UNL A   1      43.757  33.409  28.286  1.00  0.00     0.009 A 
ATOM     76  C   UNL A   1      45.463  32.691  26.767  1.00  0.00     0.009 A 
ATOM     77  C   UNL A   1      43.524  34.524  27.475  1.00  0.00     0.001 A 
ATOM     78  C   UNL A   1      45.264  33.824  25.979  1.00  0.00     0.001 A 
ATOM     79  C   UNL A   1      44.271  34.726  26.319  1.00  0.00     0.000 A 
ENDBRANCH  60  74
BRANCH  61  80
ATOM     80  C   UNL A   1      36.742  31.492  30.929  1.00  0.00    -0.014 A 
ATOM     81  C   UNL A   1      35.996  31.993  32.010  1.00  0.00     0.009 A 
ATOM     82  C   UNL A   1      36.330  31.850  29.631  1.00  0.00     0.009 A 
ATOM     83  C   UNL A   1      34.903  32.848  31.801  1.00  0.00     0.001 A 
ATOM     84  C   UNL A   1      35.240  32.703  29.423  1.00  0.00     0.001 A 
ATOM     85  C   UNL A   1      34.536  33.214  30.508  1.00  0.00     0.000 A 
ENDBRANCH  61  80
BRANCH  73  86
ATOM     86  C   UNL A   1      42.161  30.056  33.755  1.00  0.00    -0.014 A 
ATOM     87  C   UNL A   1      41.834  28.692  33.646  1.00  0.00     0.009 A 
ATOM     88  C   UNL A   1      42.437  30.572  35.029  1.00  0.00     0.009 A 
ATOM     89  C   UNL A   1      41.761  27.880  34.784  1.00  0.00     0.001 A 
ATOM     90  C   UNL A   1      42.385  29.757  36.162  1.00  0.00     0.001 A 
ATOM     91  C   UNL A   1      42.041  28.413  36.041  1.00  0.00     0.000 A 
ENDBRANCH  73  86
ENDBRANCH  47  48
ENDBRANCH  40  42
ENDBRANCH  39  40
ENDBRANCH  38  39
ENDBRANCH  37  38
ENDBRANCH  36  37
ENDBRANCH  35  36
ENDBRANCH  34  35
ENDBRANCH  33  34
ENDBRANCH   1  33
TORSDOF 24
ENDMDL
MODEL 2
REMARK VINA RESULT:      -9.5      3.043      8.410
REMARK SMILES NS(=O)(=O)c1ccc(-c2coc(=O)n2-c2ccc(C(=O)OCCOCCOCCOCCOC(=O)c3ccc(-c4c5nc(c(-c6ccccc6)c6ccc([nH]6)c(-c6ccccc6)c6nc(c(-c7ccccc7)c7ccc4[nH]7)C=C6)C=C5)cc3)cc2)cc1
REMARK SMILES IDX 26 1 25 2 24 3 23 4 22 5 21 6 19 7 20 8 18 9 15 10 16 11
REMARK SMILES IDX 85 12 17 13 84 14 14 15 9 16 10 17 11 18 12 19 13 20 8 21
REMARK SMILES IDX 5 22 6 23 87 24 7 25 86 26 2 27 3 28 4 29 1 30 27 33 28 34
REMARK SMILES IDX 29 35 30 36 31 37 32 38 33 39 34 40 35 41 36 42 37 43 83 44
REMARK SMILES IDX 38 45 82 46 39 47 40 48 41 49 76 50 42 51 81 52 75 53 77 54
REMARK SMILES IDX 43 55 80 56 74 57 73 58 44 60 66 61 51 62 65 63 52 64 55 65
REMARK SMILES IDX 64 66 78 67 53 68 54 69 63 71 79 72 56 73 45 74 46 75 50 76
REMARK SMILES IDX 47 77 49 78 48 79 67 80 68 81 72 82 69 83 71 84 70 85 57 86
REMARK SMILES IDX 58 87 62 88 59 89 61 90 60 91
REMARK H PARENT 1 31 1 32 77 59 55 70
REMARK Flexibility Score: inf
ROOT
ATOM      1  C   UNL A   1      32.175  29.445  27.112  1.00  0.00     0.188 C 
ENDROOT
BRANCH   1   2
ATOM      2  C   UNL A   1      31.414  28.208  27.640  1.00  0.00     0.188 C 
BRANCH   2   3
ATOM      3  O   UNL A   1      31.637  27.031  26.898  1.00  0.00    -0.376 OA
BRANCH   3   4
ATOM      4  C   UNL A   1      30.820  26.668  25.813  1.00  0.00     0.202 C 
BRANCH   4   5
ATOM      5  C   UNL A   1      29.957  25.400  25.854  1.00  0.00     0.261 C 
BRANCH   5   6
ATOM      6  O   UNL A   1      30.634  24.160  25.642  1.00  0.00    -0.460 OA
BRANCH   6   7
ATOM      7  C   UNL A   1      31.033  23.496  26.748  1.00  0.00     0.338 C 
ATOM      8  O   UNL A   1      30.325  22.935  27.564  1.00  0.00    -0.246 OA
BRANCH   7   9
ATOM      9  C   UNL A   1      32.508  23.381  26.705  1.00  0.00     0.060 A 
ATOM     10  C   UNL A   1      35.267  23.074  26.455  1.00  0.00     0.053 A 
ATOM     11  C   UNL A   1      34.596  23.971  25.620  1.00  0.00     0.028 A 
ATOM     12  C   UNL A   1      34.571  22.436  27.496  1.00  0.00     0.028 A 
ATOM     13  C   UNL A   1      33.209  24.092  25.721  1.00  0.00     0.018 A 
ATOM     14  C   UNL A   1      33.195  22.602  27.636  1.00  0.00     0.018 A 
BRANCH  10  15
ATOM     15  N   UNL A   1      36.564  22.640  26.111  1.00  0.00    -0.242 N 
ATOM     16  C   UNL A   1      36.892  21.462  25.494  1.00  0.00     0.095 A 
ATOM     17  C   UNL A   1      38.206  21.499  25.310  1.00  0.00     0.228 A 
ATOM     18  O   UNL A   1      38.816  22.667  25.766  1.00  0.00    -0.415 OA
ATOM     19  C   UNL A   1      37.723  23.399  26.237  1.00  0.00     0.424 A 
ATOM     20  O   UNL A   1      37.833  24.527  26.696  1.00  0.00    -0.223 OA
BRANCH  16  21
ATOM     21  C   UNL A   1      35.930  20.488  24.975  1.00  0.00     0.002 A 
ATOM     22  C   UNL A   1      33.958  18.643  24.241  1.00  0.00     0.082 A 
ATOM     23  C   UNL A   1      33.655  20.002  24.244  1.00  0.00     0.022 A 
ATOM     24  C   UNL A   1      35.250  18.200  24.547  1.00  0.00     0.022 A 
ATOM     25  C   UNL A   1      34.645  20.919  24.597  1.00  0.00     0.012 A 
ATOM     26  C   UNL A   1      36.234  19.125  24.918  1.00  0.00     0.012 A 
BRANCH  22  27
ATOM     27  S   UNL A   1      32.708  17.447  23.877  1.00  0.00     0.238 S 
ATOM     28  O   UNL A   1      31.809  17.381  24.998  1.00  0.00    -0.207 OA
ATOM     29  O   UNL A   1      33.347  16.277  23.307  1.00  0.00    -0.207 OA
BRANCH  27  30
ATOM     30  N   UNL A   1      31.834  18.128  22.612  1.00  0.00    -0.225 NA
ATOM     31  H   UNL A   1      31.478  19.041  22.897  1.00  0.00     0.137 HD
ATOM     32  H   UNL A   1      31.053  17.518  22.371  1.00  0.00     0.137 HD
ENDBRANCH  27  30
ENDBRANCH  22  27
ENDBRANCH  16  21
ENDBRANCH  10  15
ENDBRANCH   7   9
ENDBRANCH   6   7
ENDBRANCH   5   6
ENDBRANCH   4   5
ENDBRANCH   3   4
ENDBRANCH   2   3
ENDBRANCH   1   2
BRANCH   1  33
ATOM     33  O   UNL A   1      33.509  29.718  27.511  1.00  0.00    -0.377 OA
BRANCH  33  34
ATOM     34  C   UNL A   1      34.060  31.022  27.387  1.00  0.00     0.188 C 
BRANCH  34  35
ATOM     35  C   UNL A   1      33.270  32.322  27.700  1.00  0.00     0.188 C 
BRANCH  35  36
ATOM     36  O   UNL A   1      34.000  33.444  28.150  1.00  0.00    -0.376 OA
BRANCH  36  37
ATOM     37  C   UNL A   1      34.135  33.873  29.487  1.00  0.00     0.202 C 
BRANCH  37  38
ATOM     38  C   UNL A   1      34.786  33.034  30.576  1.00  0.00     0.261 C 
BRANCH  38  39
ATOM     39  O   UNL A   1      34.009  32.890  31.738  1.00  0.00    -0.460 OA
BRANCH  39  40
ATOM     40  C   UNL A   1      34.056  33.962  32.548  1.00  0.00     0.338 C 
ATOM     41  O   UNL A   1      33.200  34.814  32.704  1.00  0.00    -0.246 OA
BRANCH  40  42
ATOM     42  C   UNL A   1      35.396  34.010  33.137  1.00  0.00     0.060 A 
ATOM     43  C   UNL A   1      36.235  34.982  32.600  1.00  0.00     0.016 A 
ATOM     44  C   UNL A   1      35.870  32.831  33.730  1.00  0.00     0.016 A 
ATOM     45  C   UNL A   1      37.517  34.596  32.314  1.00  0.00     0.010 A 
ATOM     46  C   UNL A   1      37.141  32.438  33.423  1.00  0.00     0.010 A 
ATOM     47  C   UNL A   1      37.891  33.279  32.609  1.00  0.00    -0.014 A 
BRANCH  47  48
ATOM     48  C   UNL A   1      39.162  32.818  32.124  1.00  0.00     0.031 A 
ATOM     49  C   UNL A   1      38.988  31.694  31.195  1.00  0.00     0.074 A 
ATOM     50  C   UNL A   1      40.332  33.398  32.440  1.00  0.00     0.049 A 
ATOM     51  N   UNL A   1      39.099  30.442  31.480  1.00  0.00    -0.248 NA
ATOM     52  C   UNL A   1      38.358  31.976  29.896  1.00  0.00     0.031 C 
ATOM     53  C   UNL A   1      40.593  34.673  33.111  1.00  0.00     0.029 A 
ATOM     54  N   UNL A   1      41.576  32.962  32.126  1.00  0.00    -0.354 N 
ATOM     55  C   UNL A   1      38.778  29.783  30.306  1.00  0.00     0.074 A 
ATOM     56  C   UNL A   1      38.087  30.740  29.481  1.00  0.00     0.031 C 
ATOM     57  C   UNL A   1      41.895  35.009  32.927  1.00  0.00     0.029 A 
ATOM     58  C   UNL A   1      42.577  33.910  32.263  1.00  0.00     0.049 A 
ATOM     59  H   UNL A   1      41.754  32.042  31.824  1.00  0.00     0.167 HD
ATOM     60  C   UNL A   1      39.409  28.628  29.970  1.00  0.00     0.031 A 
ATOM     61  C   UNL A   1      43.843  33.791  31.786  1.00  0.00     0.031 A 
ATOM     62  C   UNL A   1      40.089  28.048  31.104  1.00  0.00     0.049 A 
ATOM     63  C   UNL A   1      44.087  32.346  31.541  1.00  0.00     0.074 A 
ATOM     64  C   UNL A   1      39.695  27.593  32.347  1.00  0.00     0.029 A 
ATOM     65  N   UNL A   1      41.443  28.277  31.195  1.00  0.00    -0.354 N 
ATOM     66  N   UNL A   1      44.158  31.462  32.495  1.00  0.00    -0.248 NA
ATOM     67  C   UNL A   1      43.758  31.815  30.225  1.00  0.00     0.031 C 
ATOM     68  C   UNL A   1      40.731  28.005  33.239  1.00  0.00     0.029 A 
ATOM     69  C   UNL A   1      41.734  28.622  32.490  1.00  0.00     0.049 A 
ATOM     70  H   UNL A   1      42.091  28.207  30.458  1.00  0.00     0.167 HD
ATOM     71  C   UNL A   1      43.460  30.362  32.014  1.00  0.00     0.074 A 
ATOM     72  C   UNL A   1      43.312  30.606  30.579  1.00  0.00     0.031 C 
ATOM     73  C   UNL A   1      42.812  29.513  32.866  1.00  0.00     0.031 A 
BRANCH  60  74
ATOM     74  C   UNL A   1      39.809  28.319  28.549  1.00  0.00    -0.014 A 
ATOM     75  C   UNL A   1      39.856  26.975  28.150  1.00  0.00     0.009 A 
ATOM     76  C   UNL A   1      40.408  29.257  27.683  1.00  0.00     0.009 A 
ATOM     77  C   UNL A   1      40.535  26.588  26.990  1.00  0.00     0.001 A 
ATOM     78  C   UNL A   1      41.048  28.880  26.503  1.00  0.00     0.001 A 
ATOM     79  C   UNL A   1      41.137  27.539  26.172  1.00  0.00     0.000 A 
ENDBRANCH  60  74
BRANCH  61  80
ATOM     80  C   UNL A   1      44.701  34.836  31.183  1.00  0.00    -0.014 A 
ATOM     81  C   UNL A   1      45.963  34.514  30.655  1.00  0.00     0.009 A 
ATOM     82  C   UNL A   1      44.158  36.092  30.853  1.00  0.00     0.009 A 
ATOM     83  C   UNL A   1      46.637  35.399  29.799  1.00  0.00     0.001 A 
ATOM     84  C   UNL A   1      44.830  36.975  30.000  1.00  0.00     0.001 A 
ATOM     85  C   UNL A   1      46.063  36.622  29.461  1.00  0.00     0.000 A 
ENDBRANCH  61  80
BRANCH  73  86
ATOM     86  C   UNL A   1      43.074  29.663  34.347  1.00  0.00    -0.014 A 
ATOM     87  C   UNL A   1      44.082  28.963  35.035  1.00  0.00     0.009 A 
ATOM     88  C   UNL A   1      42.367  30.657  35.038  1.00  0.00     0.009 A 
ATOM     89  C   UNL A   1      44.351  29.235  36.382  1.00  0.00     0.001 A 
ATOM     90  C   UNL A   1      42.650  30.942  36.376  1.00  0.00     0.001 A 
ATOM     91  C   UNL A   1      43.637  30.228  37.050  1.00  0.00     0.000 A 
ENDBRANCH  73  86
ENDBRANCH  47  48
ENDBRANCH  40  42
ENDBRANCH  39  40
ENDBRANCH  38  39
ENDBRANCH  37  38
ENDBRANCH  36  37
ENDBRANCH  35  36
ENDBRANCH  34  35
ENDBRANCH  33  34
ENDBRANCH   1  33
TORSDOF 24
ENDMDL
MODEL 3
REMARK VINA RESULT:      -9.4      2.068      3.733
REMARK SMILES NS(=O)(=O)c1ccc(-c2coc(=O)n2-c2ccc(C(=O)OCCOCCOCCOCCOC(=O)c3ccc(-c4c5nc(c(-c6ccccc6)c6ccc([nH]6)c(-c6ccccc6)c6nc(c(-c7ccccc7)c7ccc4[nH]7)C=C6)C=C5)cc3)cc2)cc1
REMARK SMILES IDX 26 1 25 2 24 3 23 4 22 5 21 6 19 7 20 8 18 9 15 10 16 11
REMARK SMILES IDX 85 12 17 13 84 14 14 15 9 16 10 17 11 18 12 19 13 20 8 21
REMARK SMILES IDX 5 22 6 23 87 24 7 25 86 26 2 27 3 28 4 29 1 30 27 33 28 34
REMARK SMILES IDX 29 35 30 36 31 37 32 38 33 39 34 40 35 41 36 42 37 43 83 44
REMARK SMILES IDX 38 45 82 46 39 47 40 48 41 49 76 50 42 51 81 52 75 53 77 54
REMARK SMILES IDX 43 55 80 56 74 57 73 58 44 60 66 61 51 62 65 63 52 64 55 65
REMARK SMILES IDX 64 66 78 67 53 68 54 69 63 71 79 72 56 73 45 74 46 75 50 76
REMARK SMILES IDX 47 77 49 78 48 79 67 80 68 81 72 82 69 83 71 84 70 85 57 86
REMARK SMILES IDX 58 87 62 88 59 89 61 90 60 91
REMARK H PARENT 1 31 1 32 77 59 55 70
REMARK Flexibility Score: inf
ROOT
ATOM      1  C   UNL A   1      33.587  19.941  25.229  1.00  0.00     0.188 C 
ENDROOT
BRANCH   1   2
ATOM      2  C   UNL A   1      32.273  20.168  24.449  1.00  0.00     0.188 C 
BRANCH   2   3
ATOM      3  O   UNL A   1      32.048  21.507  24.070  1.00  0.00    -0.376 OA
BRANCH   3   4
ATOM      4  C   UNL A   1      32.881  22.171  23.151  1.00  0.00     0.202 C 
BRANCH   4   5
ATOM      5  C   UNL A   1      32.533  23.571  22.628  1.00  0.00     0.261 C 
BRANCH   5   6
ATOM      6  O   UNL A   1      33.607  24.329  22.070  1.00  0.00    -0.460 OA
BRANCH   6   7
ATOM      7  C   UNL A   1      33.306  25.575  21.644  1.00  0.00     0.338 C 
ATOM      8  O   UNL A   1      32.769  25.883  20.595  1.00  0.00    -0.246 OA
BRANCH   7   9
ATOM      9  C   UNL A   1      33.553  26.512  22.762  1.00  0.00     0.060 A 
ATOM     10  C   UNL A   1      33.831  28.265  24.911  1.00  0.00     0.053 A 
ATOM     11  C   UNL A   1      33.606  26.907  25.154  1.00  0.00     0.028 A 
ATOM     12  C   UNL A   1      34.047  28.712  23.596  1.00  0.00     0.028 A 
ATOM     13  C   UNL A   1      33.427  26.040  24.076  1.00  0.00     0.018 A 
ATOM     14  C   UNL A   1      33.927  27.835  22.520  1.00  0.00     0.018 A 
BRANCH  10  15
ATOM     15  N   UNL A   1      33.613  29.203  25.942  1.00  0.00    -0.242 N 
ATOM     16  C   UNL A   1      32.569  30.084  26.034  1.00  0.00     0.095 A 
ATOM     17  C   UNL A   1      32.729  30.723  27.186  1.00  0.00     0.228 A 
ATOM     18  O   UNL A   1      33.845  30.315  27.916  1.00  0.00    -0.415 OA
ATOM     19  C   UNL A   1      34.367  29.304  27.106  1.00  0.00     0.424 A 
ATOM     20  O   UNL A   1      35.355  28.652  27.418  1.00  0.00    -0.223 OA
BRANCH  16  21
ATOM     21  C   UNL A   1      31.422  30.127  25.125  1.00  0.00     0.002 A 
ATOM     22  C   UNL A   1      29.062  30.197  23.622  1.00  0.00     0.082 A 
ATOM     23  C   UNL A   1      29.500  31.354  24.261  1.00  0.00     0.022 A 
ATOM     24  C   UNL A   1      29.818  29.020  23.681  1.00  0.00     0.022 A 
ATOM     25  C   UNL A   1      30.684  31.318  24.997  1.00  0.00     0.012 A 
ATOM     26  C   UNL A   1      30.996  28.986  24.437  1.00  0.00     0.012 A 
BRANCH  22  27
ATOM     27  S   UNL A   1      27.526  30.183  22.747  1.00  0.00     0.238 S 
ATOM     28  O   UNL A   1      26.904  31.469  22.911  1.00  0.00    -0.207 OA
ATOM     29  O   UNL A   1      26.846  28.936  23.037  1.00  0.00    -0.207 OA
BRANCH  27  30
ATOM     30  N   UNL A   1      27.968  30.076  21.129  1.00  0.00    -0.225 NA
ATOM     31  H   UNL A   1      27.149  29.843  20.567  1.00  0.00     0.137 HD
ATOM     32  H   UNL A   1      28.676  29.350  21.017  1.00  0.00     0.137 HD
ENDBRANCH  27  30
ENDBRANCH  22  27
ENDBRANCH  16  21
ENDBRANCH  10  15
ENDBRANCH   7   9
ENDBRANCH   6   7
ENDBRANCH   5   6
ENDBRANCH   4   5
ENDBRANCH   3   4
ENDBRANCH   2   3
ENDBRANCH   1   2
BRANCH   1  33
ATOM     33  O   UNL A   1      34.708  19.317  24.622  1.00  0.00    -0.377 OA
BRANCH  33  34
ATOM     34  C   UNL A   1      36.005  19.892  24.708  1.00  0.00     0.188 C 
BRANCH  34  35
ATOM     35  C   UNL A   1      36.297  21.252  25.399  1.00  0.00     0.188 C 
BRANCH  35  36
ATOM     36  O   UNL A   1      37.634  21.536  25.755  1.00  0.00    -0.376 OA
BRANCH  36  37
ATOM     37  C   UNL A   1      38.237  22.810  25.801  1.00  0.00     0.202 C 
BRANCH  37  38
ATOM     38  C   UNL A   1      39.238  23.227  26.867  1.00  0.00     0.261 C 
BRANCH  38  39
ATOM     39  O   UNL A   1      40.524  23.505  26.376  1.00  0.00    -0.460 OA
BRANCH  39  40
ATOM     40  C   UNL A   1      41.452  23.617  27.342  1.00  0.00     0.338 C 
ATOM     41  O   UNL A   1      41.662  22.850  28.265  1.00  0.00    -0.246 OA
BRANCH  40  42
ATOM     42  C   UNL A   1      42.108  24.915  27.175  1.00  0.00     0.060 A 
ATOM     43  C   UNL A   1      42.860  25.335  28.268  1.00  0.00     0.016 A 
ATOM     44  C   UNL A   1      41.529  25.804  26.257  1.00  0.00     0.016 A 
ATOM     45  C   UNL A   1      42.708  26.640  28.653  1.00  0.00     0.010 A 
ATOM     46  C   UNL A   1      41.358  27.098  26.656  1.00  0.00     0.010 A 
ATOM     47  C   UNL A   1      41.843  27.451  27.909  1.00  0.00    -0.014 A 
BRANCH  47  48
ATOM     48  C   UNL A   1      41.527  28.752  28.431  1.00  0.00     0.031 A 
ATOM     49  C   UNL A   1      42.616  29.700  28.162  1.00  0.00     0.074 A 
ATOM     50  C   UNL A   1      40.358  29.051  29.022  1.00  0.00     0.049 A 
ATOM     51  N   UNL A   1      43.550  30.043  28.980  1.00  0.00    -0.248 NA
ATOM     52  C   UNL A   1      42.850  30.087  26.762  1.00  0.00     0.031 C 
ATOM     53  C   UNL A   1      39.116  28.277  29.083  1.00  0.00     0.029 A 
ATOM     54  N   UNL A   1      40.024  30.207  29.643  1.00  0.00    -0.354 N 
ATOM     55  C   UNL A   1      44.364  30.893  28.250  1.00  0.00     0.074 A 
ATOM     56  C   UNL A   1      44.046  30.665  26.864  1.00  0.00     0.031 C 
ATOM     57  C   UNL A   1      38.109  29.091  29.488  1.00  0.00     0.029 A 
ATOM     58  C   UNL A   1      38.666  30.385  29.852  1.00  0.00     0.049 A 
ATOM     59  H   UNL A   1      40.695  30.871  29.924  1.00  0.00     0.167 HD
ATOM     60  C   UNL A   1      44.970  31.950  28.850  1.00  0.00     0.031 A 
ATOM     61  C   UNL A   1      38.074  31.548  30.227  1.00  0.00     0.031 A 
ATOM     62  C   UNL A   1      44.963  31.818  30.288  1.00  0.00     0.049 A 
ATOM     63  C   UNL A   1      39.130  32.411  30.816  1.00  0.00     0.074 A 
ATOM     64  C   UNL A   1      45.462  30.892  31.183  1.00  0.00     0.029 A 
ATOM     65  N   UNL A   1      43.991  32.518  30.967  1.00  0.00    -0.354 N 
ATOM     66  N   UNL A   1      39.735  32.134  31.936  1.00  0.00    -0.248 NA
ATOM     67  C   UNL A   1      39.855  33.304  29.922  1.00  0.00     0.031 C 
ATOM     68  C   UNL A   1      44.462  30.776  32.194  1.00  0.00     0.029 A 
ATOM     69  C   UNL A   1      43.441  31.685  31.908  1.00  0.00     0.049 A 
ATOM     70  H   UNL A   1      43.735  33.454  30.806  1.00  0.00     0.167 HD
ATOM     71  C   UNL A   1      41.070  32.438  31.704  1.00  0.00     0.074 A 
ATOM     72  C   UNL A   1      41.069  33.235  30.478  1.00  0.00     0.031 C 
ATOM     73  C   UNL A   1      42.067  31.769  32.356  1.00  0.00     0.031 A 
BRANCH  60  74
ATOM     74  C   UNL A   1      45.103  33.288  28.167  1.00  0.00    -0.014 A 
ATOM     75  C   UNL A   1      44.097  34.243  28.375  1.00  0.00     0.009 A 
ATOM     76  C   UNL A   1      46.011  33.546  27.119  1.00  0.00     0.009 A 
ATOM     77  C   UNL A   1      43.962  35.349  27.530  1.00  0.00     0.001 A 
ATOM     78  C   UNL A   1      45.907  34.670  26.301  1.00  0.00     0.001 A 
ATOM     79  C   UNL A   1      44.862  35.557  26.489  1.00  0.00     0.000 A 
ENDBRANCH  60  74
BRANCH  61  80
ATOM     80  C   UNL A   1      36.776  32.106  29.780  1.00  0.00    -0.014 A 
ATOM     81  C   UNL A   1      35.865  32.639  30.708  1.00  0.00     0.009 A 
ATOM     82  C   UNL A   1      36.561  32.391  28.418  1.00  0.00     0.009 A 
ATOM     83  C   UNL A   1      34.803  33.455  30.292  1.00  0.00     0.001 A 
ATOM     84  C   UNL A   1      35.501  33.205  28.004  1.00  0.00     0.001 A 
ATOM     85  C   UNL A   1      34.631  33.750  28.941  1.00  0.00     0.000 A 
ENDBRANCH  61  80
BRANCH  73  86
ATOM     86  C   UNL A   1      41.677  30.864  33.502  1.00  0.00    -0.014 A 
ATOM     87  C   UNL A   1      41.369  29.500  33.348  1.00  0.00     0.009 A 
ATOM     88  C   UNL A   1      41.765  31.381  34.803  1.00  0.00     0.009 A 
ATOM     89  C   UNL A   1      41.131  28.689  34.465  1.00  0.00     0.001 A 
ATOM     90  C   UNL A   1      41.548  30.567  35.917  1.00  0.00     0.001 A 
ATOM     91  C   UNL A   1      41.225  29.223  35.748  1.00  0.00     0.000 A 
ENDBRANCH  73  86
ENDBRANCH  47  48
ENDBRANCH  40  42
ENDBRANCH  39  40
ENDBRANCH  38  39
ENDBRANCH  37  38
ENDBRANCH  36  37
ENDBRANCH  35  36
ENDBRANCH  34  35
ENDBRANCH  33  34
ENDBRANCH   1  33
TORSDOF 24
ENDMDL
