MODEL 1
REMARK VINA RESULT:      -7.8      0.000      0.000
REMARK SMILES O=C(OCCOCCOCCOCCOC(=O)c1cc(S[C@H]2CCOC3(CCC3)C2)ccn1)c1ccc(-c2c3nc(c(-c4ccccc4)c4ccc([nH]4)c(-c4ccccc4)c4nc(c(-c5ccccc5)c5ccc2[nH]5)C=C4)C=C3)cc1
REMARK SMILES IDX 9 1 8 2 7 3 6 4 5 5 4 6 3 7 2 8 1 9 34 10 35 11 81 12 36 13
REMARK SMILES IDX 80 14 37 15 38 16 39 17 74 18 40 19 79 20 73 21 75 22 41 23
REMARK SMILES IDX 78 24 72 25 71 26 42 28 64 29 49 30 63 31 50 32 53 33 62 34
REMARK SMILES IDX 76 35 51 36 52 37 61 39 77 40 54 41 43 42 44 43 48 44 45 45
REMARK SMILES IDX 47 46 46 47 65 48 66 49 70 50 67 51 69 52 68 53 55 54 56 55
REMARK SMILES IDX 60 56 57 57 59 58 58 59 10 60 11 61 12 62 13 63 14 64 15 65
REMARK SMILES IDX 16 66 17 67 18 68 19 69 33 70 20 71 32 72 31 73 21 74 22 75
REMARK SMILES IDX 23 76 30 77 24 78 26 79 25 80 27 81 29 82 28 83
REMARK H PARENT 75 27 53 38
REMARK Flexibility Score: inf
ROOT
ATOM      1  O   UNL A   1      45.567  20.485  24.938  1.00  0.00    -0.377 OA
ENDROOT
BRANCH   1   2
ATOM      2  C   UNL A   1      44.834  19.304  24.604  1.00  0.00     0.188 C 
BRANCH   2   3
ATOM      3  C   UNL A   1      43.804  18.865  25.647  1.00  0.00     0.188 C 
BRANCH   3   4
ATOM      4  O   UNL A   1      42.491  19.276  25.256  1.00  0.00    -0.376 OA
BRANCH   4   5
ATOM      5  C   UNL A   1      41.692  19.829  26.303  1.00  0.00     0.202 C 
BRANCH   5   6
ATOM      6  C   UNL A   1      41.458  21.331  26.160  1.00  0.00     0.261 C 
BRANCH   6   7
ATOM      7  O   UNL A   1      40.123  21.696  26.538  1.00  0.00    -0.460 OA
BRANCH   7   8
ATOM      8  C   UNL A   1      39.547  22.922  26.465  1.00  0.00     0.338 C 
ATOM      9  O   UNL A   1      38.428  23.006  25.960  1.00  0.00    -0.246 OA
BRANCH   8  10
ATOM     10  C   UNL A   1      40.160  24.180  27.003  1.00  0.00     0.060 A 
ATOM     11  C   UNL A   1      40.723  24.347  28.270  1.00  0.00     0.016 A 
ATOM     12  C   UNL A   1      40.207  25.275  26.121  1.00  0.00     0.016 A 
ATOM     13  C   UNL A   1      41.227  25.572  28.691  1.00  0.00     0.010 A 
ATOM     14  C   UNL A   1      40.735  26.506  26.523  1.00  0.00     0.010 A 
ATOM     15  C   UNL A   1      41.205  26.662  27.829  1.00  0.00    -0.014 A 
BRANCH  15  16
ATOM     16  C   UNL A   1      41.481  27.991  28.398  1.00  0.00     0.031 A 
ATOM     17  C   UNL A   1      42.907  28.456  28.413  1.00  0.00     0.074 A 
ATOM     18  C   UNL A   1      40.471  28.807  28.743  1.00  0.00     0.049 A 
ATOM     19  N   UNL A   1      43.413  29.569  28.869  1.00  0.00    -0.248 NA
ATOM     20  C   UNL A   1      43.896  27.543  27.812  1.00  0.00     0.031 C 
ATOM     21  C   UNL A   1      39.048  28.490  28.614  1.00  0.00     0.029 A 
ATOM     22  N   UNL A   1      40.490  30.083  29.235  1.00  0.00    -0.354 N 
ATOM     23  C   UNL A   1      44.780  29.475  28.639  1.00  0.00     0.074 A 
ATOM     24  C   UNL A   1      45.026  28.200  28.007  1.00  0.00     0.031 C 
ATOM     25  C   UNL A   1      38.328  29.559  28.996  1.00  0.00     0.029 A 
ATOM     26  C   UNL A   1      39.239  30.604  29.453  1.00  0.00     0.049 A 
ATOM     27  H   UNL A   1      41.321  30.580  29.417  1.00  0.00     0.167 HD
ATOM     28  C   UNL A   1      45.745  30.373  28.945  1.00  0.00     0.031 A 
ATOM     29  C   UNL A   1      38.883  31.787  29.988  1.00  0.00     0.031 A 
ATOM     30  C   UNL A   1      45.474  31.624  29.593  1.00  0.00     0.049 A 
ATOM     31  C   UNL A   1      39.978  32.721  30.427  1.00  0.00     0.074 A 
ATOM     32  C   UNL A   1      46.361  32.587  30.032  1.00  0.00     0.029 A 
ATOM     33  N   UNL A   1      44.197  32.080  29.897  1.00  0.00    -0.354 N 
ATOM     34  N   UNL A   1      41.277  32.594  30.288  1.00  0.00    -0.248 NA
ATOM     35  C   UNL A   1      39.561  33.951  31.112  1.00  0.00     0.031 C 
ATOM     36  C   UNL A   1      45.622  33.605  30.644  1.00  0.00     0.029 A 
ATOM     37  C   UNL A   1      44.272  33.302  30.537  1.00  0.00     0.049 A 
ATOM     38  H   UNL A   1      43.362  31.602  29.686  1.00  0.00     0.167 HD
ATOM     39  C   UNL A   1      41.835  33.730  30.856  1.00  0.00     0.074 A 
ATOM     40  C   UNL A   1      40.728  34.544  31.323  1.00  0.00     0.031 C 
ATOM     41  C   UNL A   1      43.141  34.074  30.987  1.00  0.00     0.031 A 
BRANCH  28  42
ATOM     42  C   UNL A   1      47.160  29.958  28.662  1.00  0.00    -0.014 A 
ATOM     43  C   UNL A   1      47.762  30.184  27.414  1.00  0.00     0.009 A 
ATOM     44  C   UNL A   1      47.876  29.255  29.643  1.00  0.00     0.009 A 
ATOM     45  C   UNL A   1      49.030  29.667  27.138  1.00  0.00     0.001 A 
ATOM     46  C   UNL A   1      49.155  28.763  29.373  1.00  0.00     0.001 A 
ATOM     47  C   UNL A   1      49.724  28.956  28.116  1.00  0.00     0.000 A 
ENDBRANCH  28  42
BRANCH  29  48
ATOM     48  C   UNL A   1      37.447  32.122  30.181  1.00  0.00    -0.014 A 
ATOM     49  C   UNL A   1      36.731  32.827  29.201  1.00  0.00     0.009 A 
ATOM     50  C   UNL A   1      36.777  31.729  31.352  1.00  0.00     0.009 A 
ATOM     51  C   UNL A   1      35.383  33.142  29.397  1.00  0.00     0.001 A 
ATOM     52  C   UNL A   1      35.423  32.019  31.532  1.00  0.00     0.001 A 
ATOM     53  C   UNL A   1      34.729  32.732  30.558  1.00  0.00     0.000 A 
ENDBRANCH  29  48
BRANCH  41  54
ATOM     54  C   UNL A   1      43.429  35.395  31.636  1.00  0.00    -0.014 A 
ATOM     55  C   UNL A   1      43.530  35.511  33.030  1.00  0.00     0.009 A 
ATOM     56  C   UNL A   1      43.657  36.524  30.834  1.00  0.00     0.009 A 
ATOM     57  C   UNL A   1      43.829  36.744  33.611  1.00  0.00     0.001 A 
ATOM     58  C   UNL A   1      43.981  37.748  31.416  1.00  0.00     0.001 A 
ATOM     59  C   UNL A   1      44.059  37.858  32.803  1.00  0.00     0.000 A 
ENDBRANCH  41  54
ENDBRANCH  15  16
ENDBRANCH   8  10
ENDBRANCH   7   8
ENDBRANCH   6   7
ENDBRANCH   5   6
ENDBRANCH   4   5
ENDBRANCH   3   4
ENDBRANCH   2   3
ENDBRANCH   1   2
BRANCH   1  60
ATOM     60  C   UNL A   1      45.056  21.711  24.424  1.00  0.00     0.188 C 
BRANCH  60  61
ATOM     61  C   UNL A   1      46.029  22.894  24.215  1.00  0.00     0.188 C 
BRANCH  61  62
ATOM     62  O   UNL A   1      45.438  24.187  24.276  1.00  0.00    -0.376 OA
BRANCH  62  63
ATOM     63  C   UNL A   1      44.103  24.227  24.780  1.00  0.00     0.202 C 
BRANCH  63  64
ATOM     64  C   UNL A   1      43.994  24.794  26.201  1.00  0.00     0.261 C 
BRANCH  64  65
ATOM     65  O   UNL A   1      43.998  23.795  27.231  1.00  0.00    -0.459 OA
BRANCH  65  66
ATOM     66  C   UNL A   1      45.137  23.643  27.950  1.00  0.00     0.357 C 
ATOM     67  O   UNL A   1      46.247  23.406  27.505  1.00  0.00    -0.244 OA
BRANCH  66  68
ATOM     68  C   UNL A   1      44.808  23.964  29.367  1.00  0.00     0.149 A 
ATOM     69  C   UNL A   1      45.138  25.209  29.874  1.00  0.00     0.051 A 
ATOM     70  N   UNL A   1      44.255  22.975  30.115  1.00  0.00    -0.249 NA
ATOM     71  C   UNL A   1      44.720  25.536  31.157  1.00  0.00     0.011 A 
ATOM     72  C   UNL A   1      44.013  23.267  31.410  1.00  0.00     0.113 A 
ATOM     73  C   UNL A   1      44.206  24.522  31.965  1.00  0.00     0.035 A 
BRANCH  71  74
ATOM     74  S   UNL A   1      44.690  27.216  31.771  1.00  0.00    -0.122 SA
BRANCH  74  75
ATOM     75  C   UNL A   1      43.096  27.291  32.694  1.00  0.00     0.057 C 
ATOM     76  C   UNL A   1      43.221  27.105  34.217  1.00  0.00     0.043 C 
ATOM     77  C   UNL A   1      42.407  28.641  32.461  1.00  0.00     0.050 C 
ATOM     78  C   UNL A   1      41.813  26.981  34.775  1.00  0.00     0.162 C 
ATOM     79  C   UNL A   1      41.012  28.590  33.102  1.00  0.00     0.069 C 
ATOM     80  O   UNL A   1      41.095  28.174  34.493  1.00  0.00    -0.375 OA
ATOM     81  C   UNL A   1      40.184  29.892  32.916  1.00  0.00     0.035 C 
ATOM     82  C   UNL A   1      39.929  27.880  32.237  1.00  0.00     0.035 C 
ATOM     83  C   UNL A   1      38.957  29.002  32.641  1.00  0.00     0.006 C 
ENDBRANCH  74  75
ENDBRANCH  71  74
ENDBRANCH  66  68
ENDBRANCH  65  66
ENDBRANCH  64  65
ENDBRANCH  63  64
ENDBRANCH  62  63
ENDBRANCH  61  62
ENDBRANCH  60  61
ENDBRANCH   1  60
TORSDOF 22
ENDMDL
MODEL 2
REMARK VINA RESULT:      -7.6      4.358      7.430
REMARK SMILES O=C(OCCOCCOCCOCCOC(=O)c1cc(S[C@H]2CCOC3(CCC3)C2)ccn1)c1ccc(-c2c3nc(c(-c4ccccc4)c4ccc([nH]4)c(-c4ccccc4)c4nc(c(-c5ccccc5)c5ccc2[nH]5)C=C4)C=C3)cc1
REMARK SMILES IDX 9 1 8 2 7 3 6 4 5 5 4 6 3 7 2 8 1 9 34 10 35 11 81 12 36 13
REMARK SMILES IDX 80 14 37 15 38 16 39 17 74 18 40 19 79 20 73 21 75 22 41 23
REMARK SMILES IDX 78 24 72 25 71 26 42 28 64 29 49 30 63 31 50 32 53 33 62 34
REMARK SMILES IDX 76 35 51 36 52 37 61 39 77 40 54 41 43 42 44 43 48 44 45 45
REMARK SMILES IDX 47 46 46 47 65 48 66 49 70 50 67 51 69 52 68 53 55 54 56 55
REMARK SMILES IDX 60 56 57 57 59 58 58 59 10 60 11 61 12 62 13 63 14 64 15 65
REMARK SMILES IDX 16 66 17 67 18 68 19 69 33 70 20 71 32 72 31 73 21 74 22 75
REMARK SMILES IDX 23 76 30 77 24 78 26 79 25 80 27 81 29 82 28 83
REMARK H PARENT 75 27 53 38
REMARK Flexibility Score: inf
ROOT
ATOM      1  O   UNL A   1      39.415  23.193  27.260  1.00  0.00    -0.377 OA
ENDROOT
BRANCH   1   2
ATOM      2  C   UNL A   1      40.418  22.548  26.471  1.00  0.00     0.188 C 
BRANCH   2   3
ATOM      3  C   UNL A   1      40.703  21.093  26.851  1.00  0.00     0.188 C 
BRANCH   3   4
ATOM      4  O   UNL A   1      41.385  20.423  25.787  1.00  0.00    -0.376 OA
BRANCH   4   5
ATOM      5  C   UNL A   1      42.029  19.203  26.153  1.00  0.00     0.202 C 
BRANCH   5   6
ATOM      6  C   UNL A   1      43.389  19.008  25.484  1.00  0.00     0.261 C 
BRANCH   6   7
ATOM      7  O   UNL A   1      43.702  20.093  24.600  1.00  0.00    -0.460 OA
BRANCH   7   8
ATOM      8  C   UNL A   1      44.596  21.094  24.799  1.00  0.00     0.338 C 
ATOM      9  O   UNL A   1      45.758  20.912  24.437  1.00  0.00    -0.246 OA
BRANCH   8  10
ATOM     10  C   UNL A   1      44.256  22.429  25.390  1.00  0.00     0.060 A 
ATOM     11  C   UNL A   1      43.978  23.599  24.680  1.00  0.00     0.016 A 
ATOM     12  C   UNL A   1      44.167  22.484  26.794  1.00  0.00     0.016 A 
ATOM     13  C   UNL A   1      43.717  24.802  25.325  1.00  0.00     0.010 A 
ATOM     14  C   UNL A   1      43.880  23.682  27.455  1.00  0.00     0.010 A 
ATOM     15  C   UNL A   1      43.699  24.853  26.714  1.00  0.00    -0.014 A 
BRANCH  15  16
ATOM     16  C   UNL A   1      43.701  26.179  27.352  1.00  0.00     0.031 A 
ATOM     17  C   UNL A   1      45.022  26.871  27.507  1.00  0.00     0.074 A 
ATOM     18  C   UNL A   1      42.544  26.798  27.640  1.00  0.00     0.049 A 
ATOM     19  N   UNL A   1      45.296  28.029  28.045  1.00  0.00    -0.248 NA
ATOM     20  C   UNL A   1      46.196  26.167  26.960  1.00  0.00     0.031 C 
ATOM     21  C   UNL A   1      41.209  26.257  27.378  1.00  0.00     0.029 A 
ATOM     22  N   UNL A   1      42.308  28.034  28.178  1.00  0.00    -0.354 N 
ATOM     23  C   UNL A   1      46.673  28.174  27.930  1.00  0.00     0.074 A 
ATOM     24  C   UNL A   1      47.180  26.991  27.275  1.00  0.00     0.031 C 
ATOM     25  C   UNL A   1      40.292  27.171  27.735  1.00  0.00     0.029 A 
ATOM     26  C   UNL A   1      40.974  28.329  28.306  1.00  0.00     0.049 A 
ATOM     27  H   UNL A   1      43.027  28.651  28.448  1.00  0.00     0.167 HD
ATOM     28  C   UNL A   1      47.445  29.202  28.349  1.00  0.00     0.031 A 
ATOM     29  C   UNL A   1      40.383  29.407  28.851  1.00  0.00     0.031 A 
ATOM     30  C   UNL A   1      46.917  30.357  29.018  1.00  0.00     0.049 A 
ATOM     31  C   UNL A   1      41.266  30.486  29.417  1.00  0.00     0.074 A 
ATOM     32  C   UNL A   1      47.591  31.430  29.565  1.00  0.00     0.029 A 
ATOM     33  N   UNL A   1      45.561  30.580  29.227  1.00  0.00    -0.354 N 
ATOM     34  N   UNL A   1      42.575  30.583  29.385  1.00  0.00    -0.248 NA
ATOM     35  C   UNL A   1      40.595  31.595  30.108  1.00  0.00     0.031 C 
ATOM     36  C   UNL A   1      46.645  32.280  30.148  1.00  0.00     0.029 A 
ATOM     37  C   UNL A   1      45.378  31.763  29.915  1.00  0.00     0.049 A 
ATOM     38  H   UNL A   1      44.838  29.981  28.928  1.00  0.00     0.167 HD
ATOM     39  C   UNL A   1      42.886  31.766  30.039  1.00  0.00     0.074 A 
ATOM     40  C   UNL A   1      41.625  32.361  30.440  1.00  0.00     0.031 C 
ATOM     41  C   UNL A   1      44.101  32.314  30.294  1.00  0.00     0.031 A 
BRANCH  28  42
ATOM     42  C   UNL A   1      48.928  29.042  28.174  1.00  0.00    -0.014 A 
ATOM     43  C   UNL A   1      49.730  28.448  29.162  1.00  0.00     0.009 A 
ATOM     44  C   UNL A   1      49.543  29.570  27.029  1.00  0.00     0.009 A 
ATOM     45  C   UNL A   1      51.121  28.436  29.030  1.00  0.00     0.001 A 
ATOM     46  C   UNL A   1      50.932  29.533  26.887  1.00  0.00     0.001 A 
ATOM     47  C   UNL A   1      51.720  28.980  27.894  1.00  0.00     0.000 A 
ENDBRANCH  28  42
BRANCH  29  48
ATOM     48  C   UNL A   1      38.900  29.491  28.932  1.00  0.00    -0.014 A 
ATOM     49  C   UNL A   1      38.138  29.906  27.830  1.00  0.00     0.009 A 
ATOM     50  C   UNL A   1      38.233  29.145  30.120  1.00  0.00     0.009 A 
ATOM     51  C   UNL A   1      36.745  29.986  27.921  1.00  0.00     0.001 A 
ATOM     52  C   UNL A   1      36.840  29.198  30.199  1.00  0.00     0.001 A 
ATOM     53  C   UNL A   1      36.097  29.626  29.102  1.00  0.00     0.000 A 
ENDBRANCH  29  48
BRANCH  41  54
ATOM     54  C   UNL A   1      44.111  33.630  31.014  1.00  0.00    -0.014 A 
ATOM     55  C   UNL A   1      44.024  34.841  30.312  1.00  0.00     0.009 A 
ATOM     56  C   UNL A   1      44.153  33.650  32.417  1.00  0.00     0.009 A 
ATOM     57  C   UNL A   1      44.004  36.052  31.004  1.00  0.00     0.001 A 
ATOM     58  C   UNL A   1      44.106  34.860  33.106  1.00  0.00     0.001 A 
ATOM     59  C   UNL A   1      44.040  36.060  32.399  1.00  0.00     0.000 A 
ENDBRANCH  41  54
ENDBRANCH  15  16
ENDBRANCH   8  10
ENDBRANCH   7   8
ENDBRANCH   6   7
ENDBRANCH   5   6
ENDBRANCH   4   5
ENDBRANCH   3   4
ENDBRANCH   2   3
ENDBRANCH   1   2
BRANCH   1  60
ATOM     60  C   UNL A   1      38.448  23.959  26.550  1.00  0.00     0.188 C 
BRANCH  60  61
ATOM     61  C   UNL A   1      37.629  23.273  25.433  1.00  0.00     0.188 C 
BRANCH  61  62
ATOM     62  O   UNL A   1      36.965  22.073  25.814  1.00  0.00    -0.376 OA
BRANCH  62  63
ATOM     63  C   UNL A   1      35.556  22.054  25.586  1.00  0.00     0.202 C 
BRANCH  63  64
ATOM     64  C   UNL A   1      34.727  21.782  26.847  1.00  0.00     0.261 C 
BRANCH  64  65
ATOM     65  O   UNL A   1      33.357  21.443  26.585  1.00  0.00    -0.459 OA
BRANCH  65  66
ATOM     66  C   UNL A   1      32.422  22.393  26.826  1.00  0.00     0.357 C 
ATOM     67  O   UNL A   1      32.139  22.872  27.912  1.00  0.00    -0.244 OA
BRANCH  66  68
ATOM     68  C   UNL A   1      31.906  22.847  25.505  1.00  0.00     0.149 A 
ATOM     69  C   UNL A   1      31.122  23.986  25.438  1.00  0.00     0.051 A 
ATOM     70  N   UNL A   1      32.182  22.066  24.429  1.00  0.00    -0.249 NA
ATOM     71  C   UNL A   1      30.749  24.464  24.189  1.00  0.00     0.011 A 
ATOM     72  C   UNL A   1      31.662  22.465  23.250  1.00  0.00     0.113 A 
ATOM     73  C   UNL A   1      30.966  23.651  23.077  1.00  0.00     0.035 A 
BRANCH  71  74
ATOM     74  S   UNL A   1      30.123  26.119  23.928  1.00  0.00    -0.122 SA
BRANCH  74  75
ATOM     75  C   UNL A   1      31.556  27.181  24.392  1.00  0.00     0.057 C 
ATOM     76  C   UNL A   1      32.499  27.541  23.230  1.00  0.00     0.043 C 
ATOM     77  C   UNL A   1      31.069  28.502  25.000  1.00  0.00     0.050 C 
ATOM     78  C   UNL A   1      33.717  28.224  23.828  1.00  0.00     0.162 C 
ATOM     79  C   UNL A   1      32.288  29.271  25.528  1.00  0.00     0.069 C 
ATOM     80  O   UNL A   1      33.303  29.408  24.496  1.00  0.00    -0.375 OA
ATOM     81  C   UNL A   1      31.936  30.627  26.203  1.00  0.00     0.035 C 
ATOM     82  C   UNL A   1      32.790  28.806  26.927  1.00  0.00     0.035 C 
ATOM     83  C   UNL A   1      32.974  30.289  27.289  1.00  0.00     0.006 C 
ENDBRANCH  74  75
ENDBRANCH  71  74
ENDBRANCH  66  68
ENDBRANCH  65  66
ENDBRANCH  64  65
ENDBRANCH  63  64
ENDBRANCH  62  63
ENDBRANCH  61  62
ENDBRANCH  60  61
ENDBRANCH   1  60
TORSDOF 22
ENDMDL
MODEL 3
REMARK VINA RESULT:      -7.4      4.485      9.652
REMARK SMILES O=C(OCCOCCOCCOCCOC(=O)c1cc(S[C@H]2CCOC3(CCC3)C2)ccn1)c1ccc(-c2c3nc(c(-c4ccccc4)c4ccc([nH]4)c(-c4ccccc4)c4nc(c(-c5ccccc5)c5ccc2[nH]5)C=C4)C=C3)cc1
REMARK SMILES IDX 9 1 8 2 7 3 6 4 5 5 4 6 3 7 2 8 1 9 34 10 35 11 81 12 36 13
REMARK SMILES IDX 80 14 37 15 38 16 39 17 74 18 40 19 79 20 73 21 75 22 41 23
REMARK SMILES IDX 78 24 72 25 71 26 42 28 64 29 49 30 63 31 50 32 53 33 62 34
REMARK SMILES IDX 76 35 51 36 52 37 61 39 77 40 54 41 43 42 44 43 48 44 45 45
REMARK SMILES IDX 47 46 46 47 65 48 66 49 70 50 67 51 69 52 68 53 55 54 56 55
REMARK SMILES IDX 60 56 57 57 59 58 58 59 10 60 11 61 12 62 13 63 14 64 15 65
REMARK SMILES IDX 16 66 17 67 18 68 19 69 33 70 20 71 32 72 31 73 21 74 22 75
REMARK SMILES IDX 23 76 30 77 24 78 26 79 25 80 27 81 29 82 28 83
REMARK H PARENT 75 27 53 38
REMARK Flexibility Score: inf
ROOT
ATOM      1  O   UNL A   1      38.927  23.416  27.202  1.00  0.00    -0.377 OA
ENDROOT
BRANCH   1   2
ATOM      2  C   UNL A   1      40.281  23.095  26.874  1.00  0.00     0.188 C 
BRANCH   2   3
ATOM      3  C   UNL A   1      40.693  21.652  27.170  1.00  0.00     0.188 C 
BRANCH   3   4
ATOM      4  O   UNL A   1      40.945  20.944  25.953  1.00  0.00    -0.376 OA
BRANCH   4   5
ATOM      5  C   UNL A   1      41.002  19.523  26.078  1.00  0.00     0.202 C 
BRANCH   5   6
ATOM      6  C   UNL A   1      42.426  18.976  26.159  1.00  0.00     0.261 C 
BRANCH   6   7
ATOM      7  O   UNL A   1      43.140  19.182  24.932  1.00  0.00    -0.460 OA
BRANCH   7   8
ATOM      8  C   UNL A   1      44.182  20.022  24.711  1.00  0.00     0.338 C 
ATOM      9  O   UNL A   1      45.155  19.588  24.095  1.00  0.00    -0.246 OA
BRANCH   8  10
ATOM     10  C   UNL A   1      44.211  21.463  25.125  1.00  0.00     0.060 A 
ATOM     11  C   UNL A   1      43.938  22.562  24.308  1.00  0.00     0.016 A 
ATOM     12  C   UNL A   1      44.499  21.715  26.479  1.00  0.00     0.016 A 
ATOM     13  C   UNL A   1      44.038  23.866  24.778  1.00  0.00     0.010 A 
ATOM     14  C   UNL A   1      44.576  23.021  26.972  1.00  0.00     0.010 A 
ATOM     15  C   UNL A   1      44.388  24.099  26.103  1.00  0.00    -0.014 A 
BRANCH  15  16
ATOM     16  C   UNL A   1      44.755  25.473  26.484  1.00  0.00     0.031 A 
ATOM     17  C   UNL A   1      43.693  26.326  27.109  1.00  0.00     0.074 A 
ATOM     18  C   UNL A   1      46.033  25.881  26.410  1.00  0.00     0.049 A 
ATOM     19  N   UNL A   1      43.754  27.564  27.516  1.00  0.00    -0.248 NA
ATOM     20  C   UNL A   1      42.383  25.684  27.323  1.00  0.00     0.031 C 
ATOM     21  C   UNL A   1      47.157  25.060  25.957  1.00  0.00     0.029 A 
ATOM     22  N   UNL A   1      46.604  27.076  26.753  1.00  0.00    -0.354 N 
ATOM     23  C   UNL A   1      42.486  27.858  28.002  1.00  0.00     0.074 A 
ATOM     24  C   UNL A   1      41.676  26.674  27.839  1.00  0.00     0.031 C 
ATOM     25  C   UNL A   1      48.290  25.772  26.074  1.00  0.00     0.029 A 
ATOM     26  C   UNL A   1      47.961  27.112  26.549  1.00  0.00     0.049 A 
ATOM     27  H   UNL A   1      46.091  27.837  27.110  1.00  0.00     0.167 HD
ATOM     28  C   UNL A   1      42.038  29.022  28.525  1.00  0.00     0.031 A 
ATOM     29  C   UNL A   1      48.825  28.131  26.706  1.00  0.00     0.031 A 
ATOM     30  C   UNL A   1      42.860  30.190  28.655  1.00  0.00     0.049 A 
ATOM     31  C   UNL A   1      48.281  29.452  27.179  1.00  0.00     0.074 A 
ATOM     32  C   UNL A   1      42.514  31.454  29.091  1.00  0.00     0.029 A 
ATOM     33  N   UNL A   1      44.213  30.226  28.341  1.00  0.00    -0.354 N 
ATOM     34  N   UNL A   1      47.060  29.754  27.558  1.00  0.00    -0.248 NA
ATOM     35  C   UNL A   1      49.225  30.575  27.231  1.00  0.00     0.031 C 
ATOM     36  C   UNL A   1      43.648  32.268  28.995  1.00  0.00     0.029 A 
ATOM     37  C   UNL A   1      44.714  31.496  28.552  1.00  0.00     0.049 A 
ATOM     38  H   UNL A   1      44.737  29.459  28.015  1.00  0.00     0.167 HD
ATOM     39  C   UNL A   1      47.089  31.097  27.904  1.00  0.00     0.074 A 
ATOM     40  C   UNL A   1      48.455  31.545  27.709  1.00  0.00     0.031 C 
ATOM     41  C   UNL A   1      46.082  31.895  28.340  1.00  0.00     0.031 A 
BRANCH  28  42
ATOM     42  C   UNL A   1      40.580  29.078  28.883  1.00  0.00    -0.014 A 
ATOM     43  C   UNL A   1      40.123  28.768  30.174  1.00  0.00     0.009 A 
ATOM     44  C   UNL A   1      39.641  29.372  27.883  1.00  0.00     0.009 A 
ATOM     45  C   UNL A   1      38.753  28.698  30.440  1.00  0.00     0.001 A 
ATOM     46  C   UNL A   1      38.273  29.327  28.159  1.00  0.00     0.001 A 
ATOM     47  C   UNL A   1      37.830  28.976  29.433  1.00  0.00     0.000 A 
ENDBRANCH  28  42
BRANCH  29  48
ATOM     48  C   UNL A   1      50.263  27.956  26.368  1.00  0.00    -0.014 A 
ATOM     49  C   UNL A   1      50.723  28.134  25.054  1.00  0.00     0.009 A 
ATOM     50  C   UNL A   1      51.191  27.615  27.366  1.00  0.00     0.009 A 
ATOM     51  C   UNL A   1      52.076  27.961  24.747  1.00  0.00     0.001 A 
ATOM     52  C   UNL A   1      52.546  27.470  27.062  1.00  0.00     0.001 A 
ATOM     53  C   UNL A   1      52.987  27.636  25.752  1.00  0.00     0.000 A 
ENDBRANCH  29  48
BRANCH  41  54
ATOM     54  C   UNL A   1      46.437  33.318  28.656  1.00  0.00    -0.014 A 
ATOM     55  C   UNL A   1      46.905  33.683  29.927  1.00  0.00     0.009 A 
ATOM     56  C   UNL A   1      46.351  34.291  27.649  1.00  0.00     0.009 A 
ATOM     57  C   UNL A   1      47.257  35.008  30.189  1.00  0.00     0.001 A 
ATOM     58  C   UNL A   1      46.728  35.607  27.907  1.00  0.00     0.001 A 
ATOM     59  C   UNL A   1      47.173  35.966  29.178  1.00  0.00     0.000 A 
ENDBRANCH  41  54
ENDBRANCH  15  16
ENDBRANCH   8  10
ENDBRANCH   7   8
ENDBRANCH   6   7
ENDBRANCH   5   6
ENDBRANCH   4   5
ENDBRANCH   3   4
ENDBRANCH   2   3
ENDBRANCH   1   2
BRANCH   1  60
ATOM     60  C   UNL A   1      38.059  23.690  26.107  1.00  0.00     0.188 C 
BRANCH  60  61
ATOM     61  C   UNL A   1      37.813  22.583  25.057  1.00  0.00     0.188 C 
BRANCH  61  62
ATOM     62  O   UNL A   1      37.294  21.361  25.570  1.00  0.00    -0.376 OA
BRANCH  62  63
ATOM     63  C   UNL A   1      35.892  21.166  25.386  1.00  0.00     0.202 C 
BRANCH  63  64
ATOM     64  C   UNL A   1      35.029  21.790  26.489  1.00  0.00     0.261 C 
BRANCH  64  65
ATOM     65  O   UNL A   1      33.655  21.375  26.462  1.00  0.00    -0.459 OA
BRANCH  65  66
ATOM     66  C   UNL A   1      32.726  22.266  26.884  1.00  0.00     0.357 C 
ATOM     67  O   UNL A   1      32.521  22.607  28.037  1.00  0.00    -0.244 OA
BRANCH  66  68
ATOM     68  C   UNL A   1      32.100  22.858  25.669  1.00  0.00     0.149 A 
ATOM     69  C   UNL A   1      31.247  23.940  25.804  1.00  0.00     0.051 A 
ATOM     70  N   UNL A   1      32.353  22.250  24.482  1.00  0.00    -0.249 NA
ATOM     71  C   UNL A   1      30.766  24.554  24.656  1.00  0.00     0.011 A 
ATOM     72  C   UNL A   1      31.737  22.769  23.399  1.00  0.00     0.113 A 
ATOM     73  C   UNL A   1      30.961  23.917  23.432  1.00  0.00     0.035 A 
BRANCH  71  74
ATOM     74  S   UNL A   1      30.028  26.184  24.662  1.00  0.00    -0.122 SA
BRANCH  74  75
ATOM     75  C   UNL A   1      31.492  27.303  24.646  1.00  0.00     0.057 C 
ATOM     76  C   UNL A   1      31.562  28.260  23.443  1.00  0.00     0.043 C 
ATOM     77  C   UNL A   1      31.516  28.170  25.911  1.00  0.00     0.050 C 
ATOM     78  C   UNL A   1      32.921  28.939  23.482  1.00  0.00     0.162 C 
ATOM     79  C   UNL A   1      32.837  28.953  25.936  1.00  0.00     0.069 C 
ATOM     80  O   UNL A   1      33.035  29.677  24.691  1.00  0.00    -0.375 OA
ATOM     81  C   UNL A   1      33.011  29.858  27.188  1.00  0.00     0.035 C 
ATOM     82  C   UNL A   1      34.059  28.143  26.460  1.00  0.00     0.035 C 
ATOM     83  C   UNL A   1      34.479  29.397  27.245  1.00  0.00     0.006 C 
ENDBRANCH  74  75
ENDBRANCH  71  74
ENDBRANCH  66  68
ENDBRANCH  65  66
ENDBRANCH  64  65
ENDBRANCH  63  64
ENDBRANCH  62  63
ENDBRANCH  61  62
ENDBRANCH  60  61
ENDBRANCH   1  60
TORSDOF 22
ENDMDL
