MODEL 1
REMARK VINA RESULT:      -8.2      0.000      0.000
REMARK SMILES CC[C@H](C)CN(CC)c1nc(C(=O)OCCOCCOCCOCCOC(=O)c2ccc(-c3c4nc(c(-c5ccccc5)c5ccc([nH]5)c(-c5ccccc5)c5nc(c(-c6ccccc6)c6ccc3[nH]6)C=C5)C=C4)cc2)cc2ccccc12
REMARK SMILES IDX 19 1 18 2 17 3 16 4 15 5 14 6 12 7 13 8 11 9 9 10 10 11
REMARK SMILES IDX 83 12 78 13 82 14 77 15 79 16 81 17 80 18 6 19 5 20 3 21
REMARK SMILES IDX 4 22 2 23 1 24 7 25 8 26 20 27 21 28 22 29 23 30 24 31 25 32
REMARK SMILES IDX 26 33 27 34 28 35 29 36 30 37 76 38 31 39 75 40 32 41 33 42
REMARK SMILES IDX 34 43 69 44 35 45 74 46 68 47 70 48 36 49 73 50 67 51 66 52
REMARK SMILES IDX 37 54 59 55 44 56 58 57 45 58 48 59 57 60 71 61 46 62 47 63
REMARK SMILES IDX 56 65 72 66 49 67 38 68 39 69 43 70 40 71 42 72 41 73 60 74
REMARK SMILES IDX 61 75 65 76 62 77 64 78 63 79 50 80 51 81 55 82 52 83 54 84
REMARK SMILES IDX 53 85
REMARK H PARENT 70 53 48 64
REMARK Flexibility Score: inf
ROOT
ATOM      1  C   UNL A   1      49.235  19.554  38.157  1.00  0.00     0.188 C 
ENDROOT
BRANCH   1   2
ATOM      2  C   UNL A   1      47.738  19.282  38.463  1.00  0.00     0.188 C 
BRANCH   2   3
ATOM      3  O   UNL A   1      47.501  18.408  39.556  1.00  0.00    -0.376 OA
BRANCH   3   4
ATOM      4  C   UNL A   1      46.190  17.969  39.848  1.00  0.00     0.202 C 
BRANCH   4   5
ATOM      5  C   UNL A   1      45.645  18.282  41.249  1.00  0.00     0.261 C 
BRANCH   5   6
ATOM      6  O   UNL A   1      44.242  18.060  41.427  1.00  0.00    -0.459 OA
BRANCH   6   7
ATOM      7  C   UNL A   1      43.827  17.920  42.707  1.00  0.00     0.357 C 
ATOM      8  O   UNL A   1      43.606  18.831  43.491  1.00  0.00    -0.244 OA
BRANCH   7   9
ATOM      9  C   UNL A   1      43.458  16.502  42.971  1.00  0.00     0.151 A 
ATOM     10  C   UNL A   1      43.135  14.768  44.492  1.00  0.00     0.137 A 
ATOM     11  N   UNL A   1      43.612  16.006  44.224  1.00  0.00    -0.223 NA
ATOM     12  C   UNL A   1      42.363  14.090  43.506  1.00  0.00     0.024 A 
ATOM     13  C   UNL A   1      42.459  14.515  42.166  1.00  0.00    -0.012 A 
ATOM     14  C   UNL A   1      41.442  13.051  43.754  1.00  0.00     0.012 A 
ATOM     15  C   UNL A   1      43.002  15.759  41.900  1.00  0.00     0.045 A 
ATOM     16  C   UNL A   1      41.952  13.720  41.125  1.00  0.00     0.009 A 
ATOM     17  C   UNL A   1      40.900  12.278  42.725  1.00  0.00     0.001 A 
ATOM     18  C   UNL A   1      41.214  12.574  41.407  1.00  0.00     0.001 A 
BRANCH  10  19
ATOM     19  N   UNL A   1      43.432  14.195  45.745  1.00  0.00    -0.356 N 
BRANCH  19  20
ATOM     20  C   UNL A   1      43.958  12.790  45.834  1.00  0.00     0.121 C 
BRANCH  20  21
ATOM     21  C   UNL A   1      44.947  12.379  44.717  1.00  0.00     0.005 C 
ATOM     22  C   UNL A   1      46.398  12.598  45.172  1.00  0.00     0.009 C 
BRANCH  21  23
ATOM     23  C   UNL A   1      44.799  10.941  44.168  1.00  0.00     0.002 C 
ATOM     24  C   UNL A   1      43.637  10.220  44.867  1.00  0.00     0.004 C 
ENDBRANCH  21  23
ENDBRANCH  20  21
ENDBRANCH  19  20
BRANCH  19  25
ATOM     25  C   UNL A   1      43.995  15.132  46.742  1.00  0.00     0.114 C 
ATOM     26  C   UNL A   1      43.040  15.529  47.869  1.00  0.00     0.027 C 
ENDBRANCH  19  25
ENDBRANCH  10  19
ENDBRANCH   7   9
ENDBRANCH   6   7
ENDBRANCH   5   6
ENDBRANCH   4   5
ENDBRANCH   3   4
ENDBRANCH   2   3
ENDBRANCH   1   2
BRANCH   1  27
ATOM     27  O   UNL A   1      49.783  20.872  38.141  1.00  0.00    -0.377 OA
BRANCH  27  28
ATOM     28  C   UNL A   1      49.402  21.740  37.082  1.00  0.00     0.188 C 
BRANCH  28  29
ATOM     29  C   UNL A   1      49.234  23.201  37.540  1.00  0.00     0.188 C 
BRANCH  29  30
ATOM     30  O   UNL A   1      50.258  24.054  37.055  1.00  0.00    -0.376 OA
BRANCH  30  31
ATOM     31  C   UNL A   1      49.930  25.105  36.162  1.00  0.00     0.202 C 
BRANCH  31  32
ATOM     32  C   UNL A   1      48.574  25.223  35.435  1.00  0.00     0.261 C 
BRANCH  32  33
ATOM     33  O   UNL A   1      48.121  26.522  35.036  1.00  0.00    -0.460 OA
BRANCH  33  34
ATOM     34  C   UNL A   1      47.388  27.244  35.904  1.00  0.00     0.338 C 
ATOM     35  O   UNL A   1      47.710  27.608  37.025  1.00  0.00    -0.246 OA
BRANCH  34  36
ATOM     36  C   UNL A   1      46.181  27.691  35.176  1.00  0.00     0.060 A 
ATOM     37  C   UNL A   1      46.260  28.807  34.331  1.00  0.00     0.016 A 
ATOM     38  C   UNL A   1      44.985  26.978  35.297  1.00  0.00     0.016 A 
ATOM     39  C   UNL A   1      45.136  29.225  33.617  1.00  0.00     0.010 A 
ATOM     40  C   UNL A   1      43.853  27.417  34.606  1.00  0.00     0.010 A 
ATOM     41  C   UNL A   1      43.917  28.557  33.785  1.00  0.00    -0.014 A 
BRANCH  41  42
ATOM     42  C   UNL A   1      42.667  29.150  33.258  1.00  0.00     0.031 A 
ATOM     43  C   UNL A   1      42.183  28.703  31.906  1.00  0.00     0.074 A 
ATOM     44  C   UNL A   1      41.975  30.068  33.955  1.00  0.00     0.049 A 
ATOM     45  N   UNL A   1      41.176  29.142  31.197  1.00  0.00    -0.248 NA
ATOM     46  C   UNL A   1      42.943  27.615  31.269  1.00  0.00     0.031 C 
ATOM     47  C   UNL A   1      42.306  30.541  35.298  1.00  0.00     0.029 A 
ATOM     48  N   UNL A   1      40.849  30.776  33.614  1.00  0.00    -0.354 N 
ATOM     49  C   UNL A   1      41.191  28.395  30.025  1.00  0.00     0.074 A 
ATOM     50  C   UNL A   1      42.319  27.494  30.108  1.00  0.00     0.031 C 
ATOM     51  C   UNL A   1      41.409  31.474  35.662  1.00  0.00     0.029 A 
ATOM     52  C   UNL A   1      40.471  31.695  34.563  1.00  0.00     0.049 A 
ATOM     53  H   UNL A   1      40.359  30.637  32.771  1.00  0.00     0.167 HD
ATOM     54  C   UNL A   1      40.340  28.455  28.974  1.00  0.00     0.031 A 
ATOM     55  C   UNL A   1      39.501  32.629  34.528  1.00  0.00     0.031 A 
ATOM     56  C   UNL A   1      39.232  29.367  28.885  1.00  0.00     0.049 A 
ATOM     57  C   UNL A   1      38.633  32.748  33.302  1.00  0.00     0.074 A 
ATOM     58  C   UNL A   1      38.304  29.497  27.867  1.00  0.00     0.029 A 
ATOM     59  N   UNL A   1      38.912  30.315  29.843  1.00  0.00    -0.354 N 
ATOM     60  N   UNL A   1      38.637  32.023  32.209  1.00  0.00    -0.248 NA
ATOM     61  C   UNL A   1      37.626  33.820  33.305  1.00  0.00     0.031 C 
ATOM     62  C   UNL A   1      37.465  30.572  28.179  1.00  0.00     0.029 A 
ATOM     63  C   UNL A   1      37.826  31.063  29.424  1.00  0.00     0.049 A 
ATOM     64  H   UNL A   1      39.388  30.439  30.697  1.00  0.00     0.167 HD
ATOM     65  C   UNL A   1      37.621  32.531  31.409  1.00  0.00     0.074 A 
ATOM     66  C   UNL A   1      37.007  33.614  32.151  1.00  0.00     0.031 C 
ATOM     67  C   UNL A   1      37.230  32.141  30.170  1.00  0.00     0.031 A 
BRANCH  54  68
ATOM     68  C   UNL A   1      40.609  27.537  27.814  1.00  0.00    -0.014 A 
ATOM     69  C   UNL A   1      41.566  27.852  26.834  1.00  0.00     0.009 A 
ATOM     70  C   UNL A   1      39.912  26.322  27.715  1.00  0.00     0.009 A 
ATOM     71  C   UNL A   1      41.791  26.985  25.763  1.00  0.00     0.001 A 
ATOM     72  C   UNL A   1      40.163  25.443  26.662  1.00  0.00     0.001 A 
ATOM     73  C   UNL A   1      41.095  25.779  25.681  1.00  0.00     0.000 A 
ENDBRANCH  54  68
BRANCH  55  74
ATOM     74  C   UNL A   1      39.318  33.561  35.674  1.00  0.00    -0.014 A 
ATOM     75  C   UNL A   1      39.983  34.797  35.706  1.00  0.00     0.009 A 
ATOM     76  C   UNL A   1      38.502  33.204  36.760  1.00  0.00     0.009 A 
ATOM     77  C   UNL A   1      39.854  35.642  36.812  1.00  0.00     0.001 A 
ATOM     78  C   UNL A   1      38.350  34.066  37.848  1.00  0.00     0.001 A 
ATOM     79  C   UNL A   1      39.034  35.279  37.879  1.00  0.00     0.000 A 
ENDBRANCH  55  74
BRANCH  67  80
ATOM     80  C   UNL A   1      36.069  32.868  29.548  1.00  0.00    -0.014 A 
ATOM     81  C   UNL A   1      34.763  32.358  29.626  1.00  0.00     0.009 A 
ATOM     82  C   UNL A   1      36.278  34.105  28.918  1.00  0.00     0.009 A 
ATOM     83  C   UNL A   1      33.697  33.057  29.054  1.00  0.00     0.001 A 
ATOM     84  C   UNL A   1      35.205  34.817  28.378  1.00  0.00     0.001 A 
ATOM     85  C   UNL A   1      33.919  34.288  28.437  1.00  0.00     0.000 A 
ENDBRANCH  67  80
ENDBRANCH  41  42
ENDBRANCH  34  36
ENDBRANCH  33  34
ENDBRANCH  32  33
ENDBRANCH  31  32
ENDBRANCH  30  31
ENDBRANCH  29  30
ENDBRANCH  28  29
ENDBRANCH  27  28
ENDBRANCH   1  27
TORSDOF 25
ENDMDL
MODEL 2
REMARK VINA RESULT:      -7.9      8.768     12.360
REMARK SMILES CC[C@H](C)CN(CC)c1nc(C(=O)OCCOCCOCCOCCOC(=O)c2ccc(-c3c4nc(c(-c5ccccc5)c5ccc([nH]5)c(-c5ccccc5)c5nc(c(-c6ccccc6)c6ccc3[nH]6)C=C5)C=C4)cc2)cc2ccccc12
REMARK SMILES IDX 19 1 18 2 17 3 16 4 15 5 14 6 12 7 13 8 11 9 9 10 10 11
REMARK SMILES IDX 83 12 78 13 82 14 77 15 79 16 81 17 80 18 6 19 5 20 3 21
REMARK SMILES IDX 4 22 2 23 1 24 7 25 8 26 20 27 21 28 22 29 23 30 24 31 25 32
REMARK SMILES IDX 26 33 27 34 28 35 29 36 30 37 76 38 31 39 75 40 32 41 33 42
REMARK SMILES IDX 34 43 69 44 35 45 74 46 68 47 70 48 36 49 73 50 67 51 66 52
REMARK SMILES IDX 37 54 59 55 44 56 58 57 45 58 48 59 57 60 71 61 46 62 47 63
REMARK SMILES IDX 56 65 72 66 49 67 38 68 39 69 43 70 40 71 42 72 41 73 60 74
REMARK SMILES IDX 61 75 65 76 62 77 64 78 63 79 50 80 51 81 55 82 52 83 54 84
REMARK SMILES IDX 53 85
REMARK H PARENT 70 53 48 64
REMARK Flexibility Score: inf
ROOT
ATOM      1  C   UNL A   1      51.595  31.012  26.475  1.00  0.00     0.188 C 
ENDROOT
BRANCH   1   2
ATOM      2  C   UNL A   1      51.846  29.709  27.280  1.00  0.00     0.188 C 
BRANCH   2   3
ATOM      3  O   UNL A   1      51.157  28.566  26.796  1.00  0.00    -0.376 OA
BRANCH   3   4
ATOM      4  C   UNL A   1      50.499  27.696  27.695  1.00  0.00     0.202 C 
BRANCH   4   5
ATOM      5  C   UNL A   1      49.611  28.342  28.768  1.00  0.00     0.261 C 
BRANCH   5   6
ATOM      6  O   UNL A   1      48.213  28.387  28.464  1.00  0.00    -0.459 OA
BRANCH   6   7
ATOM      7  C   UNL A   1      47.388  28.584  29.518  1.00  0.00     0.357 C 
ATOM      8  O   UNL A   1      47.051  29.669  29.969  1.00  0.00    -0.244 OA
BRANCH   7   9
ATOM      9  C   UNL A   1      46.763  27.296  29.924  1.00  0.00     0.151 A 
ATOM     10  C   UNL A   1      45.605  26.046  31.512  1.00  0.00     0.137 A 
ATOM     11  N   UNL A   1      46.306  27.159  31.194  1.00  0.00    -0.223 NA
ATOM     12  C   UNL A   1      45.244  25.132  30.481  1.00  0.00     0.024 A 
ATOM     13  C   UNL A   1      45.951  25.174  29.263  1.00  0.00    -0.012 A 
ATOM     14  C   UNL A   1      44.179  24.208  30.537  1.00  0.00     0.012 A 
ATOM     15  C   UNL A   1      46.712  26.294  28.975  1.00  0.00     0.045 A 
ATOM     16  C   UNL A   1      45.835  24.130  28.331  1.00  0.00     0.009 A 
ATOM     17  C   UNL A   1      44.029  23.190  29.595  1.00  0.00     0.001 A 
ATOM     18  C   UNL A   1      44.906  23.113  28.524  1.00  0.00     0.001 A 
BRANCH  10  19
ATOM     19  N   UNL A   1      45.267  25.833  32.863  1.00  0.00    -0.356 N 
BRANCH  19  20
ATOM     20  C   UNL A   1      43.832  25.888  33.307  1.00  0.00     0.121 C 
BRANCH  20  21
ATOM     21  C   UNL A   1      43.572  26.659  34.622  1.00  0.00     0.005 C 
ATOM     22  C   UNL A   1      44.247  28.039  34.582  1.00  0.00     0.009 C 
BRANCH  21  23
ATOM     23  C   UNL A   1      42.091  26.831  35.033  1.00  0.00     0.002 C 
ATOM     24  C   UNL A   1      41.546  25.521  35.623  1.00  0.00     0.004 C 
ENDBRANCH  21  23
ENDBRANCH  20  21
ENDBRANCH  19  20
BRANCH  19  25
ATOM     25  C   UNL A   1      46.093  24.824  33.561  1.00  0.00     0.114 C 
ATOM     26  C   UNL A   1      47.461  25.319  34.032  1.00  0.00     0.027 C 
ENDBRANCH  19  25
ENDBRANCH  10  19
ENDBRANCH   7   9
ENDBRANCH   6   7
ENDBRANCH   5   6
ENDBRANCH   4   5
ENDBRANCH   3   4
ENDBRANCH   2   3
ENDBRANCH   1   2
BRANCH   1  27
ATOM     27  O   UNL A   1      51.883  32.305  27.006  1.00  0.00    -0.377 OA
BRANCH  27  28
ATOM     28  C   UNL A   1      50.980  32.853  27.956  1.00  0.00     0.188 C 
BRANCH  28  29
ATOM     29  C   UNL A   1      50.242  34.098  27.427  1.00  0.00     0.188 C 
BRANCH  29  30
ATOM     30  O   UNL A   1      49.087  33.775  26.671  1.00  0.00    -0.376 OA
BRANCH  30  31
ATOM     31  C   UNL A   1      48.584  34.705  25.727  1.00  0.00     0.202 C 
BRANCH  31  32
ATOM     32  C   UNL A   1      47.670  35.892  26.094  1.00  0.00     0.261 C 
BRANCH  32  33
ATOM     33  O   UNL A   1      47.804  36.486  27.391  1.00  0.00    -0.460 OA
BRANCH  33  34
ATOM     34  C   UNL A   1      46.693  36.706  28.118  1.00  0.00     0.338 C 
ATOM     35  O   UNL A   1      46.255  37.781  28.498  1.00  0.00    -0.246 OA
BRANCH  34  36
ATOM     36  C   UNL A   1      45.981  35.414  28.215  1.00  0.00     0.060 A 
ATOM     37  C   UNL A   1      46.470  34.421  29.076  1.00  0.00     0.016 A 
ATOM     38  C   UNL A   1      44.807  35.204  27.488  1.00  0.00     0.016 A 
ATOM     39  C   UNL A   1      45.795  33.206  29.198  1.00  0.00     0.010 A 
ATOM     40  C   UNL A   1      44.149  33.975  27.587  1.00  0.00     0.010 A 
ATOM     41  C   UNL A   1      44.655  32.963  28.422  1.00  0.00    -0.014 A 
BRANCH  41  42
ATOM     42  C   UNL A   1      44.095  31.594  28.333  1.00  0.00     0.031 A 
ATOM     43  C   UNL A   1      44.800  30.593  27.459  1.00  0.00     0.074 A 
ATOM     44  C   UNL A   1      42.986  31.243  29.006  1.00  0.00     0.049 A 
ATOM     45  N   UNL A   1      44.453  29.372  27.148  1.00  0.00    -0.248 NA
ATOM     46  C   UNL A   1      46.066  31.037  26.852  1.00  0.00     0.031 C 
ATOM     47  C   UNL A   1      42.245  32.100  29.929  1.00  0.00     0.029 A 
ATOM     48  N   UNL A   1      42.283  30.063  29.001  1.00  0.00    -0.354 N 
ATOM     49  C   UNL A   1      45.449  28.906  26.298  1.00  0.00     0.074 A 
ATOM     50  C   UNL A   1      46.398  29.983  26.124  1.00  0.00     0.031 C 
ATOM     51  C   UNL A   1      41.181  31.422  30.392  1.00  0.00     0.029 A 
ATOM     52  C   UNL A   1      41.141  30.102  29.764  1.00  0.00     0.049 A 
ATOM     53  H   UNL A   1      42.570  29.266  28.500  1.00  0.00     0.167 HD
ATOM     54  C   UNL A   1      45.561  27.689  25.716  1.00  0.00     0.031 A 
ATOM     55  C   UNL A   1      40.161  29.189  29.907  1.00  0.00     0.031 A 
ATOM     56  C   UNL A   1      44.604  26.628  25.873  1.00  0.00     0.049 A 
ATOM     57  C   UNL A   1      40.255  27.882  29.163  1.00  0.00     0.074 A 
ATOM     58  C   UNL A   1      44.634  25.354  25.335  1.00  0.00     0.029 A 
ATOM     59  N   UNL A   1      43.436  26.723  26.614  1.00  0.00    -0.354 N 
ATOM     60  N   UNL A   1      41.212  27.438  28.382  1.00  0.00    -0.248 NA
ATOM     61  C   UNL A   1      39.130  26.947  29.321  1.00  0.00     0.031 C 
ATOM     62  C   UNL A   1      43.449  24.703  25.693  1.00  0.00     0.029 A 
ATOM     63  C   UNL A   1      42.716  25.546  26.513  1.00  0.00     0.049 A 
ATOM     64  H   UNL A   1      43.159  27.513  27.134  1.00  0.00     0.167 HD
ATOM     65  C   UNL A   1      40.817  26.168  27.978  1.00  0.00     0.074 A 
ATOM     66  C   UNL A   1      39.544  25.903  28.617  1.00  0.00     0.031 C 
ATOM     67  C   UNL A   1      41.448  25.299  27.150  1.00  0.00     0.031 A 
BRANCH  54  68
ATOM     68  C   UNL A   1      46.742  27.463  24.812  1.00  0.00    -0.014 A 
ATOM     69  C   UNL A   1      46.790  28.002  23.516  1.00  0.00     0.009 A 
ATOM     70  C   UNL A   1      47.837  26.717  25.278  1.00  0.00     0.009 A 
ATOM     71  C   UNL A   1      47.895  27.770  22.695  1.00  0.00     0.001 A 
ATOM     72  C   UNL A   1      48.954  26.515  24.467  1.00  0.00     0.001 A 
ATOM     73  C   UNL A   1      48.978  27.033  23.173  1.00  0.00     0.000 A 
ENDBRANCH  54  68
BRANCH  55  74
ATOM     74  C   UNL A   1      38.978  29.488  30.758  1.00  0.00    -0.014 A 
ATOM     75  C   UNL A   1      38.951  29.108  32.109  1.00  0.00     0.009 A 
ATOM     76  C   UNL A   1      37.852  30.127  30.214  1.00  0.00     0.009 A 
ATOM     77  C   UNL A   1      37.814  29.338  32.888  1.00  0.00     0.001 A 
ATOM     78  C   UNL A   1      36.729  30.386  31.004  1.00  0.00     0.001 A 
ATOM     79  C   UNL A   1      36.707  29.982  32.337  1.00  0.00     0.000 A 
ENDBRANCH  55  74
BRANCH  67  80
ATOM     80  C   UNL A   1      40.789  23.968  26.909  1.00  0.00    -0.014 A 
ATOM     81  C   UNL A   1      41.360  22.775  27.379  1.00  0.00     0.009 A 
ATOM     82  C   UNL A   1      39.554  23.913  26.244  1.00  0.00     0.009 A 
ATOM     83  C   UNL A   1      40.723  21.552  27.157  1.00  0.00     0.001 A 
ATOM     84  C   UNL A   1      38.903  22.692  26.054  1.00  0.00     0.001 A 
ATOM     85  C   UNL A   1      39.493  21.513  26.501  1.00  0.00     0.000 A 
ENDBRANCH  67  80
ENDBRANCH  41  42
ENDBRANCH  34  36
ENDBRANCH  33  34
ENDBRANCH  32  33
ENDBRANCH  31  32
ENDBRANCH  30  31
ENDBRANCH  29  30
ENDBRANCH  28  29
ENDBRANCH  27  28
ENDBRANCH   1  27
TORSDOF 25
ENDMDL
MODEL 3
REMARK VINA RESULT:      -7.6      7.746     15.646
REMARK SMILES CC[C@H](C)CN(CC)c1nc(C(=O)OCCOCCOCCOCCOC(=O)c2ccc(-c3c4nc(c(-c5ccccc5)c5ccc([nH]5)c(-c5ccccc5)c5nc(c(-c6ccccc6)c6ccc3[nH]6)C=C5)C=C4)cc2)cc2ccccc12
REMARK SMILES IDX 19 1 18 2 17 3 16 4 15 5 14 6 12 7 13 8 11 9 9 10 10 11
REMARK SMILES IDX 83 12 78 13 82 14 77 15 79 16 81 17 80 18 6 19 5 20 3 21
REMARK SMILES IDX 4 22 2 23 1 24 7 25 8 26 20 27 21 28 22 29 23 30 24 31 25 32
REMARK SMILES IDX 26 33 27 34 28 35 29 36 30 37 76 38 31 39 75 40 32 41 33 42
REMARK SMILES IDX 34 43 69 44 35 45 74 46 68 47 70 48 36 49 73 50 67 51 66 52
REMARK SMILES IDX 37 54 59 55 44 56 58 57 45 58 48 59 57 60 71 61 46 62 47 63
REMARK SMILES IDX 56 65 72 66 49 67 38 68 39 69 43 70 40 71 42 72 41 73 60 74
REMARK SMILES IDX 61 75 65 76 62 77 64 78 63 79 50 80 51 81 55 82 52 83 54 84
REMARK SMILES IDX 53 85
REMARK H PARENT 70 53 48 64
REMARK Flexibility Score: inf
ROOT
ATOM      1  C   UNL A   1      42.873  25.156  28.766  1.00  0.00     0.188 C 
ENDROOT
BRANCH   1   2
ATOM      2  C   UNL A   1      41.331  25.063  28.625  1.00  0.00     0.188 C 
BRANCH   2   3
ATOM      3  O   UNL A   1      40.789  25.767  27.519  1.00  0.00    -0.376 OA
BRANCH   3   4
ATOM      4  C   UNL A   1      40.050  25.082  26.528  1.00  0.00     0.202 C 
BRANCH   4   5
ATOM      5  C   UNL A   1      39.036  24.035  27.012  1.00  0.00     0.261 C 
BRANCH   5   6
ATOM      6  O   UNL A   1      37.908  23.830  26.154  1.00  0.00    -0.459 OA
BRANCH   6   7
ATOM      7  C   UNL A   1      37.793  22.592  25.621  1.00  0.00     0.357 C 
ATOM      8  O   UNL A   1      38.701  21.787  25.480  1.00  0.00    -0.244 OA
BRANCH   7   9
ATOM      9  C   UNL A   1      36.357  22.251  25.428  1.00  0.00     0.151 A 
ATOM     10  C   UNL A   1      34.161  22.950  25.091  1.00  0.00     0.137 A 
ATOM     11  N   UNL A   1      35.440  23.250  25.417  1.00  0.00    -0.223 NA
ATOM     12  C   UNL A   1      33.849  21.639  24.631  1.00  0.00     0.024 A 
ATOM     13  C   UNL A   1      34.750  20.593  24.911  1.00  0.00    -0.012 A 
ATOM     14  C   UNL A   1      32.729  21.287  23.848  1.00  0.00     0.012 A 
ATOM     15  C   UNL A   1      36.039  20.913  25.300  1.00  0.00     0.045 A 
ATOM     16  C   UNL A   1      34.369  19.253  24.736  1.00  0.00     0.009 A 
ATOM     17  C   UNL A   1      32.361  19.958  23.633  1.00  0.00     0.001 A 
ATOM     18  C   UNL A   1      33.152  18.938  24.140  1.00  0.00     0.001 A 
BRANCH  10  19
ATOM     19  N   UNL A   1      33.183  23.955  25.230  1.00  0.00    -0.356 N 
BRANCH  19  20
ATOM     20  C   UNL A   1      32.501  24.527  24.019  1.00  0.00     0.121 C 
BRANCH  20  21
ATOM     21  C   UNL A   1      33.192  25.758  23.387  1.00  0.00     0.005 C 
ATOM     22  C   UNL A   1      33.003  25.762  21.863  1.00  0.00     0.009 C 
BRANCH  21  23
ATOM     23  C   UNL A   1      32.781  27.138  23.953  1.00  0.00     0.002 C 
ATOM     24  C   UNL A   1      34.015  28.039  24.112  1.00  0.00     0.004 C 
ENDBRANCH  21  23
ENDBRANCH  20  21
ENDBRANCH  19  20
BRANCH  19  25
ATOM     25  C   UNL A   1      32.318  23.823  26.423  1.00  0.00     0.114 C 
ATOM     26  C   UNL A   1      30.826  23.665  26.128  1.00  0.00     0.027 C 
ENDBRANCH  19  25
ENDBRANCH  10  19
ENDBRANCH   7   9
ENDBRANCH   6   7
ENDBRANCH   5   6
ENDBRANCH   4   5
ENDBRANCH   3   4
ENDBRANCH   2   3
ENDBRANCH   1   2
BRANCH   1  27
ATOM     27  O   UNL A   1      43.761  24.746  27.725  1.00  0.00    -0.377 OA
BRANCH  27  28
ATOM     28  C   UNL A   1      44.772  25.655  27.315  1.00  0.00     0.188 C 
BRANCH  28  29
ATOM     29  C   UNL A   1      45.031  25.612  25.796  1.00  0.00     0.188 C 
BRANCH  29  30
ATOM     30  O   UNL A   1      44.378  26.658  25.095  1.00  0.00    -0.376 OA
BRANCH  30  31
ATOM     31  C   UNL A   1      42.982  26.843  25.253  1.00  0.00     0.202 C 
BRANCH  31  32
ATOM     32  C   UNL A   1      42.282  28.215  25.163  1.00  0.00     0.261 C 
BRANCH  32  33
ATOM     33  O   UNL A   1      42.068  28.957  26.369  1.00  0.00    -0.460 OA
BRANCH  33  34
ATOM     34  C   UNL A   1      43.051  29.758  26.817  1.00  0.00     0.338 C 
ATOM     35  O   UNL A   1      43.526  30.735  26.258  1.00  0.00    -0.246 OA
BRANCH  34  36
ATOM     36  C   UNL A   1      43.328  29.357  28.213  1.00  0.00     0.060 A 
ATOM     37  C   UNL A   1      42.278  28.893  29.018  1.00  0.00     0.016 A 
ATOM     38  C   UNL A   1      44.634  29.396  28.708  1.00  0.00     0.016 A 
ATOM     39  C   UNL A   1      42.527  28.486  30.329  1.00  0.00     0.010 A 
ATOM     40  C   UNL A   1      44.878  29.018  30.031  1.00  0.00     0.010 A 
ATOM     41  C   UNL A   1      43.822  28.587  30.854  1.00  0.00    -0.014 A 
BRANCH  41  42
ATOM     42  C   UNL A   1      44.047  28.425  32.309  1.00  0.00     0.031 A 
ATOM     43  C   UNL A   1      43.918  29.638  33.188  1.00  0.00     0.074 A 
ATOM     44  C   UNL A   1      44.364  27.232  32.843  1.00  0.00     0.049 A 
ATOM     45  N   UNL A   1      44.158  29.768  34.466  1.00  0.00    -0.248 NA
ATOM     46  C   UNL A   1      43.458  30.873  32.529  1.00  0.00     0.031 C 
ATOM     47  C   UNL A   1      44.463  25.973  32.109  1.00  0.00     0.029 A 
ATOM     48  N   UNL A   1      44.675  26.896  34.137  1.00  0.00    -0.354 N 
ATOM     49  C   UNL A   1      43.893  31.099  34.763  1.00  0.00     0.074 A 
ATOM     50  C   UNL A   1      43.499  31.740  33.528  1.00  0.00     0.031 C 
ATOM     51  C   UNL A   1      44.825  25.000  32.964  1.00  0.00     0.029 A 
ATOM     52  C   UNL A   1      45.028  25.578  34.291  1.00  0.00     0.049 A 
ATOM     53  H   UNL A   1      44.647  27.538  34.883  1.00  0.00     0.167 HD
ATOM     54  C   UNL A   1      43.972  31.730  35.958  1.00  0.00     0.031 A 
ATOM     55  C   UNL A   1      45.494  24.925  35.374  1.00  0.00     0.031 A 
ATOM     56  C   UNL A   1      44.385  31.095  37.179  1.00  0.00     0.049 A 
ATOM     57  C   UNL A   1      45.675  25.675  36.668  1.00  0.00     0.074 A 
ATOM     58  C   UNL A   1      44.485  31.645  38.445  1.00  0.00     0.029 A 
ATOM     59  N   UNL A   1      44.781  29.771  37.285  1.00  0.00    -0.354 N 
ATOM     60  N   UNL A   1      45.399  26.927  36.947  1.00  0.00    -0.248 NA
ATOM     61  C   UNL A   1      46.234  24.919  37.800  1.00  0.00     0.031 C 
ATOM     62  C   UNL A   1      45.010  30.672  39.301  1.00  0.00     0.029 A 
ATOM     63  C   UNL A   1      45.167  29.496  38.585  1.00  0.00     0.049 A 
ATOM     64  H   UNL A   1      44.788  29.122  36.544  1.00  0.00     0.167 HD
ATOM     65  C   UNL A   1      45.725  27.100  38.287  1.00  0.00     0.074 A 
ATOM     66  C   UNL A   1      46.200  25.820  38.771  1.00  0.00     0.031 C 
ATOM     67  C   UNL A   1      45.644  28.219  39.050  1.00  0.00     0.031 A 
BRANCH  54  68
ATOM     68  C   UNL A   1      43.649  33.199  35.986  1.00  0.00    -0.014 A 
ATOM     69  C   UNL A   1      42.329  33.658  36.128  1.00  0.00     0.009 A 
ATOM     70  C   UNL A   1      44.688  34.139  35.896  1.00  0.00     0.009 A 
ATOM     71  C   UNL A   1      42.056  35.027  36.144  1.00  0.00     0.001 A 
ATOM     72  C   UNL A   1      44.415  35.506  35.945  1.00  0.00     0.001 A 
ATOM     73  C   UNL A   1      43.099  35.949  36.060  1.00  0.00     0.000 A 
ENDBRANCH  54  68
BRANCH  55  74
ATOM     74  C   UNL A   1      45.866  23.487  35.278  1.00  0.00    -0.014 A 
ATOM     75  C   UNL A   1      47.174  23.106  34.942  1.00  0.00     0.009 A 
ATOM     76  C   UNL A   1      44.903  22.486  35.489  1.00  0.00     0.009 A 
ATOM     77  C   UNL A   1      47.503  21.755  34.796  1.00  0.00     0.001 A 
ATOM     78  C   UNL A   1      45.244  21.136  35.374  1.00  0.00     0.001 A 
ATOM     79  C   UNL A   1      46.540  20.772  35.017  1.00  0.00     0.000 A 
ENDBRANCH  55  74
BRANCH  67  80
ATOM     80  C   UNL A   1      46.048  28.104  40.494  1.00  0.00    -0.014 A 
ATOM     81  C   UNL A   1      47.380  28.293  40.896  1.00  0.00     0.009 A 
ATOM     82  C   UNL A   1      45.074  27.851  41.473  1.00  0.00     0.009 A 
ATOM     83  C   UNL A   1      47.731  28.196  42.245  1.00  0.00     0.001 A 
ATOM     84  C   UNL A   1      45.422  27.790  42.823  1.00  0.00     0.001 A 
ATOM     85  C   UNL A   1      46.751  27.952  43.207  1.00  0.00     0.000 A 
ENDBRANCH  67  80
ENDBRANCH  41  42
ENDBRANCH  34  36
ENDBRANCH  33  34
ENDBRANCH  32  33
ENDBRANCH  31  32
ENDBRANCH  30  31
ENDBRANCH  29  30
ENDBRANCH  28  29
ENDBRANCH  27  28
ENDBRANCH   1  27
TORSDOF 25
ENDMDL
