MODEL 1
REMARK VINA RESULT:      -7.8      0.000      0.000
REMARK SMILES COc1ccc([C@H]2CC(c3ccccc3)=NN2C(=O)CCCC(=O)OCCOCCOCCOCCOC(=O)c2ccc(-c3c4nc(c(-c5ccccc5)c5ccc([nH]5)c(-c5ccccc5)c5nc(c(-c6ccccc6)c6ccc3[nH]6)C=C5)C=C4)cc2)cc1
REMARK SMILES IDX 29 1 28 2 27 3 26 4 25 5 23 6 24 7 22 8 21 9 20 10 18 11
REMARK SMILES IDX 19 12 17 13 7 14 8 15 9 16 16 17 6 18 3 19 4 20 89 21 5 22
REMARK SMILES IDX 88 23 2 24 1 25 10 26 11 27 15 28 12 29 14 30 13 31 30 32
REMARK SMILES IDX 31 33 32 34 33 35 34 36 35 37 36 38 37 39 38 40 39 41 40 42
REMARK SMILES IDX 41 43 87 44 42 45 86 46 43 47 44 48 45 49 80 50 46 51 85 52
REMARK SMILES IDX 79 53 81 54 47 55 84 56 78 57 77 58 48 60 70 61 55 62 69 63
REMARK SMILES IDX 56 64 59 65 68 66 82 67 57 68 58 69 67 71 83 72 60 73 49 74
REMARK SMILES IDX 50 75 54 76 51 77 53 78 52 79 71 80 72 81 76 82 73 83 75 84
REMARK SMILES IDX 74 85 61 86 62 87 66 88 63 89 65 90 64 91
REMARK H PARENT 81 59 59 70
REMARK Flexibility Score: inf
ROOT
ATOM      1  C   UNL A   1      33.227  28.402  24.653  1.00  0.00     0.188 C 
ENDROOT
BRANCH   1   2
ATOM      2  O   UNL A   1      33.668  27.095  24.288  1.00  0.00    -0.376 OA
BRANCH   2   3
ATOM      3  C   UNL A   1      33.531  26.068  25.264  1.00  0.00     0.202 C 
BRANCH   3   4
ATOM      4  C   UNL A   1      34.785  25.196  25.519  1.00  0.00     0.261 C 
BRANCH   4   5
ATOM      5  O   UNL A   1      35.270  24.434  24.399  1.00  0.00    -0.463 OA
BRANCH   5   6
ATOM      6  C   UNL A   1      36.190  23.508  24.725  1.00  0.00     0.305 C 
ATOM      7  O   UNL A   1      36.590  22.681  23.912  1.00  0.00    -0.252 OA
BRANCH   6   8
ATOM      8  C   UNL A   1      36.711  23.578  26.149  1.00  0.00     0.123 C 
BRANCH   8   9
ATOM      9  C   UNL A   1      38.164  23.340  26.404  1.00  0.00     0.022 C 
BRANCH   9  10
ATOM     10  C   UNL A   1      38.921  24.653  26.440  1.00  0.00     0.103 C 
BRANCH  10  11
ATOM     11  C   UNL A   1      39.893  24.921  27.595  1.00  0.00     0.243 C 
ATOM     12  O   UNL A   1      39.369  25.368  28.631  1.00  0.00    -0.273 OA
BRANCH  11  13
ATOM     13  N   UNL A   1      41.227  24.508  27.600  1.00  0.00    -0.225 N 
ATOM     14  C   UNL A   1      42.023  23.317  28.081  1.00  0.00     0.147 C 
ATOM     15  C   UNL A   1      43.475  23.751  28.053  1.00  0.00     0.091 C 
ATOM     16  C   UNL A   1      43.298  25.131  27.531  1.00  0.00     0.071 C 
ATOM     17  N   UNL A   1      42.098  25.522  27.265  1.00  0.00    -0.174 NA
BRANCH  14  18
ATOM     18  C   UNL A   1      41.875  21.998  27.296  1.00  0.00    -0.023 A 
ATOM     19  C   UNL A   1      42.445  19.511  26.119  1.00  0.00     0.118 A 
ATOM     20  C   UNL A   1      42.727  20.676  25.419  1.00  0.00     0.047 A 
ATOM     21  C   UNL A   1      41.751  19.570  27.327  1.00  0.00     0.047 A 
ATOM     22  C   UNL A   1      42.382  21.912  25.977  1.00  0.00     0.010 A 
ATOM     23  C   UNL A   1      41.457  20.811  27.913  1.00  0.00     0.010 A 
BRANCH  19  24
ATOM     24  O   UNL A   1      43.041  18.343  25.729  1.00  0.00    -0.497 OA
ATOM     25  C   UNL A   1      44.340  18.562  25.194  1.00  0.00     0.278 C 
ENDBRANCH  19  24
ENDBRANCH  14  18
BRANCH  16  26
ATOM     26  C   UNL A   1      44.442  26.014  27.379  1.00  0.00    -0.002 A 
ATOM     27  C   UNL A   1      44.232  27.392  27.431  1.00  0.00     0.010 A 
ATOM     28  C   UNL A   1      45.699  25.468  27.134  1.00  0.00     0.010 A 
ATOM     29  C   UNL A   1      45.310  28.244  27.226  1.00  0.00     0.001 A 
ATOM     30  C   UNL A   1      46.767  26.326  26.912  1.00  0.00     0.001 A 
ATOM     31  C   UNL A   1      46.572  27.710  26.958  1.00  0.00     0.000 A 
ENDBRANCH  16  26
ENDBRANCH  11  13
ENDBRANCH  10  11
ENDBRANCH   9  10
ENDBRANCH   8   9
ENDBRANCH   6   8
ENDBRANCH   5   6
ENDBRANCH   4   5
ENDBRANCH   3   4
ENDBRANCH   2   3
ENDBRANCH   1   2
BRANCH   1  32
ATOM     32  C   UNL A   1      33.463  28.778  26.124  1.00  0.00     0.188 C 
BRANCH  32  33
ATOM     33  O   UNL A   1      34.772  29.172  26.512  1.00  0.00    -0.377 OA
BRANCH  33  34
ATOM     34  C   UNL A   1      34.912  29.842  27.768  1.00  0.00     0.188 C 
BRANCH  34  35
ATOM     35  C   UNL A   1      34.454  31.311  27.861  1.00  0.00     0.188 C 
BRANCH  35  36
ATOM     36  O   UNL A   1      35.143  32.101  28.810  1.00  0.00    -0.376 OA
BRANCH  36  37
ATOM     37  C   UNL A   1      34.592  33.356  29.182  1.00  0.00     0.202 C 
BRANCH  37  38
ATOM     38  C   UNL A   1      34.412  33.705  30.672  1.00  0.00     0.261 C 
BRANCH  38  39
ATOM     39  O   UNL A   1      34.439  32.617  31.616  1.00  0.00    -0.460 OA
BRANCH  39  40
ATOM     40  C   UNL A   1      35.127  32.763  32.764  1.00  0.00     0.338 C 
ATOM     41  O   UNL A   1      34.701  33.143  33.843  1.00  0.00    -0.246 OA
BRANCH  40  42
ATOM     42  C   UNL A   1      36.467  32.166  32.571  1.00  0.00     0.060 A 
ATOM     43  C   UNL A   1      37.524  32.603  33.384  1.00  0.00     0.016 A 
ATOM     44  C   UNL A   1      36.685  31.196  31.592  1.00  0.00     0.016 A 
ATOM     45  C   UNL A   1      38.811  32.116  33.183  1.00  0.00     0.010 A 
ATOM     46  C   UNL A   1      37.987  30.738  31.360  1.00  0.00     0.010 A 
ATOM     47  C   UNL A   1      39.058  31.240  32.120  1.00  0.00    -0.014 A 
BRANCH  47  48
ATOM     48  C   UNL A   1      40.452  31.122  31.629  1.00  0.00     0.031 A 
ATOM     49  C   UNL A   1      41.020  32.294  30.870  1.00  0.00     0.074 A 
ATOM     50  C   UNL A   1      41.227  30.066  31.929  1.00  0.00     0.049 A 
ATOM     51  N   UNL A   1      42.212  32.456  30.359  1.00  0.00    -0.248 NA
ATOM     52  C   UNL A   1      40.119  33.444  30.668  1.00  0.00     0.031 C 
ATOM     53  C   UNL A   1      40.822  28.909  32.726  1.00  0.00     0.029 A 
ATOM     54  N   UNL A   1      42.535  29.810  31.601  1.00  0.00    -0.354 N 
ATOM     55  C   UNL A   1      42.204  33.720  29.782  1.00  0.00     0.074 A 
ATOM     56  C   UNL A   1      40.881  34.269  29.968  1.00  0.00     0.031 C 
ATOM     57  C   UNL A   1      41.864  28.063  32.822  1.00  0.00     0.029 A 
ATOM     58  C   UNL A   1      42.995  28.604  32.071  1.00  0.00     0.049 A 
ATOM     59  H   UNL A   1      43.092  30.432  31.078  1.00  0.00     0.167 HD
ATOM     60  C   UNL A   1      43.211  34.376  29.161  1.00  0.00     0.031 A 
ATOM     61  C   UNL A   1      44.190  28.004  31.894  1.00  0.00     0.031 A 
ATOM     62  C   UNL A   1      44.522  33.829  28.958  1.00  0.00     0.049 A 
ATOM     63  C   UNL A   1      45.257  28.709  31.093  1.00  0.00     0.074 A 
ATOM     64  C   UNL A   1      45.608  34.404  28.322  1.00  0.00     0.029 A 
ATOM     65  N   UNL A   1      44.924  32.573  29.384  1.00  0.00    -0.354 N 
ATOM     66  N   UNL A   1      45.240  29.907  30.559  1.00  0.00    -0.248 NA
ATOM     67  C   UNL A   1      46.513  27.975  30.877  1.00  0.00     0.031 C 
ATOM     68  C   UNL A   1      46.651  33.474  28.316  1.00  0.00     0.029 A 
ATOM     69  C   UNL A   1      46.235  32.346  29.006  1.00  0.00     0.049 A 
ATOM     70  H   UNL A   1      44.360  31.937  29.883  1.00  0.00     0.167 HD
ATOM     71  C   UNL A   1      46.492  30.083  29.981  1.00  0.00     0.074 A 
ATOM     72  C   UNL A   1      47.249  28.878  30.246  1.00  0.00     0.031 C 
ATOM     73  C   UNL A   1      46.975  31.146  29.291  1.00  0.00     0.031 A 
BRANCH  60  74
ATOM     74  C   UNL A   1      42.919  35.751  28.632  1.00  0.00    -0.014 A 
ATOM     75  C   UNL A   1      43.243  36.900  29.371  1.00  0.00     0.009 A 
ATOM     76  C   UNL A   1      42.347  35.900  27.358  1.00  0.00     0.009 A 
ATOM     77  C   UNL A   1      42.976  38.170  28.855  1.00  0.00     0.001 A 
ATOM     78  C   UNL A   1      42.109  37.171  26.834  1.00  0.00     0.001 A 
ATOM     79  C   UNL A   1      42.417  38.305  27.585  1.00  0.00     0.000 A 
ENDBRANCH  60  74
BRANCH  61  80
ATOM     80  C   UNL A   1      44.449  26.648  32.451  1.00  0.00    -0.014 A 
ATOM     81  C   UNL A   1      44.900  26.485  33.770  1.00  0.00     0.009 A 
ATOM     82  C   UNL A   1      44.317  25.511  31.639  1.00  0.00     0.009 A 
ATOM     83  C   UNL A   1      45.254  25.220  34.249  1.00  0.00     0.001 A 
ATOM     84  C   UNL A   1      44.638  24.243  32.130  1.00  0.00     0.001 A 
ATOM     85  C   UNL A   1      45.121  24.101  33.428  1.00  0.00     0.000 A 
ENDBRANCH  61  80
BRANCH  73  86
ATOM     86  C   UNL A   1      48.403  31.077  28.821  1.00  0.00    -0.014 A 
ATOM     87  C   UNL A   1      49.467  31.484  29.641  1.00  0.00     0.009 A 
ATOM     88  C   UNL A   1      48.687  30.550  27.550  1.00  0.00     0.009 A 
ATOM     89  C   UNL A   1      50.782  31.402  29.181  1.00  0.00     0.001 A 
ATOM     90  C   UNL A   1      50.005  30.437  27.108  1.00  0.00     0.001 A 
ATOM     91  C   UNL A   1      51.050  30.874  27.919  1.00  0.00     0.000 A 
ENDBRANCH  73  86
ENDBRANCH  47  48
ENDBRANCH  40  42
ENDBRANCH  39  40
ENDBRANCH  38  39
ENDBRANCH  37  38
ENDBRANCH  36  37
ENDBRANCH  35  36
ENDBRANCH  34  35
ENDBRANCH  33  34
ENDBRANCH  32  33
ENDBRANCH   1  32
TORSDOF 27
ENDMDL
MODEL 2
REMARK VINA RESULT:      -7.3      5.561      8.727
REMARK SMILES COc1ccc([C@H]2CC(c3ccccc3)=NN2C(=O)CCCC(=O)OCCOCCOCCOCCOC(=O)c2ccc(-c3c4nc(c(-c5ccccc5)c5ccc([nH]5)c(-c5ccccc5)c5nc(c(-c6ccccc6)c6ccc3[nH]6)C=C5)C=C4)cc2)cc1
REMARK SMILES IDX 29 1 28 2 27 3 26 4 25 5 23 6 24 7 22 8 21 9 20 10 18 11
REMARK SMILES IDX 19 12 17 13 7 14 8 15 9 16 16 17 6 18 3 19 4 20 89 21 5 22
REMARK SMILES IDX 88 23 2 24 1 25 10 26 11 27 15 28 12 29 14 30 13 31 30 32
REMARK SMILES IDX 31 33 32 34 33 35 34 36 35 37 36 38 37 39 38 40 39 41 40 42
REMARK SMILES IDX 41 43 87 44 42 45 86 46 43 47 44 48 45 49 80 50 46 51 85 52
REMARK SMILES IDX 79 53 81 54 47 55 84 56 78 57 77 58 48 60 70 61 55 62 69 63
REMARK SMILES IDX 56 64 59 65 68 66 82 67 57 68 58 69 67 71 83 72 60 73 49 74
REMARK SMILES IDX 50 75 54 76 51 77 53 78 52 79 71 80 72 81 76 82 73 83 75 84
REMARK SMILES IDX 74 85 61 86 62 87 66 88 63 89 65 90 64 91
REMARK H PARENT 81 59 59 70
REMARK Flexibility Score: inf
ROOT
ATOM      1  C   UNL A   1      29.867  28.962  22.483  1.00  0.00     0.188 C 
ENDROOT
BRANCH   1   2
ATOM      2  O   UNL A   1      28.880  28.163  23.136  1.00  0.00    -0.376 OA
BRANCH   2   3
ATOM      3  C   UNL A   1      29.327  26.969  23.768  1.00  0.00     0.202 C 
BRANCH   3   4
ATOM      4  C   UNL A   1      30.347  26.116  22.973  1.00  0.00     0.261 C 
BRANCH   4   5
ATOM      5  O   UNL A   1      31.680  26.052  23.510  1.00  0.00    -0.463 OA
BRANCH   5   6
ATOM      6  C   UNL A   1      32.625  26.543  22.687  1.00  0.00     0.305 C 
ATOM      7  O   UNL A   1      33.536  27.252  23.100  1.00  0.00    -0.252 OA
BRANCH   6   8
ATOM      8  C   UNL A   1      32.498  26.136  21.230  1.00  0.00     0.123 C 
BRANCH   8   9
ATOM      9  C   UNL A   1      32.842  24.737  20.833  1.00  0.00     0.022 C 
BRANCH   9  10
ATOM     10  C   UNL A   1      33.491  24.000  21.987  1.00  0.00     0.103 C 
BRANCH  10  11
ATOM     11  C   UNL A   1      33.003  22.589  22.339  1.00  0.00     0.243 C 
ATOM     12  O   UNL A   1      32.507  21.952  21.392  1.00  0.00    -0.273 OA
BRANCH  11  13
ATOM     13  N   UNL A   1      33.271  21.954  23.554  1.00  0.00    -0.225 N 
ATOM     14  C   UNL A   1      33.969  22.283  24.852  1.00  0.00     0.147 C 
ATOM     15  C   UNL A   1      34.163  20.958  25.565  1.00  0.00     0.091 C 
ATOM     16  C   UNL A   1      33.517  20.060  24.572  1.00  0.00     0.071 C 
ATOM     17  N   UNL A   1      33.017  20.600  23.511  1.00  0.00    -0.174 NA
BRANCH  14  18
ATOM     18  C   UNL A   1      33.272  23.272  25.807  1.00  0.00    -0.023 A 
ATOM     19  C   UNL A   1      31.675  25.366  26.784  1.00  0.00     0.118 A 
ATOM     20  C   UNL A   1      32.974  25.634  26.379  1.00  0.00     0.047 A 
ATOM     21  C   UNL A   1      31.217  24.050  26.847  1.00  0.00     0.047 A 
ATOM     22  C   UNL A   1      33.792  24.580  25.956  1.00  0.00     0.010 A 
ATOM     23  C   UNL A   1      32.016  23.001  26.367  1.00  0.00     0.010 A 
BRANCH  19  24
ATOM     24  O   UNL A   1      30.791  26.404  26.906  1.00  0.00    -0.497 OA
ATOM     25  C   UNL A   1      31.370  27.519  27.572  1.00  0.00     0.278 C 
ENDBRANCH  19  24
ENDBRANCH  14  18
BRANCH  16  26
ATOM     26  C   UNL A   1      33.501  18.623  24.779  1.00  0.00    -0.002 A 
ATOM     27  C   UNL A   1      34.453  17.844  24.120  1.00  0.00     0.010 A 
ATOM     28  C   UNL A   1      32.512  18.058  25.578  1.00  0.00     0.010 A 
ATOM     29  C   UNL A   1      34.408  16.463  24.264  1.00  0.00     0.001 A 
ATOM     30  C   UNL A   1      32.462  16.676  25.703  1.00  0.00     0.001 A 
ATOM     31  C   UNL A   1      33.408  15.882  25.047  1.00  0.00     0.000 A 
ENDBRANCH  16  26
ENDBRANCH  11  13
ENDBRANCH  10  11
ENDBRANCH   9  10
ENDBRANCH   8   9
ENDBRANCH   6   8
ENDBRANCH   5   6
ENDBRANCH   4   5
ENDBRANCH   3   4
ENDBRANCH   2   3
ENDBRANCH   1   2
BRANCH   1  32
ATOM     32  C   UNL A   1      30.622  29.936  23.400  1.00  0.00     0.188 C 
BRANCH  32  33
ATOM     33  O   UNL A   1      30.822  29.559  24.756  1.00  0.00    -0.377 OA
BRANCH  33  34
ATOM     34  C   UNL A   1      31.326  30.557  25.648  1.00  0.00     0.188 C 
BRANCH  34  35
ATOM     35  C   UNL A   1      32.733  30.354  26.243  1.00  0.00     0.188 C 
BRANCH  35  36
ATOM     36  O   UNL A   1      33.075  31.224  27.303  1.00  0.00    -0.376 OA
BRANCH  36  37
ATOM     37  C   UNL A   1      34.342  31.076  27.927  1.00  0.00     0.202 C 
BRANCH  37  38
ATOM     38  C   UNL A   1      34.784  32.075  29.014  1.00  0.00     0.261 C 
BRANCH  38  39
ATOM     39  O   UNL A   1      35.724  31.607  30.001  1.00  0.00    -0.460 OA
BRANCH  39  40
ATOM     40  C   UNL A   1      37.008  31.415  29.644  1.00  0.00     0.338 C 
ATOM     41  O   UNL A   1      37.465  31.363  28.513  1.00  0.00    -0.246 OA
BRANCH  40  42
ATOM     42  C   UNL A   1      37.838  31.497  30.865  1.00  0.00     0.060 A 
ATOM     43  C   UNL A   1      39.119  32.064  30.774  1.00  0.00     0.016 A 
ATOM     44  C   UNL A   1      37.369  31.008  32.085  1.00  0.00     0.016 A 
ATOM     45  C   UNL A   1      39.954  32.093  31.886  1.00  0.00     0.010 A 
ATOM     46  C   UNL A   1      38.224  30.997  33.193  1.00  0.00     0.010 A 
ATOM     47  C   UNL A   1      39.536  31.490  33.077  1.00  0.00    -0.014 A 
BRANCH  47  48
ATOM     48  C   UNL A   1      40.577  31.103  34.060  1.00  0.00     0.031 A 
ATOM     49  C   UNL A   1      40.974  32.132  35.088  1.00  0.00     0.074 A 
ATOM     50  C   UNL A   1      41.079  29.858  34.115  1.00  0.00     0.049 A 
ATOM     51  N   UNL A   1      41.834  32.040  36.069  1.00  0.00    -0.248 NA
ATOM     52  C   UNL A   1      40.300  33.441  35.001  1.00  0.00     0.031 C 
ATOM     53  C   UNL A   1      40.715  28.752  33.232  1.00  0.00     0.029 A 
ATOM     54  N   UNL A   1      42.004  29.317  34.972  1.00  0.00    -0.354 N 
ATOM     55  C   UNL A   1      41.800  33.272  36.712  1.00  0.00     0.074 A 
ATOM     56  C   UNL A   1      40.869  34.108  35.992  1.00  0.00     0.031 C 
ATOM     57  C   UNL A   1      41.414  27.661  33.594  1.00  0.00     0.029 A 
ATOM     58  C   UNL A   1      42.294  28.000  34.711  1.00  0.00     0.049 A 
ATOM     59  H   UNL A   1      42.421  29.824  35.706  1.00  0.00     0.167 HD
ATOM     60  C   UNL A   1      42.475  33.671  37.815  1.00  0.00     0.031 A 
ATOM     61  C   UNL A   1      43.183  27.175  35.299  1.00  0.00     0.031 A 
ATOM     62  C   UNL A   1      43.415  32.851  38.523  1.00  0.00     0.049 A 
ATOM     63  C   UNL A   1      44.012  27.687  36.452  1.00  0.00     0.074 A 
ATOM     64  C   UNL A   1      44.167  33.169  39.639  1.00  0.00     0.029 A 
ATOM     65  N   UNL A   1      43.735  31.547  38.180  1.00  0.00    -0.354 N 
ATOM     66  N   UNL A   1      43.966  28.850  37.057  1.00  0.00    -0.248 NA
ATOM     67  C   UNL A   1      45.012  26.763  37.007  1.00  0.00     0.031 C 
ATOM     68  C   UNL A   1      44.984  32.075  39.939  1.00  0.00     0.029 A 
ATOM     69  C   UNL A   1      44.691  31.054  39.050  1.00  0.00     0.049 A 
ATOM     70  H   UNL A   1      43.340  31.046  37.428  1.00  0.00     0.167 HD
ATOM     71  C   UNL A   1      44.900  28.781  38.084  1.00  0.00     0.074 A 
ATOM     72  C   UNL A   1      45.483  27.457  38.032  1.00  0.00     0.031 C 
ATOM     73  C   UNL A   1      45.248  29.728  38.990  1.00  0.00     0.031 A 
BRANCH  60  74
ATOM     74  C   UNL A   1      42.239  35.073  38.300  1.00  0.00    -0.014 A 
ATOM     75  C   UNL A   1      41.210  35.364  39.211  1.00  0.00     0.009 A 
ATOM     76  C   UNL A   1      43.081  36.110  37.871  1.00  0.00     0.009 A 
ATOM     77  C   UNL A   1      41.016  36.672  39.662  1.00  0.00     0.001 A 
ATOM     78  C   UNL A   1      42.903  37.410  38.347  1.00  0.00     0.001 A 
ATOM     79  C   UNL A   1      41.866  37.691  39.236  1.00  0.00     0.000 A 
ENDBRANCH  60  74
BRANCH  61  80
ATOM     80  C   UNL A   1      43.377  25.785  34.801  1.00  0.00    -0.014 A 
ATOM     81  C   UNL A   1      44.282  25.511  33.764  1.00  0.00     0.009 A 
ATOM     82  C   UNL A   1      42.601  24.734  35.314  1.00  0.00     0.009 A 
ATOM     83  C   UNL A   1      44.373  24.226  33.222  1.00  0.00     0.001 A 
ATOM     84  C   UNL A   1      42.718  23.443  34.794  1.00  0.00     0.001 A 
ATOM     85  C   UNL A   1      43.593  23.194  33.739  1.00  0.00     0.000 A 
ENDBRANCH  61  80
BRANCH  73  86
ATOM     86  C   UNL A   1      46.266  29.351  40.032  1.00  0.00    -0.014 A 
ATOM     87  C   UNL A   1      47.634  29.605  39.848  1.00  0.00     0.009 A 
ATOM     88  C   UNL A   1      45.839  28.773  41.239  1.00  0.00     0.009 A 
ATOM     89  C   UNL A   1      48.555  29.251  40.835  1.00  0.00     0.001 A 
ATOM     90  C   UNL A   1      46.759  28.453  42.237  1.00  0.00     0.001 A 
ATOM     91  C   UNL A   1      48.117  28.681  42.030  1.00  0.00     0.000 A 
ENDBRANCH  73  86
ENDBRANCH  47  48
ENDBRANCH  40  42
ENDBRANCH  39  40
ENDBRANCH  38  39
ENDBRANCH  37  38
ENDBRANCH  36  37
ENDBRANCH  35  36
ENDBRANCH  34  35
ENDBRANCH  33  34
ENDBRANCH  32  33
ENDBRANCH   1  32
TORSDOF 27
ENDMDL
MODEL 3
REMARK VINA RESULT:      -7.3      3.123     11.014
REMARK SMILES COc1ccc([C@H]2CC(c3ccccc3)=NN2C(=O)CCCC(=O)OCCOCCOCCOCCOC(=O)c2ccc(-c3c4nc(c(-c5ccccc5)c5ccc([nH]5)c(-c5ccccc5)c5nc(c(-c6ccccc6)c6ccc3[nH]6)C=C5)C=C4)cc2)cc1
REMARK SMILES IDX 29 1 28 2 27 3 26 4 25 5 23 6 24 7 22 8 21 9 20 10 18 11
REMARK SMILES IDX 19 12 17 13 7 14 8 15 9 16 16 17 6 18 3 19 4 20 89 21 5 22
REMARK SMILES IDX 88 23 2 24 1 25 10 26 11 27 15 28 12 29 14 30 13 31 30 32
REMARK SMILES IDX 31 33 32 34 33 35 34 36 35 37 36 38 37 39 38 40 39 41 40 42
REMARK SMILES IDX 41 43 87 44 42 45 86 46 43 47 44 48 45 49 80 50 46 51 85 52
REMARK SMILES IDX 79 53 81 54 47 55 84 56 78 57 77 58 48 60 70 61 55 62 69 63
REMARK SMILES IDX 56 64 59 65 68 66 82 67 57 68 58 69 67 71 83 72 60 73 49 74
REMARK SMILES IDX 50 75 54 76 51 77 53 78 52 79 71 80 72 81 76 82 73 83 75 84
REMARK SMILES IDX 74 85 61 86 62 87 66 88 63 89 65 90 64 91
REMARK H PARENT 81 59 59 70
REMARK Flexibility Score: inf
ROOT
ATOM      1  C   UNL A   1      40.215  26.281  27.453  1.00  0.00     0.188 C 
ENDROOT
BRANCH   1   2
ATOM      2  O   UNL A   1      39.664  27.595  27.532  1.00  0.00    -0.376 OA
BRANCH   2   3
ATOM      3  C   UNL A   1      39.667  28.224  28.809  1.00  0.00     0.202 C 
BRANCH   3   4
ATOM      4  C   UNL A   1      39.781  27.281  30.033  1.00  0.00     0.261 C 
BRANCH   4   5
ATOM      5  O   UNL A   1      38.597  27.136  30.838  1.00  0.00    -0.463 OA
BRANCH   5   6
ATOM      6  C   UNL A   1      38.666  27.755  32.030  1.00  0.00     0.305 C 
ATOM      7  O   UNL A   1      37.700  27.819  32.782  1.00  0.00    -0.252 OA
BRANCH   6   8
ATOM      8  C   UNL A   1      40.022  28.339  32.385  1.00  0.00     0.123 C 
BRANCH   8   9
ATOM      9  C   UNL A   1      40.113  29.777  32.782  1.00  0.00     0.022 C 
BRANCH   9  10
ATOM     10  C   UNL A   1      40.771  30.591  31.686  1.00  0.00     0.103 C 
BRANCH  10  11
ATOM     11  C   UNL A   1      40.217  31.982  31.356  1.00  0.00     0.243 C 
ATOM     12  O   UNL A   1      40.520  32.417  30.231  1.00  0.00    -0.273 OA
BRANCH  11  13
ATOM     13  N   UNL A   1      39.268  32.646  32.137  1.00  0.00    -0.225 N 
ATOM     14  C   UNL A   1      38.276  33.773  31.967  1.00  0.00     0.147 C 
ATOM     15  C   UNL A   1      37.851  34.166  33.369  1.00  0.00     0.091 C 
ATOM     16  C   UNL A   1      38.650  33.179  34.142  1.00  0.00     0.071 C 
ATOM     17  N   UNL A   1      39.384  32.351  33.479  1.00  0.00    -0.174 NA
BRANCH  14  18
ATOM     18  C   UNL A   1      37.020  33.496  31.118  1.00  0.00    -0.023 A 
ATOM     19  C   UNL A   1      34.989  33.738  29.192  1.00  0.00     0.118 A 
ATOM     20  C   UNL A   1      34.839  34.365  30.421  1.00  0.00     0.047 A 
ATOM     21  C   UNL A   1      36.064  32.878  28.971  1.00  0.00     0.047 A 
ATOM     22  C   UNL A   1      35.819  34.188  31.405  1.00  0.00     0.010 A 
ATOM     23  C   UNL A   1      37.075  32.748  29.935  1.00  0.00     0.010 A 
BRANCH  19  24
ATOM     24  O   UNL A   1      34.208  34.142  28.143  1.00  0.00    -0.497 OA
ATOM     25  C   UNL A   1      33.129  33.246  27.909  1.00  0.00     0.278 C 
ENDBRANCH  19  24
ENDBRANCH  14  18
BRANCH  16  26
ATOM     26  C   UNL A   1      38.631  33.192  35.594  1.00  0.00    -0.002 A 
ATOM     27  C   UNL A   1      39.774  32.777  36.279  1.00  0.00     0.010 A 
ATOM     28  C   UNL A   1      37.466  33.561  36.259  1.00  0.00     0.010 A 
ATOM     29  C   UNL A   1      39.745  32.728  37.667  1.00  0.00     0.001 A 
ATOM     30  C   UNL A   1      37.439  33.492  37.646  1.00  0.00     0.001 A 
ATOM     31  C   UNL A   1      38.576  33.077  38.347  1.00  0.00     0.000 A 
ENDBRANCH  16  26
ENDBRANCH  11  13
ENDBRANCH  10  11
ENDBRANCH   9  10
ENDBRANCH   8   9
ENDBRANCH   6   8
ENDBRANCH   5   6
ENDBRANCH   4   5
ENDBRANCH   3   4
ENDBRANCH   2   3
ENDBRANCH   1   2
BRANCH   1  32
ATOM     32  C   UNL A   1      40.686  25.860  26.053  1.00  0.00     0.188 C 
BRANCH  32  33
ATOM     33  O   UNL A   1      41.549  24.736  25.946  1.00  0.00    -0.377 OA
BRANCH  33  34
ATOM     34  C   UNL A   1      41.070  23.488  26.456  1.00  0.00     0.188 C 
BRANCH  34  35
ATOM     35  C   UNL A   1      42.027  22.280  26.433  1.00  0.00     0.188 C 
BRANCH  35  36
ATOM     36  O   UNL A   1      42.647  22.022  25.189  1.00  0.00    -0.376 OA
BRANCH  36  37
ATOM     37  C   UNL A   1      44.061  22.120  25.097  1.00  0.00     0.202 C 
BRANCH  37  38
ATOM     38  C   UNL A   1      44.700  23.195  24.198  1.00  0.00     0.261 C 
BRANCH  38  39
ATOM     39  O   UNL A   1      44.638  24.561  24.650  1.00  0.00    -0.460 OA
BRANCH  39  40
ATOM     40  C   UNL A   1      45.783  25.206  24.946  1.00  0.00     0.338 C 
ATOM     41  O   UNL A   1      46.912  24.922  24.579  1.00  0.00    -0.246 OA
BRANCH  40  42
ATOM     42  C   UNL A   1      45.430  26.474  25.622  1.00  0.00     0.060 A 
ATOM     43  C   UNL A   1      46.446  27.205  26.256  1.00  0.00     0.016 A 
ATOM     44  C   UNL A   1      44.112  26.932  25.644  1.00  0.00     0.016 A 
ATOM     45  C   UNL A   1      46.140  28.365  26.961  1.00  0.00     0.010 A 
ATOM     46  C   UNL A   1      43.797  28.073  26.390  1.00  0.00     0.010 A 
ATOM     47  C   UNL A   1      44.804  28.758  27.094  1.00  0.00    -0.014 A 
BRANCH  47  48
ATOM     48  C   UNL A   1      44.457  29.670  28.210  1.00  0.00     0.031 A 
ATOM     49  C   UNL A   1      44.340  29.065  29.586  1.00  0.00     0.074 A 
ATOM     50  C   UNL A   1      44.351  30.998  28.040  1.00  0.00     0.049 A 
ATOM     51  N   UNL A   1      44.075  29.642  30.729  1.00  0.00    -0.248 NA
ATOM     52  C   UNL A   1      44.562  27.610  29.686  1.00  0.00     0.031 C 
ATOM     53  C   UNL A   1      44.525  31.713  26.777  1.00  0.00     0.029 A 
ATOM     54  N   UNL A   1      44.082  31.987  28.954  1.00  0.00    -0.354 N 
ATOM     55  C   UNL A   1      44.102  28.626  31.677  1.00  0.00     0.074 A 
ATOM     56  C   UNL A   1      44.369  27.391  30.976  1.00  0.00     0.031 C 
ATOM     57  C   UNL A   1      44.354  33.029  26.996  1.00  0.00     0.029 A 
ATOM     58  C   UNL A   1      44.031  33.245  28.406  1.00  0.00     0.049 A 
ATOM     59  H   UNL A   1      43.939  31.810  29.912  1.00  0.00     0.167 HD
ATOM     60  C   UNL A   1      43.933  28.710  33.016  1.00  0.00     0.031 A 
ATOM     61  C   UNL A   1      43.737  34.428  28.980  1.00  0.00     0.031 A 
ATOM     62  C   UNL A   1      43.650  29.931  33.715  1.00  0.00     0.049 A 
ATOM     63  C   UNL A   1      43.433  34.475  30.458  1.00  0.00     0.074 A 
ATOM     64  C   UNL A   1      43.441  30.120  35.070  1.00  0.00     0.029 A 
ATOM     65  N   UNL A   1      43.533  31.173  33.112  1.00  0.00    -0.354 N 
ATOM     66  N   UNL A   1      43.470  33.509  31.345  1.00  0.00    -0.248 NA
ATOM     67  C   UNL A   1      43.054  35.783  31.012  1.00  0.00     0.031 C 
ATOM     68  C   UNL A   1      43.143  31.470  35.279  1.00  0.00     0.029 A 
ATOM     69  C   UNL A   1      43.231  32.130  34.064  1.00  0.00     0.049 A 
ATOM     70  H   UNL A   1      43.647  31.347  32.149  1.00  0.00     0.167 HD
ATOM     71  C   UNL A   1      43.157  34.100  32.563  1.00  0.00     0.074 A 
ATOM     72  C   UNL A   1      42.953  35.510  32.305  1.00  0.00     0.031 C 
ATOM     73  C   UNL A   1      43.047  33.530  33.789  1.00  0.00     0.031 A 
BRANCH  60  74
ATOM     74  C   UNL A   1      44.021  27.435  33.807  1.00  0.00    -0.014 A 
ATOM     75  C   UNL A   1      45.254  26.952  34.274  1.00  0.00     0.009 A 
ATOM     76  C   UNL A   1      42.849  26.729  34.121  1.00  0.00     0.009 A 
ATOM     77  C   UNL A   1      45.312  25.773  35.020  1.00  0.00     0.001 A 
ATOM     78  C   UNL A   1      42.909  25.567  34.891  1.00  0.00     0.001 A 
ATOM     79  C   UNL A   1      44.141  25.086  35.334  1.00  0.00     0.000 A 
ENDBRANCH  60  74
BRANCH  61  80
ATOM     80  C   UNL A   1      43.678  35.675  28.168  1.00  0.00    -0.014 A 
ATOM     81  C   UNL A   1      44.803  36.506  28.041  1.00  0.00     0.009 A 
ATOM     82  C   UNL A   1      42.472  36.077  27.573  1.00  0.00     0.009 A 
ATOM     83  C   UNL A   1      44.708  37.731  27.375  1.00  0.00     0.001 A 
ATOM     84  C   UNL A   1      42.389  37.286  26.879  1.00  0.00     0.001 A 
ATOM     85  C   UNL A   1      43.502  38.119  26.794  1.00  0.00     0.000 A 
ENDBRANCH  61  80
BRANCH  73  86
ATOM     86  C   UNL A   1      42.743  34.437  34.951  1.00  0.00    -0.014 A 
ATOM     87  C   UNL A   1      41.588  35.233  34.979  1.00  0.00     0.009 A 
ATOM     88  C   UNL A   1      43.608  34.455  36.057  1.00  0.00     0.009 A 
ATOM     89  C   UNL A   1      41.328  36.059  36.073  1.00  0.00     0.001 A 
ATOM     90  C   UNL A   1      43.326  35.256  37.165  1.00  0.00     0.001 A 
ATOM     91  C   UNL A   1      42.193  36.066  37.167  1.00  0.00     0.000 A 
ENDBRANCH  73  86
ENDBRANCH  47  48
ENDBRANCH  40  42
ENDBRANCH  39  40
ENDBRANCH  38  39
ENDBRANCH  37  38
ENDBRANCH  36  37
ENDBRANCH  35  36
ENDBRANCH  34  35
ENDBRANCH  33  34
ENDBRANCH  32  33
ENDBRANCH   1  32
TORSDOF 27
ENDMDL
