MODEL 1
REMARK VINA RESULT:      -9.4      0.000      0.000
REMARK SMILES CCc1ccc2nc(O)c(C(=O)OCCOCCOCCOCCOC(=O)c3ccc(-c4c5nc(c(-c6ccccc6)c6ccc([nH]6)c(-c6ccccc6)c6nc(c(-c7ccccc7)c7ccc4[nH]7)C=C6)C=C5)cc3)cc2c1
REMARK SMILES IDX 20 1 19 2 18 3 17 4 16 5 15 6 14 7 13 8 11 9 12 10 10 11
REMARK SMILES IDX 3 12 4 13 78 14 5 15 77 16 6 17 76 18 7 19 8 20 2 21 1 22
REMARK SMILES IDX 9 23 21 25 22 26 23 27 24 28 25 29 26 30 27 31 28 32 29 33
REMARK SMILES IDX 75 34 30 35 74 36 31 37 32 38 33 39 68 40 34 41 73 42 67 43
REMARK SMILES IDX 69 44 35 45 72 46 66 47 65 48 36 50 58 51 43 52 57 53 44 54
REMARK SMILES IDX 47 55 56 56 70 57 45 58 46 59 55 61 71 62 48 63 37 64 38 65
REMARK SMILES IDX 42 66 39 67 41 68 40 69 59 70 60 71 64 72 61 73 63 74 62 75
REMARK SMILES IDX 49 76 50 77 54 78 51 79 53 80 52 81
REMARK H PARENT 9 24 69 49 47 60
REMARK Flexibility Score: inf
ROOT
ATOM      1  C   UNL A   1      33.518  32.251  27.958  1.00  0.00     0.188 C 
ENDROOT
BRANCH   1   2
ATOM      2  O   UNL A   1      32.395  32.025  27.106  1.00  0.00    -0.377 OA
BRANCH   2   3
ATOM      3  C   UNL A   1      31.998  30.666  26.962  1.00  0.00     0.188 C 
BRANCH   3   4
ATOM      4  C   UNL A   1      32.527  30.057  25.650  1.00  0.00     0.188 C 
BRANCH   4   5
ATOM      5  O   UNL A   1      33.698  29.275  25.850  1.00  0.00    -0.376 OA
BRANCH   5   6
ATOM      6  C   UNL A   1      33.682  27.894  25.514  1.00  0.00     0.202 C 
BRANCH   6   7
ATOM      7  C   UNL A   1      32.722  26.899  26.197  1.00  0.00     0.261 C 
BRANCH   7   8
ATOM      8  O   UNL A   1      32.553  25.614  25.578  1.00  0.00    -0.459 OA
BRANCH   8   9
ATOM      9  C   UNL A   1      32.265  24.565  26.375  1.00  0.00     0.343 C 
ATOM     10  O   UNL A   1      31.331  24.479  27.152  1.00  0.00    -0.246 OA
BRANCH   9  11
ATOM     11  C   UNL A   1      33.146  23.441  25.993  1.00  0.00     0.122 A 
ATOM     12  C   UNL A   1      33.567  18.796  24.627  1.00  0.00    -0.048 A 
ATOM     13  C   UNL A   1      34.954  18.966  24.625  1.00  0.00     0.006 A 
ATOM     14  C   UNL A   1      32.767  19.898  24.950  1.00  0.00     0.014 A 
ATOM     15  C   UNL A   1      35.519  20.210  24.934  1.00  0.00     0.029 A 
ATOM     16  C   UNL A   1      33.340  21.134  25.295  1.00  0.00     0.002 A 
ATOM     17  C   UNL A   1      34.738  21.310  25.260  1.00  0.00     0.074 A 
ATOM     18  C   UNL A   1      32.548  22.218  25.689  1.00  0.00     0.031 A 
ATOM     19  N   UNL A   1      35.316  22.497  25.516  1.00  0.00    -0.213 NA
ATOM     20  C   UNL A   1      34.522  23.540  25.843  1.00  0.00     0.226 A 
BRANCH  12  21
ATOM     21  C   UNL A   1      32.907  17.492  24.244  1.00  0.00     0.032 C 
ATOM     22  C   UNL A   1      33.833  16.472  23.596  1.00  0.00     0.009 C 
ENDBRANCH  12  21
BRANCH  20  23
ATOM     23  O   UNL A   1      35.200  24.719  25.962  1.00  0.00    -0.493 OA
ATOM     24  H   UNL A   1      36.024  24.743  26.409  1.00  0.00     0.295 HD
ENDBRANCH  20  23
ENDBRANCH   9  11
ENDBRANCH   8   9
ENDBRANCH   7   8
ENDBRANCH   6   7
ENDBRANCH   5   6
ENDBRANCH   4   5
ENDBRANCH   3   4
ENDBRANCH   2   3
ENDBRANCH   1   2
BRANCH   1  25
ATOM     25  C   UNL A   1      33.810  33.680  28.471  1.00  0.00     0.188 C 
BRANCH  25  26
ATOM     26  O   UNL A   1      35.051  33.777  29.173  1.00  0.00    -0.376 OA
BRANCH  26  27
ATOM     27  C   UNL A   1      34.993  34.286  30.500  1.00  0.00     0.202 C 
BRANCH  27  28
ATOM     28  C   UNL A   1      34.226  33.386  31.477  1.00  0.00     0.261 C 
BRANCH  28  29
ATOM     29  O   UNL A   1      34.827  32.106  31.732  1.00  0.00    -0.460 OA
BRANCH  29  30
ATOM     30  C   UNL A   1      35.889  32.059  32.565  1.00  0.00     0.338 C 
ATOM     31  O   UNL A   1      35.918  32.369  33.743  1.00  0.00    -0.246 OA
BRANCH  30  32
ATOM     32  C   UNL A   1      36.978  31.357  31.851  1.00  0.00     0.060 A 
ATOM     33  C   UNL A   1      36.980  31.286  30.455  1.00  0.00     0.016 A 
ATOM     34  C   UNL A   1      37.984  30.727  32.594  1.00  0.00     0.016 A 
ATOM     35  C   UNL A   1      38.012  30.611  29.802  1.00  0.00     0.010 A 
ATOM     36  C   UNL A   1      39.014  30.046  31.938  1.00  0.00     0.010 A 
ATOM     37  C   UNL A   1      39.047  30.006  30.536  1.00  0.00    -0.014 A 
BRANCH  37  38
ATOM     38  C   UNL A   1      40.252  29.519  29.827  1.00  0.00     0.031 A 
ATOM     39  C   UNL A   1      40.362  28.126  29.291  1.00  0.00     0.074 A 
ATOM     40  C   UNL A   1      41.270  30.386  29.666  1.00  0.00     0.049 A 
ATOM     41  N   UNL A   1      41.312  27.610  28.552  1.00  0.00    -0.248 NA
ATOM     42  C   UNL A   1      39.279  27.189  29.624  1.00  0.00     0.031 C 
ATOM     43  C   UNL A   1      41.279  31.763  30.166  1.00  0.00     0.029 A 
ATOM     44  N   UNL A   1      42.475  30.253  29.027  1.00  0.00    -0.354 N 
ATOM     45  C   UNL A   1      40.935  26.297  28.308  1.00  0.00     0.074 A 
ATOM     46  C   UNL A   1      39.690  26.080  29.018  1.00  0.00     0.031 C 
ATOM     47  C   UNL A   1      42.419  32.357  29.787  1.00  0.00     0.029 A 
ATOM     48  C   UNL A   1      43.231  31.399  29.042  1.00  0.00     0.049 A 
ATOM     49  H   UNL A   1      42.771  29.416  28.600  1.00  0.00     0.167 HD
ATOM     50  C   UNL A   1      41.566  25.369  27.549  1.00  0.00     0.031 A 
ATOM     51  C   UNL A   1      44.438  31.662  28.507  1.00  0.00     0.031 A 
ATOM     52  C   UNL A   1      42.818  25.589  26.867  1.00  0.00     0.049 A 
ATOM     53  C   UNL A   1      45.134  30.602  27.706  1.00  0.00     0.074 A 
ATOM     54  C   UNL A   1      43.506  24.718  26.038  1.00  0.00     0.029 A 
ATOM     55  N   UNL A   1      43.578  26.746  26.945  1.00  0.00    -0.354 N 
ATOM     56  N   UNL A   1      44.725  29.392  27.412  1.00  0.00    -0.248 NA
ATOM     57  C   UNL A   1      46.450  30.945  27.148  1.00  0.00     0.031 C 
ATOM     58  C   UNL A   1      44.713  25.320  25.674  1.00  0.00     0.029 A 
ATOM     59  C   UNL A   1      44.743  26.596  26.212  1.00  0.00     0.049 A 
ATOM     60  H   UNL A   1      43.325  27.555  27.447  1.00  0.00     0.167 HD
ATOM     61  C   UNL A   1      45.718  28.838  26.618  1.00  0.00     0.074 A 
ATOM     62  C   UNL A   1      46.743  29.849  26.461  1.00  0.00     0.031 C 
ATOM     63  C   UNL A   1      45.769  27.600  26.067  1.00  0.00     0.031 A 
BRANCH  50  64
ATOM     64  C   UNL A   1      40.921  24.018  27.391  1.00  0.00    -0.014 A 
ATOM     65  C   UNL A   1      41.485  22.894  28.017  1.00  0.00     0.009 A 
ATOM     66  C   UNL A   1      39.841  23.834  26.516  1.00  0.00     0.009 A 
ATOM     67  C   UNL A   1      40.991  21.613  27.757  1.00  0.00     0.001 A 
ATOM     68  C   UNL A   1      39.332  22.555  26.277  1.00  0.00     0.001 A 
ATOM     69  C   UNL A   1      39.914  21.445  26.889  1.00  0.00     0.000 A 
ENDBRANCH  50  64
BRANCH  51  70
ATOM     70  C   UNL A   1      45.024  33.017  28.680  1.00  0.00    -0.014 A 
ATOM     71  C   UNL A   1      44.795  34.021  27.725  1.00  0.00     0.009 A 
ATOM     72  C   UNL A   1      45.871  33.291  29.764  1.00  0.00     0.009 A 
ATOM     73  C   UNL A   1      45.425  35.262  27.836  1.00  0.00     0.001 A 
ATOM     74  C   UNL A   1      46.475  34.544  29.888  1.00  0.00     0.001 A 
ATOM     75  C   UNL A   1      46.260  35.523  28.920  1.00  0.00     0.000 A 
ENDBRANCH  51  70
BRANCH  63  76
ATOM     76  C   UNL A   1      46.970  27.251  25.231  1.00  0.00    -0.014 A 
ATOM     77  C   UNL A   1      48.051  26.568  25.813  1.00  0.00     0.009 A 
ATOM     78  C   UNL A   1      47.079  27.683  23.901  1.00  0.00     0.009 A 
ATOM     79  C   UNL A   1      49.221  26.340  25.087  1.00  0.00     0.001 A 
ATOM     80  C   UNL A   1      48.240  27.427  23.167  1.00  0.00     0.001 A 
ATOM     81  C   UNL A   1      49.313  26.766  23.763  1.00  0.00     0.000 A 
ENDBRANCH  63  76
ENDBRANCH  37  38
ENDBRANCH  30  32
ENDBRANCH  29  30
ENDBRANCH  28  29
ENDBRANCH  27  28
ENDBRANCH  26  27
ENDBRANCH  25  26
ENDBRANCH   1  25
TORSDOF 22
ENDMDL
MODEL 2
REMARK VINA RESULT:      -9.3      5.088     10.683
REMARK SMILES CCc1ccc2nc(O)c(C(=O)OCCOCCOCCOCCOC(=O)c3ccc(-c4c5nc(c(-c6ccccc6)c6ccc([nH]6)c(-c6ccccc6)c6nc(c(-c7ccccc7)c7ccc4[nH]7)C=C6)C=C5)cc3)cc2c1
REMARK SMILES IDX 20 1 19 2 18 3 17 4 16 5 15 6 14 7 13 8 11 9 12 10 10 11
REMARK SMILES IDX 3 12 4 13 78 14 5 15 77 16 6 17 76 18 7 19 8 20 2 21 1 22
REMARK SMILES IDX 9 23 21 25 22 26 23 27 24 28 25 29 26 30 27 31 28 32 29 33
REMARK SMILES IDX 75 34 30 35 74 36 31 37 32 38 33 39 68 40 34 41 73 42 67 43
REMARK SMILES IDX 69 44 35 45 72 46 66 47 65 48 36 50 58 51 43 52 57 53 44 54
REMARK SMILES IDX 47 55 56 56 70 57 45 58 46 59 55 61 71 62 48 63 37 64 38 65
REMARK SMILES IDX 42 66 39 67 41 68 40 69 59 70 60 71 64 72 61 73 63 74 62 75
REMARK SMILES IDX 49 76 50 77 54 78 51 79 53 80 52 81
REMARK H PARENT 9 24 69 49 47 60
REMARK Flexibility Score: inf
ROOT
ATOM      1  C   UNL A   1      45.026  19.567  24.239  1.00  0.00     0.188 C 
ENDROOT
BRANCH   1   2
ATOM      2  O   UNL A   1      44.536  18.359  24.824  1.00  0.00    -0.377 OA
BRANCH   2   3
ATOM      3  C   UNL A   1      43.880  18.509  26.079  1.00  0.00     0.188 C 
BRANCH   3   4
ATOM      4  C   UNL A   1      42.373  18.770  25.903  1.00  0.00     0.188 C 
BRANCH   4   5
ATOM      5  O   UNL A   1      42.080  20.150  25.727  1.00  0.00    -0.376 OA
BRANCH   5   6
ATOM      6  C   UNL A   1      40.854  20.673  26.220  1.00  0.00     0.202 C 
BRANCH   6   7
ATOM      7  C   UNL A   1      40.795  21.569  27.475  1.00  0.00     0.261 C 
BRANCH   7   8
ATOM      8  O   UNL A   1      40.912  22.987  27.279  1.00  0.00    -0.459 OA
BRANCH   8   9
ATOM      9  C   UNL A   1      39.791  23.675  26.978  1.00  0.00     0.343 C 
ATOM     10  O   UNL A   1      38.695  23.203  26.736  1.00  0.00    -0.246 OA
BRANCH   9  11
ATOM     11  C   UNL A   1      40.057  25.110  27.205  1.00  0.00     0.122 A 
ATOM     12  C   UNL A   1      40.008  28.893  30.257  1.00  0.00    -0.048 A 
ATOM     13  C   UNL A   1      40.472  29.691  29.208  1.00  0.00     0.006 A 
ATOM     14  C   UNL A   1      39.813  27.529  30.012  1.00  0.00     0.014 A 
ATOM     15  C   UNL A   1      40.737  29.132  27.951  1.00  0.00     0.029 A 
ATOM     16  C   UNL A   1      40.046  26.980  28.739  1.00  0.00     0.002 A 
ATOM     17  C   UNL A   1      40.545  27.782  27.694  1.00  0.00     0.074 A 
ATOM     18  C   UNL A   1      39.784  25.632  28.470  1.00  0.00     0.031 A 
ATOM     19  N   UNL A   1      40.845  27.276  26.484  1.00  0.00    -0.213 NA
ATOM     20  C   UNL A   1      40.630  25.959  26.269  1.00  0.00     0.226 A 
BRANCH  12  21
ATOM     21  C   UNL A   1      39.763  29.436  31.646  1.00  0.00     0.032 C 
ATOM     22  C   UNL A   1      39.232  28.418  32.646  1.00  0.00     0.009 C 
ENDBRANCH  12  21
BRANCH  20  23
ATOM     23  O   UNL A   1      41.082  25.530  25.054  1.00  0.00    -0.493 OA
ATOM     24  H   UNL A   1      41.542  26.121  24.490  1.00  0.00     0.295 HD
ENDBRANCH  20  23
ENDBRANCH   9  11
ENDBRANCH   8   9
ENDBRANCH   7   8
ENDBRANCH   6   7
ENDBRANCH   5   6
ENDBRANCH   4   5
ENDBRANCH   3   4
ENDBRANCH   2   3
ENDBRANCH   1   2
BRANCH   1  25
ATOM     25  C   UNL A   1      46.413  20.105  24.654  1.00  0.00     0.188 C 
BRANCH  25  26
ATOM     26  O   UNL A   1      46.345  21.368  25.318  1.00  0.00    -0.376 OA
BRANCH  26  27
ATOM     27  C   UNL A   1      46.172  22.513  24.492  1.00  0.00     0.202 C 
BRANCH  27  28
ATOM     28  C   UNL A   1      45.781  23.781  25.262  1.00  0.00     0.261 C 
BRANCH  28  29
ATOM     29  O   UNL A   1      45.842  25.001  24.504  1.00  0.00    -0.460 OA
BRANCH  29  30
ATOM     30  C   UNL A   1      46.690  25.965  24.923  1.00  0.00     0.338 C 
ATOM     31  O   UNL A   1      47.705  26.347  24.369  1.00  0.00    -0.246 OA
BRANCH  30  32
ATOM     32  C   UNL A   1      46.056  26.636  26.079  1.00  0.00     0.060 A 
ATOM     33  C   UNL A   1      46.810  26.962  27.210  1.00  0.00     0.016 A 
ATOM     34  C   UNL A   1      44.682  26.903  26.042  1.00  0.00     0.016 A 
ATOM     35  C   UNL A   1      46.190  27.587  28.293  1.00  0.00     0.010 A 
ATOM     36  C   UNL A   1      44.062  27.523  27.131  1.00  0.00     0.010 A 
ATOM     37  C   UNL A   1      44.819  27.892  28.253  1.00  0.00    -0.014 A 
BRANCH  37  38
ATOM     38  C   UNL A   1      44.239  28.772  29.294  1.00  0.00     0.031 A 
ATOM     39  C   UNL A   1      43.806  28.259  30.631  1.00  0.00     0.074 A 
ATOM     40  C   UNL A   1      44.116  30.081  29.001  1.00  0.00     0.049 A 
ATOM     41  N   UNL A   1      43.392  28.940  31.670  1.00  0.00    -0.248 NA
ATOM     42  C   UNL A   1      43.834  26.803  30.835  1.00  0.00     0.031 C 
ATOM     43  C   UNL A   1      44.487  30.687  27.720  1.00  0.00     0.029 A 
ATOM     44  N   UNL A   1      43.668  31.134  29.754  1.00  0.00    -0.354 N 
ATOM     45  C   UNL A   1      43.132  28.004  32.661  1.00  0.00     0.074 A 
ATOM     46  C   UNL A   1      43.391  26.700  32.083  1.00  0.00     0.031 C 
ATOM     47  C   UNL A   1      44.282  32.009  27.788  1.00  0.00     0.029 A 
ATOM     48  C   UNL A   1      43.742  32.342  29.104  1.00  0.00     0.049 A 
ATOM     49  H   UNL A   1      43.325  31.036  30.672  1.00  0.00     0.167 HD
ATOM     50  C   UNL A   1      42.730  28.220  33.937  1.00  0.00     0.031 A 
ATOM     51  C   UNL A   1      43.427  33.583  29.517  1.00  0.00     0.031 A 
ATOM     52  C   UNL A   1      42.452  29.522  34.493  1.00  0.00     0.049 A 
ATOM     53  C   UNL A   1      42.943  33.789  30.922  1.00  0.00     0.074 A 
ATOM     54  C   UNL A   1      42.084  29.838  35.790  1.00  0.00     0.029 A 
ATOM     55  N   UNL A   1      42.492  30.717  33.790  1.00  0.00    -0.354 N 
ATOM     56  N   UNL A   1      42.784  32.904  31.875  1.00  0.00    -0.248 NA
ATOM     57  C   UNL A   1      42.611  35.166  31.317  1.00  0.00     0.031 C 
ATOM     58  C   UNL A   1      41.831  31.211  35.854  1.00  0.00     0.029 A 
ATOM     59  C   UNL A   1      42.118  31.764  34.616  1.00  0.00     0.049 A 
ATOM     60  H   UNL A   1      42.749  30.807  32.844  1.00  0.00     0.167 HD
ATOM     61  C   UNL A   1      42.357  33.615  32.987  1.00  0.00     0.074 A 
ATOM     62  C   UNL A   1      42.297  35.008  32.596  1.00  0.00     0.031 C 
ATOM     63  C   UNL A   1      42.047  33.149  34.221  1.00  0.00     0.031 A 
BRANCH  50  64
ATOM     64  C   UNL A   1      42.570  27.032  34.846  1.00  0.00    -0.014 A 
ATOM     65  C   UNL A   1      43.704  26.422  35.410  1.00  0.00     0.009 A 
ATOM     66  C   UNL A   1      41.316  26.434  35.035  1.00  0.00     0.009 A 
ATOM     67  C   UNL A   1      43.585  25.230  36.129  1.00  0.00     0.001 A 
ATOM     68  C   UNL A   1      41.196  25.256  35.776  1.00  0.00     0.001 A 
ATOM     69  C   UNL A   1      42.332  24.649  36.313  1.00  0.00     0.000 A 
ENDBRANCH  50  64
BRANCH  51  70
ATOM     70  C   UNL A   1      43.616  34.724  28.584  1.00  0.00    -0.014 A 
ATOM     71  C   UNL A   1      42.530  35.240  27.858  1.00  0.00     0.009 A 
ATOM     72  C   UNL A   1      44.895  35.255  28.362  1.00  0.00     0.009 A 
ATOM     73  C   UNL A   1      42.724  36.245  26.909  1.00  0.00     0.001 A 
ATOM     74  C   UNL A   1      45.081  36.282  27.434  1.00  0.00     0.001 A 
ATOM     75  C   UNL A   1      43.999  36.768  26.702  1.00  0.00     0.000 A 
ENDBRANCH  51  70
BRANCH  63  76
ATOM     76  C   UNL A   1      41.613  34.146  35.261  1.00  0.00    -0.014 A 
ATOM     77  C   UNL A   1      40.392  34.825  35.112  1.00  0.00     0.009 A 
ATOM     78  C   UNL A   1      42.452  34.490  36.332  1.00  0.00     0.009 A 
ATOM     79  C   UNL A   1      40.029  35.838  36.001  1.00  0.00     0.001 A 
ATOM     80  C   UNL A   1      42.073  35.483  37.238  1.00  0.00     0.001 A 
ATOM     81  C   UNL A   1      40.867  36.163  37.066  1.00  0.00     0.000 A 
ENDBRANCH  63  76
ENDBRANCH  37  38
ENDBRANCH  30  32
ENDBRANCH  29  30
ENDBRANCH  28  29
ENDBRANCH  27  28
ENDBRANCH  26  27
ENDBRANCH  25  26
ENDBRANCH   1  25
TORSDOF 22
ENDMDL
MODEL 3
REMARK VINA RESULT:      -9.0      5.014     11.708
REMARK SMILES CCc1ccc2nc(O)c(C(=O)OCCOCCOCCOCCOC(=O)c3ccc(-c4c5nc(c(-c6ccccc6)c6ccc([nH]6)c(-c6ccccc6)c6nc(c(-c7ccccc7)c7ccc4[nH]7)C=C6)C=C5)cc3)cc2c1
REMARK SMILES IDX 20 1 19 2 18 3 17 4 16 5 15 6 14 7 13 8 11 9 12 10 10 11
REMARK SMILES IDX 3 12 4 13 78 14 5 15 77 16 6 17 76 18 7 19 8 20 2 21 1 22
REMARK SMILES IDX 9 23 21 25 22 26 23 27 24 28 25 29 26 30 27 31 28 32 29 33
REMARK SMILES IDX 75 34 30 35 74 36 31 37 32 38 33 39 68 40 34 41 73 42 67 43
REMARK SMILES IDX 69 44 35 45 72 46 66 47 65 48 36 50 58 51 43 52 57 53 44 54
REMARK SMILES IDX 47 55 56 56 70 57 45 58 46 59 55 61 71 62 48 63 37 64 38 65
REMARK SMILES IDX 42 66 39 67 41 68 40 69 59 70 60 71 64 72 61 73 63 74 62 75
REMARK SMILES IDX 49 76 50 77 54 78 51 79 53 80 52 81
REMARK H PARENT 9 24 69 49 47 60
REMARK Flexibility Score: inf
ROOT
ATOM      1  C   UNL A   1      45.174  19.223  24.288  1.00  0.00     0.188 C 
ENDROOT
BRANCH   1   2
ATOM      2  O   UNL A   1      43.778  19.525  24.332  1.00  0.00    -0.377 OA
BRANCH   2   3
ATOM      3  C   UNL A   1      43.045  18.882  25.370  1.00  0.00     0.188 C 
BRANCH   3   4
ATOM      4  C   UNL A   1      43.079  19.698  26.676  1.00  0.00     0.188 C 
BRANCH   4   5
ATOM      5  O   UNL A   1      42.479  20.978  26.530  1.00  0.00    -0.376 OA
BRANCH   5   6
ATOM      6  C   UNL A   1      42.186  21.749  27.687  1.00  0.00     0.202 C 
BRANCH   6   7
ATOM      7  C   UNL A   1      40.929  22.640  27.776  1.00  0.00     0.261 C 
BRANCH   7   8
ATOM      8  O   UNL A   1      40.406  23.167  26.547  1.00  0.00    -0.459 OA
BRANCH   8   9
ATOM      9  C   UNL A   1      39.293  23.928  26.613  1.00  0.00     0.343 C 
ATOM     10  O   UNL A   1      38.145  23.545  26.481  1.00  0.00    -0.246 OA
BRANCH   9  11
ATOM     11  C   UNL A   1      39.682  25.270  27.091  1.00  0.00     0.122 A 
ATOM     12  C   UNL A   1      39.650  28.554  30.675  1.00  0.00    -0.048 A 
ATOM     13  C   UNL A   1      40.330  29.429  29.823  1.00  0.00     0.006 A 
ATOM     14  C   UNL A   1      39.342  27.275  30.198  1.00  0.00     0.014 A 
ATOM     15  C   UNL A   1      40.693  29.026  28.531  1.00  0.00     0.029 A 
ATOM     16  C   UNL A   1      39.675  26.888  28.889  1.00  0.00     0.002 A 
ATOM     17  C   UNL A   1      40.390  27.761  28.045  1.00  0.00     0.074 A 
ATOM     18  C   UNL A   1      39.305  25.637  28.383  1.00  0.00     0.031 A 
ATOM     19  N   UNL A   1      40.787  27.399  26.812  1.00  0.00    -0.213 NA
ATOM     20  C   UNL A   1      40.460  26.165  26.370  1.00  0.00     0.226 A 
BRANCH  12  21
ATOM     21  C   UNL A   1      39.288  28.920  32.096  1.00  0.00     0.032 C 
ATOM     22  C   UNL A   1      38.016  28.267  32.620  1.00  0.00     0.009 C 
ENDBRANCH  12  21
BRANCH  20  23
ATOM     23  O   UNL A   1      41.016  25.860  25.161  1.00  0.00    -0.493 OA
ATOM     24  H   UNL A   1      40.568  25.285  24.571  1.00  0.00     0.295 HD
ENDBRANCH  20  23
ENDBRANCH   9  11
ENDBRANCH   8   9
ENDBRANCH   7   8
ENDBRANCH   6   7
ENDBRANCH   5   6
ENDBRANCH   4   5
ENDBRANCH   3   4
ENDBRANCH   2   3
ENDBRANCH   1   2
BRANCH   1  25
ATOM     25  C   UNL A   1      46.149  19.993  25.206  1.00  0.00     0.188 C 
BRANCH  25  26
ATOM     26  O   UNL A   1      46.399  21.327  24.760  1.00  0.00    -0.376 OA
BRANCH  26  27
ATOM     27  C   UNL A   1      45.904  22.376  25.584  1.00  0.00     0.202 C 
BRANCH  27  28
ATOM     28  C   UNL A   1      46.623  23.716  25.383  1.00  0.00     0.261 C 
BRANCH  28  29
ATOM     29  O   UNL A   1      45.764  24.862  25.275  1.00  0.00    -0.460 OA
BRANCH  29  30
ATOM     30  C   UNL A   1      46.340  26.073  25.115  1.00  0.00     0.338 C 
ATOM     31  O   UNL A   1      47.040  26.442  24.188  1.00  0.00    -0.246 OA
BRANCH  30  32
ATOM     32  C   UNL A   1      45.797  26.961  26.167  1.00  0.00     0.060 A 
ATOM     33  C   UNL A   1      44.435  27.268  26.201  1.00  0.00     0.016 A 
ATOM     34  C   UNL A   1      46.675  27.524  27.102  1.00  0.00     0.016 A 
ATOM     35  C   UNL A   1      43.946  28.115  27.197  1.00  0.00     0.010 A 
ATOM     36  C   UNL A   1      46.184  28.377  28.094  1.00  0.00     0.010 A 
ATOM     37  C   UNL A   1      44.811  28.657  28.163  1.00  0.00    -0.014 A 
BRANCH  37  38
ATOM     38  C   UNL A   1      44.242  29.341  29.347  1.00  0.00     0.031 A 
ATOM     39  C   UNL A   1      43.893  30.796  29.344  1.00  0.00     0.074 A 
ATOM     40  C   UNL A   1      44.034  28.598  30.451  1.00  0.00     0.049 A 
ATOM     41  N   UNL A   1      43.281  31.489  30.273  1.00  0.00    -0.248 NA
ATOM     42  C   UNL A   1      44.274  31.578  28.160  1.00  0.00     0.031 C 
ATOM     43  C   UNL A   1      44.357  27.175  30.572  1.00  0.00     0.029 A 
ATOM     44  N   UNL A   1      43.491  28.924  31.667  1.00  0.00    -0.354 N 
ATOM     45  C   UNL A   1      43.182  32.782  29.780  1.00  0.00     0.074 A 
ATOM     46  C   UNL A   1      43.838  32.790  28.488  1.00  0.00     0.031 C 
ATOM     47  C   UNL A   1      43.977  26.743  31.782  1.00  0.00     0.029 A 
ATOM     48  C   UNL A   1      43.407  27.860  32.531  1.00  0.00     0.049 A 
ATOM     49  H   UNL A   1      43.190  29.833  31.899  1.00  0.00     0.167 HD
ATOM     50  C   UNL A   1      42.585  33.855  30.353  1.00  0.00     0.031 A 
ATOM     51  C   UNL A   1      42.916  27.780  33.781  1.00  0.00     0.031 A 
ATOM     52  C   UNL A   1      41.957  33.842  31.651  1.00  0.00     0.049 A 
ATOM     53  C   UNL A   1      42.298  28.995  34.407  1.00  0.00     0.074 A 
ATOM     54  C   UNL A   1      41.286  34.872  32.290  1.00  0.00     0.029 A 
ATOM     55  N   UNL A   1      41.935  32.758  32.517  1.00  0.00    -0.354 N 
ATOM     56  N   UNL A   1      42.134  30.190  33.895  1.00  0.00    -0.248 NA
ATOM     57  C   UNL A   1      41.781  28.849  35.775  1.00  0.00     0.031 C 
ATOM     58  C   UNL A   1      40.923  34.436  33.566  1.00  0.00     0.029 A 
ATOM     59  C   UNL A   1      41.297  33.109  33.695  1.00  0.00     0.049 A 
ATOM     60  H   UNL A   1      42.315  31.872  32.321  1.00  0.00     0.167 HD
ATOM     61  C   UNL A   1      41.476  30.932  34.866  1.00  0.00     0.074 A 
ATOM     62  C   UNL A   1      41.256  30.048  35.992  1.00  0.00     0.031 C 
ATOM     63  C   UNL A   1      41.089  32.230  34.821  1.00  0.00     0.031 A 
BRANCH  50  64
ATOM     64  C   UNL A   1      42.559  35.150  29.587  1.00  0.00    -0.014 A 
ATOM     65  C   UNL A   1      41.582  35.363  28.599  1.00  0.00     0.009 A 
ATOM     66  C   UNL A   1      43.578  36.100  29.745  1.00  0.00     0.009 A 
ATOM     67  C   UNL A   1      41.637  36.490  27.776  1.00  0.00     0.001 A 
ATOM     68  C   UNL A   1      43.617  37.240  28.938  1.00  0.00     0.001 A 
ATOM     69  C   UNL A   1      42.653  37.428  27.947  1.00  0.00     0.000 A 
ENDBRANCH  50  64
BRANCH  51  70
ATOM     70  C   UNL A   1      42.954  26.474  34.488  1.00  0.00    -0.014 A 
ATOM     71  C   UNL A   1      44.181  25.884  34.833  1.00  0.00     0.009 A 
ATOM     72  C   UNL A   1      41.766  25.778  34.759  1.00  0.00     0.009 A 
ATOM     73  C   UNL A   1      44.220  24.613  35.408  1.00  0.00     0.001 A 
ATOM     74  C   UNL A   1      41.808  24.519  35.362  1.00  0.00     0.001 A 
ATOM     75  C   UNL A   1      43.034  23.934  35.677  1.00  0.00     0.000 A 
ENDBRANCH  51  70
BRANCH  63  76
ATOM     76  C   UNL A   1      40.377  32.794  36.020  1.00  0.00    -0.014 A 
ATOM     77  C   UNL A   1      38.974  32.766  36.077  1.00  0.00     0.009 A 
ATOM     78  C   UNL A   1      41.083  33.443  37.044  1.00  0.00     0.009 A 
ATOM     79  C   UNL A   1      38.291  33.390  37.122  1.00  0.00     0.001 A 
ATOM     80  C   UNL A   1      40.399  34.040  38.106  1.00  0.00     0.001 A 
ATOM     81  C   UNL A   1      39.005  34.023  38.138  1.00  0.00     0.000 A 
ENDBRANCH  63  76
ENDBRANCH  37  38
ENDBRANCH  30  32
ENDBRANCH  29  30
ENDBRANCH  28  29
ENDBRANCH  27  28
ENDBRANCH  26  27
ENDBRANCH  25  26
ENDBRANCH   1  25
TORSDOF 22
ENDMDL
