MODEL 1
REMARK VINA RESULT:     -10.1      0.000      0.000
REMARK SMILES CC(C)(C)c1cc2c(cc1Cl)C=C(C(=O)OCCOCCOCCOCCOC(=O)c1ccc(-c3c4nc(c(-c5ccccc5)c5ccc([nH]5)c(-c5ccccc5)c5nc(c(-c6ccccc6)c6ccc3[nH]6)C=C5)C=C4)cc1)[C@@H](C(F)(F)F)O2
REMARK SMILES IDX 23 1 22 2 21 3 20 4 19 5 18 6 17 7 16 8 14 9 15 10 13 11
REMARK SMILES IDX 5 12 6 13 10 14 7 15 9 16 11 17 8 18 84 19 12 20 79 21 2 22
REMARK SMILES IDX 1 23 3 24 4 25 80 26 81 27 82 28 83 29 24 30 25 31 26 32
REMARK SMILES IDX 27 33 28 34 29 35 30 36 31 37 32 38 78 39 33 40 77 41 34 42
REMARK SMILES IDX 35 43 36 44 71 45 37 46 76 47 70 48 72 49 38 50 75 51 69 52
REMARK SMILES IDX 68 53 39 55 61 56 46 57 60 58 47 59 50 60 59 61 73 62 48 63
REMARK SMILES IDX 49 64 58 66 74 67 51 68 40 69 41 70 45 71 42 72 44 73 43 74
REMARK SMILES IDX 62 75 63 76 67 77 64 78 66 79 65 80 52 81 53 82 57 83 54 84
REMARK SMILES IDX 56 85 55 86
REMARK H PARENT 72 54 50 65
REMARK Flexibility Score: inf
ROOT
ATOM      1  C   UNL A   1      34.104  32.693  28.241  1.00  0.00     0.188 C 
ENDROOT
BRANCH   1   2
ATOM      2  O   UNL A   1      34.303  31.280  28.301  1.00  0.00    -0.377 OA
BRANCH   2   3
ATOM      3  C   UNL A   1      33.566  30.472  27.400  1.00  0.00     0.188 C 
BRANCH   3   4
ATOM      4  C   UNL A   1      33.526  28.989  27.812  1.00  0.00     0.188 C 
BRANCH   4   5
ATOM      5  O   UNL A   1      33.142  28.120  26.747  1.00  0.00    -0.376 OA
BRANCH   5   6
ATOM      6  C   UNL A   1      32.247  28.647  25.775  1.00  0.00     0.202 C 
BRANCH   6   7
ATOM      7  C   UNL A   1      32.559  28.314  24.308  1.00  0.00     0.261 C 
BRANCH   7   8
ATOM      8  O   UNL A   1      33.697  27.460  24.112  1.00  0.00    -0.460 OA
BRANCH   8   9
ATOM      9  C   UNL A   1      33.672  26.631  23.053  1.00  0.00     0.338 C 
ATOM     10  O   UNL A   1      33.918  26.917  21.894  1.00  0.00    -0.246 OA
BRANCH   9  11
ATOM     11  C   UNL A   1      33.458  25.258  23.554  1.00  0.00     0.087 C 
ATOM     12  C   UNL A   1      33.952  20.364  24.709  1.00  0.00    -0.020 A 
ATOM     13  C   UNL A   1      32.883  21.299  24.658  1.00  0.00     0.053 A 
ATOM     14  C   UNL A   1      35.248  20.914  24.641  1.00  0.00     0.045 A 
ATOM     15  C   UNL A   1      33.076  22.659  24.404  1.00  0.00     0.128 A 
ATOM     16  C   UNL A   1      35.439  22.283  24.378  1.00  0.00     0.032 A 
ATOM     17  Cl  UNL A   1      36.723  20.037  24.846  1.00  0.00    -0.084 Cl
ATOM     18  C   UNL A   1      34.356  23.143  24.196  1.00  0.00     0.019 A 
ATOM     19  O   UNL A   1      31.949  23.423  24.327  1.00  0.00    -0.475 OA
ATOM     20  C   UNL A   1      34.549  24.500  23.719  1.00  0.00     0.027 C 
ATOM     21  C   UNL A   1      32.064  24.816  23.922  1.00  0.00     0.316 C 
BRANCH  12  22
ATOM     22  C   UNL A   1      33.558  18.864  24.710  1.00  0.00    -0.012 C 
ATOM     23  C   UNL A   1      32.895  18.476  26.052  1.00  0.00     0.016 C 
ATOM     24  C   UNL A   1      34.670  17.825  24.466  1.00  0.00     0.016 C 
ATOM     25  C   UNL A   1      32.533  18.653  23.561  1.00  0.00     0.016 C 
ENDBRANCH  12  22
BRANCH  21  26
ATOM     26  C   UNL A   1      31.049  25.056  22.794  1.00  0.00     0.430 C 
ATOM     27  F   UNL A   1      30.040  24.151  22.844  1.00  0.00    -0.167 F 
ATOM     28  F   UNL A   1      30.474  26.278  22.872  1.00  0.00    -0.167 F 
ATOM     29  F   UNL A   1      31.622  24.956  21.574  1.00  0.00    -0.167 F 
ENDBRANCH  21  26
ENDBRANCH   9  11
ENDBRANCH   8   9
ENDBRANCH   7   8
ENDBRANCH   6   7
ENDBRANCH   5   6
ENDBRANCH   4   5
ENDBRANCH   3   4
ENDBRANCH   2   3
ENDBRANCH   1   2
BRANCH   1  30
ATOM     30  C   UNL A   1      35.282  33.691  28.312  1.00  0.00     0.188 C 
BRANCH  30  31
ATOM     31  O   UNL A   1      35.450  34.301  29.591  1.00  0.00    -0.376 OA
BRANCH  31  32
ATOM     32  C   UNL A   1      34.294  34.385  30.415  1.00  0.00     0.202 C 
BRANCH  32  33
ATOM     33  C   UNL A   1      34.523  33.879  31.843  1.00  0.00     0.261 C 
BRANCH  33  34
ATOM     34  O   UNL A   1      35.016  32.533  31.934  1.00  0.00    -0.460 OA
BRANCH  34  35
ATOM     35  C   UNL A   1      36.014  32.290  32.812  1.00  0.00     0.338 C 
ATOM     36  O   UNL A   1      35.992  32.455  34.018  1.00  0.00    -0.246 OA
BRANCH  35  37
ATOM     37  C   UNL A   1      37.086  31.583  32.080  1.00  0.00     0.060 A 
ATOM     38  C   UNL A   1      37.007  31.412  30.696  1.00  0.00     0.016 A 
ATOM     39  C   UNL A   1      38.168  31.060  32.800  1.00  0.00     0.016 A 
ATOM     40  C   UNL A   1      38.038  30.757  30.023  1.00  0.00     0.010 A 
ATOM     41  C   UNL A   1      39.198  30.398  32.126  1.00  0.00     0.010 A 
ATOM     42  C   UNL A   1      39.155  30.274  30.730  1.00  0.00    -0.014 A 
BRANCH  42  43
ATOM     43  C   UNL A   1      40.370  29.880  29.979  1.00  0.00     0.031 A 
ATOM     44  C   UNL A   1      41.539  30.794  29.788  1.00  0.00     0.074 A 
ATOM     45  C   UNL A   1      40.389  28.638  29.459  1.00  0.00     0.049 A 
ATOM     46  N   UNL A   1      42.704  30.521  29.258  1.00  0.00    -0.248 NA
ATOM     47  C   UNL A   1      41.387  32.184  30.238  1.00  0.00     0.031 C 
ATOM     48  C   UNL A   1      39.289  27.675  29.557  1.00  0.00     0.029 A 
ATOM     49  N   UNL A   1      41.361  27.967  28.763  1.00  0.00    -0.354 N 
ATOM     50  C   UNL A   1      43.439  31.697  29.327  1.00  0.00     0.074 A 
ATOM     51  C   UNL A   1      42.569  32.698  29.912  1.00  0.00     0.031 C 
ATOM     52  C   UNL A   1      39.659  26.528  28.973  1.00  0.00     0.029 A 
ATOM     53  C   UNL A   1      41.010  26.680  28.441  1.00  0.00     0.049 A 
ATOM     54  H   UNL A   1      42.226  28.369  28.520  1.00  0.00     0.167 HD
ATOM     55  C   UNL A   1      44.722  31.906  28.949  1.00  0.00     0.031 A 
ATOM     56  C   UNL A   1      41.696  25.717  27.799  1.00  0.00     0.031 A 
ATOM     57  C   UNL A   1      45.568  30.905  28.343  1.00  0.00     0.049 A 
ATOM     58  C   UNL A   1      43.104  25.989  27.361  1.00  0.00     0.074 A 
ATOM     59  C   UNL A   1      46.902  31.013  27.985  1.00  0.00     0.029 A 
ATOM     60  N   UNL A   1      45.163  29.628  27.986  1.00  0.00    -0.354 N 
ATOM     61  N   UNL A   1      43.821  27.074  27.527  1.00  0.00    -0.248 NA
ATOM     62  C   UNL A   1      43.805  24.902  26.666  1.00  0.00     0.031 C 
ATOM     63  C   UNL A   1      47.282  29.829  27.347  1.00  0.00     0.029 A 
ATOM     64  C   UNL A   1      46.208  28.955  27.372  1.00  0.00     0.049 A 
ATOM     65  H   UNL A   1      44.266  29.255  28.145  1.00  0.00     0.167 HD
ATOM     66  C   UNL A   1      45.060  26.798  26.967  1.00  0.00     0.074 A 
ATOM     67  C   UNL A   1      45.006  25.434  26.481  1.00  0.00     0.031 C 
ATOM     68  C   UNL A   1      46.142  27.607  26.864  1.00  0.00     0.031 A 
BRANCH  55  69
ATOM     69  C   UNL A   1      45.322  33.266  29.181  1.00  0.00    -0.014 A 
ATOM     70  C   UNL A   1      45.296  34.230  28.159  1.00  0.00     0.009 A 
ATOM     71  C   UNL A   1      46.035  33.547  30.358  1.00  0.00     0.009 A 
ATOM     72  C   UNL A   1      45.985  35.437  28.303  1.00  0.00     0.001 A 
ATOM     73  C   UNL A   1      46.701  34.766  30.509  1.00  0.00     0.001 A 
ATOM     74  C   UNL A   1      46.685  35.704  29.478  1.00  0.00     0.000 A 
ENDBRANCH  55  69
BRANCH  56  75
ATOM     75  C   UNL A   1      41.056  24.394  27.588  1.00  0.00    -0.014 A 
ATOM     76  C   UNL A   1      41.549  23.252  28.241  1.00  0.00     0.009 A 
ATOM     77  C   UNL A   1      40.001  24.254  26.676  1.00  0.00     0.009 A 
ATOM     78  C   UNL A   1      41.012  21.993  27.966  1.00  0.00     0.001 A 
ATOM     79  C   UNL A   1      39.447  22.996  26.426  1.00  0.00     0.001 A 
ATOM     80  C   UNL A   1      39.959  21.867  27.062  1.00  0.00     0.000 A 
ENDBRANCH  56  75
BRANCH  68  81
ATOM     81  C   UNL A   1      47.364  27.052  26.185  1.00  0.00    -0.014 A 
ATOM     82  C   UNL A   1      48.313  26.329  26.926  1.00  0.00     0.009 A 
ATOM     83  C   UNL A   1      47.615  27.308  24.828  1.00  0.00     0.009 A 
ATOM     84  C   UNL A   1      49.493  25.886  26.325  1.00  0.00     0.001 A 
ATOM     85  C   UNL A   1      48.781  26.836  24.222  1.00  0.00     0.001 A 
ATOM     86  C   UNL A   1      49.724  26.134  24.973  1.00  0.00     0.000 A 
ENDBRANCH  68  81
ENDBRANCH  42  43
ENDBRANCH  35  37
ENDBRANCH  34  35
ENDBRANCH  33  34
ENDBRANCH  32  33
ENDBRANCH  31  32
ENDBRANCH  30  31
ENDBRANCH   1  30
TORSDOF 22
ENDMDL
MODEL 2
REMARK VINA RESULT:      -9.1      3.543      8.054
REMARK SMILES CC(C)(C)c1cc2c(cc1Cl)C=C(C(=O)OCCOCCOCCOCCOC(=O)c1ccc(-c3c4nc(c(-c5ccccc5)c5ccc([nH]5)c(-c5ccccc5)c5nc(c(-c6ccccc6)c6ccc3[nH]6)C=C5)C=C4)cc1)[C@@H](C(F)(F)F)O2
REMARK SMILES IDX 23 1 22 2 21 3 20 4 19 5 18 6 17 7 16 8 14 9 15 10 13 11
REMARK SMILES IDX 5 12 6 13 10 14 7 15 9 16 11 17 8 18 84 19 12 20 79 21 2 22
REMARK SMILES IDX 1 23 3 24 4 25 80 26 81 27 82 28 83 29 24 30 25 31 26 32
REMARK SMILES IDX 27 33 28 34 29 35 30 36 31 37 32 38 78 39 33 40 77 41 34 42
REMARK SMILES IDX 35 43 36 44 71 45 37 46 76 47 70 48 72 49 38 50 75 51 69 52
REMARK SMILES IDX 68 53 39 55 61 56 46 57 60 58 47 59 50 60 59 61 73 62 48 63
REMARK SMILES IDX 49 64 58 66 74 67 51 68 40 69 41 70 45 71 42 72 44 73 43 74
REMARK SMILES IDX 62 75 63 76 67 77 64 78 66 79 65 80 52 81 53 82 57 83 54 84
REMARK SMILES IDX 56 85 55 86
REMARK H PARENT 72 54 50 65
REMARK Flexibility Score: inf
ROOT
ATOM      1  C   UNL A   1      38.359  28.071  28.673  1.00  0.00     0.188 C 
ENDROOT
BRANCH   1   2
ATOM      2  O   UNL A   1      37.898  29.296  29.243  1.00  0.00    -0.377 OA
BRANCH   2   3
ATOM      3  C   UNL A   1      37.442  30.305  28.357  1.00  0.00     0.188 C 
BRANCH   3   4
ATOM      4  C   UNL A   1      35.944  30.620  28.521  1.00  0.00     0.188 C 
BRANCH   4   5
ATOM      5  O   UNL A   1      35.100  29.745  27.774  1.00  0.00    -0.376 OA
BRANCH   5   6
ATOM      6  C   UNL A   1      33.829  30.252  27.384  1.00  0.00     0.202 C 
BRANCH   6   7
ATOM      7  C   UNL A   1      33.290  29.772  26.028  1.00  0.00     0.261 C 
BRANCH   7   8
ATOM      8  O   UNL A   1      31.968  29.213  26.069  1.00  0.00    -0.460 OA
BRANCH   8   9
ATOM      9  C   UNL A   1      31.485  28.684  24.930  1.00  0.00     0.338 C 
ATOM     10  O   UNL A   1      30.665  29.185  24.180  1.00  0.00    -0.246 OA
BRANCH   9  11
ATOM     11  C   UNL A   1      32.246  27.450  24.642  1.00  0.00     0.087 C 
ATOM     12  C   UNL A   1      34.982  23.220  25.019  1.00  0.00    -0.020 A 
ATOM     13  C   UNL A   1      34.637  24.124  23.978  1.00  0.00     0.053 A 
ATOM     14  C   UNL A   1      34.246  23.352  26.213  1.00  0.00     0.045 A 
ATOM     15  C   UNL A   1      33.740  25.180  24.157  1.00  0.00     0.128 A 
ATOM     16  C   UNL A   1      33.347  24.421  26.393  1.00  0.00     0.032 A 
ATOM     17  Cl  UNL A   1      34.336  22.289  27.572  1.00  0.00    -0.084 Cl
ATOM     18  C   UNL A   1      33.142  25.370  25.392  1.00  0.00     0.019 A 
ATOM     19  O   UNL A   1      33.554  26.000  23.085  1.00  0.00    -0.475 OA
ATOM     20  C   UNL A   1      32.385  26.580  25.650  1.00  0.00     0.027 C 
ATOM     21  C   UNL A   1      32.747  27.201  23.243  1.00  0.00     0.316 C 
BRANCH  12  22
ATOM     22  C   UNL A   1      36.196  22.292  24.753  1.00  0.00    -0.012 C 
ATOM     23  C   UNL A   1      35.775  20.806  24.837  1.00  0.00     0.016 C 
ATOM     24  C   UNL A   1      37.431  22.438  25.663  1.00  0.00     0.016 C 
ATOM     25  C   UNL A   1      36.702  22.591  23.314  1.00  0.00     0.016 C 
ENDBRANCH  12  22
BRANCH  21  26
ATOM     26  C   UNL A   1      33.559  28.381  22.685  1.00  0.00     0.430 C 
ATOM     27  F   UNL A   1      34.504  28.785  23.568  1.00  0.00    -0.167 F 
ATOM     28  F   UNL A   1      34.210  28.061  21.543  1.00  0.00    -0.167 F 
ATOM     29  F   UNL A   1      32.772  29.448  22.416  1.00  0.00    -0.167 F 
ENDBRANCH  21  26
ENDBRANCH   9  11
ENDBRANCH   8   9
ENDBRANCH   7   8
ENDBRANCH   6   7
ENDBRANCH   5   6
ENDBRANCH   4   5
ENDBRANCH   3   4
ENDBRANCH   2   3
ENDBRANCH   1   2
BRANCH   1  30
ATOM     30  C   UNL A   1      39.748  27.481  29.010  1.00  0.00     0.188 C 
BRANCH  30  31
ATOM     31  O   UNL A   1      40.214  26.517  28.067  1.00  0.00    -0.376 OA
BRANCH  31  32
ATOM     32  C   UNL A   1      39.657  25.212  28.160  1.00  0.00     0.202 C 
BRANCH  32  33
ATOM     33  C   UNL A   1      40.260  24.218  27.161  1.00  0.00     0.261 C 
BRANCH  33  34
ATOM     34  O   UNL A   1      41.467  23.578  27.602  1.00  0.00    -0.460 OA
BRANCH  34  35
ATOM     35  C   UNL A   1      42.466  23.438  26.704  1.00  0.00     0.338 C 
ATOM     36  O   UNL A   1      42.615  22.536  25.900  1.00  0.00    -0.246 OA
BRANCH  35  37
ATOM     37  C   UNL A   1      43.250  24.691  26.714  1.00  0.00     0.060 A 
ATOM     38  C   UNL A   1      43.652  25.266  27.923  1.00  0.00     0.016 A 
ATOM     39  C   UNL A   1      43.559  25.310  25.496  1.00  0.00     0.016 A 
ATOM     40  C   UNL A   1      44.406  26.440  27.910  1.00  0.00     0.010 A 
ATOM     41  C   UNL A   1      44.309  26.488  25.484  1.00  0.00     0.010 A 
ATOM     42  C   UNL A   1      44.766  27.040  26.689  1.00  0.00    -0.014 A 
BRANCH  42  43
ATOM     43  C   UNL A   1      45.821  28.081  26.680  1.00  0.00     0.031 A 
ATOM     44  C   UNL A   1      47.279  27.758  26.589  1.00  0.00     0.074 A 
ATOM     45  C   UNL A   1      45.414  29.362  26.759  1.00  0.00     0.049 A 
ATOM     46  N   UNL A   1      48.286  28.583  26.448  1.00  0.00    -0.248 NA
ATOM     47  C   UNL A   1      47.662  26.342  26.671  1.00  0.00     0.031 C 
ATOM     48  C   UNL A   1      44.018  29.787  26.885  1.00  0.00     0.029 A 
ATOM     49  N   UNL A   1      46.122  30.535  26.731  1.00  0.00    -0.354 N 
ATOM     50  C   UNL A   1      49.424  27.791  26.402  1.00  0.00     0.074 A 
ATOM     51  C   UNL A   1      48.986  26.420  26.574  1.00  0.00     0.031 C 
ATOM     52  C   UNL A   1      43.969  31.126  26.891  1.00  0.00     0.029 A 
ATOM     53  C   UNL A   1      45.327  31.653  26.792  1.00  0.00     0.049 A 
ATOM     54  H   UNL A   1      47.104  30.573  26.672  1.00  0.00     0.167 HD
ATOM     55  C   UNL A   1      50.708  28.180  26.218  1.00  0.00     0.031 A 
ATOM     56  C   UNL A   1      45.644  32.959  26.760  1.00  0.00     0.031 A 
ATOM     57  C   UNL A   1      51.133  29.552  26.075  1.00  0.00     0.049 A 
ATOM     58  C   UNL A   1      47.079  33.361  26.590  1.00  0.00     0.074 A 
ATOM     59  C   UNL A   1      52.408  30.033  25.822  1.00  0.00     0.029 A 
ATOM     60  N   UNL A   1      50.307  30.659  26.192  1.00  0.00    -0.354 N 
ATOM     61  N   UNL A   1      48.134  32.595  26.443  1.00  0.00    -0.248 NA
ATOM     62  C   UNL A   1      47.367  34.800  26.562  1.00  0.00     0.031 C 
ATOM     63  C   UNL A   1      52.366  31.429  25.859  1.00  0.00     0.029 A 
ATOM     64  C   UNL A   1      51.052  31.822  26.061  1.00  0.00     0.049 A 
ATOM     65  H   UNL A   1      49.335  30.625  26.345  1.00  0.00     0.167 HD
ATOM     66  C   UNL A   1      49.210  33.460  26.295  1.00  0.00     0.074 A 
ATOM     67  C   UNL A   1      48.676  34.806  26.342  1.00  0.00     0.031 C 
ATOM     68  C   UNL A   1      50.522  33.160  26.137  1.00  0.00     0.031 A 
BRANCH  55  69
ATOM     69  C   UNL A   1      51.772  27.118  26.145  1.00  0.00    -0.014 A 
ATOM     70  C   UNL A   1      51.888  26.316  24.997  1.00  0.00     0.009 A 
ATOM     71  C   UNL A   1      52.567  26.818  27.262  1.00  0.00     0.009 A 
ATOM     72  C   UNL A   1      52.762  25.227  24.976  1.00  0.00     0.001 A 
ATOM     73  C   UNL A   1      53.460  25.744  27.230  1.00  0.00     0.001 A 
ATOM     74  C   UNL A   1      53.549  24.943  26.092  1.00  0.00     0.000 A 
ENDBRANCH  55  69
BRANCH  56  75
ATOM     75  C   UNL A   1      44.558  33.968  26.843  1.00  0.00    -0.014 A 
ATOM     76  C   UNL A   1      44.129  34.451  28.091  1.00  0.00     0.009 A 
ATOM     77  C   UNL A   1      43.897  34.396  25.684  1.00  0.00     0.009 A 
ATOM     78  C   UNL A   1      43.043  35.323  28.176  1.00  0.00     0.001 A 
ATOM     79  C   UNL A   1      42.828  35.292  25.772  1.00  0.00     0.001 A 
ATOM     80  C   UNL A   1      42.396  35.746  27.016  1.00  0.00     0.000 A 
ENDBRANCH  56  75
BRANCH  68  81
ATOM     81  C   UNL A   1      51.488  34.306  26.017  1.00  0.00    -0.014 A 
ATOM     82  C   UNL A   1      52.082  34.849  27.168  1.00  0.00     0.009 A 
ATOM     83  C   UNL A   1      51.753  34.900  24.773  1.00  0.00     0.009 A 
ATOM     84  C   UNL A   1      52.910  35.969  27.077  1.00  0.00     0.001 A 
ATOM     85  C   UNL A   1      52.608  36.000  24.681  1.00  0.00     0.001 A 
ATOM     86  C   UNL A   1      53.178  36.540  25.834  1.00  0.00     0.000 A 
ENDBRANCH  68  81
ENDBRANCH  42  43
ENDBRANCH  35  37
ENDBRANCH  34  35
ENDBRANCH  33  34
ENDBRANCH  32  33
ENDBRANCH  31  32
ENDBRANCH  30  31
ENDBRANCH   1  30
TORSDOF 22
ENDMDL
MODEL 3
REMARK VINA RESULT:      -9.0      3.454      7.998
REMARK SMILES CC(C)(C)c1cc2c(cc1Cl)C=C(C(=O)OCCOCCOCCOCCOC(=O)c1ccc(-c3c4nc(c(-c5ccccc5)c5ccc([nH]5)c(-c5ccccc5)c5nc(c(-c6ccccc6)c6ccc3[nH]6)C=C5)C=C4)cc1)[C@@H](C(F)(F)F)O2
REMARK SMILES IDX 23 1 22 2 21 3 20 4 19 5 18 6 17 7 16 8 14 9 15 10 13 11
REMARK SMILES IDX 5 12 6 13 10 14 7 15 9 16 11 17 8 18 84 19 12 20 79 21 2 22
REMARK SMILES IDX 1 23 3 24 4 25 80 26 81 27 82 28 83 29 24 30 25 31 26 32
REMARK SMILES IDX 27 33 28 34 29 35 30 36 31 37 32 38 78 39 33 40 77 41 34 42
REMARK SMILES IDX 35 43 36 44 71 45 37 46 76 47 70 48 72 49 38 50 75 51 69 52
REMARK SMILES IDX 68 53 39 55 61 56 46 57 60 58 47 59 50 60 59 61 73 62 48 63
REMARK SMILES IDX 49 64 58 66 74 67 51 68 40 69 41 70 45 71 42 72 44 73 43 74
REMARK SMILES IDX 62 75 63 76 67 77 64 78 66 79 65 80 52 81 53 82 57 83 54 84
REMARK SMILES IDX 56 85 55 86
REMARK H PARENT 72 54 50 65
REMARK Flexibility Score: inf
ROOT
ATOM      1  C   UNL A   1      39.184  27.582  28.607  1.00  0.00     0.188 C 
ENDROOT
BRANCH   1   2
ATOM      2  O   UNL A   1      39.133  29.009  28.579  1.00  0.00    -0.377 OA
BRANCH   2   3
ATOM      3  C   UNL A   1      38.223  29.617  27.678  1.00  0.00     0.188 C 
BRANCH   3   4
ATOM      4  C   UNL A   1      36.756  29.499  28.129  1.00  0.00     0.188 C 
BRANCH   4   5
ATOM      5  O   UNL A   1      35.829  29.547  27.045  1.00  0.00    -0.376 OA
BRANCH   5   6
ATOM      6  C   UNL A   1      34.544  28.979  27.269  1.00  0.00     0.202 C 
BRANCH   6   7
ATOM      7  C   UNL A   1      33.544  29.071  26.107  1.00  0.00     0.261 C 
BRANCH   7   8
ATOM      8  O   UNL A   1      32.953  27.822  25.719  1.00  0.00    -0.460 OA
BRANCH   8   9
ATOM      9  C   UNL A   1      33.481  27.193  24.653  1.00  0.00     0.338 C 
ATOM     10  O   UNL A   1      34.137  27.695  23.757  1.00  0.00    -0.246 OA
BRANCH   9  11
ATOM     11  C   UNL A   1      33.275  25.741  24.833  1.00  0.00     0.087 C 
ATOM     12  C   UNL A   1      33.820  20.718  24.903  1.00  0.00    -0.020 A 
ATOM     13  C   UNL A   1      32.736  21.630  25.021  1.00  0.00     0.053 A 
ATOM     14  C   UNL A   1      35.108  21.283  25.003  1.00  0.00     0.045 A 
ATOM     15  C   UNL A   1      32.913  23.015  25.078  1.00  0.00     0.128 A 
ATOM     16  C   UNL A   1      35.283  22.679  25.054  1.00  0.00     0.032 A 
ATOM     17  Cl  UNL A   1      36.591  20.398  25.063  1.00  0.00    -0.084 Cl
ATOM     18  C   UNL A   1      34.191  23.546  25.027  1.00  0.00     0.019 A 
ATOM     19  O   UNL A   1      31.776  23.765  25.130  1.00  0.00    -0.475 OA
ATOM     20  C   UNL A   1      34.374  24.976  24.866  1.00  0.00     0.027 C 
ATOM     21  C   UNL A   1      31.879  25.214  25.046  1.00  0.00     0.316 C 
BRANCH  12  22
ATOM     22  C   UNL A   1      33.454  19.251  24.561  1.00  0.00    -0.012 C 
ATOM     23  C   UNL A   1      34.730  18.416  24.305  1.00  0.00     0.016 C 
ATOM     24  C   UNL A   1      32.529  18.999  23.353  1.00  0.00     0.016 C 
ATOM     25  C   UNL A   1      32.704  18.662  25.788  1.00  0.00     0.016 C 
ENDBRANCH  12  22
BRANCH  21  26
ATOM     26  C   UNL A   1      30.896  25.685  23.963  1.00  0.00     0.430 C 
ATOM     27  F   UNL A   1      31.536  25.923  22.791  1.00  0.00    -0.167 F 
ATOM     28  F   UNL A   1      29.941  24.764  23.700  1.00  0.00    -0.167 F 
ATOM     29  F   UNL A   1      30.267  26.828  24.320  1.00  0.00    -0.167 F 
ENDBRANCH  21  26
ENDBRANCH   9  11
ENDBRANCH   8   9
ENDBRANCH   7   8
ENDBRANCH   6   7
ENDBRANCH   5   6
ENDBRANCH   4   5
ENDBRANCH   3   4
ENDBRANCH   2   3
ENDBRANCH   1   2
BRANCH   1  30
ATOM     30  C   UNL A   1      40.088  26.774  27.647  1.00  0.00     0.188 C 
BRANCH  30  31
ATOM     31  O   UNL A   1      39.497  25.565  27.174  1.00  0.00    -0.376 OA
BRANCH  31  32
ATOM     32  C   UNL A   1      39.828  24.375  27.878  1.00  0.00     0.202 C 
BRANCH  32  33
ATOM     33  C   UNL A   1      40.383  23.266  26.977  1.00  0.00     0.261 C 
BRANCH  33  34
ATOM     34  O   UNL A   1      41.500  23.653  26.162  1.00  0.00    -0.460 OA
BRANCH  34  35
ATOM     35  C   UNL A   1      42.738  23.385  26.630  1.00  0.00     0.338 C 
ATOM     36  O   UNL A   1      43.223  22.290  26.849  1.00  0.00    -0.246 OA
BRANCH  35  37
ATOM     37  C   UNL A   1      43.495  24.655  26.636  1.00  0.00     0.060 A 
ATOM     38  C   UNL A   1      43.891  25.239  27.842  1.00  0.00     0.016 A 
ATOM     39  C   UNL A   1      43.782  25.280  25.416  1.00  0.00     0.016 A 
ATOM     40  C   UNL A   1      44.619  26.429  27.824  1.00  0.00     0.010 A 
ATOM     41  C   UNL A   1      44.506  26.475  25.399  1.00  0.00     0.010 A 
ATOM     42  C   UNL A   1      44.958  27.037  26.601  1.00  0.00    -0.014 A 
BRANCH  42  43
ATOM     43  C   UNL A   1      45.989  28.101  26.585  1.00  0.00     0.031 A 
ATOM     44  C   UNL A   1      47.453  27.811  26.470  1.00  0.00     0.074 A 
ATOM     45  C   UNL A   1      45.556  29.372  26.681  1.00  0.00     0.049 A 
ATOM     46  N   UNL A   1      48.439  28.659  26.321  1.00  0.00    -0.248 NA
ATOM     47  C   UNL A   1      47.868  26.403  26.533  1.00  0.00     0.031 C 
ATOM     48  C   UNL A   1      44.153  29.765  26.832  1.00  0.00     0.029 A 
ATOM     49  N   UNL A   1      46.238  30.560  26.653  1.00  0.00    -0.354 N 
ATOM     50  C   UNL A   1      49.594  27.893  26.251  1.00  0.00     0.074 A 
ATOM     51  C   UNL A   1      49.188  26.512  26.418  1.00  0.00     0.031 C 
ATOM     52  C   UNL A   1      44.075  31.103  26.851  1.00  0.00     0.029 A 
ATOM     53  C   UNL A   1      45.419  31.660  26.737  1.00  0.00     0.049 A 
ATOM     54  H   UNL A   1      47.217  30.620  26.580  1.00  0.00     0.167 HD
ATOM     55  C   UNL A   1      50.866  28.311  26.051  1.00  0.00     0.031 A 
ATOM     56  C   UNL A   1      45.707  32.973  26.711  1.00  0.00     0.031 A 
ATOM     57  C   UNL A   1      51.259  29.694  25.914  1.00  0.00     0.049 A 
ATOM     58  C   UNL A   1      47.130  33.408  26.523  1.00  0.00     0.074 A 
ATOM     59  C   UNL A   1      52.518  30.205  25.646  1.00  0.00     0.029 A 
ATOM     60  N   UNL A   1      50.410  30.782  26.053  1.00  0.00    -0.354 N 
ATOM     61  N   UNL A   1      48.199  32.667  26.354  1.00  0.00    -0.248 NA
ATOM     62  C   UNL A   1      47.386  34.853  26.504  1.00  0.00     0.031 C 
ATOM     63  C   UNL A   1      52.446  31.600  25.697  1.00  0.00     0.029 A 
ATOM     64  C   UNL A   1      51.127  31.961  25.922  1.00  0.00     0.049 A 
ATOM     65  H   UNL A   1      49.441  30.725  26.221  1.00  0.00     0.167 HD
ATOM     66  C   UNL A   1      49.253  33.556  26.198  1.00  0.00     0.074 A 
ATOM     67  C   UNL A   1      48.691  34.890  26.264  1.00  0.00     0.031 C 
ATOM     68  C   UNL A   1      50.569  33.287  26.017  1.00  0.00     0.031 A 
BRANCH  55  69
ATOM     69  C   UNL A   1      51.952  27.274  25.953  1.00  0.00    -0.014 A 
ATOM     70  C   UNL A   1      52.217  26.649  24.723  1.00  0.00     0.009 A 
ATOM     71  C   UNL A   1      52.615  26.816  27.102  1.00  0.00     0.009 A 
ATOM     72  C   UNL A   1      53.110  25.577  24.649  1.00  0.00     0.001 A 
ATOM     73  C   UNL A   1      53.526  25.760  27.021  1.00  0.00     0.001 A 
ATOM     74  C   UNL A   1      53.765  25.135  25.798  1.00  0.00     0.000 A 
ENDBRANCH  55  69
BRANCH  56  75
ATOM     75  C   UNL A   1      44.600  33.957  26.820  1.00  0.00    -0.014 A 
ATOM     76  C   UNL A   1      44.181  34.422  28.078  1.00  0.00     0.009 A 
ATOM     77  C   UNL A   1      43.911  34.379  25.675  1.00  0.00     0.009 A 
ATOM     78  C   UNL A   1      43.077  35.268  28.187  1.00  0.00     0.001 A 
ATOM     79  C   UNL A   1      42.824  35.250  25.786  1.00  0.00     0.001 A 
ATOM     80  C   UNL A   1      42.402  35.685  27.042  1.00  0.00     0.000 A 
ENDBRANCH  56  75
BRANCH  68  81
ATOM     81  C   UNL A   1      51.508  34.455  25.893  1.00  0.00    -0.014 A 
ATOM     82  C   UNL A   1      51.683  35.089  24.653  1.00  0.00     0.009 A 
ATOM     83  C   UNL A   1      52.278  34.882  26.987  1.00  0.00     0.009 A 
ATOM     84  C   UNL A   1      52.617  36.116  24.507  1.00  0.00     0.001 A 
ATOM     85  C   UNL A   1      53.189  35.931  26.846  1.00  0.00     0.001 A 
ATOM     86  C   UNL A   1      53.365  36.540  25.603  1.00  0.00     0.000 A 
ENDBRANCH  68  81
ENDBRANCH  42  43
ENDBRANCH  35  37
ENDBRANCH  34  35
ENDBRANCH  33  34
ENDBRANCH  32  33
ENDBRANCH  31  32
ENDBRANCH  30  31
ENDBRANCH   1  30
TORSDOF 22
ENDMDL
