MODEL 1
REMARK VINA RESULT:      -8.8      0.000      0.000
REMARK SMILES COCCCC(=O)N1CCCC[C@@H]1CCC(=O)OCCOCCOCCOCCOC(=O)c1ccc(-c2c3nc(c(-c4ccccc4)c4ccc([nH]4)c(-c4ccccc4)c4nc(c(-c5ccccc5)c5ccc2[nH]5)C=C4)C=C3)cc1
REMARK SMILES IDX 22 1 21 2 20 3 19 4 18 5 16 6 17 7 15 8 14 9 13 10 8 11 9 12
REMARK SMILES IDX 10 13 12 14 11 15 6 16 7 17 5 18 4 19 3 20 2 21 1 22 23 23
REMARK SMILES IDX 24 24 25 25 26 26 27 27 28 28 29 29 30 30 31 31 32 32 33 33
REMARK SMILES IDX 34 34 80 35 35 36 79 37 36 38 37 39 38 40 73 41 39 42 78 43
REMARK SMILES IDX 72 44 74 45 40 46 77 47 71 48 70 49 41 51 63 52 48 53 62 54
REMARK SMILES IDX 49 55 52 56 61 57 75 58 50 59 51 60 60 62 76 63 53 64 42 65
REMARK SMILES IDX 43 66 47 67 44 68 46 69 45 70 64 71 65 72 69 73 66 74 68 75
REMARK SMILES IDX 67 76 54 77 55 78 59 79 56 80 58 81 57 82
REMARK H PARENT 74 50 52 61
REMARK Flexibility Score: inf
ROOT
ATOM      1  C   UNL A   1      41.483  20.159  26.808  1.00  0.00     0.188 C 
ENDROOT
BRANCH   1   2
ATOM      2  O   UNL A   1      40.804  21.138  26.012  1.00  0.00    -0.376 OA
BRANCH   2   3
ATOM      3  C   UNL A   1      39.737  21.844  26.631  1.00  0.00     0.202 C 
BRANCH   3   4
ATOM      4  C   UNL A   1      38.572  22.304  25.741  1.00  0.00     0.261 C 
BRANCH   4   5
ATOM      5  O   UNL A   1      37.427  21.433  25.717  1.00  0.00    -0.463 OA
BRANCH   5   6
ATOM      6  C   UNL A   1      36.223  22.059  25.710  1.00  0.00     0.305 C 
ATOM      7  O   UNL A   1      35.326  21.848  26.520  1.00  0.00    -0.252 OA
BRANCH   6   8
ATOM      8  C   UNL A   1      36.102  23.151  24.667  1.00  0.00     0.125 C 
BRANCH   8   9
ATOM      9  C   UNL A   1      34.974  23.210  23.622  1.00  0.00     0.037 C 
BRANCH   9  10
ATOM     10  C   UNL A   1      33.655  23.909  23.966  1.00  0.00     0.085 C 
ATOM     11  N   UNL A   1      32.452  23.033  24.107  1.00  0.00    -0.340 N 
ATOM     12  C   UNL A   1      31.188  23.758  24.280  1.00  0.00     0.120 C 
ATOM     13  C   UNL A   1      30.922  24.728  23.142  1.00  0.00     0.022 C 
ATOM     14  C   UNL A   1      33.396  24.960  22.857  1.00  0.00     0.025 C 
ATOM     15  C   UNL A   1      32.079  25.709  23.027  1.00  0.00     0.004 C 
BRANCH  11  16
ATOM     16  C   UNL A   1      32.331  21.672  23.929  1.00  0.00     0.222 C 
ATOM     17  O   UNL A   1      32.034  21.241  22.802  1.00  0.00    -0.275 OA
BRANCH  16  18
ATOM     18  C   UNL A   1      32.163  20.668  25.083  1.00  0.00     0.102 C 
BRANCH  18  19
ATOM     19  C   UNL A   1      32.893  19.366  25.360  1.00  0.00     0.038 C 
BRANCH  19  20
ATOM     20  C   UNL A   1      34.100  18.983  24.518  1.00  0.00     0.160 C 
BRANCH  20  21
ATOM     21  O   UNL A   1      34.053  17.696  23.935  1.00  0.00    -0.385 OA
ATOM     22  C   UNL A   1      34.754  16.672  24.607  1.00  0.00     0.194 C 
ENDBRANCH  20  21
ENDBRANCH  19  20
ENDBRANCH  18  19
ENDBRANCH  16  18
ENDBRANCH  11  16
ENDBRANCH   9  10
ENDBRANCH   8   9
ENDBRANCH   6   8
ENDBRANCH   5   6
ENDBRANCH   4   5
ENDBRANCH   3   4
ENDBRANCH   2   3
ENDBRANCH   1   2
BRANCH   1  23
ATOM     23  C   UNL A   1      41.997  18.921  26.059  1.00  0.00     0.188 C 
BRANCH  23  24
ATOM     24  O   UNL A   1      43.357  18.706  26.421  1.00  0.00    -0.377 OA
BRANCH  24  25
ATOM     25  C   UNL A   1      44.298  18.594  25.364  1.00  0.00     0.188 C 
BRANCH  25  26
ATOM     26  C   UNL A   1      45.147  19.825  25.020  1.00  0.00     0.188 C 
BRANCH  26  27
ATOM     27  O   UNL A   1      44.875  20.538  23.818  1.00  0.00    -0.376 OA
BRANCH  27  28
ATOM     28  C   UNL A   1      44.757  21.950  23.913  1.00  0.00     0.202 C 
BRANCH  28  29
ATOM     29  C   UNL A   1      43.989  22.478  25.127  1.00  0.00     0.261 C 
BRANCH  29  30
ATOM     30  O   UNL A   1      43.280  23.682  24.784  1.00  0.00    -0.460 OA
BRANCH  30  31
ATOM     31  C   UNL A   1      43.890  24.839  25.111  1.00  0.00     0.338 C 
ATOM     32  O   UNL A   1      44.939  25.272  24.665  1.00  0.00    -0.246 OA
BRANCH  31  33
ATOM     33  C   UNL A   1      42.979  25.643  25.952  1.00  0.00     0.060 A 
ATOM     34  C   UNL A   1      43.209  27.024  26.001  1.00  0.00     0.016 A 
ATOM     35  C   UNL A   1      41.957  25.067  26.714  1.00  0.00     0.016 A 
ATOM     36  C   UNL A   1      42.466  27.828  26.857  1.00  0.00     0.010 A 
ATOM     37  C   UNL A   1      41.223  25.873  27.591  1.00  0.00     0.010 A 
ATOM     38  C   UNL A   1      41.514  27.245  27.702  1.00  0.00    -0.014 A 
BRANCH  38  39
ATOM     39  C   UNL A   1      41.050  28.020  28.875  1.00  0.00     0.031 A 
ATOM     40  C   UNL A   1      41.836  27.894  30.153  1.00  0.00     0.074 A 
ATOM     41  C   UNL A   1      40.017  28.876  28.796  1.00  0.00     0.049 A 
ATOM     42  N   UNL A   1      41.653  28.483  31.306  1.00  0.00    -0.248 NA
ATOM     43  C   UNL A   1      42.996  26.986  30.118  1.00  0.00     0.031 C 
ATOM     44  C   UNL A   1      39.233  29.151  27.596  1.00  0.00     0.029 A 
ATOM     45  N   UNL A   1      39.466  29.684  29.757  1.00  0.00    -0.354 N 
ATOM     46  C   UNL A   1      42.668  28.014  32.132  1.00  0.00     0.074 A 
ATOM     47  C   UNL A   1      43.441  27.066  31.360  1.00  0.00     0.031 C 
ATOM     48  C   UNL A   1      38.299  30.072  27.891  1.00  0.00     0.029 A 
ATOM     49  C   UNL A   1      38.401  30.423  29.307  1.00  0.00     0.049 A 
ATOM     50  H   UNL A   1      39.801  29.729  30.681  1.00  0.00     0.167 HD
ATOM     51  C   UNL A   1      42.943  28.347  33.415  1.00  0.00     0.031 A 
ATOM     52  C   UNL A   1      37.596  31.275  29.971  1.00  0.00     0.031 A 
ATOM     53  C   UNL A   1      42.157  29.265  34.192  1.00  0.00     0.049 A 
ATOM     54  C   UNL A   1      37.841  31.531  31.436  1.00  0.00     0.074 A 
ATOM     55  C   UNL A   1      42.337  29.659  35.506  1.00  0.00     0.029 A 
ATOM     56  N   UNL A   1      41.029  29.923  33.725  1.00  0.00    -0.354 N 
ATOM     57  N   UNL A   1      38.805  31.086  32.206  1.00  0.00    -0.248 NA
ATOM     58  C   UNL A   1      36.883  32.413  32.120  1.00  0.00     0.031 C 
ATOM     59  C   UNL A   1      41.281  30.509  35.852  1.00  0.00     0.029 A 
ATOM     60  C   UNL A   1      40.484  30.697  34.734  1.00  0.00     0.049 A 
ATOM     61  H   UNL A   1      40.671  29.850  32.811  1.00  0.00     0.167 HD
ATOM     62  C   UNL A   1      38.590  31.660  33.455  1.00  0.00     0.074 A 
ATOM     63  C   UNL A   1      37.410  32.493  33.334  1.00  0.00     0.031 C 
ATOM     64  C   UNL A   1      39.307  31.518  34.596  1.00  0.00     0.031 A 
BRANCH  51  65
ATOM     65  C   UNL A   1      44.116  27.661  34.060  1.00  0.00    -0.014 A 
ATOM     66  C   UNL A   1      45.403  28.223  34.024  1.00  0.00     0.009 A 
ATOM     67  C   UNL A   1      43.932  26.426  34.698  1.00  0.00     0.009 A 
ATOM     68  C   UNL A   1      46.489  27.536  34.571  1.00  0.00     0.001 A 
ATOM     69  C   UNL A   1      45.014  25.757  35.274  1.00  0.00     0.001 A 
ATOM     70  C   UNL A   1      46.294  26.306  35.197  1.00  0.00     0.000 A 
ENDBRANCH  51  65
BRANCH  52  71
ATOM     71  C   UNL A   1      36.474  31.948  29.264  1.00  0.00    -0.014 A 
ATOM     72  C   UNL A   1      36.597  33.277  28.832  1.00  0.00     0.009 A 
ATOM     73  C   UNL A   1      35.265  31.270  29.036  1.00  0.00     0.009 A 
ATOM     74  C   UNL A   1      35.526  33.920  28.206  1.00  0.00     0.001 A 
ATOM     75  C   UNL A   1      34.207  31.907  28.385  1.00  0.00     0.001 A 
ATOM     76  C   UNL A   1      34.335  33.233  27.978  1.00  0.00     0.000 A 
ENDBRANCH  52  71
BRANCH  64  77
ATOM     77  C   UNL A   1      38.864  32.311  35.796  1.00  0.00    -0.014 A 
ATOM     78  C   UNL A   1      37.924  31.802  36.706  1.00  0.00     0.009 A 
ATOM     79  C   UNL A   1      39.433  33.571  36.040  1.00  0.00     0.009 A 
ATOM     80  C   UNL A   1      37.538  32.556  37.816  1.00  0.00     0.001 A 
ATOM     81  C   UNL A   1      39.069  34.308  37.168  1.00  0.00     0.001 A 
ATOM     82  C   UNL A   1      38.114  33.805  38.049  1.00  0.00     0.000 A 
ENDBRANCH  64  77
ENDBRANCH  38  39
ENDBRANCH  31  33
ENDBRANCH  30  31
ENDBRANCH  29  30
ENDBRANCH  28  29
ENDBRANCH  27  28
ENDBRANCH  26  27
ENDBRANCH  25  26
ENDBRANCH  24  25
ENDBRANCH  23  24
ENDBRANCH   1  23
TORSDOF 27
ENDMDL
MODEL 2
REMARK VINA RESULT:      -8.4      3.776      9.159
REMARK SMILES COCCCC(=O)N1CCCC[C@@H]1CCC(=O)OCCOCCOCCOCCOC(=O)c1ccc(-c2c3nc(c(-c4ccccc4)c4ccc([nH]4)c(-c4ccccc4)c4nc(c(-c5ccccc5)c5ccc2[nH]5)C=C4)C=C3)cc1
REMARK SMILES IDX 22 1 21 2 20 3 19 4 18 5 16 6 17 7 15 8 14 9 13 10 8 11 9 12
REMARK SMILES IDX 10 13 12 14 11 15 6 16 7 17 5 18 4 19 3 20 2 21 1 22 23 23
REMARK SMILES IDX 24 24 25 25 26 26 27 27 28 28 29 29 30 30 31 31 32 32 33 33
REMARK SMILES IDX 34 34 80 35 35 36 79 37 36 38 37 39 38 40 73 41 39 42 78 43
REMARK SMILES IDX 72 44 74 45 40 46 77 47 71 48 70 49 41 51 63 52 48 53 62 54
REMARK SMILES IDX 49 55 52 56 61 57 75 58 50 59 51 60 60 62 76 63 53 64 42 65
REMARK SMILES IDX 43 66 47 67 44 68 46 69 45 70 64 71 65 72 69 73 66 74 68 75
REMARK SMILES IDX 67 76 54 77 55 78 59 79 56 80 58 81 57 82
REMARK H PARENT 74 50 52 61
REMARK Flexibility Score: inf
ROOT
ATOM      1  C   UNL A   1      32.885  29.708  25.548  1.00  0.00     0.188 C 
ENDROOT
BRANCH   1   2
ATOM      2  O   UNL A   1      31.474  29.743  25.298  1.00  0.00    -0.376 OA
BRANCH   2   3
ATOM      3  C   UNL A   1      30.942  28.723  24.464  1.00  0.00     0.202 C 
BRANCH   3   4
ATOM      4  C   UNL A   1      31.352  28.722  22.983  1.00  0.00     0.261 C 
BRANCH   4   5
ATOM      5  O   UNL A   1      31.648  27.432  22.421  1.00  0.00    -0.463 OA
BRANCH   5   6
ATOM      6  C   UNL A   1      32.967  27.122  22.343  1.00  0.00     0.305 C 
ATOM      7  O   UNL A   1      33.879  27.897  22.614  1.00  0.00    -0.252 OA
BRANCH   6   8
ATOM      8  C   UNL A   1      33.241  25.674  21.991  1.00  0.00     0.125 C 
BRANCH   8   9
ATOM      9  C   UNL A   1      33.754  24.634  23.003  1.00  0.00     0.037 C 
BRANCH   9  10
ATOM     10  C   UNL A   1      33.023  24.446  24.336  1.00  0.00     0.085 C 
ATOM     11  N   UNL A   1      33.750  23.683  25.395  1.00  0.00    -0.340 N 
ATOM     12  C   UNL A   1      32.954  23.394  26.593  1.00  0.00     0.120 C 
ATOM     13  C   UNL A   1      31.683  22.630  26.266  1.00  0.00     0.022 C 
ATOM     14  C   UNL A   1      31.683  23.734  24.022  1.00  0.00     0.025 C 
ATOM     15  C   UNL A   1      30.856  23.422  25.264  1.00  0.00     0.004 C 
BRANCH  11  16
ATOM     16  C   UNL A   1      34.985  23.071  25.346  1.00  0.00     0.222 C 
ATOM     17  O   UNL A   1      35.996  23.747  25.604  1.00  0.00    -0.275 OA
BRANCH  16  18
ATOM     18  C   UNL A   1      35.251  21.732  24.638  1.00  0.00     0.102 C 
BRANCH  18  19
ATOM     19  C   UNL A   1      34.734  20.340  24.955  1.00  0.00     0.038 C 
BRANCH  19  20
ATOM     20  C   UNL A   1      33.376  19.900  24.429  1.00  0.00     0.160 C 
BRANCH  20  21
ATOM     21  O   UNL A   1      32.534  19.266  25.371  1.00  0.00    -0.385 OA
ATOM     22  C   UNL A   1      32.445  17.860  25.293  1.00  0.00     0.194 C 
ENDBRANCH  20  21
ENDBRANCH  19  20
ENDBRANCH  18  19
ENDBRANCH  16  18
ENDBRANCH  11  16
ENDBRANCH   9  10
ENDBRANCH   8   9
ENDBRANCH   6   8
ENDBRANCH   5   6
ENDBRANCH   4   5
ENDBRANCH   3   4
ENDBRANCH   2   3
ENDBRANCH   1   2
BRANCH   1  23
ATOM     23  C   UNL A   1      33.318  29.964  26.998  1.00  0.00     0.188 C 
BRANCH  23  24
ATOM     24  O   UNL A   1      33.101  31.339  27.299  1.00  0.00    -0.377 OA
BRANCH  24  25
ATOM     25  C   UNL A   1      34.105  32.002  28.053  1.00  0.00     0.188 C 
BRANCH  25  26
ATOM     26  C   UNL A   1      34.106  33.537  28.058  1.00  0.00     0.188 C 
BRANCH  26  27
ATOM     27  O   UNL A   1      32.966  34.226  28.561  1.00  0.00    -0.376 OA
BRANCH  27  28
ATOM     28  C   UNL A   1      33.125  35.604  28.871  1.00  0.00     0.202 C 
BRANCH  28  29
ATOM     29  C   UNL A   1      32.863  35.997  30.327  1.00  0.00     0.261 C 
BRANCH  29  30
ATOM     30  O   UNL A   1      32.940  34.839  31.179  1.00  0.00    -0.460 OA
BRANCH  30  31
ATOM     31  C   UNL A   1      33.873  34.882  32.150  1.00  0.00     0.338 C 
ATOM     32  O   UNL A   1      33.792  35.446  33.228  1.00  0.00    -0.246 OA
BRANCH  31  33
ATOM     33  C   UNL A   1      34.963  33.943  31.812  1.00  0.00     0.060 A 
ATOM     34  C   UNL A   1      34.945  32.693  32.444  1.00  0.00     0.016 A 
ATOM     35  C   UNL A   1      36.004  34.283  30.943  1.00  0.00     0.016 A 
ATOM     36  C   UNL A   1      35.996  31.802  32.263  1.00  0.00     0.010 A 
ATOM     37  C   UNL A   1      37.072  33.394  30.776  1.00  0.00     0.010 A 
ATOM     38  C   UNL A   1      37.094  32.177  31.479  1.00  0.00    -0.014 A 
BRANCH  38  39
ATOM     39  C   UNL A   1      38.358  31.422  31.638  1.00  0.00     0.031 A 
ATOM     40  C   UNL A   1      39.255  31.792  32.789  1.00  0.00     0.074 A 
ATOM     41  C   UNL A   1      38.668  30.384  30.843  1.00  0.00     0.049 A 
ATOM     42  N   UNL A   1      40.397  31.271  33.157  1.00  0.00    -0.248 NA
ATOM     43  C   UNL A   1      38.792  32.897  33.646  1.00  0.00     0.031 C 
ATOM     44  C   UNL A   1      37.843  29.873  29.752  1.00  0.00     0.029 A 
ATOM     45  N   UNL A   1      39.767  29.563  30.852  1.00  0.00    -0.354 N 
ATOM     46  C   UNL A   1      40.787  31.985  34.284  1.00  0.00     0.074 A 
ATOM     47  C   UNL A   1      39.782  32.998  34.516  1.00  0.00     0.031 C 
ATOM     48  C   UNL A   1      38.465  28.819  29.195  1.00  0.00     0.029 A 
ATOM     49  C   UNL A   1      39.744  28.604  29.871  1.00  0.00     0.049 A 
ATOM     50  H   UNL A   1      40.502  29.654  31.500  1.00  0.00     0.167 HD
ATOM     51  C   UNL A   1      41.879  31.811  35.064  1.00  0.00     0.031 A 
ATOM     52  C   UNL A   1      40.662  27.671  29.551  1.00  0.00     0.031 A 
ATOM     53  C   UNL A   1      42.895  30.825  34.816  1.00  0.00     0.049 A 
ATOM     54  C   UNL A   1      41.934  27.581  30.354  1.00  0.00     0.074 A 
ATOM     55  C   UNL A   1      44.051  30.575  35.535  1.00  0.00     0.029 A 
ATOM     56  N   UNL A   1      42.879  29.932  33.755  1.00  0.00    -0.354 N 
ATOM     57  N   UNL A   1      42.292  28.257  31.419  1.00  0.00    -0.248 NA
ATOM     58  C   UNL A   1      42.925  26.591  29.909  1.00  0.00     0.031 C 
ATOM     59  C   UNL A   1      44.765  29.571  34.871  1.00  0.00     0.029 A 
ATOM     60  C   UNL A   1      44.020  29.151  33.780  1.00  0.00     0.049 A 
ATOM     61  H   UNL A   1      42.162  29.865  33.084  1.00  0.00     0.167 HD
ATOM     62  C   UNL A   1      43.534  27.752  31.791  1.00  0.00     0.074 A 
ATOM     63  C   UNL A   1      43.859  26.706  30.842  1.00  0.00     0.031 C 
ATOM     64  C   UNL A   1      44.329  28.115  32.827  1.00  0.00     0.031 A 
BRANCH  51  65
ATOM     65  C   UNL A   1      42.044  32.753  36.225  1.00  0.00    -0.014 A 
ATOM     66  C   UNL A   1      41.322  32.579  37.418  1.00  0.00     0.009 A 
ATOM     67  C   UNL A   1      42.922  33.841  36.117  1.00  0.00     0.009 A 
ATOM     68  C   UNL A   1      41.440  33.504  38.458  1.00  0.00     0.001 A 
ATOM     69  C   UNL A   1      43.064  34.746  37.171  1.00  0.00     0.001 A 
ATOM     70  C   UNL A   1      42.313  34.585  38.334  1.00  0.00     0.000 A 
ENDBRANCH  51  65
BRANCH  52  71
ATOM     71  C   UNL A   1      40.421  26.746  28.412  1.00  0.00    -0.014 A 
ATOM     72  C   UNL A   1      40.953  27.022  27.143  1.00  0.00     0.009 A 
ATOM     73  C   UNL A   1      39.639  25.592  28.583  1.00  0.00     0.009 A 
ATOM     74  C   UNL A   1      40.690  26.174  26.065  1.00  0.00     0.001 A 
ATOM     75  C   UNL A   1      39.402  24.731  27.509  1.00  0.00     0.001 A 
ATOM     76  C   UNL A   1      39.919  25.026  26.250  1.00  0.00     0.000 A 
ENDBRANCH  52  71
BRANCH  64  77
ATOM     77  C   UNL A   1      45.610  27.349  33.017  1.00  0.00    -0.014 A 
ATOM     78  C   UNL A   1      46.809  27.761  32.414  1.00  0.00     0.009 A 
ATOM     79  C   UNL A   1      45.623  26.220  33.852  1.00  0.00     0.009 A 
ATOM     80  C   UNL A   1      47.985  27.037  32.617  1.00  0.00     0.001 A 
ATOM     81  C   UNL A   1      46.807  25.516  34.078  1.00  0.00     0.001 A 
ATOM     82  C   UNL A   1      47.985  25.919  33.452  1.00  0.00     0.000 A 
ENDBRANCH  64  77
ENDBRANCH  38  39
ENDBRANCH  31  33
ENDBRANCH  30  31
ENDBRANCH  29  30
ENDBRANCH  28  29
ENDBRANCH  27  28
ENDBRANCH  26  27
ENDBRANCH  25  26
ENDBRANCH  24  25
ENDBRANCH  23  24
ENDBRANCH   1  23
TORSDOF 27
ENDMDL
MODEL 3
REMARK VINA RESULT:      -8.4      1.602      2.839
REMARK SMILES COCCCC(=O)N1CCCC[C@@H]1CCC(=O)OCCOCCOCCOCCOC(=O)c1ccc(-c2c3nc(c(-c4ccccc4)c4ccc([nH]4)c(-c4ccccc4)c4nc(c(-c5ccccc5)c5ccc2[nH]5)C=C4)C=C3)cc1
REMARK SMILES IDX 22 1 21 2 20 3 19 4 18 5 16 6 17 7 15 8 14 9 13 10 8 11 9 12
REMARK SMILES IDX 10 13 12 14 11 15 6 16 7 17 5 18 4 19 3 20 2 21 1 22 23 23
REMARK SMILES IDX 24 24 25 25 26 26 27 27 28 28 29 29 30 30 31 31 32 32 33 33
REMARK SMILES IDX 34 34 80 35 35 36 79 37 36 38 37 39 38 40 73 41 39 42 78 43
REMARK SMILES IDX 72 44 74 45 40 46 77 47 71 48 70 49 41 51 63 52 48 53 62 54
REMARK SMILES IDX 49 55 52 56 61 57 75 58 50 59 51 60 60 62 76 63 53 64 42 65
REMARK SMILES IDX 43 66 47 67 44 68 46 69 45 70 64 71 65 72 69 73 66 74 68 75
REMARK SMILES IDX 67 76 54 77 55 78 59 79 56 80 58 81 57 82
REMARK H PARENT 74 50 52 61
REMARK Flexibility Score: inf
ROOT
ATOM      1  C   UNL A   1      42.643  18.608  25.967  1.00  0.00     0.188 C 
ENDROOT
BRANCH   1   2
ATOM      2  O   UNL A   1      41.492  19.440  25.778  1.00  0.00    -0.376 OA
BRANCH   2   3
ATOM      3  C   UNL A   1      41.194  20.371  26.809  1.00  0.00     0.202 C 
BRANCH   3   4
ATOM      4  C   UNL A   1      39.910  21.205  26.672  1.00  0.00     0.261 C 
BRANCH   4   5
ATOM      5  O   UNL A   1      40.086  22.631  26.737  1.00  0.00    -0.463 OA
BRANCH   5   6
ATOM      6  C   UNL A   1      38.998  23.365  26.388  1.00  0.00     0.305 C 
ATOM      7  O   UNL A   1      38.921  24.584  26.493  1.00  0.00    -0.252 OA
BRANCH   6   8
ATOM      8  C   UNL A   1      37.894  22.558  25.735  1.00  0.00     0.125 C 
BRANCH   8   9
ATOM      9  C   UNL A   1      36.513  23.136  25.380  1.00  0.00     0.037 C 
BRANCH   9  10
ATOM     10  C   UNL A   1      35.340  22.190  25.106  1.00  0.00     0.085 C 
ATOM     11  N   UNL A   1      34.206  22.744  24.306  1.00  0.00    -0.340 N 
ATOM     12  C   UNL A   1      33.042  21.857  24.204  1.00  0.00     0.120 C 
ATOM     13  C   UNL A   1      32.497  21.467  25.566  1.00  0.00     0.022 C 
ATOM     14  C   UNL A   1      34.810  21.716  26.484  1.00  0.00     0.025 C 
ATOM     15  C   UNL A   1      33.594  20.801  26.383  1.00  0.00     0.004 C 
BRANCH  11  16
ATOM     16  C   UNL A   1      34.026  24.013  23.800  1.00  0.00     0.222 C 
ATOM     17  O   UNL A   1      34.807  24.422  22.923  1.00  0.00    -0.275 OA
BRANCH  16  18
ATOM     18  C   UNL A   1      33.183  25.100  24.490  1.00  0.00     0.102 C 
BRANCH  18  19
ATOM     19  C   UNL A   1      32.716  25.206  25.931  1.00  0.00     0.038 C 
BRANCH  19  20
ATOM     20  C   UNL A   1      31.924  26.424  26.380  1.00  0.00     0.160 C 
BRANCH  20  21
ATOM     21  O   UNL A   1      32.656  27.629  26.469  1.00  0.00    -0.385 OA
ATOM     22  C   UNL A   1      34.007  27.580  26.063  1.00  0.00     0.194 C 
ENDBRANCH  20  21
ENDBRANCH  19  20
ENDBRANCH  18  19
ENDBRANCH  16  18
ENDBRANCH  11  16
ENDBRANCH   9  10
ENDBRANCH   8   9
ENDBRANCH   6   8
ENDBRANCH   5   6
ENDBRANCH   4   5
ENDBRANCH   3   4
ENDBRANCH   2   3
ENDBRANCH   1   2
BRANCH   1  23
ATOM     23  C   UNL A   1      43.809  18.841  24.997  1.00  0.00     0.188 C 
BRANCH  23  24
ATOM     24  O   UNL A   1      44.943  18.123  25.471  1.00  0.00    -0.377 OA
BRANCH  24  25
ATOM     25  C   UNL A   1      46.161  18.843  25.592  1.00  0.00     0.188 C 
BRANCH  25  26
ATOM     26  C   UNL A   1      46.457  19.938  24.559  1.00  0.00     0.188 C 
BRANCH  26  27
ATOM     27  O   UNL A   1      46.045  21.274  24.832  1.00  0.00    -0.376 OA
BRANCH  27  28
ATOM     28  C   UNL A   1      45.273  21.931  23.837  1.00  0.00     0.202 C 
BRANCH  28  29
ATOM     29  C   UNL A   1      44.171  22.861  24.351  1.00  0.00     0.261 C 
BRANCH  29  30
ATOM     30  O   UNL A   1      44.619  24.228  24.328  1.00  0.00    -0.460 OA
BRANCH  30  31
ATOM     31  C   UNL A   1      45.174  24.686  25.468  1.00  0.00     0.338 C 
ATOM     32  O   UNL A   1      46.360  24.720  25.749  1.00  0.00    -0.246 OA
BRANCH  31  33
ATOM     33  C   UNL A   1      44.134  25.364  26.270  1.00  0.00     0.060 A 
ATOM     34  C   UNL A   1      44.099  26.763  26.216  1.00  0.00     0.016 A 
ATOM     35  C   UNL A   1      43.248  24.664  27.095  1.00  0.00     0.016 A 
ATOM     36  C   UNL A   1      43.225  27.474  27.029  1.00  0.00     0.010 A 
ATOM     37  C   UNL A   1      42.382  25.380  27.929  1.00  0.00     0.010 A 
ATOM     38  C   UNL A   1      42.409  26.786  27.935  1.00  0.00    -0.014 A 
BRANCH  38  39
ATOM     39  C   UNL A   1      41.818  27.545  29.061  1.00  0.00     0.031 A 
ATOM     40  C   UNL A   1      42.538  27.513  30.383  1.00  0.00     0.074 A 
ATOM     41  C   UNL A   1      40.724  28.310  28.903  1.00  0.00     0.049 A 
ATOM     42  N   UNL A   1      42.242  28.108  31.508  1.00  0.00    -0.248 NA
ATOM     43  C   UNL A   1      43.768  26.703  30.435  1.00  0.00     0.031 C 
ATOM     44  C   UNL A   1      39.989  28.493  27.655  1.00  0.00     0.029 A 
ATOM     45  N   UNL A   1      40.055  29.091  29.811  1.00  0.00    -0.354 N 
ATOM     46  C   UNL A   1      43.244  27.743  32.400  1.00  0.00     0.074 A 
ATOM     47  C   UNL A   1      44.134  26.847  31.697  1.00  0.00     0.031 C 
ATOM     48  C   UNL A   1      38.968  29.340  27.874  1.00  0.00     0.029 A 
ATOM     49  C   UNL A   1      38.961  29.729  29.284  1.00  0.00     0.049 A 
ATOM     50  H   UNL A   1      40.333  29.183  30.750  1.00  0.00     0.167 HD
ATOM     51  C   UNL A   1      43.417  28.125  33.687  1.00  0.00     0.031 A 
ATOM     52  C   UNL A   1      38.052  30.524  29.881  1.00  0.00     0.031 A 
ATOM     53  C   UNL A   1      42.516  28.991  34.396  1.00  0.00     0.049 A 
ATOM     54  C   UNL A   1      38.192  30.831  31.350  1.00  0.00     0.074 A 
ATOM     55  C   UNL A   1      42.588  29.427  35.707  1.00  0.00     0.029 A 
ATOM     56  N   UNL A   1      41.367  29.543  33.851  1.00  0.00    -0.354 N 
ATOM     57  N   UNL A   1      39.144  30.485  32.183  1.00  0.00    -0.248 NA
ATOM     58  C   UNL A   1      37.128  31.645  31.957  1.00  0.00     0.031 C 
ATOM     59  C   UNL A   1      41.448  30.194  35.973  1.00  0.00     0.029 A 
ATOM     60  C   UNL A   1      40.703  30.291  34.808  1.00  0.00     0.049 A 
ATOM     61  H   UNL A   1      41.067  29.422  32.921  1.00  0.00     0.167 HD
ATOM     62  C   UNL A   1      38.812  31.066  33.403  1.00  0.00     0.074 A 
ATOM     63  C   UNL A   1      37.577  31.794  33.196  1.00  0.00     0.031 C 
ATOM     64  C   UNL A   1      39.473  31.008  34.585  1.00  0.00     0.031 A 
BRANCH  51  65
ATOM     65  C   UNL A   1      44.604  27.553  34.413  1.00  0.00    -0.014 A 
ATOM     66  C   UNL A   1      44.446  26.653  35.479  1.00  0.00     0.009 A 
ATOM     67  C   UNL A   1      45.899  27.936  34.034  1.00  0.00     0.009 A 
ATOM     68  C   UNL A   1      45.559  26.187  36.182  1.00  0.00     0.001 A 
ATOM     69  C   UNL A   1      47.012  27.442  34.717  1.00  0.00     0.001 A 
ATOM     70  C   UNL A   1      46.841  26.580  35.799  1.00  0.00     0.000 A 
ENDBRANCH  51  65
BRANCH  52  71
ATOM     71  C   UNL A   1      36.921  31.087  29.097  1.00  0.00    -0.014 A 
ATOM     72  C   UNL A   1      36.913  32.439  28.723  1.00  0.00     0.009 A 
ATOM     73  C   UNL A   1      35.831  30.277  28.735  1.00  0.00     0.009 A 
ATOM     74  C   UNL A   1      35.829  32.974  28.023  1.00  0.00     0.001 A 
ATOM     75  C   UNL A   1      34.763  30.809  28.011  1.00  0.00     0.001 A 
ATOM     76  C   UNL A   1      34.758  32.158  27.663  1.00  0.00     0.000 A 
ENDBRANCH  52  71
BRANCH  64  77
ATOM     77  C   UNL A   1      38.899  31.786  35.737  1.00  0.00    -0.014 A 
ATOM     78  C   UNL A   1      39.194  33.146  35.924  1.00  0.00     0.009 A 
ATOM     79  C   UNL A   1      38.012  31.156  36.624  1.00  0.00     0.009 A 
ATOM     80  C   UNL A   1      38.639  33.847  36.997  1.00  0.00     0.001 A 
ATOM     81  C   UNL A   1      37.433  31.868  37.676  1.00  0.00     0.001 A 
ATOM     82  C   UNL A   1      37.755  33.210  37.868  1.00  0.00     0.000 A 
ENDBRANCH  64  77
ENDBRANCH  38  39
ENDBRANCH  31  33
ENDBRANCH  30  31
ENDBRANCH  29  30
ENDBRANCH  28  29
ENDBRANCH  27  28
ENDBRANCH  26  27
ENDBRANCH  25  26
ENDBRANCH  24  25
ENDBRANCH  23  24
ENDBRANCH   1  23
TORSDOF 27
ENDMDL
