MODEL 1
REMARK VINA RESULT:     -10.8      0.000      0.000
REMARK SMILES Cc1ccc(S(=O)(=O)N2c3ccc(C(=O)OCCOCCOCCOCCOC(=O)c4ccc(-c5c6nc(c(-c7ccccc7)c7ccc([nH]7)c(-c7ccccc7)c7nc(c(-c8ccccc8)c8ccc5[nH]8)C=C7)C=C6)cc4)cc3C[C@H]2C)cc1
REMARK SMILES IDX 22 1 21 2 20 3 19 4 18 5 17 6 16 7 14 8 15 9 13 10 9 11
REMARK SMILES IDX 10 12 82 13 11 14 80 15 81 16 83 17 12 18 79 19 6 20 7 21
REMARK SMILES IDX 8 22 5 23 1 24 2 25 3 26 85 27 4 28 84 29 23 30 24 31 25 32
REMARK SMILES IDX 26 33 27 34 28 35 29 36 30 37 31 38 32 39 78 40 33 41 77 42
REMARK SMILES IDX 34 43 35 44 36 45 71 46 37 47 76 48 70 49 72 50 38 51 75 52
REMARK SMILES IDX 69 53 68 54 39 56 61 57 46 58 60 59 47 60 50 61 59 62 73 63
REMARK SMILES IDX 48 64 49 65 58 67 74 68 51 69 40 70 41 71 45 72 42 73 44 74
REMARK SMILES IDX 43 75 62 76 63 77 67 78 64 79 66 80 65 81 52 82 53 83 57 84
REMARK SMILES IDX 54 85 56 86 55 87
REMARK H PARENT 72 55 50 66
REMARK Flexibility Score: inf
ROOT
ATOM      1  O   UNL A   1      35.476  32.807  27.683  1.00  0.00    -0.377 OA
ENDROOT
BRANCH   1   2
ATOM      2  C   UNL A   1      34.617  31.838  28.259  1.00  0.00     0.188 C 
BRANCH   2   3
ATOM      3  C   UNL A   1      33.584  31.034  27.427  1.00  0.00     0.188 C 
BRANCH   3   4
ATOM      4  O   UNL A   1      32.353  31.589  27.008  1.00  0.00    -0.376 OA
BRANCH   4   5
ATOM      5  C   UNL A   1      31.635  30.817  26.075  1.00  0.00     0.202 C 
BRANCH   5   6
ATOM      6  C   UNL A   1      31.790  29.315  26.122  1.00  0.00     0.261 C 
BRANCH   6   7
ATOM      7  O   UNL A   1      31.816  28.866  24.775  1.00  0.00    -0.460 OA
BRANCH   7   8
ATOM      8  C   UNL A   1      32.905  28.140  24.518  1.00  0.00     0.338 C 
ATOM      9  O   UNL A   1      34.058  28.454  24.689  1.00  0.00    -0.246 OA
BRANCH   8  10
ATOM     10  C   UNL A   1      32.410  26.766  24.352  1.00  0.00     0.060 A 
ATOM     11  N   UNL A   1      31.459  22.735  24.477  1.00  0.00    -0.263 N 
ATOM     12  C   UNL A   1      31.535  24.173  24.322  1.00  0.00     0.055 A 
ATOM     13  C   UNL A   1      31.551  22.551  25.986  1.00  0.00     0.101 C 
ATOM     14  C   UNL A   1      31.331  24.921  23.179  1.00  0.00     0.028 A 
ATOM     15  C   UNL A   1      32.060  24.742  25.480  1.00  0.00    -0.021 A 
ATOM     16  C   UNL A   1      32.217  23.783  26.587  1.00  0.00     0.063 C 
ATOM     17  C   UNL A   1      30.109  22.400  26.488  1.00  0.00     0.032 C 
ATOM     18  C   UNL A   1      31.766  26.249  23.204  1.00  0.00     0.018 A 
ATOM     19  C   UNL A   1      32.520  26.024  25.513  1.00  0.00     0.021 A 
BRANCH  11  20
ATOM     20  S   UNL A   1      32.709  22.039  23.485  1.00  0.00     0.264 S 
ATOM     21  O   UNL A   1      32.841  22.869  22.302  1.00  0.00    -0.201 OA
ATOM     22  O   UNL A   1      32.419  20.621  23.365  1.00  0.00    -0.201 OA
BRANCH  20  23
ATOM     23  C   UNL A   1      34.283  22.148  24.296  1.00  0.00     0.088 A 
ATOM     24  C   UNL A   1      38.393  21.759  25.462  1.00  0.00     0.044 C 
ATOM     25  C   UNL A   1      36.948  21.904  25.096  1.00  0.00    -0.051 A 
ATOM     26  C   UNL A   1      36.035  20.885  25.387  1.00  0.00     0.005 A 
ATOM     27  C   UNL A   1      36.491  23.081  24.499  1.00  0.00     0.005 A 
ATOM     28  C   UNL A   1      34.711  20.992  24.962  1.00  0.00     0.022 A 
ATOM     29  C   UNL A   1      35.148  23.225  24.161  1.00  0.00     0.022 A 
ENDBRANCH  20  23
ENDBRANCH  11  20
ENDBRANCH   8  10
ENDBRANCH   7   8
ENDBRANCH   6   7
ENDBRANCH   5   6
ENDBRANCH   4   5
ENDBRANCH   3   4
ENDBRANCH   2   3
ENDBRANCH   1   2
BRANCH   1  30
ATOM     30  C   UNL A   1      35.170  34.171  27.923  1.00  0.00     0.188 C 
BRANCH  30  31
ATOM     31  C   UNL A   1      33.758  34.552  28.266  1.00  0.00     0.188 C 
BRANCH  31  32
ATOM     32  O   UNL A   1      33.730  35.945  28.544  1.00  0.00    -0.376 OA
BRANCH  32  33
ATOM     33  C   UNL A   1      32.906  36.290  29.649  1.00  0.00     0.202 C 
BRANCH  33  34
ATOM     34  C   UNL A   1      32.913  35.250  30.783  1.00  0.00     0.261 C 
BRANCH  34  35
ATOM     35  O   UNL A   1      33.060  35.933  32.048  1.00  0.00    -0.460 OA
BRANCH  35  36
ATOM     36  C   UNL A   1      34.294  35.886  32.625  1.00  0.00     0.338 C 
ATOM     37  O   UNL A   1      34.919  36.850  33.036  1.00  0.00    -0.246 OA
BRANCH  36  38
ATOM     38  C   UNL A   1      34.906  34.541  32.398  1.00  0.00     0.060 A 
ATOM     39  C   UNL A   1      34.687  33.488  33.303  1.00  0.00     0.016 A 
ATOM     40  C   UNL A   1      35.949  34.438  31.489  1.00  0.00     0.016 A 
ATOM     41  C   UNL A   1      35.618  32.433  33.418  1.00  0.00     0.010 A 
ATOM     42  C   UNL A   1      36.902  33.455  31.676  1.00  0.00     0.010 A 
ATOM     43  C   UNL A   1      36.790  32.461  32.669  1.00  0.00    -0.014 A 
BRANCH  43  44
ATOM     44  C   UNL A   1      37.990  31.601  32.887  1.00  0.00     0.031 A 
ATOM     45  C   UNL A   1      38.016  30.252  32.212  1.00  0.00     0.074 A 
ATOM     46  C   UNL A   1      39.152  32.191  33.299  1.00  0.00     0.049 A 
ATOM     47  N   UNL A   1      39.000  29.417  32.201  1.00  0.00    -0.248 NA
ATOM     48  C   UNL A   1      36.914  29.777  31.375  1.00  0.00     0.031 C 
ATOM     49  C   UNL A   1      40.538  31.764  33.077  1.00  0.00     0.029 A 
ATOM     50  N   UNL A   1      39.348  33.390  33.977  1.00  0.00    -0.354 N 
ATOM     51  C   UNL A   1      38.851  28.581  31.096  1.00  0.00     0.074 A 
ATOM     52  C   UNL A   1      37.496  28.807  30.663  1.00  0.00     0.031 C 
ATOM     53  C   UNL A   1      41.416  32.582  33.681  1.00  0.00     0.029 A 
ATOM     54  C   UNL A   1      40.629  33.391  34.568  1.00  0.00     0.049 A 
ATOM     55  H   UNL A   1      38.694  34.124  34.037  1.00  0.00     0.167 HD
ATOM     56  C   UNL A   1      39.946  27.934  30.571  1.00  0.00     0.031 A 
ATOM     57  C   UNL A   1      40.723  33.331  35.925  1.00  0.00     0.031 A 
ATOM     58  C   UNL A   1      41.160  28.169  31.402  1.00  0.00     0.049 A 
ATOM     59  C   UNL A   1      41.181  31.902  36.264  1.00  0.00     0.074 A 
ATOM     60  C   UNL A   1      42.443  28.635  31.160  1.00  0.00     0.029 A 
ATOM     61  N   UNL A   1      41.046  28.150  32.802  1.00  0.00    -0.354 N 
ATOM     62  N   UNL A   1      40.888  30.837  35.538  1.00  0.00    -0.248 NA
ATOM     63  C   UNL A   1      42.284  31.637  37.187  1.00  0.00     0.031 C 
ATOM     64  C   UNL A   1      42.985  29.106  32.398  1.00  0.00     0.029 A 
ATOM     65  C   UNL A   1      42.074  28.845  33.417  1.00  0.00     0.049 A 
ATOM     66  H   UNL A   1      40.321  27.696  33.289  1.00  0.00     0.167 HD
ATOM     67  C   UNL A   1      41.874  29.891  35.695  1.00  0.00     0.074 A 
ATOM     68  C   UNL A   1      42.666  30.403  36.811  1.00  0.00     0.031 C 
ATOM     69  C   UNL A   1      42.207  28.839  34.874  1.00  0.00     0.031 A 
BRANCH  56  70
ATOM     70  C   UNL A   1      39.989  27.294  29.163  1.00  0.00    -0.014 A 
ATOM     71  C   UNL A   1      39.432  26.018  28.931  1.00  0.00     0.009 A 
ATOM     72  C   UNL A   1      40.571  27.876  28.018  1.00  0.00     0.009 A 
ATOM     73  C   UNL A   1      39.476  25.366  27.679  1.00  0.00     0.001 A 
ATOM     74  C   UNL A   1      40.626  27.235  26.762  1.00  0.00     0.001 A 
ATOM     75  C   UNL A   1      40.076  25.976  26.590  1.00  0.00     0.000 A 
ENDBRANCH  56  70
BRANCH  57  76
ATOM     76  C   UNL A   1      39.750  34.338  36.495  1.00  0.00    -0.014 A 
ATOM     77  C   UNL A   1      38.909  33.807  37.521  1.00  0.00     0.009 A 
ATOM     78  C   UNL A   1      40.077  35.701  36.593  1.00  0.00     0.009 A 
ATOM     79  C   UNL A   1      38.667  34.511  38.713  1.00  0.00     0.001 A 
ATOM     80  C   UNL A   1      39.783  36.417  37.776  1.00  0.00     0.001 A 
ATOM     81  C   UNL A   1      39.154  35.802  38.860  1.00  0.00     0.000 A 
ENDBRANCH  57  76
BRANCH  69  82
ATOM     82  C   UNL A   1      42.709  27.542  35.459  1.00  0.00    -0.014 A 
ATOM     83  C   UNL A   1      44.064  27.201  35.429  1.00  0.00     0.009 A 
ATOM     84  C   UNL A   1      41.865  26.774  36.296  1.00  0.00     0.009 A 
ATOM     85  C   UNL A   1      44.549  26.127  36.176  1.00  0.00     0.001 A 
ATOM     86  C   UNL A   1      42.356  25.738  37.084  1.00  0.00     0.001 A 
ATOM     87  C   UNL A   1      43.701  25.409  37.014  1.00  0.00     0.000 A 
ENDBRANCH  69  82
ENDBRANCH  43  44
ENDBRANCH  36  38
ENDBRANCH  35  36
ENDBRANCH  34  35
ENDBRANCH  33  34
ENDBRANCH  32  33
ENDBRANCH  31  32
ENDBRANCH  30  31
ENDBRANCH   1  30
TORSDOF 22
ENDMDL
MODEL 2
REMARK VINA RESULT:     -10.6      2.918      8.009
REMARK SMILES Cc1ccc(S(=O)(=O)N2c3ccc(C(=O)OCCOCCOCCOCCOC(=O)c4ccc(-c5c6nc(c(-c7ccccc7)c7ccc([nH]7)c(-c7ccccc7)c7nc(c(-c8ccccc8)c8ccc5[nH]8)C=C7)C=C6)cc4)cc3C[C@H]2C)cc1
REMARK SMILES IDX 22 1 21 2 20 3 19 4 18 5 17 6 16 7 14 8 15 9 13 10 9 11
REMARK SMILES IDX 10 12 82 13 11 14 80 15 81 16 83 17 12 18 79 19 6 20 7 21
REMARK SMILES IDX 8 22 5 23 1 24 2 25 3 26 85 27 4 28 84 29 23 30 24 31 25 32
REMARK SMILES IDX 26 33 27 34 28 35 29 36 30 37 31 38 32 39 78 40 33 41 77 42
REMARK SMILES IDX 34 43 35 44 36 45 71 46 37 47 76 48 70 49 72 50 38 51 75 52
REMARK SMILES IDX 69 53 68 54 39 56 61 57 46 58 60 59 47 60 50 61 59 62 73 63
REMARK SMILES IDX 48 64 49 65 58 67 74 68 51 69 40 70 41 71 45 72 42 73 44 74
REMARK SMILES IDX 43 75 62 76 63 77 67 78 64 79 66 80 65 81 52 82 53 83 57 84
REMARK SMILES IDX 54 85 56 86 55 87
REMARK H PARENT 72 55 50 66
REMARK Flexibility Score: inf
ROOT
ATOM      1  O   UNL A   1      35.564  21.698  24.316  1.00  0.00    -0.377 OA
ENDROOT
BRANCH   1   2
ATOM      2  C   UNL A   1      35.140  20.707  25.236  1.00  0.00     0.188 C 
BRANCH   2   3
ATOM      3  C   UNL A   1      34.148  21.005  26.391  1.00  0.00     0.188 C 
BRANCH   3   4
ATOM      4  O   UNL A   1      34.277  22.137  27.227  1.00  0.00    -0.376 OA
BRANCH   4   5
ATOM      5  C   UNL A   1      33.556  23.274  26.812  1.00  0.00     0.202 C 
BRANCH   5   6
ATOM      6  C   UNL A   1      32.125  23.087  26.368  1.00  0.00     0.261 C 
BRANCH   6   7
ATOM      7  O   UNL A   1      31.311  23.738  27.332  1.00  0.00    -0.460 OA
BRANCH   7   8
ATOM      8  C   UNL A   1      30.214  24.258  26.782  1.00  0.00     0.338 C 
ATOM      9  O   UNL A   1      29.068  23.924  26.965  1.00  0.00    -0.246 OA
BRANCH   8  10
ATOM     10  C   UNL A   1      30.648  25.544  26.221  1.00  0.00     0.060 A 
ATOM     11  N   UNL A   1      31.662  28.876  23.976  1.00  0.00    -0.263 N 
ATOM     12  C   UNL A   1      31.269  27.897  24.967  1.00  0.00     0.055 A 
ATOM     13  C   UNL A   1      30.566  28.755  22.926  1.00  0.00     0.101 C 
ATOM     14  C   UNL A   1      31.804  27.692  26.224  1.00  0.00     0.028 A 
ATOM     15  C   UNL A   1      30.362  27.001  24.407  1.00  0.00    -0.021 A 
ATOM     16  C   UNL A   1      29.915  27.384  23.057  1.00  0.00     0.063 C 
ATOM     17  C   UNL A   1      29.561  29.876  23.225  1.00  0.00     0.032 C 
ATOM     18  C   UNL A   1      31.473  26.496  26.866  1.00  0.00     0.018 A 
ATOM     19  C   UNL A   1      30.053  25.815  25.004  1.00  0.00     0.021 A 
BRANCH  11  20
ATOM     20  S   UNL A   1      33.297  28.509  23.504  1.00  0.00     0.264 S 
ATOM     21  O   UNL A   1      34.122  28.573  24.697  1.00  0.00    -0.201 OA
ATOM     22  O   UNL A   1      33.604  29.333  22.348  1.00  0.00    -0.201 OA
BRANCH  20  23
ATOM     23  C   UNL A   1      33.425  26.828  22.951  1.00  0.00     0.088 A 
ATOM     24  C   UNL A   1      32.888  22.628  22.261  1.00  0.00     0.044 C 
ATOM     25  C   UNL A   1      33.116  24.090  22.491  1.00  0.00    -0.051 A 
ATOM     26  C   UNL A   1      33.750  24.536  23.655  1.00  0.00     0.005 A 
ATOM     27  C   UNL A   1      32.738  25.020  21.520  1.00  0.00     0.005 A 
ATOM     28  C   UNL A   1      33.878  25.903  23.900  1.00  0.00     0.022 A 
ATOM     29  C   UNL A   1      32.953  26.381  21.724  1.00  0.00     0.022 A 
ENDBRANCH  20  23
ENDBRANCH  11  20
ENDBRANCH   8  10
ENDBRANCH   7   8
ENDBRANCH   6   7
ENDBRANCH   5   6
ENDBRANCH   4   5
ENDBRANCH   3   4
ENDBRANCH   2   3
ENDBRANCH   1   2
BRANCH   1  30
ATOM     30  C   UNL A   1      36.879  22.207  24.469  1.00  0.00     0.188 C 
BRANCH  30  31
ATOM     31  C   UNL A   1      37.066  23.664  24.782  1.00  0.00     0.188 C 
BRANCH  31  32
ATOM     32  O   UNL A   1      37.624  23.769  26.084  1.00  0.00    -0.376 OA
BRANCH  32  33
ATOM     33  C   UNL A   1      38.566  22.749  26.386  1.00  0.00     0.202 C 
BRANCH  33  34
ATOM     34  C   UNL A   1      39.784  23.241  27.189  1.00  0.00     0.261 C 
BRANCH  34  35
ATOM     35  O   UNL A   1      39.585  24.627  27.543  1.00  0.00    -0.460 OA
BRANCH  35  36
ATOM     36  C   UNL A   1      40.668  25.289  28.040  1.00  0.00     0.338 C 
ATOM     37  O   UNL A   1      41.779  24.810  28.196  1.00  0.00    -0.246 OA
BRANCH  36  38
ATOM     38  C   UNL A   1      40.231  26.579  28.658  1.00  0.00     0.060 A 
ATOM     39  C   UNL A   1      41.074  27.705  28.648  1.00  0.00     0.016 A 
ATOM     40  C   UNL A   1      39.148  26.559  29.525  1.00  0.00     0.016 A 
ATOM     41  C   UNL A   1      40.939  28.711  29.629  1.00  0.00     0.010 A 
ATOM     42  C   UNL A   1      39.086  27.498  30.536  1.00  0.00     0.010 A 
ATOM     43  C   UNL A   1      40.002  28.565  30.646  1.00  0.00    -0.014 A 
BRANCH  43  44
ATOM     44  C   UNL A   1      39.937  29.370  31.901  1.00  0.00     0.031 A 
ATOM     45  C   UNL A   1      40.547  28.774  33.146  1.00  0.00     0.074 A 
ATOM     46  C   UNL A   1      39.742  30.719  31.804  1.00  0.00     0.049 A 
ATOM     47  N   UNL A   1      40.675  29.354  34.292  1.00  0.00    -0.248 NA
ATOM     48  C   UNL A   1      41.176  27.453  33.152  1.00  0.00     0.031 C 
ATOM     49  C   UNL A   1      40.160  31.784  32.721  1.00  0.00     0.029 A 
ATOM     50  N   UNL A   1      39.157  31.461  30.782  1.00  0.00    -0.354 N 
ATOM     51  C   UNL A   1      41.703  28.722  34.989  1.00  0.00     0.074 A 
ATOM     52  C   UNL A   1      41.927  27.502  34.257  1.00  0.00     0.031 C 
ATOM     53  C   UNL A   1      39.740  32.993  32.308  1.00  0.00     0.029 A 
ATOM     54  C   UNL A   1      38.777  32.725  31.277  1.00  0.00     0.049 A 
ATOM     55  H   UNL A   1      39.028  31.151  29.855  1.00  0.00     0.167 HD
ATOM     56  C   UNL A   1      42.365  29.391  35.993  1.00  0.00     0.031 A 
ATOM     57  C   UNL A   1      37.450  33.010  31.394  1.00  0.00     0.031 A 
ATOM     58  C   UNL A   1      41.748  30.722  36.252  1.00  0.00     0.049 A 
ATOM     59  C   UNL A   1      37.125  32.944  32.896  1.00  0.00     0.074 A 
ATOM     60  C   UNL A   1      42.211  32.028  36.303  1.00  0.00     0.029 A 
ATOM     61  N   UNL A   1      40.349  30.840  36.251  1.00  0.00    -0.354 N 
ATOM     62  N   UNL A   1      37.746  32.156  33.756  1.00  0.00    -0.248 NA
ATOM     63  C   UNL A   1      36.376  34.000  33.576  1.00  0.00     0.031 C 
ATOM     64  C   UNL A   1      41.097  32.902  36.095  1.00  0.00     0.029 A 
ATOM     65  C   UNL A   1      39.935  32.139  36.010  1.00  0.00     0.049 A 
ATOM     66  H   UNL A   1      39.733  30.087  36.405  1.00  0.00     0.167 HD
ATOM     67  C   UNL A   1      37.704  32.724  35.008  1.00  0.00     0.074 A 
ATOM     68  C   UNL A   1      36.751  33.821  34.856  1.00  0.00     0.031 C 
ATOM     69  C   UNL A   1      38.519  32.496  36.093  1.00  0.00     0.031 A 
BRANCH  56  70
ATOM     70  C   UNL A   1      43.732  28.959  36.575  1.00  0.00    -0.014 A 
ATOM     71  C   UNL A   1      43.834  27.836  37.425  1.00  0.00     0.009 A 
ATOM     72  C   UNL A   1      44.961  29.612  36.347  1.00  0.00     0.009 A 
ATOM     73  C   UNL A   1      45.045  27.417  38.017  1.00  0.00     0.001 A 
ATOM     74  C   UNL A   1      46.178  29.207  36.936  1.00  0.00     0.001 A 
ATOM     75  C   UNL A   1      46.222  28.105  37.774  1.00  0.00     0.000 A 
ENDBRANCH  56  70
BRANCH  57  76
ATOM     76  C   UNL A   1      36.780  32.595  30.104  1.00  0.00    -0.014 A 
ATOM     77  C   UNL A   1      35.495  31.999  30.290  1.00  0.00     0.009 A 
ATOM     78  C   UNL A   1      36.972  33.315  28.912  1.00  0.00     0.009 A 
ATOM     79  C   UNL A   1      34.396  32.353  29.489  1.00  0.00     0.001 A 
ATOM     80  C   UNL A   1      35.869  33.622  28.084  1.00  0.00     0.001 A 
ATOM     81  C   UNL A   1      34.576  33.211  28.414  1.00  0.00     0.000 A 
ENDBRANCH  57  76
BRANCH  69  82
ATOM     82  C   UNL A   1      37.963  32.560  37.494  1.00  0.00    -0.014 A 
ATOM     83  C   UNL A   1      37.324  31.464  38.080  1.00  0.00     0.009 A 
ATOM     84  C   UNL A   1      38.319  33.634  38.345  1.00  0.00     0.009 A 
ATOM     85  C   UNL A   1      37.030  31.451  39.443  1.00  0.00     0.001 A 
ATOM     86  C   UNL A   1      38.077  33.599  39.714  1.00  0.00     0.001 A 
ATOM     87  C   UNL A   1      37.420  32.508  40.260  1.00  0.00     0.000 A 
ENDBRANCH  69  82
ENDBRANCH  43  44
ENDBRANCH  36  38
ENDBRANCH  35  36
ENDBRANCH  34  35
ENDBRANCH  33  34
ENDBRANCH  32  33
ENDBRANCH  31  32
ENDBRANCH  30  31
ENDBRANCH   1  30
TORSDOF 22
ENDMDL
MODEL 3
REMARK VINA RESULT:     -10.4      4.785      6.967
REMARK SMILES Cc1ccc(S(=O)(=O)N2c3ccc(C(=O)OCCOCCOCCOCCOC(=O)c4ccc(-c5c6nc(c(-c7ccccc7)c7ccc([nH]7)c(-c7ccccc7)c7nc(c(-c8ccccc8)c8ccc5[nH]8)C=C7)C=C6)cc4)cc3C[C@H]2C)cc1
REMARK SMILES IDX 22 1 21 2 20 3 19 4 18 5 17 6 16 7 14 8 15 9 13 10 9 11
REMARK SMILES IDX 10 12 82 13 11 14 80 15 81 16 83 17 12 18 79 19 6 20 7 21
REMARK SMILES IDX 8 22 5 23 1 24 2 25 3 26 85 27 4 28 84 29 23 30 24 31 25 32
REMARK SMILES IDX 26 33 27 34 28 35 29 36 30 37 31 38 32 39 78 40 33 41 77 42
REMARK SMILES IDX 34 43 35 44 36 45 71 46 37 47 76 48 70 49 72 50 38 51 75 52
REMARK SMILES IDX 69 53 68 54 39 56 61 57 46 58 60 59 47 60 50 61 59 62 73 63
REMARK SMILES IDX 48 64 49 65 58 67 74 68 51 69 40 70 41 71 45 72 42 73 44 74
REMARK SMILES IDX 43 75 62 76 63 77 67 78 64 79 66 80 65 81 52 82 53 83 57 84
REMARK SMILES IDX 54 85 56 86 55 87
REMARK H PARENT 72 55 50 66
REMARK Flexibility Score: inf
ROOT
ATOM      1  O   UNL A   1      33.583  29.161  26.382  1.00  0.00    -0.377 OA
ENDROOT
BRANCH   1   2
ATOM      2  C   UNL A   1      32.909  29.541  25.195  1.00  0.00     0.188 C 
BRANCH   2   3
ATOM      3  C   UNL A   1      31.369  29.714  25.123  1.00  0.00     0.188 C 
BRANCH   3   4
ATOM      4  O   UNL A   1      30.540  28.821  24.407  1.00  0.00    -0.376 OA
BRANCH   4   5
ATOM      5  C   UNL A   1      30.714  28.831  23.010  1.00  0.00     0.202 C 
BRANCH   5   6
ATOM      6  C   UNL A   1      31.116  27.543  22.331  1.00  0.00     0.261 C 
BRANCH   6   7
ATOM      7  O   UNL A   1      32.534  27.494  22.358  1.00  0.00    -0.460 OA
BRANCH   7   8
ATOM      8  C   UNL A   1      32.994  26.299  21.988  1.00  0.00     0.338 C 
ATOM      9  O   UNL A   1      33.268  25.928  20.873  1.00  0.00    -0.246 OA
BRANCH   8  10
ATOM     10  C   UNL A   1      33.458  25.672  23.233  1.00  0.00     0.060 A 
ATOM     11  N   UNL A   1      35.044  23.369  26.291  1.00  0.00    -0.263 N 
ATOM     12  C   UNL A   1      34.530  24.388  25.400  1.00  0.00     0.055 A 
ATOM     13  C   UNL A   1      36.260  22.842  25.539  1.00  0.00     0.101 C 
ATOM     14  C   UNL A   1      33.534  25.314  25.644  1.00  0.00     0.028 A 
ATOM     15  C   UNL A   1      35.048  24.197  24.121  1.00  0.00    -0.021 A 
ATOM     16  C   UNL A   1      36.091  23.158  24.058  1.00  0.00     0.063 C 
ATOM     17  C   UNL A   1      37.476  23.572  26.126  1.00  0.00     0.032 C 
ATOM     18  C   UNL A   1      33.000  25.977  24.537  1.00  0.00     0.018 A 
ATOM     19  C   UNL A   1      34.517  24.810  23.026  1.00  0.00     0.021 A 
BRANCH  11  20
ATOM     20  S   UNL A   1      33.741  22.264  26.625  1.00  0.00     0.264 S 
ATOM     21  O   UNL A   1      32.523  23.046  26.736  1.00  0.00    -0.201 OA
ATOM     22  O   UNL A   1      34.173  21.410  27.715  1.00  0.00    -0.201 OA
BRANCH  20  23
ATOM     23  C   UNL A   1      33.466  21.188  25.241  1.00  0.00     0.088 A 
ATOM     24  C   UNL A   1      32.160  18.078  22.590  1.00  0.00     0.044 C 
ATOM     25  C   UNL A   1      32.651  19.168  23.492  1.00  0.00    -0.051 A 
ATOM     26  C   UNL A   1      33.643  18.910  24.444  1.00  0.00     0.005 A 
ATOM     27  C   UNL A   1      32.153  20.466  23.358  1.00  0.00     0.005 A 
ATOM     28  C   UNL A   1      34.029  19.909  25.337  1.00  0.00     0.022 A 
ATOM     29  C   UNL A   1      32.610  21.486  24.189  1.00  0.00     0.022 A 
ENDBRANCH  20  23
ENDBRANCH  11  20
ENDBRANCH   8  10
ENDBRANCH   7   8
ENDBRANCH   6   7
ENDBRANCH   5   6
ENDBRANCH   4   5
ENDBRANCH   3   4
ENDBRANCH   2   3
ENDBRANCH   1   2
BRANCH   1  30
ATOM     30  C   UNL A   1      34.225  30.188  27.121  1.00  0.00     0.188 C 
BRANCH  30  31
ATOM     31  C   UNL A   1      33.408  31.343  27.625  1.00  0.00     0.188 C 
BRANCH  31  32
ATOM     32  O   UNL A   1      34.285  32.435  27.862  1.00  0.00    -0.376 OA
BRANCH  32  33
ATOM     33  C   UNL A   1      34.801  32.477  29.185  1.00  0.00     0.202 C 
BRANCH  33  34
ATOM     34  C   UNL A   1      36.335  32.577  29.255  1.00  0.00     0.261 C 
BRANCH  34  35
ATOM     35  O   UNL A   1      36.837  31.527  30.110  1.00  0.00    -0.460 OA
BRANCH  35  36
ATOM     36  C   UNL A   1      36.986  30.298  29.540  1.00  0.00     0.338 C 
ATOM     37  O   UNL A   1      36.276  29.329  29.754  1.00  0.00    -0.246 OA
BRANCH  36  38
ATOM     38  C   UNL A   1      38.319  30.212  28.867  1.00  0.00     0.060 A 
ATOM     39  C   UNL A   1      38.473  29.501  27.664  1.00  0.00     0.016 A 
ATOM     40  C   UNL A   1      39.448  30.544  29.599  1.00  0.00     0.016 A 
ATOM     41  C   UNL A   1      39.728  28.968  27.300  1.00  0.00     0.010 A 
ATOM     42  C   UNL A   1      40.649  29.938  29.285  1.00  0.00     0.010 A 
ATOM     43  C   UNL A   1      40.811  29.099  28.164  1.00  0.00    -0.014 A 
BRANCH  43  44
ATOM     44  C   UNL A   1      42.100  28.352  28.073  1.00  0.00     0.031 A 
ATOM     45  C   UNL A   1      42.084  26.884  28.422  1.00  0.00     0.074 A 
ATOM     46  C   UNL A   1      43.103  28.867  27.301  1.00  0.00     0.049 A 
ATOM     47  N   UNL A   1      43.067  26.056  28.310  1.00  0.00    -0.248 NA
ATOM     48  C   UNL A   1      40.864  26.195  28.846  1.00  0.00     0.031 C 
ATOM     49  C   UNL A   1      44.186  28.170  26.601  1.00  0.00     0.029 A 
ATOM     50  N   UNL A   1      43.334  30.183  26.908  1.00  0.00    -0.354 N 
ATOM     51  C   UNL A   1      42.546  24.767  28.223  1.00  0.00     0.074 A 
ATOM     52  C   UNL A   1      41.174  24.913  28.636  1.00  0.00     0.031 C 
ATOM     53  C   UNL A   1      45.014  29.027  25.979  1.00  0.00     0.029 A 
ATOM     54  C   UNL A   1      44.677  30.321  26.503  1.00  0.00     0.049 A 
ATOM     55  H   UNL A   1      42.664  30.904  26.913  1.00  0.00     0.167 HD
ATOM     56  C   UNL A   1      43.287  23.765  27.639  1.00  0.00     0.031 A 
ATOM     57  C   UNL A   1      45.520  31.064  27.274  1.00  0.00     0.031 A 
ATOM     58  C   UNL A   1      44.652  24.241  27.282  1.00  0.00     0.049 A 
ATOM     59  C   UNL A   1      46.429  30.063  28.007  1.00  0.00     0.074 A 
ATOM     60  C   UNL A   1      45.419  24.252  26.127  1.00  0.00     0.029 A 
ATOM     61  N   UNL A   1      45.342  25.076  28.176  1.00  0.00    -0.354 N 
ATOM     62  N   UNL A   1      46.060  28.842  28.355  1.00  0.00    -0.248 NA
ATOM     63  C   UNL A   1      47.882  30.219  28.050  1.00  0.00     0.031 C 
ATOM     64  C   UNL A   1      46.418  25.268  26.268  1.00  0.00     0.029 A 
ATOM     65  C   UNL A   1      46.325  25.817  27.543  1.00  0.00     0.049 A 
ATOM     66  H   UNL A   1      45.150  25.127  29.141  1.00  0.00     0.167 HD
ATOM     67  C   UNL A   1      47.167  28.026  28.401  1.00  0.00     0.074 A 
ATOM     68  C   UNL A   1      48.286  28.960  28.302  1.00  0.00     0.031 C 
ATOM     69  C   UNL A   1      47.240  26.655  28.319  1.00  0.00     0.031 A 
BRANCH  56  70
ATOM     70  C   UNL A   1      42.701  22.418  27.152  1.00  0.00    -0.014 A 
ATOM     71  C   UNL A   1      43.428  21.588  26.272  1.00  0.00     0.009 A 
ATOM     72  C   UNL A   1      41.436  21.903  27.503  1.00  0.00     0.009 A 
ATOM     73  C   UNL A   1      42.931  20.368  25.763  1.00  0.00     0.001 A 
ATOM     74  C   UNL A   1      40.924  20.688  26.998  1.00  0.00     0.001 A 
ATOM     75  C   UNL A   1      41.673  19.917  26.126  1.00  0.00     0.000 A 
ENDBRANCH  56  70
BRANCH  57  76
ATOM     76  C   UNL A   1      44.811  32.356  27.610  1.00  0.00    -0.014 A 
ATOM     77  C   UNL A   1      45.144  32.876  28.898  1.00  0.00     0.009 A 
ATOM     78  C   UNL A   1      44.490  33.297  26.617  1.00  0.00     0.009 A 
ATOM     79  C   UNL A   1      45.429  34.238  29.091  1.00  0.00     0.001 A 
ATOM     80  C   UNL A   1      44.730  34.672  26.838  1.00  0.00     0.001 A 
ATOM     81  C   UNL A   1      45.273  35.130  28.040  1.00  0.00     0.000 A 
ENDBRANCH  57  76
BRANCH  69  82
ATOM     82  C   UNL A   1      48.288  25.897  29.097  1.00  0.00    -0.014 A 
ATOM     83  C   UNL A   1      49.419  25.364  28.474  1.00  0.00     0.009 A 
ATOM     84  C   UNL A   1      48.290  25.950  30.511  1.00  0.00     0.009 A 
ATOM     85  C   UNL A   1      50.489  24.880  29.226  1.00  0.00     0.001 A 
ATOM     86  C   UNL A   1      49.379  25.520  31.261  1.00  0.00     0.001 A 
ATOM     87  C   UNL A   1      50.477  24.973  30.614  1.00  0.00     0.000 A 
ENDBRANCH  69  82
ENDBRANCH  43  44
ENDBRANCH  36  38
ENDBRANCH  35  36
ENDBRANCH  34  35
ENDBRANCH  33  34
ENDBRANCH  32  33
ENDBRANCH  31  32
ENDBRANCH  30  31
ENDBRANCH   1  30
TORSDOF 22
ENDMDL
