MODEL 1
REMARK VINA RESULT:      -9.5      0.000      0.000
REMARK SMILES O=C(OCCOCCOCCOCCOC(=O)[C@H]1CC[C@H]2CCCC[C@@H]2[N@H+]1[C@@H]1CCCSC1)c1ccc(-c2c3nc(c(-c4ccccc4)c4ccc([nH]4)c(-c4ccccc4)c4nc(c(-c5ccccc5)c5ccc2[nH]5)C=C4)C=C3)cc1
REMARK SMILES IDX 8 1 7 2 6 3 5 4 4 5 3 6 2 7 1 8 34 9 35 10 81 11 36 12 80 13
REMARK SMILES IDX 37 14 38 15 39 16 74 17 40 18 79 19 73 20 75 21 41 22 78 23
REMARK SMILES IDX 72 24 71 25 42 27 64 28 49 29 63 30 50 31 53 32 62 33 76 34
REMARK SMILES IDX 51 35 52 36 61 38 77 39 54 40 43 41 44 42 48 43 45 44 47 45
REMARK SMILES IDX 46 46 65 47 66 48 70 49 67 50 69 51 68 52 55 53 56 54 60 55
REMARK SMILES IDX 57 56 59 57 58 58 9 59 10 60 11 61 12 62 13 63 14 64 15 65
REMARK SMILES IDX 16 66 17 67 18 68 19 69 27 70 20 71 26 72 21 74 25 75 22 76
REMARK SMILES IDX 24 77 23 78 28 79 29 80 33 81 30 82 32 83 31 84
REMARK H PARENT 75 26 53 37 27 73
REMARK Flexibility Score: inf
ROOT
ATOM      1  C   UNL A   1      38.592  21.398  26.079  1.00  0.00     0.188 C 
ENDROOT
BRANCH   1   2
ATOM      2  C   UNL A   1      40.055  21.844  26.105  1.00  0.00     0.188 C 
BRANCH   2   3
ATOM      3  O   UNL A   1      40.775  21.206  27.162  1.00  0.00    -0.376 OA
BRANCH   3   4
ATOM      4  C   UNL A   1      42.095  20.754  26.852  1.00  0.00     0.202 C 
BRANCH   4   5
ATOM      5  C   UNL A   1      42.793  21.555  25.758  1.00  0.00     0.261 C 
BRANCH   5   6
ATOM      6  O   UNL A   1      43.467  22.720  26.252  1.00  0.00    -0.460 OA
BRANCH   6   7
ATOM      7  C   UNL A   1      43.278  24.015  25.898  1.00  0.00     0.338 C 
ATOM      8  O   UNL A   1      43.568  24.347  24.748  1.00  0.00    -0.246 OA
BRANCH   7   9
ATOM      9  C   UNL A   1      42.714  25.069  26.796  1.00  0.00     0.060 A 
ATOM     10  C   UNL A   1      43.133  26.397  26.864  1.00  0.00     0.016 A 
ATOM     11  C   UNL A   1      41.616  24.693  27.588  1.00  0.00     0.016 A 
ATOM     12  C   UNL A   1      42.549  27.308  27.725  1.00  0.00     0.010 A 
ATOM     13  C   UNL A   1      41.006  25.604  28.454  1.00  0.00     0.010 A 
ATOM     14  C   UNL A   1      41.504  26.908  28.544  1.00  0.00    -0.014 A 
BRANCH  14  15
ATOM     15  C   UNL A   1      41.141  27.819  29.636  1.00  0.00     0.031 A 
ATOM     16  C   UNL A   1      42.024  27.820  30.845  1.00  0.00     0.074 A 
ATOM     17  C   UNL A   1      40.186  28.746  29.445  1.00  0.00     0.049 A 
ATOM     18  N   UNL A   1      41.912  28.495  31.954  1.00  0.00    -0.248 NA
ATOM     19  C   UNL A   1      43.217  26.953  30.787  1.00  0.00     0.031 C 
ATOM     20  C   UNL A   1      39.415  28.927  28.211  1.00  0.00     0.029 A 
ATOM     21  N   UNL A   1      39.737  29.740  30.269  1.00  0.00    -0.354 N 
ATOM     22  C   UNL A   1      42.995  28.109  32.733  1.00  0.00     0.074 A 
ATOM     23  C   UNL A   1      43.750  27.136  31.983  1.00  0.00     0.031 C 
ATOM     24  C   UNL A   1      38.600  29.984  28.356  1.00  0.00     0.029 A 
ATOM     25  C   UNL A   1      38.735  30.497  29.713  1.00  0.00     0.049 A 
ATOM     26  H   UNL A   1      40.098  29.899  31.171  1.00  0.00     0.167 HD
ATOM     27  C   UNL A   1      43.320  28.536  33.974  1.00  0.00     0.031 A 
ATOM     28  C   UNL A   1      37.986  31.463  30.274  1.00  0.00     0.031 A 
ATOM     29  C   UNL A   1      42.532  29.497  34.691  1.00  0.00     0.049 A 
ATOM     30  C   UNL A   1      38.271  31.810  31.710  1.00  0.00     0.074 A 
ATOM     31  C   UNL A   1      42.671  29.942  35.990  1.00  0.00     0.029 A 
ATOM     32  N   UNL A   1      41.445  30.167  34.144  1.00  0.00    -0.354 N 
ATOM     33  N   UNL A   1      39.226  31.362  32.494  1.00  0.00    -0.248 NA
ATOM     34  C   UNL A   1      37.371  32.777  32.346  1.00  0.00     0.031 C 
ATOM     35  C   UNL A   1      41.634  30.847  36.244  1.00  0.00     0.029 A 
ATOM     36  C   UNL A   1      40.890  31.013  35.082  1.00  0.00     0.049 A 
ATOM     37  H   UNL A   1      41.117  30.054  33.222  1.00  0.00     0.167 HD
ATOM     38  C   UNL A   1      39.056  32.008  33.709  1.00  0.00     0.074 A 
ATOM     39  C   UNL A   1      37.920  32.898  33.546  1.00  0.00     0.031 C 
ATOM     40  C   UNL A   1      39.762  31.882  34.861  1.00  0.00     0.031 A 
BRANCH  27  41
ATOM     41  C   UNL A   1      44.507  27.888  34.627  1.00  0.00    -0.014 A 
ATOM     42  C   UNL A   1      44.381  26.711  35.385  1.00  0.00     0.009 A 
ATOM     43  C   UNL A   1      45.765  28.500  34.532  1.00  0.00     0.009 A 
ATOM     44  C   UNL A   1      45.484  26.187  36.066  1.00  0.00     0.001 A 
ATOM     45  C   UNL A   1      46.871  27.960  35.191  1.00  0.00     0.001 A 
ATOM     46  C   UNL A   1      46.727  26.811  35.966  1.00  0.00     0.000 A 
ENDBRANCH  27  41
BRANCH  28  47
ATOM     47  C   UNL A   1      36.858  32.087  29.528  1.00  0.00    -0.014 A 
ATOM     48  C   UNL A   1      35.574  31.520  29.538  1.00  0.00     0.009 A 
ATOM     49  C   UNL A   1      37.072  33.245  28.760  1.00  0.00     0.009 A 
ATOM     50  C   UNL A   1      34.546  32.077  28.769  1.00  0.00     0.001 A 
ATOM     51  C   UNL A   1      36.037  33.819  28.021  1.00  0.00     0.001 A 
ATOM     52  C   UNL A   1      34.777  33.226  28.014  1.00  0.00     0.000 A 
ENDBRANCH  28  47
BRANCH  40  53
ATOM     53  C   UNL A   1      39.346  32.762  36.001  1.00  0.00    -0.014 A 
ATOM     54  C   UNL A   1      40.033  33.948  36.295  1.00  0.00     0.009 A 
ATOM     55  C   UNL A   1      38.218  32.413  36.761  1.00  0.00     0.009 A 
ATOM     56  C   UNL A   1      39.619  34.753  37.356  1.00  0.00     0.001 A 
ATOM     57  C   UNL A   1      37.787  33.237  37.797  1.00  0.00     0.001 A 
ATOM     58  C   UNL A   1      38.493  34.400  38.100  1.00  0.00     0.000 A 
ENDBRANCH  40  53
ENDBRANCH  14  15
ENDBRANCH   7   9
ENDBRANCH   6   7
ENDBRANCH   5   6
ENDBRANCH   4   5
ENDBRANCH   3   4
ENDBRANCH   2   3
ENDBRANCH   1   2
BRANCH   1  59
ATOM     59  O   UNL A   1      37.799  22.007  25.064  1.00  0.00    -0.377 OA
BRANCH  59  60
ATOM     60  C   UNL A   1      36.652  21.272  24.654  1.00  0.00     0.188 C 
BRANCH  60  61
ATOM     61  C   UNL A   1      35.331  21.449  25.435  1.00  0.00     0.188 C 
BRANCH  61  62
ATOM     62  O   UNL A   1      35.139  22.751  25.969  1.00  0.00    -0.376 OA
BRANCH  62  63
ATOM     63  C   UNL A   1      34.654  23.719  25.044  1.00  0.00     0.202 C 
BRANCH  63  64
ATOM     64  C   UNL A   1      33.297  23.440  24.370  1.00  0.00     0.261 C 
BRANCH  64  65
ATOM     65  O   UNL A   1      32.398  24.561  24.301  1.00  0.00    -0.459 OA
BRANCH  65  66
ATOM     66  C   UNL A   1      32.512  25.465  23.285  1.00  0.00     0.365 C 
ATOM     67  O   UNL A   1      33.477  25.553  22.552  1.00  0.00    -0.245 OA
BRANCH  66  68
ATOM     68  C   UNL A   1      31.199  26.304  23.178  1.00  0.00     0.295 C 
ATOM     69  C   UNL A   1      29.979  25.480  23.593  1.00  0.00     0.078 C 
ATOM     70  N   UNL A   1      31.303  27.687  23.757  1.00  0.00    -0.317 N 
ATOM     71  C   UNL A   1      28.742  26.334  23.873  1.00  0.00     0.016 C 
ATOM     72  C   UNL A   1      30.050  28.469  23.680  1.00  0.00     0.188 C 
ATOM     73  H   UNL A   1      31.947  28.138  23.105  1.00  0.00     0.349 HD
ATOM     74  C   UNL A   1      28.828  27.683  23.160  1.00  0.00     0.048 C 
ATOM     75  C   UNL A   1      30.202  29.737  22.811  1.00  0.00     0.065 C 
ATOM     76  C   UNL A   1      27.567  28.531  23.381  1.00  0.00     0.010 C 
ATOM     77  C   UNL A   1      28.956  30.623  22.929  1.00  0.00     0.006 C 
ATOM     78  C   UNL A   1      27.659  29.867  22.640  1.00  0.00     0.001 C 
BRANCH  70  79
ATOM     79  C   UNL A   1      32.037  27.831  25.043  1.00  0.00     0.195 C 
ATOM     80  C   UNL A   1      31.140  28.257  26.217  1.00  0.00     0.067 C 
ATOM     81  C   UNL A   1      33.281  28.753  24.911  1.00  0.00     0.134 C 
ATOM     82  C   UNL A   1      31.876  28.213  27.553  1.00  0.00     0.017 C 
ATOM     83  S   UNL A   1      34.316  28.800  26.409  1.00  0.00    -0.156 SA
ATOM     84  C   UNL A   1      33.028  29.202  27.621  1.00  0.00     0.070 C 
ENDBRANCH  70  79
ENDBRANCH  66  68
ENDBRANCH  65  66
ENDBRANCH  64  65
ENDBRANCH  63  64
ENDBRANCH  62  63
ENDBRANCH  61  62
ENDBRANCH  60  61
ENDBRANCH  59  60
ENDBRANCH   1  59
TORSDOF 21
ENDMDL
MODEL 2
REMARK VINA RESULT:      -9.5      1.598      6.248
REMARK SMILES O=C(OCCOCCOCCOCCOC(=O)[C@H]1CC[C@H]2CCCC[C@@H]2[N@H+]1[C@@H]1CCCSC1)c1ccc(-c2c3nc(c(-c4ccccc4)c4ccc([nH]4)c(-c4ccccc4)c4nc(c(-c5ccccc5)c5ccc2[nH]5)C=C4)C=C3)cc1
REMARK SMILES IDX 8 1 7 2 6 3 5 4 4 5 3 6 2 7 1 8 34 9 35 10 81 11 36 12 80 13
REMARK SMILES IDX 37 14 38 15 39 16 74 17 40 18 79 19 73 20 75 21 41 22 78 23
REMARK SMILES IDX 72 24 71 25 42 27 64 28 49 29 63 30 50 31 53 32 62 33 76 34
REMARK SMILES IDX 51 35 52 36 61 38 77 39 54 40 43 41 44 42 48 43 45 44 47 45
REMARK SMILES IDX 46 46 65 47 66 48 70 49 67 50 69 51 68 52 55 53 56 54 60 55
REMARK SMILES IDX 57 56 59 57 58 58 9 59 10 60 11 61 12 62 13 63 14 64 15 65
REMARK SMILES IDX 16 66 17 67 18 68 19 69 27 70 20 71 26 72 21 74 25 75 22 76
REMARK SMILES IDX 24 77 23 78 28 79 29 80 33 81 30 82 32 83 31 84
REMARK H PARENT 75 26 53 37 27 73
REMARK Flexibility Score: inf
ROOT
ATOM      1  C   UNL A   1      40.035  22.318  26.992  1.00  0.00     0.188 C 
ENDROOT
BRANCH   1   2
ATOM      2  C   UNL A   1      40.991  21.571  26.059  1.00  0.00     0.188 C 
BRANCH   2   3
ATOM      3  O   UNL A   1      42.292  21.449  26.635  1.00  0.00    -0.376 OA
BRANCH   3   4
ATOM      4  C   UNL A   1      43.400  21.713  25.772  1.00  0.00     0.202 C 
BRANCH   4   5
ATOM      5  C   UNL A   1      43.142  22.799  24.733  1.00  0.00     0.261 C 
BRANCH   5   6
ATOM      6  O   UNL A   1      44.116  23.852  24.762  1.00  0.00    -0.460 OA
BRANCH   6   7
ATOM      7  C   UNL A   1      44.692  24.435  25.840  1.00  0.00     0.338 C 
ATOM      8  O   UNL A   1      45.887  24.217  26.046  1.00  0.00    -0.246 OA
BRANCH   7   9
ATOM      9  C   UNL A   1      43.989  25.354  26.789  1.00  0.00     0.060 A 
ATOM     10  C   UNL A   1      44.204  26.726  26.912  1.00  0.00     0.016 A 
ATOM     11  C   UNL A   1      42.972  24.783  27.574  1.00  0.00     0.016 A 
ATOM     12  C   UNL A   1      43.503  27.501  27.817  1.00  0.00     0.010 A 
ATOM     13  C   UNL A   1      42.245  25.554  28.484  1.00  0.00     0.010 A 
ATOM     14  C   UNL A   1      42.542  26.913  28.627  1.00  0.00    -0.014 A 
BRANCH  14  15
ATOM     15  C   UNL A   1      42.062  27.712  29.761  1.00  0.00     0.031 A 
ATOM     16  C   UNL A   1      40.755  28.422  29.590  1.00  0.00     0.074 A 
ATOM     17  C   UNL A   1      42.677  27.619  30.953  1.00  0.00     0.049 A 
ATOM     18  N   UNL A   1      40.128  29.215  30.413  1.00  0.00    -0.248 NA
ATOM     19  C   UNL A   1      40.043  28.188  28.318  1.00  0.00     0.031 C 
ATOM     20  C   UNL A   1      43.850  26.786  31.239  1.00  0.00     0.029 A 
ATOM     21  N   UNL A   1      42.371  28.191  32.156  1.00  0.00    -0.354 N 
ATOM     22  C   UNL A   1      38.970  29.597  29.746  1.00  0.00     0.074 A 
ATOM     23  C   UNL A   1      38.981  28.964  28.451  1.00  0.00     0.031 C 
ATOM     24  C   UNL A   1      44.151  26.890  32.543  1.00  0.00     0.029 A 
ATOM     25  C   UNL A   1      43.248  27.854  33.158  1.00  0.00     0.049 A 
ATOM     26  H   UNL A   1      41.599  28.786  32.290  1.00  0.00     0.167 HD
ATOM     27  C   UNL A   1      37.989  30.415  30.189  1.00  0.00     0.031 A 
ATOM     28  C   UNL A   1      43.324  28.322  34.416  1.00  0.00     0.031 A 
ATOM     29  C   UNL A   1      38.025  31.035  31.481  1.00  0.00     0.049 A 
ATOM     30  C   UNL A   1      42.306  29.350  34.832  1.00  0.00     0.074 A 
ATOM     31  C   UNL A   1      37.166  31.968  32.025  1.00  0.00     0.029 A 
ATOM     32  N   UNL A   1      38.994  30.765  32.441  1.00  0.00    -0.354 N 
ATOM     33  N   UNL A   1      41.272  29.806  34.163  1.00  0.00    -0.248 NA
ATOM     34  C   UNL A   1      42.473  29.942  36.164  1.00  0.00     0.031 C 
ATOM     35  C   UNL A   1      37.645  32.300  33.297  1.00  0.00     0.029 A 
ATOM     36  C   UNL A   1      38.764  31.525  33.570  1.00  0.00     0.049 A 
ATOM     37  H   UNL A   1      39.736  30.127  32.331  1.00  0.00     0.167 HD
ATOM     38  C   UNL A   1      40.650  30.721  34.998  1.00  0.00     0.074 A 
ATOM     39  C   UNL A   1      41.413  30.734  36.234  1.00  0.00     0.031 C 
ATOM     40  C   UNL A   1      39.556  31.491  34.775  1.00  0.00     0.031 A 
BRANCH  27  41
ATOM     41  C   UNL A   1      36.882  30.732  29.225  1.00  0.00    -0.014 A 
ATOM     42  C   UNL A   1      36.679  32.034  28.736  1.00  0.00     0.009 A 
ATOM     43  C   UNL A   1      35.988  29.719  28.846  1.00  0.00     0.009 A 
ATOM     44  C   UNL A   1      35.578  32.319  27.922  1.00  0.00     0.001 A 
ATOM     45  C   UNL A   1      34.906  30.001  28.010  1.00  0.00     0.001 A 
ATOM     46  C   UNL A   1      34.696  31.303  27.559  1.00  0.00     0.000 A 
ENDBRANCH  27  41
BRANCH  28  47
ATOM     47  C   UNL A   1      44.434  27.910  35.320  1.00  0.00    -0.014 A 
ATOM     48  C   UNL A   1      45.666  28.582  35.317  1.00  0.00     0.009 A 
ATOM     49  C   UNL A   1      44.277  26.804  36.173  1.00  0.00     0.009 A 
ATOM     50  C   UNL A   1      46.722  28.132  36.117  1.00  0.00     0.001 A 
ATOM     51  C   UNL A   1      45.320  26.378  36.996  1.00  0.00     0.001 A 
ATOM     52  C   UNL A   1      46.548  27.034  36.957  1.00  0.00     0.000 A 
ENDBRANCH  28  47
BRANCH  40  53
ATOM     53  C   UNL A   1      39.106  32.362  35.909  1.00  0.00    -0.014 A 
ATOM     54  C   UNL A   1      39.585  33.671  36.057  1.00  0.00     0.009 A 
ATOM     55  C   UNL A   1      38.152  31.871  36.814  1.00  0.00     0.009 A 
ATOM     56  C   UNL A   1      39.143  34.464  37.116  1.00  0.00     0.001 A 
ATOM     57  C   UNL A   1      37.686  32.677  37.850  1.00  0.00     0.001 A 
ATOM     58  C   UNL A   1      38.189  33.968  38.007  1.00  0.00     0.000 A 
ENDBRANCH  40  53
ENDBRANCH  14  15
ENDBRANCH   7   9
ENDBRANCH   6   7
ENDBRANCH   5   6
ENDBRANCH   4   5
ENDBRANCH   3   4
ENDBRANCH   2   3
ENDBRANCH   1   2
BRANCH   1  59
ATOM     59  O   UNL A   1      39.501  23.526  26.458  1.00  0.00    -0.377 OA
BRANCH  59  60
ATOM     60  C   UNL A   1      38.119  23.493  26.122  1.00  0.00     0.188 C 
BRANCH  60  61
ATOM     61  C   UNL A   1      37.559  22.258  25.379  1.00  0.00     0.188 C 
BRANCH  61  62
ATOM     62  O   UNL A   1      36.179  22.017  25.609  1.00  0.00    -0.376 OA
BRANCH  62  63
ATOM     63  C   UNL A   1      35.541  22.939  26.486  1.00  0.00     0.202 C 
BRANCH  63  64
ATOM     64  C   UNL A   1      34.002  23.001  26.455  1.00  0.00     0.261 C 
BRANCH  64  65
ATOM     65  O   UNL A   1      33.426  24.266  26.829  1.00  0.00    -0.459 OA
BRANCH  65  66
ATOM     66  C   UNL A   1      32.069  24.413  26.864  1.00  0.00     0.365 C 
ATOM     67  O   UNL A   1      31.308  23.624  27.389  1.00  0.00    -0.245 OA
BRANCH  66  68
ATOM     68  C   UNL A   1      31.669  25.765  26.193  1.00  0.00     0.295 C 
ATOM     69  C   UNL A   1      32.675  26.868  26.528  1.00  0.00     0.078 C 
ATOM     70  N   UNL A   1      31.263  25.642  24.751  1.00  0.00    -0.317 N 
ATOM     71  C   UNL A   1      32.558  28.089  25.613  1.00  0.00     0.016 C 
ATOM     72  C   UNL A   1      30.914  26.928  24.111  1.00  0.00     0.188 C 
ATOM     73  H   UNL A   1      30.386  25.126  24.826  1.00  0.00     0.349 HD
ATOM     74  C   UNL A   1      31.168  28.175  24.983  1.00  0.00     0.048 C 
ATOM     75  C   UNL A   1      29.442  26.970  23.644  1.00  0.00     0.065 C 
ATOM     76  C   UNL A   1      31.011  29.428  24.108  1.00  0.00     0.010 C 
ATOM     77  C   UNL A   1      29.179  28.224  22.802  1.00  0.00     0.006 C 
ATOM     78  C   UNL A   1      29.607  29.512  23.506  1.00  0.00     0.001 C 
BRANCH  70  79
ATOM     79  C   UNL A   1      32.070  24.730  23.895  1.00  0.00     0.195 C 
ATOM     80  C   UNL A   1      32.588  25.395  22.609  1.00  0.00     0.067 C 
ATOM     81  C   UNL A   1      31.328  23.399  23.592  1.00  0.00     0.134 C 
ATOM     82  C   UNL A   1      33.562  24.500  21.848  1.00  0.00     0.017 C 
ATOM     83  S   UNL A   1      32.354  22.177  22.712  1.00  0.00    -0.156 SA
ATOM     84  C   UNL A   1      32.913  23.224  21.340  1.00  0.00     0.070 C 
ENDBRANCH  70  79
ENDBRANCH  66  68
ENDBRANCH  65  66
ENDBRANCH  64  65
ENDBRANCH  63  64
ENDBRANCH  62  63
ENDBRANCH  61  62
ENDBRANCH  60  61
ENDBRANCH  59  60
ENDBRANCH   1  59
TORSDOF 21
ENDMDL
MODEL 3
REMARK VINA RESULT:      -9.5      4.116      6.190
REMARK SMILES O=C(OCCOCCOCCOCCOC(=O)[C@H]1CC[C@H]2CCCC[C@@H]2[N@H+]1[C@@H]1CCCSC1)c1ccc(-c2c3nc(c(-c4ccccc4)c4ccc([nH]4)c(-c4ccccc4)c4nc(c(-c5ccccc5)c5ccc2[nH]5)C=C4)C=C3)cc1
REMARK SMILES IDX 8 1 7 2 6 3 5 4 4 5 3 6 2 7 1 8 34 9 35 10 81 11 36 12 80 13
REMARK SMILES IDX 37 14 38 15 39 16 74 17 40 18 79 19 73 20 75 21 41 22 78 23
REMARK SMILES IDX 72 24 71 25 42 27 64 28 49 29 63 30 50 31 53 32 62 33 76 34
REMARK SMILES IDX 51 35 52 36 61 38 77 39 54 40 43 41 44 42 48 43 45 44 47 45
REMARK SMILES IDX 46 46 65 47 66 48 70 49 67 50 69 51 68 52 55 53 56 54 60 55
REMARK SMILES IDX 57 56 59 57 58 58 9 59 10 60 11 61 12 62 13 63 14 64 15 65
REMARK SMILES IDX 16 66 17 67 18 68 19 69 27 70 20 71 26 72 21 74 25 75 22 76
REMARK SMILES IDX 24 77 23 78 28 79 29 80 33 81 30 82 32 83 31 84
REMARK H PARENT 75 26 53 37 27 73
REMARK Flexibility Score: inf
ROOT
ATOM      1  C   UNL A   1      35.189  20.373  24.989  1.00  0.00     0.188 C 
ENDROOT
BRANCH   1   2
ATOM      2  C   UNL A   1      35.656  18.923  24.849  1.00  0.00     0.188 C 
BRANCH   2   3
ATOM      3  O   UNL A   1      37.079  18.825  24.925  1.00  0.00    -0.376 OA
BRANCH   3   4
ATOM      4  C   UNL A   1      37.815  20.033  24.723  1.00  0.00     0.202 C 
BRANCH   4   5
ATOM      5  C   UNL A   1      38.918  20.276  25.748  1.00  0.00     0.261 C 
BRANCH   5   6
ATOM      6  O   UNL A   1      39.983  19.319  25.670  1.00  0.00    -0.460 OA
BRANCH   6   7
ATOM      7  C   UNL A   1      41.275  19.465  26.053  1.00  0.00     0.338 C 
ATOM      8  O   UNL A   1      42.000  18.470  26.032  1.00  0.00    -0.246 OA
BRANCH   7   9
ATOM      9  C   UNL A   1      41.896  20.759  26.474  1.00  0.00     0.060 A 
ATOM     10  C   UNL A   1      42.207  21.131  27.781  1.00  0.00     0.016 A 
ATOM     11  C   UNL A   1      42.259  21.643  25.443  1.00  0.00     0.016 A 
ATOM     12  C   UNL A   1      42.785  22.351  28.079  1.00  0.00     0.010 A 
ATOM     13  C   UNL A   1      42.857  22.873  25.726  1.00  0.00     0.010 A 
ATOM     14  C   UNL A   1      43.085  23.239  27.056  1.00  0.00    -0.014 A 
BRANCH  14  15
ATOM     15  C   UNL A   1      43.404  24.615  27.455  1.00  0.00     0.031 A 
ATOM     16  C   UNL A   1      44.815  25.074  27.251  1.00  0.00     0.074 A 
ATOM     17  C   UNL A   1      42.414  25.465  27.780  1.00  0.00     0.049 A 
ATOM     18  N   UNL A   1      45.366  26.217  27.547  1.00  0.00    -0.248 NA
ATOM     19  C   UNL A   1      45.730  24.114  26.602  1.00  0.00     0.031 C 
ATOM     20  C   UNL A   1      40.986  25.130  27.808  1.00  0.00     0.029 A 
ATOM     21  N   UNL A   1      42.454  26.793  28.100  1.00  0.00    -0.354 N 
ATOM     22  C   UNL A   1      46.693  26.101  27.153  1.00  0.00     0.074 A 
ATOM     23  C   UNL A   1      46.873  24.778  26.606  1.00  0.00     0.031 C 
ATOM     24  C   UNL A   1      40.285  26.235  28.112  1.00  0.00     0.029 A 
ATOM     25  C   UNL A   1      41.217  27.324  28.377  1.00  0.00     0.049 A 
ATOM     26  H   UNL A   1      43.286  27.317  28.129  1.00  0.00     0.167 HD
ATOM     27  C   UNL A   1      47.673  27.027  27.248  1.00  0.00     0.031 A 
ATOM     28  C   UNL A   1      40.899  28.545  28.840  1.00  0.00     0.031 A 
ATOM     29  C   UNL A   1      47.453  28.328  27.811  1.00  0.00     0.049 A 
ATOM     30  C   UNL A   1      42.032  29.506  29.083  1.00  0.00     0.074 A 
ATOM     31  C   UNL A   1      48.365  29.329  28.075  1.00  0.00     0.029 A 
ATOM     32  N   UNL A   1      46.204  28.802  28.195  1.00  0.00    -0.354 N 
ATOM     33  N   UNL A   1      43.310  29.360  28.819  1.00  0.00    -0.248 NA
ATOM     34  C   UNL A   1      41.685  30.791  29.701  1.00  0.00     0.031 C 
ATOM     35  C   UNL A   1      47.674  30.392  28.666  1.00  0.00     0.029 A 
ATOM     36  C   UNL A   1      46.321  30.078  28.709  1.00  0.00     0.049 A 
ATOM     37  H   UNL A   1      45.360  28.302  28.114  1.00  0.00     0.167 HD
ATOM     38  C   UNL A   1      43.919  30.540  29.218  1.00  0.00     0.074 A 
ATOM     39  C   UNL A   1      42.862  31.400  29.718  1.00  0.00     0.031 C 
ATOM     40  C   UNL A   1      45.230  30.889  29.186  1.00  0.00     0.031 A 
BRANCH  27  41
ATOM     41  C   UNL A   1      49.049  26.608  26.820  1.00  0.00    -0.014 A 
ATOM     42  C   UNL A   1      49.599  27.019  25.594  1.00  0.00     0.009 A 
ATOM     43  C   UNL A   1      49.787  25.735  27.633  1.00  0.00     0.009 A 
ATOM     44  C   UNL A   1      50.840  26.529  25.175  1.00  0.00     0.001 A 
ATOM     45  C   UNL A   1      51.038  25.269  27.226  1.00  0.00     0.001 A 
ATOM     46  C   UNL A   1      51.558  25.657  25.993  1.00  0.00     0.000 A 
ENDBRANCH  27  41
BRANCH  28  47
ATOM     47  C   UNL A   1      39.493  28.888  29.190  1.00  0.00    -0.014 A 
ATOM     48  C   UNL A   1      38.952  28.560  30.443  1.00  0.00     0.009 A 
ATOM     49  C   UNL A   1      38.663  29.518  28.247  1.00  0.00     0.009 A 
ATOM     50  C   UNL A   1      37.607  28.821  30.725  1.00  0.00     0.001 A 
ATOM     51  C   UNL A   1      37.331  29.810  28.543  1.00  0.00     0.001 A 
ATOM     52  C   UNL A   1      36.799  29.448  29.778  1.00  0.00     0.000 A 
ENDBRANCH  28  47
BRANCH  40  53
ATOM     53  C   UNL A   1      45.566  32.271  29.661  1.00  0.00    -0.014 A 
ATOM     54  C   UNL A   1      45.546  33.367  28.786  1.00  0.00     0.009 A 
ATOM     55  C   UNL A   1      45.864  32.478  31.016  1.00  0.00     0.009 A 
ATOM     56  C   UNL A   1      45.853  34.644  29.256  1.00  0.00     0.001 A 
ATOM     57  C   UNL A   1      46.136  33.759  31.489  1.00  0.00     0.001 A 
ATOM     58  C   UNL A   1      46.141  34.839  30.607  1.00  0.00     0.000 A 
ENDBRANCH  40  53
ENDBRANCH  14  15
ENDBRANCH   7   9
ENDBRANCH   6   7
ENDBRANCH   5   6
ENDBRANCH   4   5
ENDBRANCH   3   4
ENDBRANCH   2   3
ENDBRANCH   1   2
BRANCH   1  59
ATOM     59  O   UNL A   1      33.778  20.539  25.097  1.00  0.00    -0.377 OA
BRANCH  59  60
ATOM     60  C   UNL A   1      33.024  20.161  23.952  1.00  0.00     0.188 C 
BRANCH  60  61
ATOM     61  C   UNL A   1      32.044  21.181  23.329  1.00  0.00     0.188 C 
BRANCH  61  62
ATOM     62  O   UNL A   1      32.630  22.033  22.356  1.00  0.00    -0.376 OA
BRANCH  62  63
ATOM     63  C   UNL A   1      32.579  23.423  22.658  1.00  0.00     0.202 C 
BRANCH  63  64
ATOM     64  C   UNL A   1      33.572  24.346  21.926  1.00  0.00     0.261 C 
BRANCH  64  65
ATOM     65  O   UNL A   1      33.559  25.723  22.344  1.00  0.00    -0.459 OA
BRANCH  65  66
ATOM     66  C   UNL A   1      32.442  26.483  22.153  1.00  0.00     0.365 C 
ATOM     67  O   UNL A   1      31.598  26.259  21.308  1.00  0.00    -0.245 OA
BRANCH  66  68
ATOM     68  C   UNL A   1      32.393  27.624  23.219  1.00  0.00     0.295 C 
ATOM     69  C   UNL A   1      31.107  28.443  23.095  1.00  0.00     0.078 C 
ATOM     70  N   UNL A   1      32.782  27.190  24.604  1.00  0.00    -0.317 N 
ATOM     71  C   UNL A   1      30.824  29.309  24.324  1.00  0.00     0.016 C 
ATOM     72  C   UNL A   1      32.705  28.264  25.617  1.00  0.00     0.188 C 
ATOM     73  H   UNL A   1      33.776  26.992  24.489  1.00  0.00     0.349 HD
ATOM     74  C   UNL A   1      32.104  29.591  25.109  1.00  0.00     0.048 C 
ATOM     75  C   UNL A   1      34.083  28.578  26.243  1.00  0.00     0.065 C 
ATOM     76  C   UNL A   1      31.850  30.510  26.312  1.00  0.00     0.010 C 
ATOM     77  C   UNL A   1      33.929  29.539  27.429  1.00  0.00     0.006 C 
ATOM     78  C   UNL A   1      33.146  30.803  27.071  1.00  0.00     0.001 C 
BRANCH  70  79
ATOM     79  C   UNL A   1      32.272  25.871  25.070  1.00  0.00     0.195 C 
ATOM     80  C   UNL A   1      30.891  25.951  25.743  1.00  0.00     0.067 C 
ATOM     81  C   UNL A   1      33.300  25.124  25.963  1.00  0.00     0.134 C 
ATOM     82  C   UNL A   1      30.312  24.570  26.038  1.00  0.00     0.017 C 
ATOM     83  S   UNL A   1      32.796  23.428  26.393  1.00  0.00    -0.156 SA
ATOM     84  C   UNL A   1      31.142  23.789  27.043  1.00  0.00     0.070 C 
ENDBRANCH  70  79
ENDBRANCH  66  68
ENDBRANCH  65  66
ENDBRANCH  64  65
ENDBRANCH  63  64
ENDBRANCH  62  63
ENDBRANCH  61  62
ENDBRANCH  60  61
ENDBRANCH  59  60
ENDBRANCH   1  59
TORSDOF 21
ENDMDL
