MODEL 1
REMARK VINA RESULT:      -9.4      0.000      0.000
REMARK SMILES CCN(Cc1ccccn1)c1nc(C)cc(C)c1C(=O)OCCOCCOCCOCCOC(=O)c1ccc(-c2c3nc(c(-c4ccccc4)c4ccc([nH]4)c(-c4ccccc4)c4nc(c(-c5ccccc5)c5ccc2[nH]5)C=C4)C=C3)cc1
REMARK SMILES IDX 26 1 25 2 24 3 23 4 22 5 21 6 19 7 20 8 18 9 11 10 12 11
REMARK SMILES IDX 13 12 16 13 14 14 15 15 17 16 3 17 2 18 1 19 4 20 5 21 6 22
REMARK SMILES IDX 10 23 7 24 9 25 8 26 27 27 28 28 29 29 30 30 31 31 32 32
REMARK SMILES IDX 33 33 34 34 35 35 36 36 37 37 83 38 38 39 82 40 39 41 40 42
REMARK SMILES IDX 41 43 76 44 42 45 81 46 75 47 77 48 43 49 80 50 74 51 73 52
REMARK SMILES IDX 44 54 66 55 51 56 65 57 52 58 55 59 64 60 78 61 53 62 54 63
REMARK SMILES IDX 63 65 79 66 56 67 45 68 46 69 50 70 47 71 49 72 48 73 67 74
REMARK SMILES IDX 68 75 72 76 69 77 71 78 70 79 57 80 58 81 62 82 59 83 61 84
REMARK SMILES IDX 60 85
REMARK H PARENT 77 53 55 64
REMARK Flexibility Score: inf
ROOT
ATOM      1  C   UNL A   1      33.970  21.452  26.778  1.00  0.00     0.188 C 
ENDROOT
BRANCH   1   2
ATOM      2  C   UNL A   1      32.928  21.057  25.707  1.00  0.00     0.188 C 
BRANCH   2   3
ATOM      3  O   UNL A   1      32.268  22.131  25.058  1.00  0.00    -0.376 OA
BRANCH   3   4
ATOM      4  C   UNL A   1      31.387  22.936  25.820  1.00  0.00     0.202 C 
BRANCH   4   5
ATOM      5  C   UNL A   1      30.638  23.996  25.013  1.00  0.00     0.261 C 
BRANCH   5   6
ATOM      6  O   UNL A   1      31.361  25.230  24.915  1.00  0.00    -0.460 OA
BRANCH   6   7
ATOM      7  C   UNL A   1      30.824  26.340  25.477  1.00  0.00     0.342 C 
ATOM      8  O   UNL A   1      30.686  26.526  26.672  1.00  0.00    -0.246 OA
BRANCH   7   9
ATOM      9  C   UNL A   1      30.511  27.305  24.383  1.00  0.00     0.105 A 
ATOM     10  C   UNL A   1      31.475  28.249  23.968  1.00  0.00     0.144 A 
ATOM     11  N   UNL A   1      31.107  29.243  23.125  1.00  0.00    -0.235 NA
ATOM     12  C   UNL A   1      29.847  29.334  22.654  1.00  0.00     0.040 A 
ATOM     13  C   UNL A   1      29.211  27.337  23.802  1.00  0.00    -0.031 A 
ATOM     14  C   UNL A   1      29.520  30.557  21.856  1.00  0.00     0.067 C 
ATOM     15  C   UNL A   1      28.894  28.374  22.920  1.00  0.00     0.028 A 
ATOM     16  C   UNL A   1      28.141  26.301  24.045  1.00  0.00     0.045 C 
BRANCH  10  17
ATOM     17  N   UNL A   1      32.820  28.251  24.328  1.00  0.00    -0.350 N 
BRANCH  17  18
ATOM     18  C   UNL A   1      33.227  28.059  25.721  1.00  0.00     0.115 C 
ATOM     19  C   UNL A   1      33.153  29.360  26.511  1.00  0.00     0.027 C 
ENDBRANCH  17  18
BRANCH  17  20
ATOM     20  C   UNL A   1      33.764  27.756  23.308  1.00  0.00     0.174 C 
BRANCH  20  21
ATOM     21  C   UNL A   1      33.593  26.332  22.779  1.00  0.00     0.060 A 
ATOM     22  C   UNL A   1      34.105  25.198  23.416  1.00  0.00     0.026 A 
ATOM     23  N   UNL A   1      32.925  26.229  21.598  1.00  0.00    -0.259 NA
ATOM     24  C   UNL A   1      33.884  23.936  22.866  1.00  0.00     0.004 A 
ATOM     25  C   UNL A   1      32.718  24.994  21.092  1.00  0.00     0.111 A 
ATOM     26  C   UNL A   1      33.170  23.829  21.685  1.00  0.00     0.020 A 
ENDBRANCH  20  21
ENDBRANCH  17  20
ENDBRANCH  10  17
ENDBRANCH   7   9
ENDBRANCH   6   7
ENDBRANCH   5   6
ENDBRANCH   4   5
ENDBRANCH   3   4
ENDBRANCH   2   3
ENDBRANCH   1   2
BRANCH   1  27
ATOM     27  O   UNL A   1      35.364  21.478  26.494  1.00  0.00    -0.377 OA
BRANCH  27  28
ATOM     28  C   UNL A   1      35.769  21.993  25.237  1.00  0.00     0.188 C 
BRANCH  28  29
ATOM     29  C   UNL A   1      37.066  21.386  24.651  1.00  0.00     0.188 C 
BRANCH  29  30
ATOM     30  O   UNL A   1      37.246  20.017  24.980  1.00  0.00    -0.376 OA
BRANCH  30  31
ATOM     31  C   UNL A   1      38.542  19.451  24.988  1.00  0.00     0.202 C 
BRANCH  31  32
ATOM     32  C   UNL A   1      39.700  20.115  25.748  1.00  0.00     0.261 C 
BRANCH  32  33
ATOM     33  O   UNL A   1      40.814  19.292  26.098  1.00  0.00    -0.460 OA
BRANCH  33  34
ATOM     34  C   UNL A   1      42.051  19.740  25.781  1.00  0.00     0.338 C 
ATOM     35  O   UNL A   1      42.836  19.252  25.006  1.00  0.00    -0.246 OA
BRANCH  34  36
ATOM     36  C   UNL A   1      42.172  21.086  26.395  1.00  0.00     0.060 A 
ATOM     37  C   UNL A   1      42.435  22.186  25.566  1.00  0.00     0.016 A 
ATOM     38  C   UNL A   1      41.931  21.266  27.760  1.00  0.00     0.016 A 
ATOM     39  C   UNL A   1      42.469  23.471  26.103  1.00  0.00     0.010 A 
ATOM     40  C   UNL A   1      42.014  22.546  28.307  1.00  0.00     0.010 A 
ATOM     41  C   UNL A   1      42.316  23.646  27.484  1.00  0.00    -0.014 A 
BRANCH  41  42
ATOM     42  C   UNL A   1      42.768  24.911  28.100  1.00  0.00     0.031 A 
ATOM     43  C   UNL A   1      41.725  25.971  28.320  1.00  0.00     0.074 A 
ATOM     44  C   UNL A   1      44.043  25.112  28.470  1.00  0.00     0.049 A 
ATOM     45  N   UNL A   1      41.856  27.182  28.793  1.00  0.00    -0.248 NA
ATOM     46  C   UNL A   1      40.344  25.613  27.951  1.00  0.00     0.031 C 
ATOM     47  C   UNL A   1      45.128  24.140  28.356  1.00  0.00     0.029 A 
ATOM     48  N   UNL A   1      44.637  26.221  29.018  1.00  0.00    -0.354 N 
ATOM     49  C   UNL A   1      40.578  27.726  28.778  1.00  0.00     0.074 A 
ATOM     50  C   UNL A   1      39.692  26.732  28.218  1.00  0.00     0.031 C 
ATOM     51  C   UNL A   1      46.264  24.705  28.803  1.00  0.00     0.029 A 
ATOM     52  C   UNL A   1      45.989  26.084  29.204  1.00  0.00     0.049 A 
ATOM     53  H   UNL A   1      44.140  27.038  29.253  1.00  0.00     0.167 HD
ATOM     54  C   UNL A   1      40.174  28.945  29.200  1.00  0.00     0.031 A 
ATOM     55  C   UNL A   1      46.899  26.984  29.625  1.00  0.00     0.031 A 
ATOM     56  C   UNL A   1      41.063  29.943  29.723  1.00  0.00     0.049 A 
ATOM     57  C   UNL A   1      46.440  28.373  29.999  1.00  0.00     0.074 A 
ATOM     58  C   UNL A   1      40.761  31.217  30.168  1.00  0.00     0.029 A 
ATOM     59  N   UNL A   1      42.432  29.779  29.864  1.00  0.00    -0.354 N 
ATOM     60  N   UNL A   1      45.228  28.874  29.998  1.00  0.00    -0.248 NA
ATOM     61  C   UNL A   1      47.478  29.316  30.441  1.00  0.00     0.031 C 
ATOM     62  C   UNL A   1      41.959  31.845  30.522  1.00  0.00     0.029 A 
ATOM     63  C   UNL A   1      42.994  30.937  30.368  1.00  0.00     0.049 A 
ATOM     64  H   UNL A   1      42.930  28.960  29.637  1.00  0.00     0.167 HD
ATOM     65  C   UNL A   1      45.353  30.175  30.473  1.00  0.00     0.074 A 
ATOM     66  C   UNL A   1      46.757  30.380  30.763  1.00  0.00     0.031 C 
ATOM     67  C   UNL A   1      44.394  31.116  30.656  1.00  0.00     0.031 A 
BRANCH  54  68
ATOM     68  C   UNL A   1      38.714  29.269  29.068  1.00  0.00    -0.014 A 
ATOM     69  C   UNL A   1      38.174  29.716  27.851  1.00  0.00     0.009 A 
ATOM     70  C   UNL A   1      37.863  29.111  30.172  1.00  0.00     0.009 A 
ATOM     71  C   UNL A   1      36.817  30.029  27.753  1.00  0.00     0.001 A 
ATOM     72  C   UNL A   1      36.501  29.394  30.062  1.00  0.00     0.001 A 
ATOM     73  C   UNL A   1      35.980  29.861  28.855  1.00  0.00     0.000 A 
ENDBRANCH  54  68
BRANCH  55  74
ATOM     74  C   UNL A   1      48.341  26.624  29.690  1.00  0.00    -0.014 A 
ATOM     75  C   UNL A   1      49.204  26.900  28.617  1.00  0.00     0.009 A 
ATOM     76  C   UNL A   1      48.857  25.962  30.816  1.00  0.00     0.009 A 
ATOM     77  C   UNL A   1      50.540  26.491  28.657  1.00  0.00     0.001 A 
ATOM     78  C   UNL A   1      50.200  25.584  30.867  1.00  0.00     0.001 A 
ATOM     79  C   UNL A   1      51.037  25.837  29.783  1.00  0.00     0.000 A 
ENDBRANCH  55  74
BRANCH  67  80
ATOM     80  C   UNL A   1      44.818  32.433  31.246  1.00  0.00    -0.014 A 
ATOM     81  C   UNL A   1      45.143  32.561  32.605  1.00  0.00     0.009 A 
ATOM     82  C   UNL A   1      44.946  33.554  30.408  1.00  0.00     0.009 A 
ATOM     83  C   UNL A   1      45.552  33.793  33.120  1.00  0.00     0.001 A 
ATOM     84  C   UNL A   1      45.388  34.775  30.918  1.00  0.00     0.001 A 
ATOM     85  C   UNL A   1      45.680  34.896  32.275  1.00  0.00     0.000 A 
ENDBRANCH  67  80
ENDBRANCH  41  42
ENDBRANCH  34  36
ENDBRANCH  33  34
ENDBRANCH  32  33
ENDBRANCH  31  32
ENDBRANCH  30  31
ENDBRANCH  29  30
ENDBRANCH  28  29
ENDBRANCH  27  28
ENDBRANCH   1  27
TORSDOF 24
ENDMDL
MODEL 2
REMARK VINA RESULT:      -9.3      3.899      5.588
REMARK SMILES CCN(Cc1ccccn1)c1nc(C)cc(C)c1C(=O)OCCOCCOCCOCCOC(=O)c1ccc(-c2c3nc(c(-c4ccccc4)c4ccc([nH]4)c(-c4ccccc4)c4nc(c(-c5ccccc5)c5ccc2[nH]5)C=C4)C=C3)cc1
REMARK SMILES IDX 26 1 25 2 24 3 23 4 22 5 21 6 19 7 20 8 18 9 11 10 12 11
REMARK SMILES IDX 13 12 16 13 14 14 15 15 17 16 3 17 2 18 1 19 4 20 5 21 6 22
REMARK SMILES IDX 10 23 7 24 9 25 8 26 27 27 28 28 29 29 30 30 31 31 32 32
REMARK SMILES IDX 33 33 34 34 35 35 36 36 37 37 83 38 38 39 82 40 39 41 40 42
REMARK SMILES IDX 41 43 76 44 42 45 81 46 75 47 77 48 43 49 80 50 74 51 73 52
REMARK SMILES IDX 44 54 66 55 51 56 65 57 52 58 55 59 64 60 78 61 53 62 54 63
REMARK SMILES IDX 63 65 79 66 56 67 45 68 46 69 50 70 47 71 49 72 48 73 67 74
REMARK SMILES IDX 68 75 72 76 69 77 71 78 70 79 57 80 58 81 62 82 59 83 61 84
REMARK SMILES IDX 60 85
REMARK H PARENT 77 53 55 64
REMARK Flexibility Score: inf
ROOT
ATOM      1  C   UNL A   1      33.803  21.571  25.881  1.00  0.00     0.188 C 
ENDROOT
BRANCH   1   2
ATOM      2  C   UNL A   1      33.150  21.136  24.550  1.00  0.00     0.188 C 
BRANCH   2   3
ATOM      3  O   UNL A   1      32.219  22.046  23.989  1.00  0.00    -0.376 OA
BRANCH   3   4
ATOM      4  C   UNL A   1      32.129  23.344  24.549  1.00  0.00     0.202 C 
BRANCH   4   5
ATOM      5  C   UNL A   1      30.702  23.871  24.700  1.00  0.00     0.261 C 
BRANCH   5   6
ATOM      6  O   UNL A   1      30.467  25.059  23.933  1.00  0.00    -0.460 OA
BRANCH   6   7
ATOM      7  C   UNL A   1      30.374  26.243  24.587  1.00  0.00     0.342 C 
ATOM      8  O   UNL A   1      30.671  26.426  25.753  1.00  0.00    -0.246 OA
BRANCH   7   9
ATOM      9  C   UNL A   1      29.922  27.276  23.610  1.00  0.00     0.105 A 
ATOM     10  C   UNL A   1      30.866  28.026  22.878  1.00  0.00     0.144 A 
ATOM     11  N   UNL A   1      30.447  29.092  22.155  1.00  0.00    -0.235 NA
ATOM     12  C   UNL A   1      29.144  29.434  22.099  1.00  0.00     0.040 A 
ATOM     13  C   UNL A   1      28.535  27.570  23.464  1.00  0.00    -0.031 A 
ATOM     14  C   UNL A   1      28.820  30.716  21.397  1.00  0.00     0.067 C 
ATOM     15  C   UNL A   1      28.160  28.669  22.687  1.00  0.00     0.028 A 
ATOM     16  C   UNL A   1      27.421  26.753  24.070  1.00  0.00     0.045 C 
BRANCH  10  17
ATOM     17  N   UNL A   1      32.231  27.762  22.798  1.00  0.00    -0.350 N 
BRANCH  17  18
ATOM     18  C   UNL A   1      32.778  26.942  21.715  1.00  0.00     0.115 C 
ATOM     19  C   UNL A   1      33.510  25.719  22.251  1.00  0.00     0.027 C 
ENDBRANCH  17  18
BRANCH  17  20
ATOM     20  C   UNL A   1      33.125  28.809  23.327  1.00  0.00     0.174 C 
BRANCH  20  21
ATOM     21  C   UNL A   1      33.091  29.115  24.823  1.00  0.00     0.060 A 
ATOM     22  C   UNL A   1      34.005  28.598  25.746  1.00  0.00     0.026 A 
ATOM     23  N   UNL A   1      32.067  29.916  25.227  1.00  0.00    -0.259 NA
ATOM     24  C   UNL A   1      33.904  28.947  27.092  1.00  0.00     0.004 A 
ATOM     25  C   UNL A   1      31.997  30.245  26.536  1.00  0.00     0.111 A 
ATOM     26  C   UNL A   1      32.885  29.794  27.495  1.00  0.00     0.020 A 
ENDBRANCH  20  21
ENDBRANCH  17  20
ENDBRANCH  10  17
ENDBRANCH   7   9
ENDBRANCH   6   7
ENDBRANCH   5   6
ENDBRANCH   4   5
ENDBRANCH   3   4
ENDBRANCH   2   3
ENDBRANCH   1   2
BRANCH   1  27
ATOM     27  O   UNL A   1      35.055  22.246  25.916  1.00  0.00    -0.377 OA
BRANCH  27  28
ATOM     28  C   UNL A   1      35.890  22.141  24.777  1.00  0.00     0.188 C 
BRANCH  28  29
ATOM     29  C   UNL A   1      37.355  22.597  24.976  1.00  0.00     0.188 C 
BRANCH  29  30
ATOM     30  O   UNL A   1      38.026  21.903  26.016  1.00  0.00    -0.376 OA
BRANCH  30  31
ATOM     31  C   UNL A   1      39.438  21.925  26.093  1.00  0.00     0.202 C 
BRANCH  31  32
ATOM     32  C   UNL A   1      40.169  22.791  27.131  1.00  0.00     0.261 C 
BRANCH  32  33
ATOM     33  O   UNL A   1      41.180  23.679  26.651  1.00  0.00    -0.460 OA
BRANCH  33  34
ATOM     34  C   UNL A   1      40.892  25.001  26.619  1.00  0.00     0.338 C 
ATOM     35  O   UNL A   1      39.818  25.525  26.783  1.00  0.00    -0.246 OA
BRANCH  34  36
ATOM     36  C   UNL A   1      42.197  25.706  26.575  1.00  0.00     0.060 A 
ATOM     37  C   UNL A   1      42.861  25.971  27.782  1.00  0.00     0.016 A 
ATOM     38  C   UNL A   1      42.797  26.012  25.351  1.00  0.00     0.016 A 
ATOM     39  C   UNL A   1      44.126  26.555  27.766  1.00  0.00     0.010 A 
ATOM     40  C   UNL A   1      44.041  26.642  25.336  1.00  0.00     0.010 A 
ATOM     41  C   UNL A   1      44.692  26.943  26.545  1.00  0.00    -0.014 A 
BRANCH  41  42
ATOM     42  C   UNL A   1      45.799  27.922  26.549  1.00  0.00     0.031 A 
ATOM     43  C   UNL A   1      45.423  29.374  26.658  1.00  0.00     0.074 A 
ATOM     44  C   UNL A   1      47.086  27.548  26.478  1.00  0.00     0.049 A 
ATOM     45  N   UNL A   1      46.185  30.435  26.636  1.00  0.00    -0.248 NA
ATOM     46  C   UNL A   1      43.986  29.665  26.812  1.00  0.00     0.031 C 
ATOM     47  C   UNL A   1      47.573  26.172  26.422  1.00  0.00     0.029 A 
ATOM     48  N   UNL A   1      48.225  28.313  26.435  1.00  0.00    -0.354 N 
ATOM     49  C   UNL A   1      45.320  31.514  26.772  1.00  0.00     0.074 A 
ATOM     50  C   UNL A   1      43.978  30.987  26.840  1.00  0.00     0.031 C 
ATOM     51  C   UNL A   1      48.916  26.191  26.333  1.00  0.00     0.029 A 
ATOM     52  C   UNL A   1      49.376  27.579  26.294  1.00  0.00     0.049 A 
ATOM     53  H   UNL A   1      48.217  29.296  26.498  1.00  0.00     0.167 HD
ATOM     54  C   UNL A   1      45.619  32.831  26.841  1.00  0.00     0.031 A 
ATOM     55  C   UNL A   1      50.648  27.989  26.126  1.00  0.00     0.031 A 
ATOM     56  C   UNL A   1      46.952  33.354  26.737  1.00  0.00     0.049 A 
ATOM     57  C   UNL A   1      50.946  29.468  26.108  1.00  0.00     0.074 A 
ATOM     58  C   UNL A   1      47.364  34.673  26.781  1.00  0.00     0.029 A 
ATOM     59  N   UNL A   1      48.087  32.579  26.559  1.00  0.00    -0.354 N 
ATOM     60  N   UNL A   1      50.126  30.481  26.255  1.00  0.00    -0.248 NA
ATOM     61  C   UNL A   1      52.351  29.857  25.910  1.00  0.00     0.031 C 
ATOM     62  C   UNL A   1      48.746  34.699  26.569  1.00  0.00     0.029 A 
ATOM     63  C   UNL A   1      49.201  33.394  26.469  1.00  0.00     0.049 A 
ATOM     64  H   UNL A   1      48.098  31.597  26.505  1.00  0.00     0.167 HD
ATOM     65  C   UNL A   1      50.919  31.623  26.204  1.00  0.00     0.074 A 
ATOM     66  C   UNL A   1      52.285  31.176  26.026  1.00  0.00     0.031 C 
ATOM     67  C   UNL A   1      50.552  32.925  26.299  1.00  0.00     0.031 A 
BRANCH  54  68
ATOM     68  C   UNL A   1      44.472  33.788  26.995  1.00  0.00    -0.014 A 
ATOM     69  C   UNL A   1      43.873  34.394  25.879  1.00  0.00     0.009 A 
ATOM     70  C   UNL A   1      43.975  34.078  28.274  1.00  0.00     0.009 A 
ATOM     71  C   UNL A   1      42.819  35.294  26.043  1.00  0.00     0.001 A 
ATOM     72  C   UNL A   1      42.900  34.954  28.433  1.00  0.00     0.001 A 
ATOM     73  C   UNL A   1      42.329  35.568  27.319  1.00  0.00     0.000 A 
ENDBRANCH  54  68
BRANCH  55  74
ATOM     74  C   UNL A   1      51.739  26.996  25.929  1.00  0.00    -0.014 A 
ATOM     75  C   UNL A   1      52.079  26.543  24.644  1.00  0.00     0.009 A 
ATOM     76  C   UNL A   1      52.423  26.466  27.034  1.00  0.00     0.009 A 
ATOM     77  C   UNL A   1      53.055  25.556  24.475  1.00  0.00     0.001 A 
ATOM     78  C   UNL A   1      53.421  25.504  26.860  1.00  0.00     0.001 A 
ATOM     79  C   UNL A   1      53.727  25.041  25.582  1.00  0.00     0.000 A 
ENDBRANCH  55  74
BRANCH  67  80
ATOM     80  C   UNL A   1      51.645  33.958  26.269  1.00  0.00    -0.014 A 
ATOM     81  C   UNL A   1      52.298  34.374  27.438  1.00  0.00     0.009 A 
ATOM     82  C   UNL A   1      52.065  34.481  25.033  1.00  0.00     0.009 A 
ATOM     83  C   UNL A   1      53.324  35.321  27.375  1.00  0.00     0.001 A 
ATOM     84  C   UNL A   1      53.111  35.400  24.970  1.00  0.00     0.001 A 
ATOM     85  C   UNL A   1      53.732  35.828  26.141  1.00  0.00     0.000 A 
ENDBRANCH  67  80
ENDBRANCH  41  42
ENDBRANCH  34  36
ENDBRANCH  33  34
ENDBRANCH  32  33
ENDBRANCH  31  32
ENDBRANCH  30  31
ENDBRANCH  29  30
ENDBRANCH  28  29
ENDBRANCH  27  28
ENDBRANCH   1  27
TORSDOF 24
ENDMDL
MODEL 3
REMARK VINA RESULT:      -9.2      2.741      7.949
REMARK SMILES CCN(Cc1ccccn1)c1nc(C)cc(C)c1C(=O)OCCOCCOCCOCCOC(=O)c1ccc(-c2c3nc(c(-c4ccccc4)c4ccc([nH]4)c(-c4ccccc4)c4nc(c(-c5ccccc5)c5ccc2[nH]5)C=C4)C=C3)cc1
REMARK SMILES IDX 26 1 25 2 24 3 23 4 22 5 21 6 19 7 20 8 18 9 11 10 12 11
REMARK SMILES IDX 13 12 16 13 14 14 15 15 17 16 3 17 2 18 1 19 4 20 5 21 6 22
REMARK SMILES IDX 10 23 7 24 9 25 8 26 27 27 28 28 29 29 30 30 31 31 32 32
REMARK SMILES IDX 33 33 34 34 35 35 36 36 37 37 83 38 38 39 82 40 39 41 40 42
REMARK SMILES IDX 41 43 76 44 42 45 81 46 75 47 77 48 43 49 80 50 74 51 73 52
REMARK SMILES IDX 44 54 66 55 51 56 65 57 52 58 55 59 64 60 78 61 53 62 54 63
REMARK SMILES IDX 63 65 79 66 56 67 45 68 46 69 50 70 47 71 49 72 48 73 67 74
REMARK SMILES IDX 68 75 72 76 69 77 71 78 70 79 57 80 58 81 62 82 59 83 61 84
REMARK SMILES IDX 60 85
REMARK H PARENT 77 53 55 64
REMARK Flexibility Score: inf
ROOT
ATOM      1  C   UNL A   1      31.467  28.325  22.759  1.00  0.00     0.188 C 
ENDROOT
BRANCH   1   2
ATOM      2  C   UNL A   1      30.769  27.004  22.370  1.00  0.00     0.188 C 
BRANCH   2   3
ATOM      3  O   UNL A   1      31.334  26.303  21.274  1.00  0.00    -0.376 OA
BRANCH   3   4
ATOM      4  C   UNL A   1      32.643  25.780  21.416  1.00  0.00     0.202 C 
BRANCH   4   5
ATOM      5  C   UNL A   1      32.919  25.124  22.769  1.00  0.00     0.261 C 
BRANCH   5   6
ATOM      6  O   UNL A   1      34.208  24.496  22.826  1.00  0.00    -0.460 OA
BRANCH   6   7
ATOM      7  C   UNL A   1      34.726  24.195  24.041  1.00  0.00     0.342 C 
ATOM      8  O   UNL A   1      35.905  24.251  24.335  1.00  0.00    -0.246 OA
BRANCH   7   9
ATOM      9  C   UNL A   1      33.594  23.864  24.957  1.00  0.00     0.105 A 
ATOM     10  C   UNL A   1      33.032  22.571  24.956  1.00  0.00     0.144 A 
ATOM     11  N   UNL A   1      31.883  22.349  25.638  1.00  0.00    -0.235 NA
ATOM     12  C   UNL A   1      31.280  23.332  26.337  1.00  0.00     0.040 A 
ATOM     13  C   UNL A   1      33.019  24.874  25.782  1.00  0.00    -0.031 A 
ATOM     14  C   UNL A   1      29.939  23.010  26.920  1.00  0.00     0.067 C 
ATOM     15  C   UNL A   1      31.845  24.581  26.481  1.00  0.00     0.028 A 
ATOM     16  C   UNL A   1      33.609  26.247  25.988  1.00  0.00     0.045 C 
BRANCH  10  17
ATOM     17  N   UNL A   1      33.567  21.451  24.326  1.00  0.00    -0.350 N 
BRANCH  17  18
ATOM     18  C   UNL A   1      34.856  20.895  24.742  1.00  0.00     0.115 C 
ATOM     19  C   UNL A   1      35.131  21.160  26.217  1.00  0.00     0.027 C 
ENDBRANCH  17  18
BRANCH  17  20
ATOM     20  C   UNL A   1      32.592  20.482  23.790  1.00  0.00     0.174 C 
BRANCH  20  21
ATOM     21  C   UNL A   1      32.771  19.001  24.124  1.00  0.00     0.060 A 
ATOM     22  C   UNL A   1      33.204  18.042  23.204  1.00  0.00     0.026 A 
ATOM     23  N   UNL A   1      32.439  18.651  25.397  1.00  0.00    -0.259 NA
ATOM     24  C   UNL A   1      33.352  16.715  23.605  1.00  0.00     0.004 A 
ATOM     25  C   UNL A   1      32.600  17.360  25.761  1.00  0.00     0.111 A 
ATOM     26  C   UNL A   1      33.052  16.366  24.912  1.00  0.00     0.020 A 
ENDBRANCH  20  21
ENDBRANCH  17  20
ENDBRANCH  10  17
ENDBRANCH   7   9
ENDBRANCH   6   7
ENDBRANCH   5   6
ENDBRANCH   4   5
ENDBRANCH   3   4
ENDBRANCH   2   3
ENDBRANCH   1   2
BRANCH   1  27
ATOM     27  O   UNL A   1      30.955  29.171  23.783  1.00  0.00    -0.377 OA
BRANCH  27  28
ATOM     28  C   UNL A   1      31.595  29.134  25.047  1.00  0.00     0.188 C 
BRANCH  28  29
ATOM     29  C   UNL A   1      31.728  30.495  25.770  1.00  0.00     0.188 C 
BRANCH  29  30
ATOM     30  O   UNL A   1      33.041  30.761  26.235  1.00  0.00    -0.376 OA
BRANCH  30  31
ATOM     31  C   UNL A   1      33.339  30.683  27.616  1.00  0.00     0.202 C 
BRANCH  31  32
ATOM     32  C   UNL A   1      34.555  29.896  28.130  1.00  0.00     0.261 C 
BRANCH  32  33
ATOM     33  O   UNL A   1      35.638  30.647  28.680  1.00  0.00    -0.460 OA
BRANCH  33  34
ATOM     34  C   UNL A   1      36.200  30.193  29.824  1.00  0.00     0.338 C 
ATOM     35  O   UNL A   1      35.709  30.165  30.925  1.00  0.00    -0.246 OA
BRANCH  34  36
ATOM     36  C   UNL A   1      37.459  29.517  29.424  1.00  0.00     0.060 A 
ATOM     37  C   UNL A   1      38.122  28.714  30.365  1.00  0.00     0.016 A 
ATOM     38  C   UNL A   1      37.923  29.601  28.109  1.00  0.00     0.016 A 
ATOM     39  C   UNL A   1      39.258  27.999  29.992  1.00  0.00     0.010 A 
ATOM     40  C   UNL A   1      39.089  28.926  27.748  1.00  0.00     0.010 A 
ATOM     41  C   UNL A   1      39.776  28.150  28.700  1.00  0.00    -0.014 A 
BRANCH  41  42
ATOM     42  C   UNL A   1      41.174  27.753  28.437  1.00  0.00     0.031 A 
ATOM     43  C   UNL A   1      42.217  28.830  28.536  1.00  0.00     0.074 A 
ATOM     44  C   UNL A   1      41.517  26.488  28.143  1.00  0.00     0.049 A 
ATOM     45  N   UNL A   1      43.503  28.768  28.310  1.00  0.00    -0.248 NA
ATOM     46  C   UNL A   1      41.740  30.164  28.945  1.00  0.00     0.031 C 
ATOM     47  C   UNL A   1      40.603  25.351  28.072  1.00  0.00     0.029 A 
ATOM     48  N   UNL A   1      42.746  25.955  27.842  1.00  0.00    -0.354 N 
ATOM     49  C   UNL A   1      43.984  30.050  28.549  1.00  0.00     0.074 A 
ATOM     50  C   UNL A   1      42.853  30.876  28.902  1.00  0.00     0.031 C 
ATOM     51  C   UNL A   1      41.302  24.254  27.727  1.00  0.00     0.029 A 
ATOM     52  C   UNL A   1      42.703  24.621  27.525  1.00  0.00     0.049 A 
ATOM     53  H   UNL A   1      43.578  26.481  27.851  1.00  0.00     0.167 HD
ATOM     54  C   UNL A   1      45.257  30.498  28.487  1.00  0.00     0.031 A 
ATOM     55  C   UNL A   1      43.683  23.803  27.095  1.00  0.00     0.031 A 
ATOM     56  C   UNL A   1      46.373  29.683  28.102  1.00  0.00     0.049 A 
ATOM     57  C   UNL A   1      45.081  24.351  26.938  1.00  0.00     0.074 A 
ATOM     58  C   UNL A   1      47.704  30.040  27.994  1.00  0.00     0.029 A 
ATOM     59  N   UNL A   1      46.284  28.344  27.754  1.00  0.00    -0.354 N 
ATOM     60  N   UNL A   1      45.530  25.559  27.182  1.00  0.00    -0.248 NA
ATOM     61  C   UNL A   1      46.108  23.416  26.454  1.00  0.00     0.031 C 
ATOM     62  C   UNL A   1      48.412  28.931  27.521  1.00  0.00     0.029 A 
ATOM     63  C   UNL A   1      47.534  27.865  27.408  1.00  0.00     0.049 A 
ATOM     64  H   UNL A   1      45.454  27.814  27.753  1.00  0.00     0.167 HD
ATOM     65  C   UNL A   1      46.895  25.518  26.918  1.00  0.00     0.074 A 
ATOM     66  C   UNL A   1      47.201  24.163  26.508  1.00  0.00     0.031 C 
ATOM     67  C   UNL A   1      47.815  26.510  27.010  1.00  0.00     0.031 A 
BRANCH  54  68
ATOM     68  C   UNL A   1      45.491  31.948  28.805  1.00  0.00    -0.014 A 
ATOM     69  C   UNL A   1      45.249  32.951  27.852  1.00  0.00     0.009 A 
ATOM     70  C   UNL A   1      45.947  32.317  30.079  1.00  0.00     0.009 A 
ATOM     71  C   UNL A   1      45.489  34.291  28.160  1.00  0.00     0.001 A 
ATOM     72  C   UNL A   1      46.155  33.660  30.394  1.00  0.00     0.001 A 
ATOM     73  C   UNL A   1      45.934  34.646  29.432  1.00  0.00     0.000 A 
ENDBRANCH  54  68
BRANCH  55  74
ATOM     74  C   UNL A   1      43.384  22.387  26.748  1.00  0.00    -0.014 A 
ATOM     75  C   UNL A   1      43.906  21.804  25.581  1.00  0.00     0.009 A 
ATOM     76  C   UNL A   1      42.540  21.620  27.565  1.00  0.00     0.009 A 
ATOM     77  C   UNL A   1      43.560  20.497  25.226  1.00  0.00     0.001 A 
ATOM     78  C   UNL A   1      42.222  20.303  27.225  1.00  0.00     0.001 A 
ATOM     79  C   UNL A   1      42.722  19.747  26.049  1.00  0.00     0.000 A 
ENDBRANCH  55  74
BRANCH  67  80
ATOM     80  C   UNL A   1      49.247  26.157  26.714  1.00  0.00    -0.014 A 
ATOM     81  C   UNL A   1      50.074  25.563  27.679  1.00  0.00     0.009 A 
ATOM     82  C   UNL A   1      49.758  26.375  25.423  1.00  0.00     0.009 A 
ATOM     83  C   UNL A   1      51.395  25.229  27.369  1.00  0.00     0.001 A 
ATOM     84  C   UNL A   1      51.066  26.009  25.106  1.00  0.00     0.001 A 
ATOM     85  C   UNL A   1      51.886  25.447  26.081  1.00  0.00     0.000 A 
ENDBRANCH  67  80
ENDBRANCH  41  42
ENDBRANCH  34  36
ENDBRANCH  33  34
ENDBRANCH  32  33
ENDBRANCH  31  32
ENDBRANCH  30  31
ENDBRANCH  29  30
ENDBRANCH  28  29
ENDBRANCH  27  28
ENDBRANCH   1  27
TORSDOF 24
ENDMDL
