MODEL 1
REMARK VINA RESULT:      -9.1      0.000      0.000
REMARK SMILES O=C(C[C@@H]1C(=O)NC(=S)N1c1ccccc1)OCCOCCOCCOCCOC(=O)c1ccc(-c2c3nc(c(-c4ccccc4)c4ccc([nH]4)c(-c4ccccc4)c4nc(c(-c5ccccc5)c5ccc2[nH]5)C=C4)C=C3)cc1
REMARK SMILES IDX 23 1 22 2 21 3 20 4 19 5 18 6 17 7 2 8 1 9 3 10 4 11 5 12
REMARK SMILES IDX 10 13 6 14 7 15 8 16 9 18 11 19 12 20 16 21 13 22 15 23
REMARK SMILES IDX 14 24 24 25 25 26 26 27 27 28 28 29 29 30 30 31 31 32 32 33
REMARK SMILES IDX 33 34 79 35 34 36 78 37 35 38 36 39 37 40 72 41 38 42 77 43
REMARK SMILES IDX 71 44 73 45 39 46 76 47 70 48 69 49 40 51 62 52 47 53 61 54
REMARK SMILES IDX 48 55 51 56 60 57 74 58 49 59 50 60 59 62 75 63 52 64 41 65
REMARK SMILES IDX 42 66 46 67 43 68 45 69 44 70 63 71 64 72 68 73 65 74 67 75
REMARK SMILES IDX 66 76 53 77 54 78 58 79 55 80 57 81 56 82
REMARK H PARENT 7 17 73 50 51 61
REMARK Flexibility Score: inf
ROOT
ATOM      1  O   UNL A   1      38.271  23.061  25.957  1.00  0.00    -0.377 OA
ENDROOT
BRANCH   1   2
ATOM      2  C   UNL A   1      37.759  22.031  25.133  1.00  0.00     0.188 C 
BRANCH   2   3
ATOM      3  C   UNL A   1      36.440  21.381  25.566  1.00  0.00     0.188 C 
BRANCH   3   4
ATOM      4  O   UNL A   1      35.477  22.023  26.381  1.00  0.00    -0.376 OA
BRANCH   4   5
ATOM      5  C   UNL A   1      34.356  21.477  27.036  1.00  0.00     0.202 C 
BRANCH   5   6
ATOM      6  C   UNL A   1      32.916  21.675  26.583  1.00  0.00     0.261 C 
BRANCH   6   7
ATOM      7  O   UNL A   1      32.110  22.570  27.344  1.00  0.00    -0.463 OA
BRANCH   7   8
ATOM      8  C   UNL A   1      31.576  23.729  26.925  1.00  0.00     0.308 C 
ATOM      9  O   UNL A   1      30.422  24.006  27.248  1.00  0.00    -0.252 OA
BRANCH   8  10
ATOM     10  C   UNL A   1      32.272  24.545  25.869  1.00  0.00     0.158 C 
BRANCH  10  11
ATOM     11  C   UNL A   1      31.502  25.097  24.703  1.00  0.00     0.190 C 
ATOM     12  C   UNL A   1      31.398  24.091  23.567  1.00  0.00     0.249 C 
ATOM     13  N   UNL A   1      32.150  26.220  24.022  1.00  0.00    -0.306 N 
ATOM     14  O   UNL A   1      30.882  22.987  23.631  1.00  0.00    -0.272 OA
ATOM     15  N   UNL A   1      31.965  24.623  22.460  1.00  0.00    -0.301 N 
ATOM     16  C   UNL A   1      32.422  25.886  22.687  1.00  0.00     0.180 C 
ATOM     17  H   UNL A   1      32.038  24.155  21.597  1.00  0.00     0.172 HD
ATOM     18  S   UNL A   1      33.219  26.733  21.504  1.00  0.00    -0.040 S 
BRANCH  13  19
ATOM     19  C   UNL A   1      32.321  27.499  24.623  1.00  0.00     0.044 A 
ATOM     20  C   UNL A   1      33.532  27.830  25.241  1.00  0.00     0.026 A 
ATOM     21  C   UNL A   1      31.282  28.438  24.667  1.00  0.00     0.026 A 
ATOM     22  C   UNL A   1      33.687  29.041  25.923  1.00  0.00     0.002 A 
ATOM     23  C   UNL A   1      31.431  29.647  25.356  1.00  0.00     0.002 A 
ATOM     24  C   UNL A   1      32.630  29.944  25.994  1.00  0.00     0.000 A 
ENDBRANCH  13  19
ENDBRANCH  10  11
ENDBRANCH   8  10
ENDBRANCH   7   8
ENDBRANCH   6   7
ENDBRANCH   5   6
ENDBRANCH   4   5
ENDBRANCH   3   4
ENDBRANCH   2   3
ENDBRANCH   1   2
BRANCH   1  25
ATOM     25  C   UNL A   1      39.323  22.652  26.806  1.00  0.00     0.188 C 
BRANCH  25  26
ATOM     26  C   UNL A   1      40.269  21.628  26.156  1.00  0.00     0.188 C 
BRANCH  26  27
ATOM     27  O   UNL A   1      41.515  21.333  26.754  1.00  0.00    -0.376 OA
BRANCH  27  28
ATOM     28  C   UNL A   1      42.699  21.203  25.982  1.00  0.00     0.202 C 
BRANCH  28  29
ATOM     29  C   UNL A   1      43.508  22.368  25.371  1.00  0.00     0.261 C 
BRANCH  29  30
ATOM     30  O   UNL A   1      42.848  23.620  25.177  1.00  0.00    -0.460 OA
BRANCH  30  31
ATOM     31  C   UNL A   1      43.606  24.720  25.365  1.00  0.00     0.338 C 
ATOM     32  O   UNL A   1      44.599  25.055  24.736  1.00  0.00    -0.246 OA
BRANCH  31  33
ATOM     33  C   UNL A   1      42.908  25.602  26.321  1.00  0.00     0.060 A 
ATOM     34  C   UNL A   1      43.394  26.907  26.490  1.00  0.00     0.016 A 
ATOM     35  C   UNL A   1      41.785  25.165  27.026  1.00  0.00     0.016 A 
ATOM     36  C   UNL A   1      42.786  27.767  27.398  1.00  0.00     0.010 A 
ATOM     37  C   UNL A   1      41.202  26.012  27.970  1.00  0.00     0.010 A 
ATOM     38  C   UNL A   1      41.734  27.297  28.190  1.00  0.00    -0.014 A 
BRANCH  38  39
ATOM     39  C   UNL A   1      41.406  28.036  29.429  1.00  0.00     0.031 A 
ATOM     40  C   UNL A   1      40.225  28.969  29.388  1.00  0.00     0.074 A 
ATOM     41  C   UNL A   1      42.084  27.840  30.572  1.00  0.00     0.049 A 
ATOM     42  N   UNL A   1      39.728  29.725  30.332  1.00  0.00    -0.248 NA
ATOM     43  C   UNL A   1      39.508  29.056  28.105  1.00  0.00     0.031 C 
ATOM     44  C   UNL A   1      43.197  26.910  30.753  1.00  0.00     0.029 A 
ATOM     45  N   UNL A   1      41.920  28.419  31.804  1.00  0.00    -0.354 N 
ATOM     46  C   UNL A   1      38.652  30.384  29.752  1.00  0.00     0.074 A 
ATOM     47  C   UNL A   1      38.585  29.966  28.370  1.00  0.00     0.031 C 
ATOM     48  C   UNL A   1      43.619  26.986  32.028  1.00  0.00     0.029 A 
ATOM     49  C   UNL A   1      42.829  27.990  32.738  1.00  0.00     0.049 A 
ATOM     50  H   UNL A   1      41.217  29.080  32.000  1.00  0.00     0.167 HD
ATOM     51  C   UNL A   1      37.790  31.259  30.320  1.00  0.00     0.031 A 
ATOM     52  C   UNL A   1      43.009  28.382  34.014  1.00  0.00     0.031 A 
ATOM     53  C   UNL A   1      37.872  31.690  31.688  1.00  0.00     0.049 A 
ATOM     54  C   UNL A   1      42.098  29.434  34.595  1.00  0.00     0.074 A 
ATOM     55  C   UNL A   1      37.046  32.570  32.366  1.00  0.00     0.029 A 
ATOM     56  N   UNL A   1      38.846  31.281  32.585  1.00  0.00    -0.354 N 
ATOM     57  N   UNL A   1      41.070  30.037  34.047  1.00  0.00    -0.248 NA
ATOM     58  C   UNL A   1      42.372  29.851  35.978  1.00  0.00     0.031 C 
ATOM     59  C   UNL A   1      37.565  32.745  33.654  1.00  0.00     0.029 A 
ATOM     60  C   UNL A   1      38.665  31.915  33.801  1.00  0.00     0.049 A 
ATOM     61  H   UNL A   1      39.562  30.634  32.385  1.00  0.00     0.167 HD
ATOM     62  C   UNL A   1      40.552  30.875  35.030  1.00  0.00     0.074 A 
ATOM     63  C   UNL A   1      41.371  30.689  36.209  1.00  0.00     0.031 C 
ATOM     64  C   UNL A   1      39.491  31.717  34.966  1.00  0.00     0.031 A 
BRANCH  51  65
ATOM     65  C   UNL A   1      36.722  31.844  29.437  1.00  0.00    -0.014 A 
ATOM     66  C   UNL A   1      36.894  33.077  28.789  1.00  0.00     0.009 A 
ATOM     67  C   UNL A   1      35.522  31.141  29.247  1.00  0.00     0.009 A 
ATOM     68  C   UNL A   1      35.869  33.615  28.006  1.00  0.00     0.001 A 
ATOM     69  C   UNL A   1      34.514  31.662  28.436  1.00  0.00     0.001 A 
ATOM     70  C   UNL A   1      34.683  32.904  27.826  1.00  0.00     0.000 A 
ENDBRANCH  51  65
BRANCH  52  71
ATOM     71  C   UNL A   1      44.100  27.792  34.833  1.00  0.00    -0.014 A 
ATOM     72  C   UNL A   1      43.874  26.646  35.611  1.00  0.00     0.009 A 
ATOM     73  C   UNL A   1      45.369  28.392  34.870  1.00  0.00     0.009 A 
ATOM     74  C   UNL A   1      44.884  26.131  36.429  1.00  0.00     0.001 A 
ATOM     75  C   UNL A   1      46.387  27.857  35.663  1.00  0.00     0.001 A 
ATOM     76  C   UNL A   1      46.140  26.734  36.450  1.00  0.00     0.000 A 
ENDBRANCH  52  71
BRANCH  64  77
ATOM     77  C   UNL A   1      39.122  32.462  36.221  1.00  0.00    -0.014 A 
ATOM     78  C   UNL A   1      39.691  33.706  36.535  1.00  0.00     0.009 A 
ATOM     79  C   UNL A   1      38.158  31.919  37.086  1.00  0.00     0.009 A 
ATOM     80  C   UNL A   1      39.335  34.368  37.712  1.00  0.00     0.001 A 
ATOM     81  C   UNL A   1      37.777  32.600  38.243  1.00  0.00     0.001 A 
ATOM     82  C   UNL A   1      38.375  33.818  38.561  1.00  0.00     0.000 A 
ENDBRANCH  64  77
ENDBRANCH  38  39
ENDBRANCH  31  33
ENDBRANCH  30  31
ENDBRANCH  29  30
ENDBRANCH  28  29
ENDBRANCH  27  28
ENDBRANCH  26  27
ENDBRANCH  25  26
ENDBRANCH   1  25
TORSDOF 22
ENDMDL
MODEL 2
REMARK VINA RESULT:      -8.9      4.567      9.749
REMARK SMILES O=C(C[C@@H]1C(=O)NC(=S)N1c1ccccc1)OCCOCCOCCOCCOC(=O)c1ccc(-c2c3nc(c(-c4ccccc4)c4ccc([nH]4)c(-c4ccccc4)c4nc(c(-c5ccccc5)c5ccc2[nH]5)C=C4)C=C3)cc1
REMARK SMILES IDX 23 1 22 2 21 3 20 4 19 5 18 6 17 7 2 8 1 9 3 10 4 11 5 12
REMARK SMILES IDX 10 13 6 14 7 15 8 16 9 18 11 19 12 20 16 21 13 22 15 23
REMARK SMILES IDX 14 24 24 25 25 26 26 27 27 28 28 29 29 30 30 31 31 32 32 33
REMARK SMILES IDX 33 34 79 35 34 36 78 37 35 38 36 39 37 40 72 41 38 42 77 43
REMARK SMILES IDX 71 44 73 45 39 46 76 47 70 48 69 49 40 51 62 52 47 53 61 54
REMARK SMILES IDX 48 55 51 56 60 57 74 58 49 59 50 60 59 62 75 63 52 64 41 65
REMARK SMILES IDX 42 66 46 67 43 68 45 69 44 70 63 71 64 72 68 73 65 74 67 75
REMARK SMILES IDX 66 76 53 77 54 78 58 79 55 80 57 81 56 82
REMARK H PARENT 7 17 73 50 51 61
REMARK Flexibility Score: inf
ROOT
ATOM      1  O   UNL A   1      35.278  33.053  27.735  1.00  0.00    -0.377 OA
ENDROOT
BRANCH   1   2
ATOM      2  C   UNL A   1      35.587  31.764  28.230  1.00  0.00     0.188 C 
BRANCH   2   3
ATOM      3  C   UNL A   1      34.936  30.570  27.525  1.00  0.00     0.188 C 
BRANCH   3   4
ATOM      4  O   UNL A   1      33.778  30.669  26.716  1.00  0.00    -0.376 OA
BRANCH   4   5
ATOM      5  C   UNL A   1      33.144  29.679  25.941  1.00  0.00     0.202 C 
BRANCH   5   6
ATOM      6  C   UNL A   1      31.685  29.270  26.094  1.00  0.00     0.261 C 
BRANCH   6   7
ATOM      7  O   UNL A   1      31.315  27.982  25.612  1.00  0.00    -0.463 OA
BRANCH   7   8
ATOM      8  C   UNL A   1      30.947  26.921  26.348  1.00  0.00     0.308 C 
ATOM      9  O   UNL A   1      31.454  26.759  27.458  1.00  0.00    -0.252 OA
BRANCH   8  10
ATOM     10  C   UNL A   1      30.138  25.814  25.729  1.00  0.00     0.158 C 
BRANCH  10  11
ATOM     11  C   UNL A   1      30.767  24.477  25.448  1.00  0.00     0.190 C 
ATOM     12  C   UNL A   1      30.889  23.635  26.708  1.00  0.00     0.249 C 
ATOM     13  N   UNL A   1      32.165  24.542  25.019  1.00  0.00    -0.306 N 
ATOM     14  O   UNL A   1      29.967  23.266  27.418  1.00  0.00    -0.272 OA
ATOM     15  N   UNL A   1      32.195  23.346  26.915  1.00  0.00    -0.301 N 
ATOM     16  C   UNL A   1      32.985  23.865  25.934  1.00  0.00     0.180 C 
ATOM     17  H   UNL A   1      32.532  22.826  27.680  1.00  0.00     0.172 HD
ATOM     18  S   UNL A   1      34.636  23.706  25.992  1.00  0.00    -0.040 S 
BRANCH  13  19
ATOM     19  C   UNL A   1      32.571  25.089  23.769  1.00  0.00     0.044 A 
ATOM     20  C   UNL A   1      33.278  26.296  23.726  1.00  0.00     0.026 A 
ATOM     21  C   UNL A   1      32.234  24.480  22.553  1.00  0.00     0.026 A 
ATOM     22  C   UNL A   1      33.597  26.902  22.506  1.00  0.00     0.002 A 
ATOM     23  C   UNL A   1      32.545  25.088  21.331  1.00  0.00     0.002 A 
ATOM     24  C   UNL A   1      33.217  26.305  21.308  1.00  0.00     0.000 A 
ENDBRANCH  13  19
ENDBRANCH  10  11
ENDBRANCH   8  10
ENDBRANCH   7   8
ENDBRANCH   6   7
ENDBRANCH   5   6
ENDBRANCH   4   5
ENDBRANCH   3   4
ENDBRANCH   2   3
ENDBRANCH   1   2
BRANCH   1  25
ATOM     25  C   UNL A   1      34.338  33.760  28.517  1.00  0.00     0.188 C 
BRANCH  25  26
ATOM     26  C   UNL A   1      34.827  34.047  29.948  1.00  0.00     0.188 C 
BRANCH  26  27
ATOM     27  O   UNL A   1      33.894  34.202  30.998  1.00  0.00    -0.376 OA
BRANCH  27  28
ATOM     28  C   UNL A   1      34.258  33.985  32.353  1.00  0.00     0.202 C 
BRANCH  28  29
ATOM     29  C   UNL A   1      35.114  32.812  32.878  1.00  0.00     0.261 C 
BRANCH  29  30
ATOM     30  O   UNL A   1      36.160  33.101  33.806  1.00  0.00    -0.460 OA
BRANCH  30  31
ATOM     31  C   UNL A   1      37.224  33.763  33.306  1.00  0.00     0.338 C 
ATOM     32  O   UNL A   1      37.649  34.855  33.652  1.00  0.00    -0.246 OA
BRANCH  31  33
ATOM     33  C   UNL A   1      37.957  32.847  32.411  1.00  0.00     0.060 A 
ATOM     34  C   UNL A   1      38.782  31.874  32.995  1.00  0.00     0.016 A 
ATOM     35  C   UNL A   1      37.824  32.926  31.023  1.00  0.00     0.016 A 
ATOM     36  C   UNL A   1      39.513  31.004  32.194  1.00  0.00     0.010 A 
ATOM     37  C   UNL A   1      38.592  32.084  30.217  1.00  0.00     0.010 A 
ATOM     38  C   UNL A   1      39.474  31.155  30.804  1.00  0.00    -0.014 A 
BRANCH  38  39
ATOM     39  C   UNL A   1      40.564  30.557  30.003  1.00  0.00     0.031 A 
ATOM     40  C   UNL A   1      41.818  31.369  29.821  1.00  0.00     0.074 A 
ATOM     41  C   UNL A   1      40.480  29.311  29.509  1.00  0.00     0.049 A 
ATOM     42  N   UNL A   1      42.915  31.075  29.173  1.00  0.00    -0.248 NA
ATOM     43  C   UNL A   1      41.835  32.695  30.464  1.00  0.00     0.031 C 
ATOM     44  C   UNL A   1      39.347  28.402  29.681  1.00  0.00     0.029 A 
ATOM     45  N   UNL A   1      41.379  28.596  28.762  1.00  0.00    -0.354 N 
ATOM     46  C   UNL A   1      43.742  32.182  29.320  1.00  0.00     0.074 A 
ATOM     47  C   UNL A   1      43.013  33.164  30.089  1.00  0.00     0.031 C 
ATOM     48  C   UNL A   1      39.622  27.246  29.050  1.00  0.00     0.029 A 
ATOM     49  C   UNL A   1      40.931  27.349  28.406  1.00  0.00     0.049 A 
ATOM     50  H   UNL A   1      42.264  28.944  28.505  1.00  0.00     0.167 HD
ATOM     51  C   UNL A   1      45.001  32.364  28.858  1.00  0.00     0.031 A 
ATOM     52  C   UNL A   1      41.509  26.409  27.633  1.00  0.00     0.031 A 
ATOM     53  C   UNL A   1      45.715  31.395  28.074  1.00  0.00     0.049 A 
ATOM     54  C   UNL A   1      42.871  26.677  27.045  1.00  0.00     0.074 A 
ATOM     55  C   UNL A   1      46.996  31.477  27.559  1.00  0.00     0.029 A 
ATOM     56  N   UNL A   1      45.201  30.169  27.681  1.00  0.00    -0.354 N 
ATOM     57  N   UNL A   1      43.655  27.716  27.206  1.00  0.00    -0.248 NA
ATOM     58  C   UNL A   1      43.430  25.632  26.175  1.00  0.00     0.031 C 
ATOM     59  C   UNL A   1      47.231  30.328  26.796  1.00  0.00     0.029 A 
ATOM     60  C   UNL A   1      46.126  29.498  26.902  1.00  0.00     0.049 A 
ATOM     61  H   UNL A   1      44.309  29.826  27.921  1.00  0.00     0.167 HD
ATOM     62  C   UNL A   1      44.814  27.434  26.489  1.00  0.00     0.074 A 
ATOM     63  C   UNL A   1      44.633  26.120  25.907  1.00  0.00     0.031 C 
ATOM     64  C   UNL A   1      45.929  28.189  26.331  1.00  0.00     0.031 A 
BRANCH  51  65
ATOM     65  C   UNL A   1      45.654  33.688  29.148  1.00  0.00    -0.014 A 
ATOM     66  C   UNL A   1      46.477  33.874  30.270  1.00  0.00     0.009 A 
ATOM     67  C   UNL A   1      45.443  34.768  28.276  1.00  0.00     0.009 A 
ATOM     68  C   UNL A   1      47.039  35.126  30.536  1.00  0.00     0.001 A 
ATOM     69  C   UNL A   1      46.034  36.007  28.524  1.00  0.00     0.001 A 
ATOM     70  C   UNL A   1      46.821  36.188  29.660  1.00  0.00     0.000 A 
ENDBRANCH  51  65
BRANCH  52  71
ATOM     71  C   UNL A   1      40.804  25.130  27.354  1.00  0.00    -0.014 A 
ATOM     72  C   UNL A   1      39.678  25.100  26.516  1.00  0.00     0.009 A 
ATOM     73  C   UNL A   1      41.232  23.934  27.952  1.00  0.00     0.009 A 
ATOM     74  C   UNL A   1      38.980  23.908  26.307  1.00  0.00     0.001 A 
ATOM     75  C   UNL A   1      40.552  22.737  27.715  1.00  0.00     0.001 A 
ATOM     76  C   UNL A   1      39.421  22.727  26.902  1.00  0.00     0.000 A 
ENDBRANCH  52  71
BRANCH  64  77
ATOM     77  C   UNL A   1      47.062  27.591  25.541  1.00  0.00    -0.014 A 
ATOM     78  C   UNL A   1      47.165  27.765  24.152  1.00  0.00     0.009 A 
ATOM     79  C   UNL A   1      48.064  26.870  26.210  1.00  0.00     0.009 A 
ATOM     80  C   UNL A   1      48.224  27.190  23.445  1.00  0.00     0.001 A 
ATOM     81  C   UNL A   1      49.141  26.329  25.507  1.00  0.00     0.001 A 
ATOM     82  C   UNL A   1      49.213  26.478  24.124  1.00  0.00     0.000 A 
ENDBRANCH  64  77
ENDBRANCH  38  39
ENDBRANCH  31  33
ENDBRANCH  30  31
ENDBRANCH  29  30
ENDBRANCH  28  29
ENDBRANCH  27  28
ENDBRANCH  26  27
ENDBRANCH  25  26
ENDBRANCH   1  25
TORSDOF 22
ENDMDL
MODEL 3
REMARK VINA RESULT:      -8.8      4.642      9.804
REMARK SMILES O=C(C[C@@H]1C(=O)NC(=S)N1c1ccccc1)OCCOCCOCCOCCOC(=O)c1ccc(-c2c3nc(c(-c4ccccc4)c4ccc([nH]4)c(-c4ccccc4)c4nc(c(-c5ccccc5)c5ccc2[nH]5)C=C4)C=C3)cc1
REMARK SMILES IDX 23 1 22 2 21 3 20 4 19 5 18 6 17 7 2 8 1 9 3 10 4 11 5 12
REMARK SMILES IDX 10 13 6 14 7 15 8 16 9 18 11 19 12 20 16 21 13 22 15 23
REMARK SMILES IDX 14 24 24 25 25 26 26 27 27 28 28 29 29 30 30 31 31 32 32 33
REMARK SMILES IDX 33 34 79 35 34 36 78 37 35 38 36 39 37 40 72 41 38 42 77 43
REMARK SMILES IDX 71 44 73 45 39 46 76 47 70 48 69 49 40 51 62 52 47 53 61 54
REMARK SMILES IDX 48 55 51 56 60 57 74 58 49 59 50 60 59 62 75 63 52 64 41 65
REMARK SMILES IDX 42 66 46 67 43 68 45 69 44 70 63 71 64 72 68 73 65 74 67 75
REMARK SMILES IDX 66 76 53 77 54 78 58 79 55 80 57 81 56 82
REMARK H PARENT 7 17 73 50 51 61
REMARK Flexibility Score: inf
ROOT
ATOM      1  O   UNL A   1      35.329  32.556  27.674  1.00  0.00    -0.377 OA
ENDROOT
BRANCH   1   2
ATOM      2  C   UNL A   1      35.290  31.182  28.011  1.00  0.00     0.188 C 
BRANCH   2   3
ATOM      3  C   UNL A   1      34.319  30.297  27.223  1.00  0.00     0.188 C 
BRANCH   3   4
ATOM      4  O   UNL A   1      32.918  30.496  27.196  1.00  0.00    -0.376 OA
BRANCH   4   5
ATOM      5  C   UNL A   1      32.048  30.567  26.091  1.00  0.00     0.202 C 
BRANCH   5   6
ATOM      6  C   UNL A   1      31.450  29.356  25.388  1.00  0.00     0.261 C 
BRANCH   6   7
ATOM      7  O   UNL A   1      32.284  28.658  24.469  1.00  0.00    -0.463 OA
BRANCH   7   8
ATOM      8  C   UNL A   1      32.873  27.466  24.660  1.00  0.00     0.308 C 
ATOM      9  O   UNL A   1      33.967  27.423  25.221  1.00  0.00    -0.252 OA
BRANCH   8  10
ATOM     10  C   UNL A   1      32.340  26.239  23.970  1.00  0.00     0.158 C 
BRANCH  10  11
ATOM     11  C   UNL A   1      33.283  25.216  23.399  1.00  0.00     0.190 C 
ATOM     12  C   UNL A   1      33.140  25.098  21.890  1.00  0.00     0.249 C 
ATOM     13  N   UNL A   1      33.009  23.839  23.814  1.00  0.00    -0.306 N 
ATOM     14  O   UNL A   1      33.316  25.993  21.079  1.00  0.00    -0.272 OA
ATOM     15  N   UNL A   1      32.794  23.826  21.583  1.00  0.00    -0.301 N 
ATOM     16  C   UNL A   1      32.707  23.047  22.697  1.00  0.00     0.180 C 
ATOM     17  H   UNL A   1      32.625  23.505  20.668  1.00  0.00     0.172 HD
ATOM     18  S   UNL A   1      32.234  21.460  22.596  1.00  0.00    -0.040 S 
BRANCH  13  19
ATOM     19  C   UNL A   1      33.187  23.380  25.150  1.00  0.00     0.044 A 
ATOM     20  C   UNL A   1      34.420  22.855  25.555  1.00  0.00     0.026 A 
ATOM     21  C   UNL A   1      32.137  23.382  26.077  1.00  0.00     0.026 A 
ATOM     22  C   UNL A   1      34.586  22.306  26.831  1.00  0.00     0.002 A 
ATOM     23  C   UNL A   1      32.298  22.826  27.352  1.00  0.00     0.002 A 
ATOM     24  C   UNL A   1      33.520  22.278  27.724  1.00  0.00     0.000 A 
ENDBRANCH  13  19
ENDBRANCH  10  11
ENDBRANCH   8  10
ENDBRANCH   7   8
ENDBRANCH   6   7
ENDBRANCH   5   6
ENDBRANCH   4   5
ENDBRANCH   3   4
ENDBRANCH   2   3
ENDBRANCH   1   2
BRANCH   1  25
ATOM     25  C   UNL A   1      34.485  33.368  28.463  1.00  0.00     0.188 C 
BRANCH  25  26
ATOM     26  C   UNL A   1      34.949  33.494  29.924  1.00  0.00     0.188 C 
BRANCH  26  27
ATOM     27  O   UNL A   1      34.011  33.770  30.945  1.00  0.00    -0.376 OA
BRANCH  27  28
ATOM     28  C   UNL A   1      34.328  33.586  32.316  1.00  0.00     0.202 C 
BRANCH  28  29
ATOM     29  C   UNL A   1      35.371  32.591  32.872  1.00  0.00     0.261 C 
BRANCH  29  30
ATOM     30  O   UNL A   1      36.261  33.046  33.892  1.00  0.00    -0.460 OA
BRANCH  30  31
ATOM     31  C   UNL A   1      37.346  33.726  33.466  1.00  0.00     0.338 C 
ATOM     32  O   UNL A   1      37.799  34.764  33.924  1.00  0.00    -0.246 OA
BRANCH  31  33
ATOM     33  C   UNL A   1      38.060  32.885  32.484  1.00  0.00     0.060 A 
ATOM     34  C   UNL A   1      38.680  31.715  32.946  1.00  0.00     0.016 A 
ATOM     35  C   UNL A   1      38.103  33.227  31.131  1.00  0.00     0.016 A 
ATOM     36  C   UNL A   1      39.387  30.904  32.065  1.00  0.00     0.010 A 
ATOM     37  C   UNL A   1      38.850  32.438  30.254  1.00  0.00     0.010 A 
ATOM     38  C   UNL A   1      39.532  31.303  30.731  1.00  0.00    -0.014 A 
BRANCH  38  39
ATOM     39  C   UNL A   1      40.625  30.703  29.936  1.00  0.00     0.031 A 
ATOM     40  C   UNL A   1      41.864  31.531  29.725  1.00  0.00     0.074 A 
ATOM     41  C   UNL A   1      40.557  29.445  29.472  1.00  0.00     0.049 A 
ATOM     42  N   UNL A   1      42.961  31.240  29.075  1.00  0.00    -0.248 NA
ATOM     43  C   UNL A   1      41.864  32.872  30.337  1.00  0.00     0.031 C 
ATOM     44  C   UNL A   1      39.441  28.522  29.674  1.00  0.00     0.029 A 
ATOM     45  N   UNL A   1      41.463  28.727  28.735  1.00  0.00    -0.354 N 
ATOM     46  C   UNL A   1      43.770  32.363  29.189  1.00  0.00     0.074 A 
ATOM     47  C   UNL A   1      43.032  33.351  29.941  1.00  0.00     0.031 C 
ATOM     48  C   UNL A   1      39.730  27.356  29.069  1.00  0.00     0.029 A 
ATOM     49  C   UNL A   1      41.032  27.465  28.413  1.00  0.00     0.049 A 
ATOM     50  H   UNL A   1      42.339  29.083  28.462  1.00  0.00     0.167 HD
ATOM     51  C   UNL A   1      45.023  32.555  28.713  1.00  0.00     0.031 A 
ATOM     52  C   UNL A   1      41.619  26.516  27.657  1.00  0.00     0.031 A 
ATOM     53  C   UNL A   1      45.746  31.579  27.946  1.00  0.00     0.049 A 
ATOM     54  C   UNL A   1      42.972  26.792  27.052  1.00  0.00     0.074 A 
ATOM     55  C   UNL A   1      47.022  31.669  27.419  1.00  0.00     0.029 A 
ATOM     56  N   UNL A   1      45.250  30.336  27.586  1.00  0.00    -0.354 N 
ATOM     57  N   UNL A   1      43.740  27.848  27.181  1.00  0.00    -0.248 NA
ATOM     58  C   UNL A   1      43.541  25.736  26.202  1.00  0.00     0.031 C 
ATOM     59  C   UNL A   1      47.270  30.507  26.681  1.00  0.00     0.029 A 
ATOM     60  C   UNL A   1      46.180  29.662  26.815  1.00  0.00     0.049 A 
ATOM     61  H   UNL A   1      44.365  29.984  27.842  1.00  0.00     0.167 HD
ATOM     62  C   UNL A   1      44.898  27.567  26.462  1.00  0.00     0.074 A 
ATOM     63  C   UNL A   1      44.734  26.237  25.913  1.00  0.00     0.031 C 
ATOM     64  C   UNL A   1      46.000  28.337  26.277  1.00  0.00     0.031 A 
BRANCH  51  65
ATOM     65  C   UNL A   1      45.656  33.895  28.966  1.00  0.00    -0.014 A 
ATOM     66  C   UNL A   1      46.437  34.138  30.108  1.00  0.00     0.009 A 
ATOM     67  C   UNL A   1      45.470  34.933  28.040  1.00  0.00     0.009 A 
ATOM     68  C   UNL A   1      46.980  35.405  30.337  1.00  0.00     0.001 A 
ATOM     69  C   UNL A   1      46.044  36.187  28.253  1.00  0.00     0.001 A 
ATOM     70  C   UNL A   1      46.787  36.425  29.407  1.00  0.00     0.000 A 
ENDBRANCH  51  65
BRANCH  52  71
ATOM     71  C   UNL A   1      40.933  25.220  27.414  1.00  0.00    -0.014 A 
ATOM     72  C   UNL A   1      39.916  25.117  26.452  1.00  0.00     0.009 A 
ATOM     73  C   UNL A   1      41.267  24.084  28.167  1.00  0.00     0.009 A 
ATOM     74  C   UNL A   1      39.230  23.913  26.270  1.00  0.00     0.001 A 
ATOM     75  C   UNL A   1      40.603  22.872  27.961  1.00  0.00     0.001 A 
ATOM     76  C   UNL A   1      39.577  22.791  27.021  1.00  0.00     0.000 A 
ENDBRANCH  52  71
BRANCH  64  77
ATOM     77  C   UNL A   1      47.136  27.739  25.492  1.00  0.00    -0.014 A 
ATOM     78  C   UNL A   1      48.178  27.038  26.120  1.00  0.00     0.009 A 
ATOM     79  C   UNL A   1      47.141  27.851  24.092  1.00  0.00     0.009 A 
ATOM     80  C   UNL A   1      49.224  26.502  25.364  1.00  0.00     0.001 A 
ATOM     81  C   UNL A   1      48.168  27.282  23.337  1.00  0.00     0.001 A 
ATOM     82  C   UNL A   1      49.214  26.620  23.974  1.00  0.00     0.000 A 
ENDBRANCH  64  77
ENDBRANCH  38  39
ENDBRANCH  31  33
ENDBRANCH  30  31
ENDBRANCH  29  30
ENDBRANCH  28  29
ENDBRANCH  27  28
ENDBRANCH  26  27
ENDBRANCH  25  26
ENDBRANCH   1  25
TORSDOF 22
ENDMDL
