MODEL 1
REMARK VINA RESULT:      -9.1      0.000      0.000
REMARK SMILES CC1(C)[C@@H](CBr)CC[C@]1(C)C(=O)OCCOCCOCCOCCOC(=O)c1ccc(-c2c3nc(c(-c4ccccc4)c4ccc([nH]4)c(-c4ccccc4)c4nc(c(-c5ccccc5)c5ccc2[nH]5)C=C4)C=C3)cc1
REMARK SMILES IDX 20 1 19 2 18 3 17 4 16 5 15 6 14 7 13 8 11 9 12 10 9 11 1 12
REMARK SMILES IDX 2 13 3 14 4 15 7 16 8 17 10 18 5 19 6 20 21 21 22 22 23 23
REMARK SMILES IDX 24 24 25 25 26 26 27 27 28 28 29 29 75 30 30 31 74 32 31 33
REMARK SMILES IDX 32 34 33 35 68 36 34 37 73 38 67 39 69 40 35 41 72 42 66 43
REMARK SMILES IDX 65 44 36 46 58 47 43 48 57 49 44 50 47 51 56 52 70 53 45 54
REMARK SMILES IDX 46 55 55 57 71 58 48 59 37 60 38 61 42 62 39 63 41 64 40 65
REMARK SMILES IDX 59 66 60 67 64 68 61 69 63 70 62 71 49 72 50 73 54 74 51 75
REMARK SMILES IDX 53 76 52 77
REMARK H PARENT 69 45 47 56
REMARK Flexibility Score: inf
ROOT
ATOM      1  C   UNL A   1      33.751  31.385  27.965  1.00  0.00     0.188 C 
ENDROOT
BRANCH   1   2
ATOM      2  O   UNL A   1      34.523  30.504  27.163  1.00  0.00    -0.377 OA
BRANCH   2   3
ATOM      3  C   UNL A   1      33.930  29.438  26.449  1.00  0.00     0.188 C 
BRANCH   3   4
ATOM      4  C   UNL A   1      33.094  28.495  27.307  1.00  0.00     0.188 C 
BRANCH   4   5
ATOM      5  O   UNL A   1      31.790  28.215  26.844  1.00  0.00    -0.376 OA
BRANCH   5   6
ATOM      6  C   UNL A   1      31.580  27.857  25.482  1.00  0.00     0.202 C 
BRANCH   6   7
ATOM      7  C   UNL A   1      32.120  26.568  24.811  1.00  0.00     0.261 C 
BRANCH   7   8
ATOM      8  O   UNL A   1      32.295  25.363  25.612  1.00  0.00    -0.463 OA
BRANCH   8   9
ATOM      9  C   UNL A   1      33.570  24.915  25.672  1.00  0.00     0.312 C 
ATOM     10  O   UNL A   1      34.527  25.694  25.700  1.00  0.00    -0.252 OA
BRANCH   9  11
ATOM     11  C   UNL A   1      33.848  23.393  25.526  1.00  0.00     0.071 C 
ATOM     12  C   UNL A   1      35.680  22.278  23.981  1.00  0.00     0.012 C 
ATOM     13  C   UNL A   1      34.182  22.572  24.197  1.00  0.00    -0.016 C 
ATOM     14  C   UNL A   1      33.736  23.245  22.886  1.00  0.00     0.012 C 
ATOM     15  C   UNL A   1      33.313  21.253  24.285  1.00  0.00     0.006 C 
ATOM     16  C   UNL A   1      32.075  21.672  25.063  1.00  0.00     0.006 C 
ATOM     17  C   UNL A   1      32.539  22.716  26.059  1.00  0.00     0.019 C 
ATOM     18  C   UNL A   1      34.984  23.244  26.575  1.00  0.00     0.024 C 
BRANCH  15  19
ATOM     19  C   UNL A   1      33.916  19.913  24.714  1.00  0.00     0.084 C 
ATOM     20  Br  UNL A   1      32.719  18.405  24.867  1.00  0.00    -0.092 Br
ENDBRANCH  15  19
ENDBRANCH   9  11
ENDBRANCH   8   9
ENDBRANCH   7   8
ENDBRANCH   6   7
ENDBRANCH   5   6
ENDBRANCH   4   5
ENDBRANCH   3   4
ENDBRANCH   2   3
ENDBRANCH   1   2
BRANCH   1  21
ATOM     21  C   UNL A   1      34.007  32.879  27.822  1.00  0.00     0.188 C 
BRANCH  21  22
ATOM     22  O   UNL A   1      34.812  33.501  28.827  1.00  0.00    -0.376 OA
BRANCH  22  23
ATOM     23  C   UNL A   1      34.208  34.439  29.715  1.00  0.00     0.202 C 
BRANCH  23  24
ATOM     24  C   UNL A   1      34.135  33.974  31.166  1.00  0.00     0.261 C 
BRANCH  24  25
ATOM     25  O   UNL A   1      34.491  32.589  31.294  1.00  0.00    -0.460 OA
BRANCH  25  26
ATOM     26  C   UNL A   1      35.419  32.312  32.233  1.00  0.00     0.338 C 
ATOM     27  O   UNL A   1      35.408  32.623  33.415  1.00  0.00    -0.246 OA
BRANCH  26  28
ATOM     28  C   UNL A   1      36.447  31.444  31.642  1.00  0.00     0.060 A 
ATOM     29  C   UNL A   1      37.276  30.697  32.490  1.00  0.00     0.016 A 
ATOM     30  C   UNL A   1      36.643  31.440  30.260  1.00  0.00     0.016 A 
ATOM     31  C   UNL A   1      38.348  29.986  31.959  1.00  0.00     0.010 A 
ATOM     32  C   UNL A   1      37.718  30.734  29.731  1.00  0.00     0.010 A 
ATOM     33  C   UNL A   1      38.598  30.044  30.582  1.00  0.00    -0.014 A 
BRANCH  33  34
ATOM     34  C   UNL A   1      39.877  29.559  30.024  1.00  0.00     0.031 A 
ATOM     35  C   UNL A   1      41.003  30.541  29.874  1.00  0.00     0.074 A 
ATOM     36  C   UNL A   1      40.005  28.292  29.599  1.00  0.00     0.049 A 
ATOM     37  N   UNL A   1      42.144  30.408  29.252  1.00  0.00    -0.248 NA
ATOM     38  C   UNL A   1      40.803  31.861  30.497  1.00  0.00     0.031 C 
ATOM     39  C   UNL A   1      38.993  27.246  29.737  1.00  0.00     0.029 A 
ATOM     40  N   UNL A   1      41.038  27.684  28.936  1.00  0.00    -0.354 N 
ATOM     41  C   UNL A   1      42.784  31.634  29.383  1.00  0.00     0.074 A 
ATOM     42  C   UNL A   1      41.897  32.505  30.122  1.00  0.00     0.031 C 
ATOM     43  C   UNL A   1      39.447  26.126  29.148  1.00  0.00     0.029 A 
ATOM     44  C   UNL A   1      40.755  26.396  28.555  1.00  0.00     0.049 A 
ATOM     45  H   UNL A   1      41.898  28.127  28.751  1.00  0.00     0.167 HD
ATOM     46  C   UNL A   1      44.004  32.001  28.921  1.00  0.00     0.031 A 
ATOM     47  C   UNL A   1      41.457  25.551  27.777  1.00  0.00     0.031 A 
ATOM     48  C   UNL A   1      44.865  31.129  28.169  1.00  0.00     0.049 A 
ATOM     49  C   UNL A   1      42.777  26.003  27.211  1.00  0.00     0.074 A 
ATOM     50  C   UNL A   1      46.129  31.386  27.670  1.00  0.00     0.029 A 
ATOM     51  N   UNL A   1      44.542  29.832  27.799  1.00  0.00    -0.354 N 
ATOM     52  N   UNL A   1      43.388  27.154  27.353  1.00  0.00    -0.248 NA
ATOM     53  C   UNL A   1      43.507  25.033  26.382  1.00  0.00     0.031 C 
ATOM     54  C   UNL A   1      46.543  30.267  26.940  1.00  0.00     0.029 A 
ATOM     55  C   UNL A   1      45.571  29.284  27.052  1.00  0.00     0.049 A 
ATOM     56  H   UNL A   1      43.705  29.369  28.033  1.00  0.00     0.167 HD
ATOM     57  C   UNL A   1      44.591  27.036  26.666  1.00  0.00     0.074 A 
ATOM     58  C   UNL A   1      44.622  25.697  26.112  1.00  0.00     0.031 C 
ATOM     59  C   UNL A   1      45.583  27.947  26.514  1.00  0.00     0.031 A 
BRANCH  46  60
ATOM     60  C   UNL A   1      44.443  33.417  29.173  1.00  0.00    -0.014 A 
ATOM     61  C   UNL A   1      45.178  33.767  30.318  1.00  0.00     0.009 A 
ATOM     62  C   UNL A   1      44.128  34.417  28.239  1.00  0.00     0.009 A 
ATOM     63  C   UNL A   1      45.548  35.096  30.542  1.00  0.00     0.001 A 
ATOM     64  C   UNL A   1      44.529  35.738  28.448  1.00  0.00     0.001 A 
ATOM     65  C   UNL A   1      45.227  36.078  29.606  1.00  0.00     0.000 A 
ENDBRANCH  46  60
BRANCH  47  66
ATOM     66  C   UNL A   1      40.915  24.200  27.477  1.00  0.00    -0.014 A 
ATOM     67  C   UNL A   1      41.464  23.061  28.085  1.00  0.00     0.009 A 
ATOM     68  C   UNL A   1      39.841  24.043  26.586  1.00  0.00     0.009 A 
ATOM     69  C   UNL A   1      40.962  21.791  27.791  1.00  0.00     0.001 A 
ATOM     70  C   UNL A   1      39.322  22.775  26.319  1.00  0.00     0.001 A 
ATOM     71  C   UNL A   1      39.888  21.649  26.914  1.00  0.00     0.000 A 
ENDBRANCH  47  66
BRANCH  59  72
ATOM     72  C   UNL A   1      46.816  27.512  25.769  1.00  0.00    -0.014 A 
ATOM     73  C   UNL A   1      47.841  26.791  26.397  1.00  0.00     0.009 A 
ATOM     74  C   UNL A   1      46.916  27.782  24.394  1.00  0.00     0.009 A 
ATOM     75  C   UNL A   1      48.958  26.376  25.667  1.00  0.00     0.001 A 
ATOM     76  C   UNL A   1      48.015  27.337  23.661  1.00  0.00     0.001 A 
ATOM     77  C   UNL A   1      49.040  26.641  24.301  1.00  0.00     0.000 A 
ENDBRANCH  59  72
ENDBRANCH  33  34
ENDBRANCH  26  28
ENDBRANCH  25  26
ENDBRANCH  24  25
ENDBRANCH  23  24
ENDBRANCH  22  23
ENDBRANCH  21  22
ENDBRANCH   1  21
TORSDOF 21
ENDMDL
MODEL 2
REMARK VINA RESULT:      -8.8      4.375      9.777
REMARK SMILES CC1(C)[C@@H](CBr)CC[C@]1(C)C(=O)OCCOCCOCCOCCOC(=O)c1ccc(-c2c3nc(c(-c4ccccc4)c4ccc([nH]4)c(-c4ccccc4)c4nc(c(-c5ccccc5)c5ccc2[nH]5)C=C4)C=C3)cc1
REMARK SMILES IDX 20 1 19 2 18 3 17 4 16 5 15 6 14 7 13 8 11 9 12 10 9 11 1 12
REMARK SMILES IDX 2 13 3 14 4 15 7 16 8 17 10 18 5 19 6 20 21 21 22 22 23 23
REMARK SMILES IDX 24 24 25 25 26 26 27 27 28 28 29 29 75 30 30 31 74 32 31 33
REMARK SMILES IDX 32 34 33 35 68 36 34 37 73 38 67 39 69 40 35 41 72 42 66 43
REMARK SMILES IDX 65 44 36 46 58 47 43 48 57 49 44 50 47 51 56 52 70 53 45 54
REMARK SMILES IDX 46 55 55 57 71 58 48 59 37 60 38 61 42 62 39 63 41 64 40 65
REMARK SMILES IDX 59 66 60 67 64 68 61 69 63 70 62 71 49 72 50 73 54 74 51 75
REMARK SMILES IDX 53 76 52 77
REMARK H PARENT 69 45 47 56
REMARK Flexibility Score: inf
ROOT
ATOM      1  C   UNL A   1      41.393  21.099  27.441  1.00  0.00     0.188 C 
ENDROOT
BRANCH   1   2
ATOM      2  O   UNL A   1      40.017  21.439  27.371  1.00  0.00    -0.377 OA
BRANCH   2   3
ATOM      3  C   UNL A   1      39.446  21.989  26.200  1.00  0.00     0.188 C 
BRANCH   3   4
ATOM      4  C   UNL A   1      39.000  23.440  26.341  1.00  0.00     0.188 C 
BRANCH   4   5
ATOM      5  O   UNL A   1      37.632  23.700  26.111  1.00  0.00    -0.376 OA
BRANCH   5   6
ATOM      6  C   UNL A   1      36.891  22.878  25.214  1.00  0.00     0.202 C 
BRANCH   6   7
ATOM      7  C   UNL A   1      35.413  22.458  25.412  1.00  0.00     0.261 C 
BRANCH   7   8
ATOM      8  O   UNL A   1      34.370  23.477  25.393  1.00  0.00    -0.463 OA
BRANCH   8   9
ATOM      9  C   UNL A   1      33.823  23.691  24.175  1.00  0.00     0.312 C 
ATOM     10  O   UNL A   1      33.999  22.904  23.241  1.00  0.00    -0.252 OA
BRANCH   9  11
ATOM     11  C   UNL A   1      33.105  25.040  23.891  1.00  0.00     0.071 C 
ATOM     12  C   UNL A   1      30.875  25.896  25.022  1.00  0.00     0.012 C 
ATOM     13  C   UNL A   1      31.537  25.317  23.757  1.00  0.00    -0.016 C 
ATOM     14  C   UNL A   1      30.685  24.082  23.414  1.00  0.00     0.012 C 
ATOM     15  C   UNL A   1      31.382  26.270  22.504  1.00  0.00     0.006 C 
ATOM     16  C   UNL A   1      32.534  25.878  21.590  1.00  0.00     0.006 C 
ATOM     17  C   UNL A   1      33.680  25.489  22.504  1.00  0.00     0.019 C 
ATOM     18  C   UNL A   1      33.729  25.900  25.024  1.00  0.00     0.024 C 
BRANCH  15  19
ATOM     19  C   UNL A   1      31.169  27.778  22.654  1.00  0.00     0.084 C 
ATOM     20  Br  UNL A   1      29.377  28.394  23.023  1.00  0.00    -0.092 Br
ENDBRANCH  15  19
ENDBRANCH   9  11
ENDBRANCH   8   9
ENDBRANCH   7   8
ENDBRANCH   6   7
ENDBRANCH   5   6
ENDBRANCH   4   5
ENDBRANCH   3   4
ENDBRANCH   2   3
ENDBRANCH   1   2
BRANCH   1  21
ATOM     21  C   UNL A   1      42.196  21.127  26.147  1.00  0.00     0.188 C 
BRANCH  21  22
ATOM     22  O   UNL A   1      43.472  21.772  26.185  1.00  0.00    -0.376 OA
BRANCH  22  23
ATOM     23  C   UNL A   1      44.339  21.658  25.059  1.00  0.00     0.202 C 
BRANCH  23  24
ATOM     24  C   UNL A   1      44.487  22.942  24.247  1.00  0.00     0.261 C 
BRANCH  24  25
ATOM     25  O   UNL A   1      43.686  24.002  24.788  1.00  0.00    -0.460 OA
BRANCH  25  26
ATOM     26  C   UNL A   1      44.362  25.109  25.161  1.00  0.00     0.338 C 
ATOM     27  O   UNL A   1      45.437  25.510  24.740  1.00  0.00    -0.246 OA
BRANCH  26  28
ATOM     28  C   UNL A   1      43.539  25.869  26.112  1.00  0.00     0.060 A 
ATOM     29  C   UNL A   1      43.900  27.187  26.422  1.00  0.00     0.016 A 
ATOM     30  C   UNL A   1      42.468  25.248  26.756  1.00  0.00     0.016 A 
ATOM     31  C   UNL A   1      43.224  27.872  27.427  1.00  0.00     0.010 A 
ATOM     32  C   UNL A   1      41.796  25.931  27.764  1.00  0.00     0.010 A 
ATOM     33  C   UNL A   1      42.202  27.226  28.133  1.00  0.00    -0.014 A 
BRANCH  33  34
ATOM     34  C   UNL A   1      41.668  27.797  29.386  1.00  0.00     0.031 A 
ATOM     35  C   UNL A   1      40.415  28.621  29.312  1.00  0.00     0.074 A 
ATOM     36  C   UNL A   1      42.324  27.642  30.547  1.00  0.00     0.049 A 
ATOM     37  N   UNL A   1      39.858  29.371  30.225  1.00  0.00    -0.248 NA
ATOM     38  C   UNL A   1      39.705  28.610  28.021  1.00  0.00     0.031 C 
ATOM     39  C   UNL A   1      43.523  26.828  30.740  1.00  0.00     0.029 A 
ATOM     40  N   UNL A   1      42.083  28.194  31.777  1.00  0.00    -0.354 N 
ATOM     41  C   UNL A   1      38.750  29.943  29.612  1.00  0.00     0.074 A 
ATOM     42  C   UNL A   1      38.726  29.474  28.245  1.00  0.00     0.031 C 
ATOM     43  C   UNL A   1      43.931  26.956  32.014  1.00  0.00     0.029 A 
ATOM     44  C   UNL A   1      43.049  27.896  32.705  1.00  0.00     0.049 A 
ATOM     45  H   UNL A   1      41.295  28.750  31.976  1.00  0.00     0.167 HD
ATOM     46  C   UNL A   1      37.837  30.790  30.145  1.00  0.00     0.031 A 
ATOM     47  C   UNL A   1      43.223  28.365  33.954  1.00  0.00     0.031 A 
ATOM     48  C   UNL A   1      37.887  31.263  31.502  1.00  0.00     0.049 A 
ATOM     49  C   UNL A   1      42.238  29.364  34.504  1.00  0.00     0.074 A 
ATOM     50  C   UNL A   1      37.005  32.105  32.155  1.00  0.00     0.029 A 
ATOM     51  N   UNL A   1      38.884  30.942  32.411  1.00  0.00    -0.354 N 
ATOM     52  N   UNL A   1      41.182  29.887  33.929  1.00  0.00    -0.248 NA
ATOM     53  C   UNL A   1      42.469  29.830  35.878  1.00  0.00     0.031 C 
ATOM     54  C   UNL A   1      37.505  32.346  33.438  1.00  0.00     0.029 A 
ATOM     55  C   UNL A   1      38.655  31.591  33.611  1.00  0.00     0.049 A 
ATOM     56  H   UNL A   1      39.642  30.340  32.229  1.00  0.00     0.167 HD
ATOM     57  C   UNL A   1      40.599  30.714  34.883  1.00  0.00     0.074 A 
ATOM     58  C   UNL A   1      41.419  30.617  36.074  1.00  0.00     0.031 C 
ATOM     59  C   UNL A   1      39.482  31.476  34.786  1.00  0.00     0.031 A 
BRANCH  46  60
ATOM     60  C   UNL A   1      36.748  31.294  29.239  1.00  0.00    -0.014 A 
ATOM     61  C   UNL A   1      36.759  32.603  28.731  1.00  0.00     0.009 A 
ATOM     62  C   UNL A   1      35.696  30.437  28.877  1.00  0.00     0.009 A 
ATOM     63  C   UNL A   1      35.718  33.055  27.915  1.00  0.00     0.001 A 
ATOM     64  C   UNL A   1      34.675  30.879  28.034  1.00  0.00     0.001 A 
ATOM     65  C   UNL A   1      34.680  32.192  27.564  1.00  0.00     0.000 A 
ENDBRANCH  46  60
BRANCH  47  66
ATOM     66  C   UNL A   1      44.384  27.908  34.761  1.00  0.00    -0.014 A 
ATOM     67  C   UNL A   1      44.288  26.759  35.560  1.00  0.00     0.009 A 
ATOM     68  C   UNL A   1      45.597  28.614  34.732  1.00  0.00     0.009 A 
ATOM     69  C   UNL A   1      45.376  26.338  36.328  1.00  0.00     0.001 A 
ATOM     70  C   UNL A   1      46.693  28.173  35.477  1.00  0.00     0.001 A 
ATOM     71  C   UNL A   1      46.579  27.042  36.281  1.00  0.00     0.000 A 
ENDBRANCH  47  66
BRANCH  59  72
ATOM     72  C   UNL A   1      39.043  32.222  36.017  1.00  0.00    -0.014 A 
ATOM     73  C   UNL A   1      38.174  31.648  36.956  1.00  0.00     0.009 A 
ATOM     74  C   UNL A   1      39.566  33.502  36.266  1.00  0.00     0.009 A 
ATOM     75  C   UNL A   1      37.811  32.357  38.105  1.00  0.00     0.001 A 
ATOM     76  C   UNL A   1      39.229  34.193  37.429  1.00  0.00     0.001 A 
ATOM     77  C   UNL A   1      38.345  33.624  38.344  1.00  0.00     0.000 A 
ENDBRANCH  59  72
ENDBRANCH  33  34
ENDBRANCH  26  28
ENDBRANCH  25  26
ENDBRANCH  24  25
ENDBRANCH  23  24
ENDBRANCH  22  23
ENDBRANCH  21  22
ENDBRANCH   1  21
TORSDOF 21
ENDMDL
MODEL 3
REMARK VINA RESULT:      -8.5      1.499      6.269
REMARK SMILES CC1(C)[C@@H](CBr)CC[C@]1(C)C(=O)OCCOCCOCCOCCOC(=O)c1ccc(-c2c3nc(c(-c4ccccc4)c4ccc([nH]4)c(-c4ccccc4)c4nc(c(-c5ccccc5)c5ccc2[nH]5)C=C4)C=C3)cc1
REMARK SMILES IDX 20 1 19 2 18 3 17 4 16 5 15 6 14 7 13 8 11 9 12 10 9 11 1 12
REMARK SMILES IDX 2 13 3 14 4 15 7 16 8 17 10 18 5 19 6 20 21 21 22 22 23 23
REMARK SMILES IDX 24 24 25 25 26 26 27 27 28 28 29 29 75 30 30 31 74 32 31 33
REMARK SMILES IDX 32 34 33 35 68 36 34 37 73 38 67 39 69 40 35 41 72 42 66 43
REMARK SMILES IDX 65 44 36 46 58 47 43 48 57 49 44 50 47 51 56 52 70 53 45 54
REMARK SMILES IDX 46 55 55 57 71 58 48 59 37 60 38 61 42 62 39 63 41 64 40 65
REMARK SMILES IDX 59 66 60 67 64 68 61 69 63 70 62 71 49 72 50 73 54 74 51 75
REMARK SMILES IDX 53 76 52 77
REMARK H PARENT 69 45 47 56
REMARK Flexibility Score: inf
ROOT
ATOM      1  C   UNL A   1      34.310  30.962  28.091  1.00  0.00     0.188 C 
ENDROOT
BRANCH   1   2
ATOM      2  O   UNL A   1      35.000  30.053  27.248  1.00  0.00    -0.377 OA
BRANCH   2   3
ATOM      3  C   UNL A   1      34.343  28.958  26.642  1.00  0.00     0.188 C 
BRANCH   3   4
ATOM      4  C   UNL A   1      32.822  29.058  26.643  1.00  0.00     0.188 C 
BRANCH   4   5
ATOM      5  O   UNL A   1      32.168  28.695  25.446  1.00  0.00    -0.376 OA
BRANCH   5   6
ATOM      6  C   UNL A   1      32.030  27.321  25.099  1.00  0.00     0.202 C 
BRANCH   6   7
ATOM      7  C   UNL A   1      31.903  26.159  26.116  1.00  0.00     0.261 C 
BRANCH   7   8
ATOM      8  O   UNL A   1      32.942  25.138  26.171  1.00  0.00    -0.463 OA
BRANCH   8   9
ATOM      9  C   UNL A   1      32.753  24.104  25.319  1.00  0.00     0.312 C 
ATOM     10  O   UNL A   1      31.620  23.727  25.004  1.00  0.00    -0.252 OA
BRANCH   9  11
ATOM     11  C   UNL A   1      33.976  23.259  24.866  1.00  0.00     0.071 C 
ATOM     12  C   UNL A   1      34.137  20.622  24.849  1.00  0.00     0.012 C 
ATOM     13  C   UNL A   1      34.565  21.934  25.535  1.00  0.00    -0.016 C 
ATOM     14  C   UNL A   1      34.189  21.729  27.014  1.00  0.00     0.012 C 
ATOM     15  C   UNL A   1      36.135  22.127  25.546  1.00  0.00     0.006 C 
ATOM     16  C   UNL A   1      36.326  23.631  25.678  1.00  0.00     0.006 C 
ATOM     17  C   UNL A   1      35.174  24.268  24.926  1.00  0.00     0.019 C 
ATOM     18  C   UNL A   1      33.572  23.007  23.388  1.00  0.00     0.024 C 
BRANCH  15  19
ATOM     19  C   UNL A   1      37.041  21.456  24.511  1.00  0.00     0.084 C 
ATOM     20  Br  UNL A   1      37.777  19.727  24.956  1.00  0.00    -0.092 Br
ENDBRANCH  15  19
ENDBRANCH   9  11
ENDBRANCH   8   9
ENDBRANCH   7   8
ENDBRANCH   6   7
ENDBRANCH   5   6
ENDBRANCH   4   5
ENDBRANCH   3   4
ENDBRANCH   2   3
ENDBRANCH   1   2
BRANCH   1  21
ATOM     21  C   UNL A   1      34.695  32.433  28.011  1.00  0.00     0.188 C 
BRANCH  21  22
ATOM     22  O   UNL A   1      35.435  32.974  29.108  1.00  0.00    -0.376 OA
BRANCH  22  23
ATOM     23  C   UNL A   1      34.729  33.568  30.195  1.00  0.00     0.202 C 
BRANCH  23  24
ATOM     24  C   UNL A   1      34.711  32.728  31.469  1.00  0.00     0.261 C 
BRANCH  24  25
ATOM     25  O   UNL A   1      35.426  31.495  31.296  1.00  0.00    -0.460 OA
BRANCH  25  26
ATOM     26  C   UNL A   1      36.450  31.293  32.151  1.00  0.00     0.338 C 
ATOM     27  O   UNL A   1      36.505  31.576  33.339  1.00  0.00    -0.246 OA
BRANCH  26  28
ATOM     28  C   UNL A   1      37.508  30.547  31.455  1.00  0.00     0.060 A 
ATOM     29  C   UNL A   1      38.463  29.856  32.212  1.00  0.00     0.016 A 
ATOM     30  C   UNL A   1      37.601  30.606  30.064  1.00  0.00     0.016 A 
ATOM     31  C   UNL A   1      39.555  29.267  31.579  1.00  0.00     0.010 A 
ATOM     32  C   UNL A   1      38.694  30.024  29.432  1.00  0.00     0.010 A 
ATOM     33  C   UNL A   1      39.696  29.394  30.192  1.00  0.00    -0.014 A 
BRANCH  33  34
ATOM     34  C   UNL A   1      40.969  29.051  29.526  1.00  0.00     0.031 A 
ATOM     35  C   UNL A   1      41.132  27.663  28.978  1.00  0.00     0.074 A 
ATOM     36  C   UNL A   1      41.978  29.936  29.474  1.00  0.00     0.049 A 
ATOM     37  N   UNL A   1      42.202  27.070  28.522  1.00  0.00    -0.248 NA
ATOM     38  C   UNL A   1      39.921  26.823  28.964  1.00  0.00     0.031 C 
ATOM     39  C   UNL A   1      41.913  31.322  29.935  1.00  0.00     0.029 A 
ATOM     40  N   UNL A   1      43.265  29.781  29.036  1.00  0.00    -0.354 N 
ATOM     41  C   UNL A   1      41.802  25.780  28.193  1.00  0.00     0.074 A 
ATOM     42  C   UNL A   1      40.399  25.669  28.524  1.00  0.00     0.031 C 
ATOM     43  C   UNL A   1      43.123  31.886  29.778  1.00  0.00     0.029 A 
ATOM     44  C   UNL A   1      44.050  30.885  29.254  1.00  0.00     0.049 A 
ATOM     45  H   UNL A   1      43.596  28.958  28.607  1.00  0.00     0.167 HD
ATOM     46  C   UNL A   1      42.544  24.777  27.666  1.00  0.00     0.031 A 
ATOM     47  C   UNL A   1      45.376  31.050  29.088  1.00  0.00     0.031 A 
ATOM     48  C   UNL A   1      43.945  24.898  27.361  1.00  0.00     0.049 A 
ATOM     49  C   UNL A   1      46.198  29.900  28.571  1.00  0.00     0.074 A 
ATOM     50  C   UNL A   1      44.791  23.956  26.806  1.00  0.00     0.029 A 
ATOM     51  N   UNL A   1      44.707  26.032  27.600  1.00  0.00    -0.354 N 
ATOM     52  N   UNL A   1      45.813  28.690  28.242  1.00  0.00    -0.248 NA
ATOM     53  C   UNL A   1      47.637  30.142  28.396  1.00  0.00     0.031 C 
ATOM     54  C   UNL A   1      46.079  24.498  26.770  1.00  0.00     0.029 A 
ATOM     55  C   UNL A   1      46.020  25.805  27.230  1.00  0.00     0.049 A 
ATOM     56  H   UNL A   1      44.363  26.875  27.977  1.00  0.00     0.167 HD
ATOM     57  C   UNL A   1      46.953  28.037  27.785  1.00  0.00     0.074 A 
ATOM     58  C   UNL A   1      48.041  28.991  27.876  1.00  0.00     0.031 C 
ATOM     59  C   UNL A   1      47.087  26.770  27.323  1.00  0.00     0.031 A 
BRANCH  46  60
ATOM     60  C   UNL A   1      41.863  23.456  27.440  1.00  0.00    -0.014 A 
ATOM     61  C   UNL A   1      41.134  23.193  26.268  1.00  0.00     0.009 A 
ATOM     62  C   UNL A   1      41.964  22.449  28.414  1.00  0.00     0.009 A 
ATOM     63  C   UNL A   1      40.486  21.967  26.098  1.00  0.00     0.001 A 
ATOM     64  C   UNL A   1      41.344  21.213  28.226  1.00  0.00     0.001 A 
ATOM     65  C   UNL A   1      40.595  20.977  27.074  1.00  0.00     0.000 A 
ENDBRANCH  46  60
BRANCH  47  66
ATOM     66  C   UNL A   1      46.007  32.351  29.432  1.00  0.00    -0.014 A 
ATOM     67  C   UNL A   1      46.502  32.584  30.724  1.00  0.00     0.009 A 
ATOM     68  C   UNL A   1      46.125  33.365  28.468  1.00  0.00     0.009 A 
ATOM     69  C   UNL A   1      47.083  33.812  31.049  1.00  0.00     0.001 A 
ATOM     70  C   UNL A   1      46.735  34.580  28.787  1.00  0.00     0.001 A 
ATOM     71  C   UNL A   1      47.205  34.806  30.079  1.00  0.00     0.000 A 
ENDBRANCH  47  66
BRANCH  59  72
ATOM     72  C   UNL A   1      48.443  26.354  26.823  1.00  0.00    -0.014 A 
ATOM     73  C   UNL A   1      48.890  26.691  25.538  1.00  0.00     0.009 A 
ATOM     74  C   UNL A   1      49.309  25.662  27.686  1.00  0.00     0.009 A 
ATOM     75  C   UNL A   1      50.169  26.315  25.116  1.00  0.00     0.001 A 
ATOM     76  C   UNL A   1      50.596  25.318  27.275  1.00  0.00     0.001 A 
ATOM     77  C   UNL A   1      51.022  25.637  25.987  1.00  0.00     0.000 A 
ENDBRANCH  59  72
ENDBRANCH  33  34
ENDBRANCH  26  28
ENDBRANCH  25  26
ENDBRANCH  24  25
ENDBRANCH  23  24
ENDBRANCH  22  23
ENDBRANCH  21  22
ENDBRANCH   1  21
TORSDOF 21
ENDMDL
