MODEL 1
REMARK VINA RESULT:      -9.6      0.000      0.000
REMARK SMILES COC(=O)c1ccc([C@H]2CC(=O)Nc3c(C(=O)OCCOCCOCCOCCOC(=O)c4ccc(-c5c6nc(c(-c7ccccc7)c7ccc([nH]7)c(-c7ccccc7)c7nc(c(-c8ccccc8)c8ccc5[nH]8)C=C7)C=C6)cc4)cn(-c4ccccc4)c32)cc1
REMARK SMILES IDX 23 1 22 2 21 3 20 4 19 5 18 6 16 7 17 8 15 9 9 10 10 11
REMARK SMILES IDX 89 12 11 13 14 14 82 15 12 16 13 17 81 18 8 20 5 21 6 22
REMARK SMILES IDX 91 23 7 24 90 25 3 26 4 27 2 28 1 29 83 30 84 31 88 32 85 33
REMARK SMILES IDX 87 34 86 35 24 36 25 37 26 38 27 39 28 40 29 41 30 42 31 43
REMARK SMILES IDX 32 44 33 45 34 46 80 47 35 48 79 49 36 50 37 51 38 52 73 53
REMARK SMILES IDX 39 54 78 55 72 56 74 57 40 58 77 59 71 60 70 61 41 63 63 64
REMARK SMILES IDX 48 65 62 66 49 67 52 68 61 69 75 70 50 71 51 72 60 74 76 75
REMARK SMILES IDX 53 76 42 77 43 78 47 79 44 80 46 81 45 82 64 83 65 84 69 85
REMARK SMILES IDX 66 86 68 87 67 88 54 89 55 90 59 91 56 92 58 93 57 94
REMARK H PARENT 13 19 74 62 52 73
REMARK Flexibility Score: inf
ROOT
ATOM      1  C   UNL A   1      42.796  25.590  27.532  1.00  0.00     0.188 C 
ENDROOT
BRANCH   1   2
ATOM      2  C   UNL A   1      42.632  24.157  28.083  1.00  0.00     0.188 C 
BRANCH   2   3
ATOM      3  O   UNL A   1      42.178  23.235  27.111  1.00  0.00    -0.376 OA
BRANCH   3   4
ATOM      4  C   UNL A   1      42.496  21.868  27.224  1.00  0.00     0.202 C 
BRANCH   4   5
ATOM      5  C   UNL A   1      41.394  20.828  26.978  1.00  0.00     0.261 C 
BRANCH   5   6
ATOM      6  O   UNL A   1      40.726  20.872  25.712  1.00  0.00    -0.460 OA
BRANCH   6   7
ATOM      7  C   UNL A   1      39.664  20.032  25.539  1.00  0.00     0.341 C 
ATOM      8  O   UNL A   1      39.718  18.824  25.621  1.00  0.00    -0.246 OA
BRANCH   7   9
ATOM      9  C   UNL A   1      38.424  20.795  25.412  1.00  0.00     0.102 A 
ATOM     10  C   UNL A   1      36.236  23.799  25.650  1.00  0.00     0.078 C 
ATOM     11  C   UNL A   1      37.084  24.617  26.641  1.00  0.00     0.115 C 
ATOM     12  C   UNL A   1      36.842  22.431  25.460  1.00  0.00     0.055 A 
ATOM     13  C   UNL A   1      38.579  24.355  26.593  1.00  0.00     0.225 C 
ATOM     14  C   UNL A   1      38.151  22.136  25.766  1.00  0.00     0.078 A 
ATOM     15  N   UNL A   1      36.284  21.297  24.896  1.00  0.00    -0.317 N 
ATOM     16  O   UNL A   1      39.393  25.216  26.926  1.00  0.00    -0.275 OA
ATOM     17  N   UNL A   1      38.995  23.091  26.279  1.00  0.00    -0.324 N 
ATOM     18  C   UNL A   1      37.217  20.281  24.960  1.00  0.00     0.109 A 
ATOM     19  H   UNL A   1      39.940  22.854  26.425  1.00  0.00     0.170 HD
BRANCH  10  20
ATOM     20  C   UNL A   1      34.773  23.895  26.084  1.00  0.00    -0.038 A 
ATOM     21  C   UNL A   1      32.020  24.108  26.702  1.00  0.00     0.060 A 
ATOM     22  C   UNL A   1      32.637  25.060  25.885  1.00  0.00     0.016 A 
ATOM     23  C   UNL A   1      32.795  23.085  27.259  1.00  0.00     0.016 A 
ATOM     24  C   UNL A   1      33.996  24.953  25.578  1.00  0.00     0.005 A 
ATOM     25  C   UNL A   1      34.167  23.001  26.979  1.00  0.00     0.005 A 
BRANCH  21  26
ATOM     26  C   UNL A   1      30.549  24.220  26.916  1.00  0.00     0.337 C 
ATOM     27  O   UNL A   1      29.875  25.125  26.474  1.00  0.00    -0.246 OA
BRANCH  26  28
ATOM     28  O   UNL A   1      30.097  23.181  27.669  1.00  0.00    -0.465 OA
ATOM     29  C   UNL A   1      29.143  22.355  26.996  1.00  0.00     0.282 C 
ENDBRANCH  26  28
ENDBRANCH  21  26
ENDBRANCH  10  20
BRANCH  15  30
ATOM     30  C   UNL A   1      35.006  21.158  24.318  1.00  0.00     0.045 A 
ATOM     31  C   UNL A   1      34.577  22.098  23.377  1.00  0.00     0.026 A 
ATOM     32  C   UNL A   1      34.163  20.120  24.736  1.00  0.00     0.026 A 
ATOM     33  C   UNL A   1      33.281  22.017  22.874  1.00  0.00     0.002 A 
ATOM     34  C   UNL A   1      32.853  20.077  24.258  1.00  0.00     0.002 A 
ATOM     35  C   UNL A   1      32.414  21.023  23.329  1.00  0.00     0.000 A 
ENDBRANCH  15  30
ENDBRANCH   7   9
ENDBRANCH   6   7
ENDBRANCH   5   6
ENDBRANCH   4   5
ENDBRANCH   3   4
ENDBRANCH   2   3
ENDBRANCH   1   2
BRANCH   1  36
ATOM     36  O   UNL A   1      42.749  26.699  28.421  1.00  0.00    -0.377 OA
BRANCH  36  37
ATOM     37  C   UNL A   1      41.538  27.028  29.096  1.00  0.00     0.188 C 
BRANCH  37  38
ATOM     38  C   UNL A   1      41.254  28.445  29.674  1.00  0.00     0.188 C 
BRANCH  38  39
ATOM     39  O   UNL A   1      42.199  29.446  29.329  1.00  0.00    -0.376 OA
BRANCH  39  40
ATOM     40  C   UNL A   1      43.178  29.915  30.232  1.00  0.00     0.202 C 
BRANCH  40  41
ATOM     41  C   UNL A   1      43.007  31.331  30.770  1.00  0.00     0.261 C 
BRANCH  41  42
ATOM     42  O   UNL A   1      42.174  32.131  29.960  1.00  0.00    -0.460 OA
BRANCH  42  43
ATOM     43  C   UNL A   1      42.202  33.442  30.260  1.00  0.00     0.338 C 
ATOM     44  O   UNL A   1      42.202  33.947  31.369  1.00  0.00    -0.246 OA
BRANCH  43  45
ATOM     45  C   UNL A   1      42.135  34.190  29.003  1.00  0.00     0.060 A 
ATOM     46  C   UNL A   1      43.188  33.954  28.123  1.00  0.00     0.016 A 
ATOM     47  C   UNL A   1      41.372  35.367  28.987  1.00  0.00     0.016 A 
ATOM     48  C   UNL A   1      43.726  35.048  27.501  1.00  0.00     0.010 A 
ATOM     49  C   UNL A   1      41.926  36.463  28.393  1.00  0.00     0.010 A 
ATOM     50  C   UNL A   1      43.160  36.296  27.776  1.00  0.00    -0.014 A 
BRANCH  50  51
ATOM     51  C   UNL A   1      43.931  37.457  27.425  1.00  0.00     0.031 A 
ATOM     52  C   UNL A   1      45.374  37.193  27.414  1.00  0.00     0.074 A 
ATOM     53  C   UNL A   1      43.345  38.617  27.088  1.00  0.00     0.049 A 
ATOM     54  N   UNL A   1      46.254  37.618  28.254  1.00  0.00    -0.248 NA
ATOM     55  C   UNL A   1      45.859  36.179  26.465  1.00  0.00     0.031 C 
ATOM     56  C   UNL A   1      41.935  38.882  26.788  1.00  0.00     0.029 A 
ATOM     57  N   UNL A   1      43.945  39.801  26.822  1.00  0.00    -0.354 N 
ATOM     58  C   UNL A   1      47.453  37.068  27.824  1.00  0.00     0.074 A 
ATOM     59  C   UNL A   1      47.118  36.041  26.871  1.00  0.00     0.031 C 
ATOM     60  C   UNL A   1      41.841  40.069  26.142  1.00  0.00     0.029 A 
ATOM     61  C   UNL A   1      43.156  40.689  26.112  1.00  0.00     0.049 A 
ATOM     62  H   UNL A   1      44.863  40.012  27.108  1.00  0.00     0.167 HD
ATOM     63  C   UNL A   1      48.636  37.689  28.063  1.00  0.00     0.031 A 
ATOM     64  C   UNL A   1      43.602  41.793  25.465  1.00  0.00     0.031 A 
ATOM     65  C   UNL A   1      48.524  38.684  29.097  1.00  0.00     0.049 A 
ATOM     66  C   UNL A   1      44.943  42.123  26.012  1.00  0.00     0.074 A 
ATOM     67  C   UNL A   1      48.179  38.658  30.433  1.00  0.00     0.029 A 
ATOM     68  N   UNL A   1      48.401  39.994  28.696  1.00  0.00    -0.354 N 
ATOM     69  N   UNL A   1      45.139  42.537  27.232  1.00  0.00    -0.248 NA
ATOM     70  C   UNL A   1      46.112  41.546  25.361  1.00  0.00     0.031 C 
ATOM     71  C   UNL A   1      47.436  39.855  30.647  1.00  0.00     0.029 A 
ATOM     72  C   UNL A   1      47.409  40.570  29.447  1.00  0.00     0.049 A 
ATOM     73  H   UNL A   1      48.930  40.439  27.995  1.00  0.00     0.167 HD
ATOM     74  C   UNL A   1      46.300  41.899  27.647  1.00  0.00     0.074 A 
ATOM     75  C   UNL A   1      46.909  41.385  26.422  1.00  0.00     0.031 C 
ATOM     76  C   UNL A   1      46.509  41.594  28.963  1.00  0.00     0.031 A 
BRANCH  63  77
ATOM     77  C   UNL A   1      49.755  37.688  27.057  1.00  0.00    -0.014 A 
ATOM     78  C   UNL A   1      49.453  37.392  25.720  1.00  0.00     0.009 A 
ATOM     79  C   UNL A   1      51.118  37.693  27.416  1.00  0.00     0.009 A 
ATOM     80  C   UNL A   1      50.462  37.058  24.810  1.00  0.00     0.001 A 
ATOM     81  C   UNL A   1      52.130  37.404  26.502  1.00  0.00     0.001 A 
ATOM     82  C   UNL A   1      51.798  37.059  25.203  1.00  0.00     0.000 A 
ENDBRANCH  63  77
BRANCH  64  83
ATOM     83  C   UNL A   1      43.100  42.343  24.187  1.00  0.00    -0.014 A 
ATOM     84  C   UNL A   1      43.984  42.754  23.179  1.00  0.00     0.009 A 
ATOM     85  C   UNL A   1      41.735  42.228  23.854  1.00  0.00     0.009 A 
ATOM     86  C   UNL A   1      43.522  43.016  21.881  1.00  0.00     0.001 A 
ATOM     87  C   UNL A   1      41.274  42.494  22.562  1.00  0.00     0.001 A 
ATOM     88  C   UNL A   1      42.171  42.875  21.571  1.00  0.00     0.000 A 
ENDBRANCH  64  83
BRANCH  76  89
ATOM     89  C   UNL A   1      45.546  42.161  29.978  1.00  0.00    -0.014 A 
ATOM     90  C   UNL A   1      45.802  43.350  30.687  1.00  0.00     0.009 A 
ATOM     91  C   UNL A   1      44.273  41.584  30.085  1.00  0.00     0.009 A 
ATOM     92  C   UNL A   1      44.814  43.930  31.490  1.00  0.00     0.001 A 
ATOM     93  C   UNL A   1      43.282  42.174  30.872  1.00  0.00     0.001 A 
ATOM     94  C   UNL A   1      43.553  43.345  31.576  1.00  0.00     0.000 A 
ENDBRANCH  76  89
ENDBRANCH  50  51
ENDBRANCH  43  45
ENDBRANCH  42  43
ENDBRANCH  41  42
ENDBRANCH  40  41
ENDBRANCH  39  40
ENDBRANCH  38  39
ENDBRANCH  37  38
ENDBRANCH  36  37
ENDBRANCH   1  36
TORSDOF 24
ENDMDL
MODEL 2
REMARK VINA RESULT:      -9.5      7.229     12.428
REMARK SMILES COC(=O)c1ccc([C@H]2CC(=O)Nc3c(C(=O)OCCOCCOCCOCCOC(=O)c4ccc(-c5c6nc(c(-c7ccccc7)c7ccc([nH]7)c(-c7ccccc7)c7nc(c(-c8ccccc8)c8ccc5[nH]8)C=C7)C=C6)cc4)cn(-c4ccccc4)c32)cc1
REMARK SMILES IDX 23 1 22 2 21 3 20 4 19 5 18 6 16 7 17 8 15 9 9 10 10 11
REMARK SMILES IDX 89 12 11 13 14 14 82 15 12 16 13 17 81 18 8 20 5 21 6 22
REMARK SMILES IDX 91 23 7 24 90 25 3 26 4 27 2 28 1 29 83 30 84 31 88 32 85 33
REMARK SMILES IDX 87 34 86 35 24 36 25 37 26 38 27 39 28 40 29 41 30 42 31 43
REMARK SMILES IDX 32 44 33 45 34 46 80 47 35 48 79 49 36 50 37 51 38 52 73 53
REMARK SMILES IDX 39 54 78 55 72 56 74 57 40 58 77 59 71 60 70 61 41 63 63 64
REMARK SMILES IDX 48 65 62 66 49 67 52 68 61 69 75 70 50 71 51 72 60 74 76 75
REMARK SMILES IDX 53 76 42 77 43 78 47 79 44 80 46 81 45 82 64 83 65 84 69 85
REMARK SMILES IDX 66 86 68 87 67 88 54 89 55 90 59 91 56 92 58 93 57 94
REMARK H PARENT 13 19 74 62 52 73
REMARK Flexibility Score: inf
ROOT
ATOM      1  C   UNL A   1      50.843  21.953  33.330  1.00  0.00     0.188 C 
ENDROOT
BRANCH   1   2
ATOM      2  C   UNL A   1      50.040  20.833  34.027  1.00  0.00     0.188 C 
BRANCH   2   3
ATOM      3  O   UNL A   1      50.860  19.832  34.598  1.00  0.00    -0.376 OA
BRANCH   3   4
ATOM      4  C   UNL A   1      50.725  19.493  35.958  1.00  0.00     0.202 C 
BRANCH   4   5
ATOM      5  C   UNL A   1      50.371  20.597  36.965  1.00  0.00     0.261 C 
BRANCH   5   6
ATOM      6  O   UNL A   1      49.621  20.209  38.122  1.00  0.00    -0.460 OA
BRANCH   6   7
ATOM      7  C   UNL A   1      48.274  20.048  37.966  1.00  0.00     0.341 C 
ATOM      8  O   UNL A   1      47.655  19.055  38.284  1.00  0.00    -0.246 OA
BRANCH   7   9
ATOM      9  C   UNL A   1      47.658  21.296  37.522  1.00  0.00     0.102 A 
ATOM     10  C   UNL A   1      47.022  24.965  37.517  1.00  0.00     0.078 C 
ATOM     11  C   UNL A   1      47.563  25.289  38.922  1.00  0.00     0.115 C 
ATOM     12  C   UNL A   1      47.040  23.475  37.289  1.00  0.00     0.055 A 
ATOM     13  C   UNL A   1      48.664  24.372  39.424  1.00  0.00     0.225 C 
ATOM     14  C   UNL A   1      47.817  22.608  38.024  1.00  0.00     0.078 A 
ATOM     15  N   UNL A   1      46.404  22.731  36.311  1.00  0.00    -0.317 N 
ATOM     16  O   UNL A   1      49.500  24.759  40.241  1.00  0.00    -0.275 OA
ATOM     17  N   UNL A   1      48.631  23.062  39.032  1.00  0.00    -0.324 N 
ATOM     18  C   UNL A   1      46.705  21.399  36.518  1.00  0.00     0.109 A 
ATOM     19  H   UNL A   1      49.216  22.417  39.491  1.00  0.00     0.170 HD
BRANCH  10  20
ATOM     20  C   UNL A   1      45.702  25.715  37.332  1.00  0.00    -0.038 A 
ATOM     21  C   UNL A   1      43.289  27.092  36.798  1.00  0.00     0.060 A 
ATOM     22  C   UNL A   1      44.468  27.450  36.136  1.00  0.00     0.016 A 
ATOM     23  C   UNL A   1      43.331  26.089  37.772  1.00  0.00     0.016 A 
ATOM     24  C   UNL A   1      45.658  26.767  36.399  1.00  0.00     0.005 A 
ATOM     25  C   UNL A   1      44.536  25.431  38.060  1.00  0.00     0.005 A 
BRANCH  21  26
ATOM     26  C   UNL A   1      42.031  27.791  36.408  1.00  0.00     0.337 C 
ATOM     27  O   UNL A   1      40.939  27.500  36.848  1.00  0.00    -0.246 OA
BRANCH  26  28
ATOM     28  O   UNL A   1      42.291  28.770  35.500  1.00  0.00    -0.465 OA
ATOM     29  C   UNL A   1      41.224  28.997  34.577  1.00  0.00     0.282 C 
ENDBRANCH  26  28
ENDBRANCH  21  26
ENDBRANCH  10  20
BRANCH  15  30
ATOM     30  C   UNL A   1      45.603  23.202  35.250  1.00  0.00     0.045 A 
ATOM     31  C   UNL A   1      44.216  23.052  35.325  1.00  0.00     0.026 A 
ATOM     32  C   UNL A   1      46.208  23.754  34.115  1.00  0.00     0.026 A 
ATOM     33  C   UNL A   1      43.429  23.431  34.241  1.00  0.00     0.002 A 
ATOM     34  C   UNL A   1      45.413  24.089  33.017  1.00  0.00     0.002 A 
ATOM     35  C   UNL A   1      44.027  23.927  33.082  1.00  0.00     0.000 A 
ENDBRANCH  15  30
ENDBRANCH   7   9
ENDBRANCH   6   7
ENDBRANCH   5   6
ENDBRANCH   4   5
ENDBRANCH   3   4
ENDBRANCH   2   3
ENDBRANCH   1   2
BRANCH   1  36
ATOM     36  O   UNL A   1      50.161  23.063  32.761  1.00  0.00    -0.377 OA
BRANCH  36  37
ATOM     37  C   UNL A   1      50.674  24.383  32.925  1.00  0.00     0.188 C 
BRANCH  37  38
ATOM     38  C   UNL A   1      50.872  25.363  31.733  1.00  0.00     0.188 C 
BRANCH  38  39
ATOM     39  O   UNL A   1      49.855  26.338  31.568  1.00  0.00    -0.376 OA
BRANCH  39  40
ATOM     40  C   UNL A   1      48.506  26.099  31.910  1.00  0.00     0.202 C 
BRANCH  40  41
ATOM     41  C   UNL A   1      47.518  25.920  30.763  1.00  0.00     0.261 C 
BRANCH  41  42
ATOM     42  O   UNL A   1      46.337  26.676  30.932  1.00  0.00    -0.460 OA
BRANCH  42  43
ATOM     43  C   UNL A   1      45.514  26.660  29.869  1.00  0.00     0.338 C 
ATOM     44  O   UNL A   1      45.825  26.616  28.691  1.00  0.00    -0.246 OA
BRANCH  43  45
ATOM     45  C   UNL A   1      44.143  26.805  30.364  1.00  0.00     0.060 A 
ATOM     46  C   UNL A   1      43.153  26.677  29.393  1.00  0.00     0.016 A 
ATOM     47  C   UNL A   1      43.955  27.511  31.561  1.00  0.00     0.016 A 
ATOM     48  C   UNL A   1      42.125  27.578  29.442  1.00  0.00     0.010 A 
ATOM     49  C   UNL A   1      42.948  28.430  31.594  1.00  0.00     0.010 A 
ATOM     50  C   UNL A   1      42.138  28.526  30.469  1.00  0.00    -0.014 A 
BRANCH  50  51
ATOM     51  C   UNL A   1      41.286  29.672  30.314  1.00  0.00     0.031 A 
ATOM     52  C   UNL A   1      42.025  30.876  29.918  1.00  0.00     0.074 A 
ATOM     53  C   UNL A   1      39.954  29.586  30.462  1.00  0.00     0.049 A 
ATOM     54  N   UNL A   1      42.267  31.918  30.637  1.00  0.00    -0.248 NA
ATOM     55  C   UNL A   1      42.743  30.825  28.635  1.00  0.00     0.031 C 
ATOM     56  C   UNL A   1      39.115  28.388  30.561  1.00  0.00     0.029 A 
ATOM     57  N   UNL A   1      39.050  30.593  30.429  1.00  0.00    -0.354 N 
ATOM     58  C   UNL A   1      43.020  32.748  29.820  1.00  0.00     0.074 A 
ATOM     59  C   UNL A   1      43.454  31.947  28.703  1.00  0.00     0.031 C 
ATOM     60  C   UNL A   1      37.828  28.735  30.323  1.00  0.00     0.029 A 
ATOM     61  C   UNL A   1      37.750  30.181  30.194  1.00  0.00     0.049 A 
ATOM     62  H   UNL A   1      39.296  31.538  30.561  1.00  0.00     0.167 HD
ATOM     63  C   UNL A   1      42.990  34.097  29.969  1.00  0.00     0.031 A 
ATOM     64  C   UNL A   1      36.727  30.984  29.816  1.00  0.00     0.031 A 
ATOM     65  C   UNL A   1      42.452  34.486  31.246  1.00  0.00     0.049 A 
ATOM     66  C   UNL A   1      37.112  32.383  30.134  1.00  0.00     0.074 A 
ATOM     67  C   UNL A   1      42.820  34.270  32.559  1.00  0.00     0.029 A 
ATOM     68  N   UNL A   1      41.133  34.876  31.279  1.00  0.00    -0.354 N 
ATOM     69  N   UNL A   1      37.253  32.830  31.351  1.00  0.00    -0.248 NA
ATOM     70  C   UNL A   1      37.800  33.157  29.109  1.00  0.00     0.031 C 
ATOM     71  C   UNL A   1      41.595  34.101  33.265  1.00  0.00     0.029 A 
ATOM     72  C   UNL A   1      40.545  34.271  32.359  1.00  0.00     0.049 A 
ATOM     73  H   UNL A   1      40.691  35.482  30.641  1.00  0.00     0.167 HD
ATOM     74  C   UNL A   1      38.366  33.659  31.304  1.00  0.00     0.074 A 
ATOM     75  C   UNL A   1      38.597  33.903  29.882  1.00  0.00     0.031 C 
ATOM     76  C   UNL A   1      39.167  33.831  32.398  1.00  0.00     0.031 A 
BRANCH  63  77
ATOM     77  C   UNL A   1      43.037  35.032  28.791  1.00  0.00    -0.014 A 
ATOM     78  C   UNL A   1      44.252  35.662  28.484  1.00  0.00     0.009 A 
ATOM     79  C   UNL A   1      41.884  35.525  28.149  1.00  0.00     0.009 A 
ATOM     80  C   UNL A   1      44.294  36.766  27.627  1.00  0.00     0.001 A 
ATOM     81  C   UNL A   1      41.928  36.597  27.258  1.00  0.00     0.001 A 
ATOM     82  C   UNL A   1      43.133  37.236  27.019  1.00  0.00     0.000 A 
ENDBRANCH  63  77
BRANCH  64  83
ATOM     83  C   UNL A   1      35.622  30.648  28.891  1.00  0.00    -0.014 A 
ATOM     84  C   UNL A   1      34.572  31.548  28.661  1.00  0.00     0.009 A 
ATOM     85  C   UNL A   1      35.731  29.536  28.033  1.00  0.00     0.009 A 
ATOM     86  C   UNL A   1      33.680  31.354  27.596  1.00  0.00     0.001 A 
ATOM     87  C   UNL A   1      34.839  29.340  26.974  1.00  0.00     0.001 A 
ATOM     88  C   UNL A   1      33.821  30.258  26.748  1.00  0.00     0.000 A 
ENDBRANCH  64  83
BRANCH  76  89
ATOM     89  C   UNL A   1      38.689  33.270  33.716  1.00  0.00    -0.014 A 
ATOM     90  C   UNL A   1      39.020  31.975  34.155  1.00  0.00     0.009 A 
ATOM     91  C   UNL A   1      38.047  34.133  34.615  1.00  0.00     0.009 A 
ATOM     92  C   UNL A   1      38.701  31.555  35.451  1.00  0.00     0.001 A 
ATOM     93  C   UNL A   1      37.746  33.720  35.915  1.00  0.00     0.001 A 
ATOM     94  C   UNL A   1      38.071  32.431  36.331  1.00  0.00     0.000 A 
ENDBRANCH  76  89
ENDBRANCH  50  51
ENDBRANCH  43  45
ENDBRANCH  42  43
ENDBRANCH  41  42
ENDBRANCH  40  41
ENDBRANCH  39  40
ENDBRANCH  38  39
ENDBRANCH  37  38
ENDBRANCH  36  37
ENDBRANCH   1  36
TORSDOF 24
ENDMDL
MODEL 3
REMARK VINA RESULT:      -9.5      5.505     10.958
REMARK SMILES COC(=O)c1ccc([C@H]2CC(=O)Nc3c(C(=O)OCCOCCOCCOCCOC(=O)c4ccc(-c5c6nc(c(-c7ccccc7)c7ccc([nH]7)c(-c7ccccc7)c7nc(c(-c8ccccc8)c8ccc5[nH]8)C=C7)C=C6)cc4)cn(-c4ccccc4)c32)cc1
REMARK SMILES IDX 23 1 22 2 21 3 20 4 19 5 18 6 16 7 17 8 15 9 9 10 10 11
REMARK SMILES IDX 89 12 11 13 14 14 82 15 12 16 13 17 81 18 8 20 5 21 6 22
REMARK SMILES IDX 91 23 7 24 90 25 3 26 4 27 2 28 1 29 83 30 84 31 88 32 85 33
REMARK SMILES IDX 87 34 86 35 24 36 25 37 26 38 27 39 28 40 29 41 30 42 31 43
REMARK SMILES IDX 32 44 33 45 34 46 80 47 35 48 79 49 36 50 37 51 38 52 73 53
REMARK SMILES IDX 39 54 78 55 72 56 74 57 40 58 77 59 71 60 70 61 41 63 63 64
REMARK SMILES IDX 48 65 62 66 49 67 52 68 61 69 75 70 50 71 51 72 60 74 76 75
REMARK SMILES IDX 53 76 42 77 43 78 47 79 44 80 46 81 45 82 64 83 65 84 69 85
REMARK SMILES IDX 66 86 68 87 67 88 54 89 55 90 59 91 56 92 58 93 57 94
REMARK H PARENT 13 19 74 62 52 73
REMARK Flexibility Score: inf
ROOT
ATOM      1  C   UNL A   1      42.693  34.796  29.772  1.00  0.00     0.188 C 
ENDROOT
BRANCH   1   2
ATOM      2  C   UNL A   1      41.170  34.651  29.561  1.00  0.00     0.188 C 
BRANCH   2   3
ATOM      3  O   UNL A   1      40.450  34.521  30.772  1.00  0.00    -0.376 OA
BRANCH   3   4
ATOM      4  C   UNL A   1      39.097  34.908  30.840  1.00  0.00     0.202 C 
BRANCH   4   5
ATOM      5  C   UNL A   1      38.088  33.959  31.502  1.00  0.00     0.261 C 
BRANCH   5   6
ATOM      6  O   UNL A   1      38.539  33.221  32.644  1.00  0.00    -0.460 OA
BRANCH   6   7
ATOM      7  C   UNL A   1      38.248  31.887  32.677  1.00  0.00     0.341 C 
ATOM      8  O   UNL A   1      37.482  31.366  33.459  1.00  0.00    -0.246 OA
BRANCH   7   9
ATOM      9  C   UNL A   1      38.851  31.203  31.535  1.00  0.00     0.102 A 
ATOM     10  C   UNL A   1      38.937  29.671  28.142  1.00  0.00     0.078 C 
ATOM     11  C   UNL A   1      37.423  29.469  27.948  1.00  0.00     0.115 C 
ATOM     12  C   UNL A   1      39.214  30.181  29.533  1.00  0.00     0.055 A 
ATOM     13  C   UNL A   1      36.533  30.461  28.676  1.00  0.00     0.225 C 
ATOM     14  C   UNL A   1      38.259  30.781  30.323  1.00  0.00     0.078 A 
ATOM     15  N   UNL A   1      40.413  30.236  30.223  1.00  0.00    -0.317 N 
ATOM     16  O   UNL A   1      35.410  30.742  28.260  1.00  0.00    -0.275 OA
ATOM     17  N   UNL A   1      36.971  30.946  29.878  1.00  0.00    -0.324 N 
ATOM     18  C   UNL A   1      40.167  30.767  31.474  1.00  0.00     0.109 A 
ATOM     19  H   UNL A   1      36.335  31.435  30.449  1.00  0.00     0.170 HD
BRANCH  10  20
ATOM     20  C   UNL A   1      39.650  28.402  27.674  1.00  0.00    -0.038 A 
ATOM     21  C   UNL A   1      41.137  26.151  26.820  1.00  0.00     0.060 A 
ATOM     22  C   UNL A   1      41.374  27.409  26.258  1.00  0.00     0.016 A 
ATOM     23  C   UNL A   1      40.114  26.009  27.764  1.00  0.00     0.016 A 
ATOM     24  C   UNL A   1      40.641  28.521  26.682  1.00  0.00     0.005 A 
ATOM     25  C   UNL A   1      39.355  27.120  28.160  1.00  0.00     0.005 A 
BRANCH  21  26
ATOM     26  C   UNL A   1      42.014  25.022  26.398  1.00  0.00     0.337 C 
ATOM     27  O   UNL A   1      42.375  24.847  25.254  1.00  0.00    -0.246 OA
BRANCH  26  28
ATOM     28  O   UNL A   1      42.329  24.239  27.464  1.00  0.00    -0.465 OA
ATOM     29  C   UNL A   1      43.460  24.705  28.205  1.00  0.00     0.282 C 
ENDBRANCH  26  28
ENDBRANCH  21  26
ENDBRANCH  10  20
BRANCH  15  30
ATOM     30  C   UNL A   1      41.692  29.857  29.766  1.00  0.00     0.045 A 
ATOM     31  C   UNL A   1      42.161  28.571  30.042  1.00  0.00     0.026 A 
ATOM     32  C   UNL A   1      42.496  30.790  29.098  1.00  0.00     0.026 A 
ATOM     33  C   UNL A   1      43.458  28.223  29.674  1.00  0.00     0.002 A 
ATOM     34  C   UNL A   1      43.809  30.444  28.775  1.00  0.00     0.002 A 
ATOM     35  C   UNL A   1      44.288  29.164  29.062  1.00  0.00     0.000 A 
ENDBRANCH  15  30
ENDBRANCH   7   9
ENDBRANCH   6   7
ENDBRANCH   5   6
ENDBRANCH   4   5
ENDBRANCH   3   4
ENDBRANCH   2   3
ENDBRANCH   1   2
BRANCH   1  36
ATOM     36  O   UNL A   1      43.329  36.037  29.495  1.00  0.00    -0.377 OA
BRANCH  36  37
ATOM     37  C   UNL A   1      43.858  36.826  30.558  1.00  0.00     0.188 C 
BRANCH  37  38
ATOM     38  C   UNL A   1      45.051  37.807  30.365  1.00  0.00     0.188 C 
BRANCH  38  39
ATOM     39  O   UNL A   1      44.697  39.160  30.126  1.00  0.00    -0.376 OA
BRANCH  39  40
ATOM     40  C   UNL A   1      43.358  39.584  29.982  1.00  0.00     0.202 C 
BRANCH  40  41
ATOM     41  C   UNL A   1      43.125  41.055  29.658  1.00  0.00     0.261 C 
BRANCH  41  42
ATOM     42  O   UNL A   1      44.317  41.749  29.358  1.00  0.00    -0.460 OA
BRANCH  42  43
ATOM     43  C   UNL A   1      44.527  41.945  28.044  1.00  0.00     0.338 C 
ATOM     44  O   UNL A   1      43.849  41.537  27.117  1.00  0.00    -0.246 OA
BRANCH  43  45
ATOM     45  C   UNL A   1      45.791  42.671  27.897  1.00  0.00     0.060 A 
ATOM     46  C   UNL A   1      45.702  44.047  28.089  1.00  0.00     0.016 A 
ATOM     47  C   UNL A   1      46.803  42.066  27.138  1.00  0.00     0.016 A 
ATOM     48  C   UNL A   1      46.385  44.835  27.203  1.00  0.00     0.010 A 
ATOM     49  C   UNL A   1      47.459  42.849  26.234  1.00  0.00     0.010 A 
ATOM     50  C   UNL A   1      47.131  44.199  26.206  1.00  0.00    -0.014 A 
BRANCH  50  51
ATOM     51  C   UNL A   1      47.538  44.996  25.082  1.00  0.00     0.031 A 
ATOM     52  C   UNL A   1      46.642  44.847  23.930  1.00  0.00     0.074 A 
ATOM     53  C   UNL A   1      48.593  45.824  25.150  1.00  0.00     0.049 A 
ATOM     54  N   UNL A   1      46.892  44.249  22.817  1.00  0.00    -0.248 NA
ATOM     55  C   UNL A   1      45.238  45.242  24.121  1.00  0.00     0.031 C 
ATOM     56  C   UNL A   1      49.351  46.253  26.329  1.00  0.00     0.029 A 
ATOM     57  N   UNL A   1      49.133  46.561  24.151  1.00  0.00    -0.354 N 
ATOM     58  C   UNL A   1      45.721  44.358  22.081  1.00  0.00     0.074 A 
ATOM     59  C   UNL A   1      44.694  44.778  23.000  1.00  0.00     0.031 C 
ATOM     60  C   UNL A   1      50.071  47.355  26.009  1.00  0.00     0.029 A 
ATOM     61  C   UNL A   1      49.923  47.611  24.585  1.00  0.00     0.049 A 
ATOM     62  H   UNL A   1      48.977  46.367  23.198  1.00  0.00     0.167 HD
ATOM     63  C   UNL A   1      45.743  44.377  20.723  1.00  0.00     0.031 A 
ATOM     64  C   UNL A   1      50.322  48.661  23.827  1.00  0.00     0.031 A 
ATOM     65  C   UNL A   1      46.989  43.885  20.198  1.00  0.00     0.049 A 
ATOM     66  C   UNL A   1      50.162  48.271  22.402  1.00  0.00     0.074 A 
ATOM     67  C   UNL A   1      47.663  42.683  20.269  1.00  0.00     0.029 A 
ATOM     68  N   UNL A   1      47.917  44.821  19.804  1.00  0.00    -0.354 N 
ATOM     69  N   UNL A   1      50.879  47.348  21.825  1.00  0.00    -0.248 NA
ATOM     70  C   UNL A   1      48.896  48.569  21.746  1.00  0.00     0.031 C 
ATOM     71  C   UNL A   1      49.041  43.035  20.359  1.00  0.00     0.029 A 
ATOM     72  C   UNL A   1      49.138  44.428  20.287  1.00  0.00     0.049 A 
ATOM     73  H   UNL A   1      47.737  45.629  19.271  1.00  0.00     0.167 HD
ATOM     74  C   UNL A   1      49.993  46.661  21.008  1.00  0.00     0.074 A 
ATOM     75  C   UNL A   1      48.813  47.519  20.921  1.00  0.00     0.031 C 
ATOM     76  C   UNL A   1      50.177  45.338  20.718  1.00  0.00     0.031 A 
BRANCH  63  77
ATOM     77  C   UNL A   1      44.812  45.246  19.923  1.00  0.00    -0.014 A 
ATOM     78  C   UNL A   1      43.803  44.631  19.168  1.00  0.00     0.009 A 
ATOM     79  C   UNL A   1      45.056  46.611  19.666  1.00  0.00     0.009 A 
ATOM     80  C   UNL A   1      43.123  45.331  18.166  1.00  0.00     0.001 A 
ATOM     81  C   UNL A   1      44.349  47.325  18.700  1.00  0.00     0.001 A 
ATOM     82  C   UNL A   1      43.400  46.675  17.930  1.00  0.00     0.000 A 
ENDBRANCH  63  77
BRANCH  64  83
ATOM     83  C   UNL A   1      50.484  50.066  24.260  1.00  0.00    -0.014 A 
ATOM     84  C   UNL A   1      49.395  50.802  24.750  1.00  0.00     0.009 A 
ATOM     85  C   UNL A   1      51.772  50.610  24.432  1.00  0.00     0.009 A 
ATOM     86  C   UNL A   1      49.592  52.025  25.408  1.00  0.00     0.001 A 
ATOM     87  C   UNL A   1      51.968  51.830  25.084  1.00  0.00     0.001 A 
ATOM     88  C   UNL A   1      50.878  52.532  25.585  1.00  0.00     0.000 A 
ENDBRANCH  64  83
BRANCH  76  89
ATOM     89  C   UNL A   1      51.482  44.702  21.131  1.00  0.00    -0.014 A 
ATOM     90  C   UNL A   1      51.750  44.308  22.456  1.00  0.00     0.009 A 
ATOM     91  C   UNL A   1      52.387  44.323  20.129  1.00  0.00     0.009 A 
ATOM     92  C   UNL A   1      52.899  43.572  22.765  1.00  0.00     0.001 A 
ATOM     93  C   UNL A   1      53.523  43.571  20.436  1.00  0.00     0.001 A 
ATOM     94  C   UNL A   1      53.780  43.198  21.753  1.00  0.00     0.000 A 
ENDBRANCH  76  89
ENDBRANCH  50  51
ENDBRANCH  43  45
ENDBRANCH  42  43
ENDBRANCH  41  42
ENDBRANCH  40  41
ENDBRANCH  39  40
ENDBRANCH  38  39
ENDBRANCH  37  38
ENDBRANCH  36  37
ENDBRANCH   1  36
TORSDOF 24
ENDMDL
