MODEL 1
REMARK VINA RESULT:      -9.9      0.000      0.000
REMARK SMILES COc1ccc(CCNc2ncnc3sc(C(=O)OCCOCCOCCOCCOC(=O)c4ccc(-c5c6nc(c(-c7ccccc7)c7ccc([nH]7)c(-c7ccccc7)c7nc(c(-c8ccccc8)c8ccc5[nH]8)C=C7)C=C6)cc4)c(C)c23)cc1OC
REMARK SMILES IDX 23 1 22 2 21 3 20 4 19 5 17 6 18 7 16 8 10 9 11 10 84 11
REMARK SMILES IDX 12 12 14 13 82 14 13 15 15 16 83 17 9 18 8 20 7 21 6 22 3 23
REMARK SMILES IDX 4 24 86 25 5 26 85 27 2 28 1 29 87 30 88 31 24 32 25 33
REMARK SMILES IDX 26 34 27 35 28 36 29 37 30 38 31 39 32 40 33 41 34 42 35 43
REMARK SMILES IDX 81 44 36 45 80 46 37 47 38 48 39 49 74 50 40 51 79 52 73 53
REMARK SMILES IDX 75 54 41 55 78 56 72 57 71 58 42 60 64 61 49 62 63 63 50 64
REMARK SMILES IDX 53 65 62 66 76 67 51 68 52 69 61 71 77 72 54 73 43 74 44 75
REMARK SMILES IDX 48 76 45 77 47 78 46 79 65 80 66 81 70 82 67 83 69 84 68 85
REMARK SMILES IDX 55 86 56 87 60 88 57 89 59 90 58 91
REMARK H PARENT 9 19 75 59 53 70
REMARK Flexibility Score: inf
ROOT
ATOM      1  C   UNL A   1      31.691  30.027  25.595  1.00  0.00     0.188 C 
ENDROOT
BRANCH   1   2
ATOM      2  O   UNL A   1      30.931  29.051  24.907  1.00  0.00    -0.376 OA
BRANCH   2   3
ATOM      3  C   UNL A   1      31.511  27.785  24.687  1.00  0.00     0.202 C 
BRANCH   3   4
ATOM      4  C   UNL A   1      31.211  27.133  23.331  1.00  0.00     0.261 C 
BRANCH   4   5
ATOM      5  O   UNL A   1      31.102  25.700  23.347  1.00  0.00    -0.459 OA
BRANCH   5   6
ATOM      6  C   UNL A   1      31.880  25.021  22.463  1.00  0.00     0.348 C 
ATOM      7  O   UNL A   1      32.067  25.374  21.299  1.00  0.00    -0.245 OA
BRANCH   6   8
ATOM      8  C   UNL A   1      32.612  23.970  23.144  1.00  0.00     0.118 A 
ATOM      9  C   UNL A   1      35.358  22.433  25.168  1.00  0.00     0.138 A 
ATOM     10  N   UNL A   1      35.539  21.127  25.448  1.00  0.00    -0.219 NA
ATOM     11  C   UNL A   1      34.241  22.819  24.392  1.00  0.00     0.058 A 
ATOM     12  C   UNL A   1      34.649  20.240  24.973  1.00  0.00     0.225 A 
ATOM     13  C   UNL A   1      33.402  21.795  23.983  1.00  0.00     0.129 A 
ATOM     14  C   UNL A   1      33.757  24.102  23.919  1.00  0.00    -0.012 A 
ATOM     15  N   UNL A   1      33.554  20.487  24.248  1.00  0.00    -0.225 NA
ATOM     16  S   UNL A   1      32.075  22.350  23.071  1.00  0.00    -0.108 S 
ATOM     17  C   UNL A   1      34.406  25.403  24.262  1.00  0.00     0.047 C 
BRANCH   9  18
ATOM     18  N   UNL A   1      36.224  23.363  25.728  1.00  0.00    -0.369 N 
ATOM     19  H   UNL A   1      35.899  24.038  26.367  1.00  0.00     0.162 HD
BRANCH  18  20
ATOM     20  C   UNL A   1      37.634  23.314  25.337  1.00  0.00     0.119 C 
BRANCH  20  21
ATOM     21  C   UNL A   1      38.555  23.093  26.555  1.00  0.00     0.057 C 
BRANCH  21  22
ATOM     22  C   UNL A   1      39.726  22.143  26.370  1.00  0.00    -0.042 A 
ATOM     23  C   UNL A   1      41.933  20.392  26.105  1.00  0.00     0.160 A 
ATOM     24  C   UNL A   1      40.628  19.903  26.037  1.00  0.00     0.051 A 
ATOM     25  C   UNL A   1      42.152  21.759  26.312  1.00  0.00     0.160 A 
ATOM     26  C   UNL A   1      39.544  20.773  26.170  1.00  0.00     0.008 A 
ATOM     27  C   UNL A   1      41.044  22.616  26.452  1.00  0.00     0.054 A 
BRANCH  23  28
ATOM     28  O   UNL A   1      42.962  19.533  25.829  1.00  0.00    -0.493 OA
ATOM     29  C   UNL A   1      42.816  18.270  26.477  1.00  0.00     0.278 C 
ENDBRANCH  23  28
BRANCH  25  30
ATOM     30  O   UNL A   1      43.350  22.420  26.383  1.00  0.00    -0.493 OA
ATOM     31  C   UNL A   1      43.471  23.479  27.321  1.00  0.00     0.278 C 
ENDBRANCH  25  30
ENDBRANCH  21  22
ENDBRANCH  20  21
ENDBRANCH  18  20
ENDBRANCH   9  18
ENDBRANCH   6   8
ENDBRANCH   5   6
ENDBRANCH   4   5
ENDBRANCH   3   4
ENDBRANCH   2   3
ENDBRANCH   1   2
BRANCH   1  32
ATOM     32  C   UNL A   1      32.996  29.496  26.231  1.00  0.00     0.188 C 
BRANCH  32  33
ATOM     33  O   UNL A   1      33.866  30.339  26.978  1.00  0.00    -0.377 OA
BRANCH  33  34
ATOM     34  C   UNL A   1      33.411  31.610  27.428  1.00  0.00     0.188 C 
BRANCH  34  35
ATOM     35  C   UNL A   1      34.247  32.416  28.457  1.00  0.00     0.188 C 
BRANCH  35  36
ATOM     36  O   UNL A   1      34.748  33.657  27.982  1.00  0.00    -0.376 OA
BRANCH  36  37
ATOM     37  C   UNL A   1      34.523  34.874  28.666  1.00  0.00     0.202 C 
BRANCH  37  38
ATOM     38  C   UNL A   1      33.415  34.938  29.713  1.00  0.00     0.261 C 
BRANCH  38  39
ATOM     39  O   UNL A   1      33.785  35.628  30.887  1.00  0.00    -0.460 OA
BRANCH  39  40
ATOM     40  C   UNL A   1      33.203  35.178  32.005  1.00  0.00     0.338 C 
ATOM     41  O   UNL A   1      32.016  35.255  32.309  1.00  0.00    -0.246 OA
BRANCH  40  42
ATOM     42  C   UNL A   1      34.247  34.652  32.882  1.00  0.00     0.060 A 
ATOM     43  C   UNL A   1      35.407  35.418  32.943  1.00  0.00     0.016 A 
ATOM     44  C   UNL A   1      34.220  33.278  33.173  1.00  0.00     0.016 A 
ATOM     45  C   UNL A   1      36.594  34.738  32.925  1.00  0.00     0.010 A 
ATOM     46  C   UNL A   1      35.404  32.599  33.128  1.00  0.00     0.010 A 
ATOM     47  C   UNL A   1      36.553  33.338  32.880  1.00  0.00    -0.014 A 
BRANCH  47  48
ATOM     48  C   UNL A   1      37.782  32.662  32.574  1.00  0.00     0.031 A 
ATOM     49  C   UNL A   1      38.686  32.597  33.729  1.00  0.00     0.074 A 
ATOM     50  C   UNL A   1      38.046  32.140  31.366  1.00  0.00     0.049 A 
ATOM     51  N   UNL A   1      39.753  33.293  33.916  1.00  0.00    -0.248 NA
ATOM     52  C   UNL A   1      38.238  31.820  34.892  1.00  0.00     0.031 C 
ATOM     53  C   UNL A   1      37.143  31.900  30.239  1.00  0.00     0.029 A 
ATOM     54  N   UNL A   1      39.218  31.609  30.942  1.00  0.00    -0.354 N 
ATOM     55  C   UNL A   1      40.224  32.908  35.160  1.00  0.00     0.074 A 
ATOM     56  C   UNL A   1      39.165  32.158  35.787  1.00  0.00     0.031 C 
ATOM     57  C   UNL A   1      37.748  31.058  29.366  1.00  0.00     0.029 A 
ATOM     58  C   UNL A   1      39.114  30.826  29.808  1.00  0.00     0.049 A 
ATOM     59  H   UNL A   1      40.074  31.769  31.403  1.00  0.00     0.167 HD
ATOM     60  C   UNL A   1      41.542  33.010  35.472  1.00  0.00     0.031 A 
ATOM     61  C   UNL A   1      40.074  29.992  29.341  1.00  0.00     0.031 A 
ATOM     62  C   UNL A   1      42.244  33.876  34.558  1.00  0.00     0.049 A 
ATOM     63  C   UNL A   1      41.365  30.412  29.945  1.00  0.00     0.074 A 
ATOM     64  C   UNL A   1      42.140  35.209  34.214  1.00  0.00     0.029 A 
ATOM     65  N   UNL A   1      42.955  33.274  33.546  1.00  0.00    -0.354 N 
ATOM     66  N   UNL A   1      41.965  31.529  29.645  1.00  0.00    -0.248 NA
ATOM     67  C   UNL A   1      41.758  29.820  31.217  1.00  0.00     0.031 C 
ATOM     68  C   UNL A   1      42.388  35.250  32.812  1.00  0.00     0.029 A 
ATOM     69  C   UNL A   1      42.682  33.953  32.386  1.00  0.00     0.049 A 
ATOM     70  H   UNL A   1      43.551  32.496  33.637  1.00  0.00     0.167 HD
ATOM     71  C   UNL A   1      42.469  31.999  30.850  1.00  0.00     0.074 A 
ATOM     72  C   UNL A   1      42.401  30.858  31.761  1.00  0.00     0.031 C 
ATOM     73  C   UNL A   1      42.620  33.336  31.078  1.00  0.00     0.031 A 
BRANCH  60  74
ATOM     74  C   UNL A   1      42.252  31.989  36.317  1.00  0.00    -0.014 A 
ATOM     75  C   UNL A   1      42.732  32.381  37.575  1.00  0.00     0.009 A 
ATOM     76  C   UNL A   1      42.713  30.756  35.816  1.00  0.00     0.009 A 
ATOM     77  C   UNL A   1      43.685  31.616  38.256  1.00  0.00     0.001 A 
ATOM     78  C   UNL A   1      43.629  29.967  36.512  1.00  0.00     0.001 A 
ATOM     79  C   UNL A   1      44.139  30.414  37.719  1.00  0.00     0.000 A 
ENDBRANCH  60  74
BRANCH  61  80
ATOM     80  C   UNL A   1      39.906  28.691  28.661  1.00  0.00    -0.014 A 
ATOM     81  C   UNL A   1      40.522  28.443  27.426  1.00  0.00     0.009 A 
ATOM     82  C   UNL A   1      39.361  27.593  29.356  1.00  0.00     0.009 A 
ATOM     83  C   UNL A   1      40.621  27.138  26.922  1.00  0.00     0.001 A 
ATOM     84  C   UNL A   1      39.458  26.293  28.851  1.00  0.00     0.001 A 
ATOM     85  C   UNL A   1      40.102  26.064  27.641  1.00  0.00     0.000 A 
ENDBRANCH  61  80
BRANCH  73  86
ATOM     86  C   UNL A   1      42.435  34.279  29.914  1.00  0.00    -0.014 A 
ATOM     87  C   UNL A   1      41.170  34.719  29.485  1.00  0.00     0.009 A 
ATOM     88  C   UNL A   1      43.574  34.882  29.362  1.00  0.00     0.009 A 
ATOM     89  C   UNL A   1      41.053  35.723  28.518  1.00  0.00     0.001 A 
ATOM     90  C   UNL A   1      43.456  35.897  28.412  1.00  0.00     0.001 A 
ATOM     91  C   UNL A   1      42.197  36.318  27.989  1.00  0.00     0.000 A 
ENDBRANCH  73  86
ENDBRANCH  47  48
ENDBRANCH  40  42
ENDBRANCH  39  40
ENDBRANCH  38  39
ENDBRANCH  37  38
ENDBRANCH  36  37
ENDBRANCH  35  36
ENDBRANCH  34  35
ENDBRANCH  33  34
ENDBRANCH  32  33
ENDBRANCH   1  32
TORSDOF 26
ENDMDL
MODEL 2
REMARK VINA RESULT:      -8.5      1.512      2.051
REMARK SMILES COc1ccc(CCNc2ncnc3sc(C(=O)OCCOCCOCCOCCOC(=O)c4ccc(-c5c6nc(c(-c7ccccc7)c7ccc([nH]7)c(-c7ccccc7)c7nc(c(-c8ccccc8)c8ccc5[nH]8)C=C7)C=C6)cc4)c(C)c23)cc1OC
REMARK SMILES IDX 23 1 22 2 21 3 20 4 19 5 17 6 18 7 16 8 10 9 11 10 84 11
REMARK SMILES IDX 12 12 14 13 82 14 13 15 15 16 83 17 9 18 8 20 7 21 6 22 3 23
REMARK SMILES IDX 4 24 86 25 5 26 85 27 2 28 1 29 87 30 88 31 24 32 25 33
REMARK SMILES IDX 26 34 27 35 28 36 29 37 30 38 31 39 32 40 33 41 34 42 35 43
REMARK SMILES IDX 81 44 36 45 80 46 37 47 38 48 39 49 74 50 40 51 79 52 73 53
REMARK SMILES IDX 75 54 41 55 78 56 72 57 71 58 42 60 64 61 49 62 63 63 50 64
REMARK SMILES IDX 53 65 62 66 76 67 51 68 52 69 61 71 77 72 54 73 43 74 44 75
REMARK SMILES IDX 48 76 45 77 47 78 46 79 65 80 66 81 70 82 67 83 69 84 68 85
REMARK SMILES IDX 55 86 56 87 60 88 57 89 59 90 58 91
REMARK H PARENT 9 19 75 59 53 70
REMARK Flexibility Score: inf
ROOT
ATOM      1  C   UNL A   1      31.392  30.794  26.331  1.00  0.00     0.188 C 
ENDROOT
BRANCH   1   2
ATOM      2  O   UNL A   1      30.930  30.450  25.038  1.00  0.00    -0.376 OA
BRANCH   2   3
ATOM      3  C   UNL A   1      31.278  29.186  24.519  1.00  0.00     0.202 C 
BRANCH   3   4
ATOM      4  C   UNL A   1      32.259  29.190  23.339  1.00  0.00     0.261 C 
BRANCH   4   5
ATOM      5  O   UNL A   1      32.127  28.088  22.426  1.00  0.00    -0.459 OA
BRANCH   5   6
ATOM      6  C   UNL A   1      33.270  27.428  22.100  1.00  0.00     0.348 C 
ATOM      7  O   UNL A   1      34.273  27.974  21.641  1.00  0.00    -0.245 OA
BRANCH   6   8
ATOM      8  C   UNL A   1      33.207  26.056  22.569  1.00  0.00     0.118 A 
ATOM      9  C   UNL A   1      33.693  23.193  24.928  1.00  0.00     0.138 A 
ATOM     10  N   UNL A   1      33.442  21.889  24.698  1.00  0.00    -0.219 NA
ATOM     11  C   UNL A   1      33.427  24.132  23.905  1.00  0.00     0.058 A 
ATOM     12  C   UNL A   1      32.952  21.532  23.499  1.00  0.00     0.225 A 
ATOM     13  C   UNL A   1      32.911  23.618  22.727  1.00  0.00     0.129 A 
ATOM     14  C   UNL A   1      33.575  25.572  23.818  1.00  0.00    -0.012 A 
ATOM     15  N   UNL A   1      32.648  22.327  22.469  1.00  0.00    -0.225 NA
ATOM     16  S   UNL A   1      32.603  24.819  21.559  1.00  0.00    -0.108 S 
ATOM     17  C   UNL A   1      34.037  26.422  24.956  1.00  0.00     0.047 C 
BRANCH   9  18
ATOM     18  N   UNL A   1      34.118  23.579  26.192  1.00  0.00    -0.369 N 
ATOM     19  H   UNL A   1      33.581  24.197  26.740  1.00  0.00     0.162 HD
BRANCH  18  20
ATOM     20  C   UNL A   1      35.387  23.044  26.686  1.00  0.00     0.119 C 
BRANCH  20  21
ATOM     21  C   UNL A   1      36.538  23.296  25.690  1.00  0.00     0.057 C 
BRANCH  21  22
ATOM     22  C   UNL A   1      37.950  23.052  26.194  1.00  0.00    -0.042 A 
ATOM     23  C   UNL A   1      40.608  22.595  27.051  1.00  0.00     0.160 A 
ATOM     24  C   UNL A   1      39.942  23.770  27.403  1.00  0.00     0.051 A 
ATOM     25  C   UNL A   1      39.959  21.639  26.261  1.00  0.00     0.160 A 
ATOM     26  C   UNL A   1      38.630  23.988  26.976  1.00  0.00     0.008 A 
ATOM     27  C   UNL A   1      38.640  21.884  25.835  1.00  0.00     0.054 A 
BRANCH  23  28
ATOM     28  O   UNL A   1      41.836  22.356  27.605  1.00  0.00    -0.493 OA
ATOM     29  C   UNL A   1      42.079  23.142  28.771  1.00  0.00     0.278 C 
ENDBRANCH  23  28
BRANCH  25  30
ATOM     30  O   UNL A   1      40.440  20.427  25.838  1.00  0.00    -0.493 OA
ATOM     31  C   UNL A   1      41.243  19.679  26.739  1.00  0.00     0.278 C 
ENDBRANCH  25  30
ENDBRANCH  21  22
ENDBRANCH  20  21
ENDBRANCH  18  20
ENDBRANCH   9  18
ENDBRANCH   6   8
ENDBRANCH   5   6
ENDBRANCH   4   5
ENDBRANCH   3   4
ENDBRANCH   2   3
ENDBRANCH   1   2
BRANCH   1  32
ATOM     32  C   UNL A   1      32.429  29.813  26.927  1.00  0.00     0.188 C 
BRANCH  32  33
ATOM     33  O   UNL A   1      33.744  30.231  27.277  1.00  0.00    -0.377 OA
BRANCH  33  34
ATOM     34  C   UNL A   1      33.969  31.556  27.743  1.00  0.00     0.188 C 
BRANCH  34  35
ATOM     35  C   UNL A   1      34.937  31.811  28.928  1.00  0.00     0.188 C 
BRANCH  35  36
ATOM     36  O   UNL A   1      35.801  32.926  28.767  1.00  0.00    -0.376 OA
BRANCH  36  37
ATOM     37  C   UNL A   1      35.698  34.083  29.573  1.00  0.00     0.202 C 
BRANCH  37  38
ATOM     38  C   UNL A   1      34.369  34.390  30.257  1.00  0.00     0.261 C 
BRANCH  38  39
ATOM     39  O   UNL A   1      34.510  35.019  31.512  1.00  0.00    -0.460 OA
BRANCH  39  40
ATOM     40  C   UNL A   1      34.180  34.254  32.560  1.00  0.00     0.338 C 
ATOM     41  O   UNL A   1      33.052  33.910  32.904  1.00  0.00    -0.246 OA
BRANCH  40  42
ATOM     42  C   UNL A   1      35.398  33.964  33.313  1.00  0.00     0.060 A 
ATOM     43  C   UNL A   1      36.408  34.912  33.190  1.00  0.00     0.016 A 
ATOM     44  C   UNL A   1      35.642  32.625  33.663  1.00  0.00     0.016 A 
ATOM     45  C   UNL A   1      37.682  34.437  33.045  1.00  0.00     0.010 A 
ATOM     46  C   UNL A   1      36.910  32.149  33.491  1.00  0.00     0.010 A 
ATOM     47  C   UNL A   1      37.877  33.050  33.064  1.00  0.00    -0.014 A 
BRANCH  47  48
ATOM     48  C   UNL A   1      39.157  32.567  32.628  1.00  0.00     0.031 A 
ATOM     49  C   UNL A   1      40.183  32.687  33.671  1.00  0.00     0.074 A 
ATOM     50  C   UNL A   1      39.365  32.052  31.407  1.00  0.00     0.049 A 
ATOM     51  N   UNL A   1      41.137  33.550  33.721  1.00  0.00    -0.248 NA
ATOM     52  C   UNL A   1      40.000  31.890  34.891  1.00  0.00     0.031 C 
ATOM     53  C   UNL A   1      38.391  31.633  30.396  1.00  0.00     0.029 A 
ATOM     54  N   UNL A   1      40.552  31.700  30.858  1.00  0.00    -0.354 N 
ATOM     55  C   UNL A   1      41.802  33.288  34.908  1.00  0.00     0.074 A 
ATOM     56  C   UNL A   1      40.955  32.402  35.666  1.00  0.00     0.031 C 
ATOM     57  C   UNL A   1      39.023  30.868  29.472  1.00  0.00     0.029 A 
ATOM     58  C   UNL A   1      40.449  30.871  29.756  1.00  0.00     0.049 A 
ATOM     59  H   UNL A   1      41.416  32.010  31.213  1.00  0.00     0.167 HD
ATOM     60  C   UNL A   1      43.112  33.609  35.062  1.00  0.00     0.031 A 
ATOM     61  C   UNL A   1      41.473  30.184  29.194  1.00  0.00     0.031 A 
ATOM     62  C   UNL A   1      43.557  34.543  34.059  1.00  0.00     0.049 A 
ATOM     63  C   UNL A   1      42.738  30.825  29.637  1.00  0.00     0.074 A 
ATOM     64  C   UNL A   1      43.201  35.830  33.708  1.00  0.00     0.029 A 
ATOM     65  N   UNL A   1      44.239  34.027  32.981  1.00  0.00    -0.354 N 
ATOM     66  N   UNL A   1      43.112  32.012  29.251  1.00  0.00    -0.248 NA
ATOM     67  C   UNL A   1      43.362  30.347  30.864  1.00  0.00     0.031 C 
ATOM     68  C   UNL A   1      43.280  35.861  32.286  1.00  0.00     0.029 A 
ATOM     69  C   UNL A   1      43.731  34.613  31.850  1.00  0.00     0.049 A 
ATOM     70  H   UNL A   1      44.959  33.357  33.015  1.00  0.00     0.167 HD
ATOM     71  C   UNL A   1      43.665  32.598  30.381  1.00  0.00     0.074 A 
ATOM     72  C   UNL A   1      43.886  31.493  31.312  1.00  0.00     0.031 C 
ATOM     73  C   UNL A   1      43.623  33.949  30.569  1.00  0.00     0.031 A 
BRANCH  60  74
ATOM     74  C   UNL A   1      44.068  32.743  35.836  1.00  0.00    -0.014 A 
ATOM     75  C   UNL A   1      44.230  32.988  37.208  1.00  0.00     0.009 A 
ATOM     76  C   UNL A   1      45.016  31.900  35.224  1.00  0.00     0.009 A 
ATOM     77  C   UNL A   1      45.327  32.477  37.909  1.00  0.00     0.001 A 
ATOM     78  C   UNL A   1      46.087  31.352  35.929  1.00  0.00     0.001 A 
ATOM     79  C   UNL A   1      46.260  31.668  37.266  1.00  0.00     0.000 A 
ENDBRANCH  60  74
BRANCH  61  80
ATOM     80  C   UNL A   1      41.442  28.851  28.560  1.00  0.00    -0.014 A 
ATOM     81  C   UNL A   1      40.787  28.654  27.335  1.00  0.00     0.009 A 
ATOM     82  C   UNL A   1      42.289  27.825  29.024  1.00  0.00     0.009 A 
ATOM     83  C   UNL A   1      41.002  27.489  26.584  1.00  0.00     0.001 A 
ATOM     84  C   UNL A   1      42.500  26.663  28.276  1.00  0.00     0.001 A 
ATOM     85  C   UNL A   1      41.868  26.502  27.049  1.00  0.00     0.000 A 
ENDBRANCH  61  80
BRANCH  73  86
ATOM     86  C   UNL A   1      43.158  34.810  29.419  1.00  0.00    -0.014 A 
ATOM     87  C   UNL A   1      41.799  35.044  29.144  1.00  0.00     0.009 A 
ATOM     88  C   UNL A   1      44.118  35.550  28.715  1.00  0.00     0.009 A 
ATOM     89  C   UNL A   1      41.415  35.982  28.180  1.00  0.00     0.001 A 
ATOM     90  C   UNL A   1      43.735  36.501  27.768  1.00  0.00     0.001 A 
ATOM     91  C   UNL A   1      42.385  36.717  27.499  1.00  0.00     0.000 A 
ENDBRANCH  73  86
ENDBRANCH  47  48
ENDBRANCH  40  42
ENDBRANCH  39  40
ENDBRANCH  38  39
ENDBRANCH  37  38
ENDBRANCH  36  37
ENDBRANCH  35  36
ENDBRANCH  34  35
ENDBRANCH  33  34
ENDBRANCH  32  33
ENDBRANCH   1  32
TORSDOF 26
ENDMDL
MODEL 3
REMARK VINA RESULT:      -8.4      1.837      5.784
REMARK SMILES COc1ccc(CCNc2ncnc3sc(C(=O)OCCOCCOCCOCCOC(=O)c4ccc(-c5c6nc(c(-c7ccccc7)c7ccc([nH]7)c(-c7ccccc7)c7nc(c(-c8ccccc8)c8ccc5[nH]8)C=C7)C=C6)cc4)c(C)c23)cc1OC
REMARK SMILES IDX 23 1 22 2 21 3 20 4 19 5 17 6 18 7 16 8 10 9 11 10 84 11
REMARK SMILES IDX 12 12 14 13 82 14 13 15 15 16 83 17 9 18 8 20 7 21 6 22 3 23
REMARK SMILES IDX 4 24 86 25 5 26 85 27 2 28 1 29 87 30 88 31 24 32 25 33
REMARK SMILES IDX 26 34 27 35 28 36 29 37 30 38 31 39 32 40 33 41 34 42 35 43
REMARK SMILES IDX 81 44 36 45 80 46 37 47 38 48 39 49 74 50 40 51 79 52 73 53
REMARK SMILES IDX 75 54 41 55 78 56 72 57 71 58 42 60 64 61 49 62 63 63 50 64
REMARK SMILES IDX 53 65 62 66 76 67 51 68 52 69 61 71 77 72 54 73 43 74 44 75
REMARK SMILES IDX 48 76 45 77 47 78 46 79 65 80 66 81 70 82 67 83 69 84 68 85
REMARK SMILES IDX 55 86 56 87 60 88 57 89 59 90 58 91
REMARK H PARENT 9 19 75 59 53 70
REMARK Flexibility Score: inf
ROOT
ATOM      1  C   UNL A   1      31.387  30.824  26.034  1.00  0.00     0.188 C 
ENDROOT
BRANCH   1   2
ATOM      2  O   UNL A   1      30.875  30.311  24.818  1.00  0.00    -0.376 OA
BRANCH   2   3
ATOM      3  C   UNL A   1      31.302  29.033  24.401  1.00  0.00     0.202 C 
BRANCH   3   4
ATOM      4  C   UNL A   1      32.244  29.000  23.190  1.00  0.00     0.261 C 
BRANCH   4   5
ATOM      5  O   UNL A   1      32.109  27.853  22.336  1.00  0.00    -0.459 OA
BRANCH   5   6
ATOM      6  C   UNL A   1      33.247  27.163  22.059  1.00  0.00     0.348 C 
ATOM      7  O   UNL A   1      34.279  27.682  21.631  1.00  0.00    -0.245 OA
BRANCH   6   8
ATOM      8  C   UNL A   1      33.136  25.799  22.539  1.00  0.00     0.118 A 
ATOM      9  C   UNL A   1      33.495  22.944  24.931  1.00  0.00     0.138 A 
ATOM     10  N   UNL A   1      33.210  21.646  24.708  1.00  0.00    -0.219 NA
ATOM     11  C   UNL A   1      33.276  23.881  23.896  1.00  0.00     0.058 A 
ATOM     12  C   UNL A   1      32.731  21.292  23.504  1.00  0.00     0.225 A 
ATOM     13  C   UNL A   1      32.765  23.372  22.713  1.00  0.00     0.129 A 
ATOM     14  C   UNL A   1      33.467  25.316  23.799  1.00  0.00    -0.012 A 
ATOM     15  N   UNL A   1      32.469  22.086  22.462  1.00  0.00    -0.225 NA
ATOM     16  S   UNL A   1      32.514  24.570  21.529  1.00  0.00    -0.108 S 
ATOM     17  C   UNL A   1      33.933  26.162  24.937  1.00  0.00     0.047 C 
BRANCH   9  18
ATOM     18  N   UNL A   1      33.909  23.330  26.200  1.00  0.00    -0.369 N 
ATOM     19  H   UNL A   1      33.336  23.893  26.770  1.00  0.00     0.162 HD
BRANCH  18  20
ATOM     20  C   UNL A   1      35.221  22.878  26.664  1.00  0.00     0.119 C 
BRANCH  20  21
ATOM     21  C   UNL A   1      36.330  23.205  25.643  1.00  0.00     0.057 C 
BRANCH  21  22
ATOM     22  C   UNL A   1      37.763  23.158  26.145  1.00  0.00    -0.042 A 
ATOM     23  C   UNL A   1      40.459  23.059  27.000  1.00  0.00     0.160 A 
ATOM     24  C   UNL A   1      39.708  24.225  27.157  1.00  0.00     0.051 A 
ATOM     25  C   UNL A   1      39.876  21.932  26.408  1.00  0.00     0.160 A 
ATOM     26  C   UNL A   1      38.379  24.266  26.732  1.00  0.00     0.008 A 
ATOM     27  C   UNL A   1      38.537  22.000  25.980  1.00  0.00     0.054 A 
BRANCH  23  28
ATOM     28  O   UNL A   1      41.709  23.013  27.556  1.00  0.00    -0.493 OA
ATOM     29  C   UNL A   1      42.057  24.220  28.232  1.00  0.00     0.278 C 
ENDBRANCH  23  28
BRANCH  25  30
ATOM     30  O   UNL A   1      40.444  20.704  26.193  1.00  0.00    -0.493 OA
ATOM     31  C   UNL A   1      41.182  20.117  27.255  1.00  0.00     0.278 C 
ENDBRANCH  25  30
ENDBRANCH  21  22
ENDBRANCH  20  21
ENDBRANCH  18  20
ENDBRANCH   9  18
ENDBRANCH   6   8
ENDBRANCH   5   6
ENDBRANCH   4   5
ENDBRANCH   3   4
ENDBRANCH   2   3
ENDBRANCH   1   2
BRANCH   1  32
ATOM     32  C   UNL A   1      32.287  29.842  26.820  1.00  0.00     0.188 C 
BRANCH  32  33
ATOM     33  O   UNL A   1      33.596  30.202  27.250  1.00  0.00    -0.377 OA
BRANCH  33  34
ATOM     34  C   UNL A   1      33.881  31.549  27.608  1.00  0.00     0.188 C 
BRANCH  34  35
ATOM     35  C   UNL A   1      34.691  31.857  28.895  1.00  0.00     0.188 C 
BRANCH  35  36
ATOM     36  O   UNL A   1      35.583  32.957  28.793  1.00  0.00    -0.376 OA
BRANCH  36  37
ATOM     37  C   UNL A   1      35.352  34.181  29.461  1.00  0.00     0.202 C 
BRANCH  37  38
ATOM     38  C   UNL A   1      34.102  34.327  30.325  1.00  0.00     0.261 C 
BRANCH  38  39
ATOM     39  O   UNL A   1      34.372  34.748  31.644  1.00  0.00    -0.460 OA
BRANCH  39  40
ATOM     40  C   UNL A   1      34.384  33.766  32.553  1.00  0.00     0.338 C 
ATOM     41  O   UNL A   1      33.459  33.012  32.845  1.00  0.00    -0.246 OA
BRANCH  40  42
ATOM     42  C   UNL A   1      35.674  33.793  33.236  1.00  0.00     0.060 A 
ATOM     43  C   UNL A   1      36.484  34.881  32.925  1.00  0.00     0.016 A 
ATOM     44  C   UNL A   1      36.180  32.574  33.718  1.00  0.00     0.016 A 
ATOM     45  C   UNL A   1      37.814  34.623  32.736  1.00  0.00     0.010 A 
ATOM     46  C   UNL A   1      37.503  32.310  33.503  1.00  0.00     0.010 A 
ATOM     47  C   UNL A   1      38.261  33.305  32.900  1.00  0.00    -0.014 A 
BRANCH  47  48
ATOM     48  C   UNL A   1      39.582  33.003  32.423  1.00  0.00     0.031 A 
ATOM     49  C   UNL A   1      39.572  32.008  31.345  1.00  0.00     0.074 A 
ATOM     50  C   UNL A   1      40.685  33.590  32.912  1.00  0.00     0.049 A 
ATOM     51  N   UNL A   1      39.914  30.770  31.432  1.00  0.00    -0.248 NA
ATOM     52  C   UNL A   1      38.916  32.385  30.086  1.00  0.00     0.031 C 
ATOM     53  C   UNL A   1      40.808  34.768  33.774  1.00  0.00     0.029 A 
ATOM     54  N   UNL A   1      41.972  33.278  32.629  1.00  0.00    -0.354 N 
ATOM     55  C   UNL A   1      39.686  30.241  30.172  1.00  0.00     0.074 A 
ATOM     56  C   UNL A   1      38.902  31.213  29.453  1.00  0.00     0.031 C 
ATOM     57  C   UNL A   1      42.091  35.204  33.738  1.00  0.00     0.029 A 
ATOM     58  C   UNL A   1      42.887  34.256  32.973  1.00  0.00     0.049 A 
ATOM     59  H   UNL A   1      42.235  32.425  32.213  1.00  0.00     0.167 HD
ATOM     60  C   UNL A   1      40.382  29.162  29.730  1.00  0.00     0.031 A 
ATOM     61  C   UNL A   1      44.179  34.297  32.569  1.00  0.00     0.031 A 
ATOM     62  C   UNL A   1      41.034  28.465  30.810  1.00  0.00     0.049 A 
ATOM     63  C   UNL A   1      44.553  32.929  32.125  1.00  0.00     0.074 A 
ATOM     64  C   UNL A   1      40.596  27.816  31.947  1.00  0.00     0.029 A 
ATOM     65  N   UNL A   1      42.370  28.725  31.008  1.00  0.00    -0.354 N 
ATOM     66  N   UNL A   1      44.672  31.920  32.940  1.00  0.00    -0.248 NA
ATOM     67  C   UNL A   1      44.342  32.575  30.727  1.00  0.00     0.031 C 
ATOM     68  C   UNL A   1      41.562  28.127  32.946  1.00  0.00     0.029 A 
ATOM     69  C   UNL A   1      42.563  28.902  32.354  1.00  0.00     0.049 A 
ATOM     70  H   UNL A   1      43.062  28.777  30.310  1.00  0.00     0.167 HD
ATOM     71  C   UNL A   1      44.128  30.841  32.257  1.00  0.00     0.074 A 
ATOM     72  C   UNL A   1      44.037  31.281  30.865  1.00  0.00     0.031 C 
ATOM     73  C   UNL A   1      43.536  29.808  32.924  1.00  0.00     0.031 A 
BRANCH  60  74
ATOM     74  C   UNL A   1      40.820  29.017  28.298  1.00  0.00    -0.014 A 
ATOM     75  C   UNL A   1      40.334  27.929  27.558  1.00  0.00     0.009 A 
ATOM     76  C   UNL A   1      41.900  29.733  27.744  1.00  0.00     0.009 A 
ATOM     77  C   UNL A   1      40.950  27.534  26.366  1.00  0.00     0.001 A 
ATOM     78  C   UNL A   1      42.488  29.368  26.533  1.00  0.00     0.001 A 
ATOM     79  C   UNL A   1      42.032  28.248  25.859  1.00  0.00     0.000 A 
ENDBRANCH  60  74
BRANCH  61  80
ATOM     80  C   UNL A   1      45.005  35.481  32.259  1.00  0.00    -0.014 A 
ATOM     81  C   UNL A   1      46.398  35.446  32.419  1.00  0.00     0.009 A 
ATOM     82  C   UNL A   1      44.454  36.564  31.546  1.00  0.00     0.009 A 
ATOM     83  C   UNL A   1      47.212  36.438  31.853  1.00  0.00     0.001 A 
ATOM     84  C   UNL A   1      45.266  37.554  30.985  1.00  0.00     0.001 A 
ATOM     85  C   UNL A   1      46.647  37.483  31.126  1.00  0.00     0.000 A 
ENDBRANCH  61  80
BRANCH  73  86
ATOM     86  C   UNL A   1      43.681  29.759  34.425  1.00  0.00    -0.014 A 
ATOM     87  C   UNL A   1      44.448  28.782  35.085  1.00  0.00     0.009 A 
ATOM     88  C   UNL A   1      43.186  30.836  35.175  1.00  0.00     0.009 A 
ATOM     89  C   UNL A   1      44.696  28.874  36.458  1.00  0.00     0.001 A 
ATOM     90  C   UNL A   1      43.451  30.938  36.541  1.00  0.00     0.001 A 
ATOM     91  C   UNL A   1      44.205  29.958  37.184  1.00  0.00     0.000 A 
ENDBRANCH  73  86
ENDBRANCH  47  48
ENDBRANCH  40  42
ENDBRANCH  39  40
ENDBRANCH  38  39
ENDBRANCH  37  38
ENDBRANCH  36  37
ENDBRANCH  35  36
ENDBRANCH  34  35
ENDBRANCH  33  34
ENDBRANCH  32  33
ENDBRANCH   1  32
TORSDOF 26
ENDMDL
