MODEL 1
REMARK VINA RESULT:     -10.6      0.000      0.000
REMARK SMILES Nc1nc(N2CCCCC2)nc2c1[C@H](C(=O)OCCOCCOCCOCCOC(=O)c1ccc(-c3c4nc(c(-c5ccccc5)c5ccc([nH]5)c(-c5ccccc5)c5nc(c(-c6ccccc6)c6ccc3[nH]6)C=C5)C=C4)cc1)CC(=O)N2
REMARK SMILES IDX 24 1 23 2 22 3 21 4 20 5 19 6 18 7 17 8 15 9 16 10 14 11
REMARK SMILES IDX 2 12 3 13 13 14 4 15 12 16 11 17 83 18 80 19 81 20 82 22
REMARK SMILES IDX 1 23 5 26 6 27 10 28 7 29 9 30 8 31 25 32 26 33 27 34 28 35
REMARK SMILES IDX 29 36 30 37 31 38 32 39 33 40 79 41 34 42 78 43 35 44 36 45
REMARK SMILES IDX 37 46 72 47 38 48 77 49 71 50 73 51 39 52 76 53 70 54 69 55
REMARK SMILES IDX 40 57 62 58 47 59 61 60 48 61 51 62 60 63 74 64 49 65 50 66
REMARK SMILES IDX 59 68 75 69 52 70 41 71 42 72 46 73 43 74 45 75 44 76 63 77
REMARK SMILES IDX 64 78 68 79 65 80 67 81 66 82 53 83 54 84 58 85 55 86 57 87
REMARK SMILES IDX 56 88
REMARK H PARENT 83 21 1 24 1 25 73 56 51 67
REMARK Flexibility Score: inf
ROOT
ATOM      1  C   UNL A   1      42.793  18.770  26.146  1.00  0.00     0.188 C 
ENDROOT
BRANCH   1   2
ATOM      2  O   UNL A   1      41.588  19.399  25.708  1.00  0.00    -0.377 OA
BRANCH   2   3
ATOM      3  C   UNL A   1      41.382  20.754  26.070  1.00  0.00     0.188 C 
BRANCH   3   4
ATOM      4  C   UNL A   1      39.944  21.078  26.529  1.00  0.00     0.188 C 
BRANCH   4   5
ATOM      5  O   UNL A   1      39.321  22.091  25.745  1.00  0.00    -0.376 OA
BRANCH   5   6
ATOM      6  C   UNL A   1      37.951  21.923  25.417  1.00  0.00     0.202 C 
BRANCH   6   7
ATOM      7  C   UNL A   1      37.150  23.189  25.076  1.00  0.00     0.261 C 
BRANCH   7   8
ATOM      8  O   UNL A   1      35.733  23.104  25.299  1.00  0.00    -0.463 OA
BRANCH   8   9
ATOM      9  C   UNL A   1      34.924  23.284  24.226  1.00  0.00     0.314 C 
ATOM     10  O   UNL A   1      35.311  23.404  23.074  1.00  0.00    -0.252 OA
BRANCH   9  11
ATOM     11  C   UNL A   1      33.465  23.303  24.676  1.00  0.00     0.146 C 
ATOM     12  C   UNL A   1      32.492  21.427  23.317  1.00  0.00     0.135 A 
ATOM     13  N   UNL A   1      32.280  20.126  23.152  1.00  0.00    -0.196 NA
ATOM     14  C   UNL A   1      32.936  21.926  24.516  1.00  0.00     0.052 A 
ATOM     15  C   UNL A   1      32.507  19.316  24.199  1.00  0.00     0.229 A 
ATOM     16  C   UNL A   1      33.093  21.030  25.548  1.00  0.00     0.144 A 
ATOM     17  N   UNL A   1      32.857  19.735  25.420  1.00  0.00    -0.195 NA
ATOM     18  N   UNL A   1      33.603  21.464  26.770  1.00  0.00    -0.310 N 
ATOM     19  C   UNL A   1      33.306  23.785  26.113  1.00  0.00     0.120 C 
ATOM     20  C   UNL A   1      33.832  22.769  27.094  1.00  0.00     0.226 C 
ATOM     21  H   UNL A   1      33.813  20.781  27.446  1.00  0.00     0.171 HD
ATOM     22  O   UNL A   1      34.339  23.101  28.162  1.00  0.00    -0.275 OA
BRANCH  12  23
ATOM     23  N   UNL A   1      32.220  22.239  22.232  1.00  0.00    -0.383 N 
ATOM     24  H   UNL A   1      31.343  22.189  21.787  1.00  0.00     0.158 HD
ATOM     25  H   UNL A   1      32.903  22.868  21.906  1.00  0.00     0.158 HD
ENDBRANCH  12  23
BRANCH  15  26
ATOM     26  N   UNL A   1      32.471  17.964  24.006  1.00  0.00    -0.341 N 
ATOM     27  C   UNL A   1      32.052  17.108  25.095  1.00  0.00     0.119 C 
ATOM     28  C   UNL A   1      33.265  17.430  22.922  1.00  0.00     0.119 C 
ATOM     29  C   UNL A   1      33.244  16.355  25.671  1.00  0.00     0.022 C 
ATOM     30  C   UNL A   1      34.479  16.706  23.504  1.00  0.00     0.022 C 
ATOM     31  C   UNL A   1      34.052  15.685  24.560  1.00  0.00     0.004 C 
ENDBRANCH  15  26
ENDBRANCH   9  11
ENDBRANCH   8   9
ENDBRANCH   7   8
ENDBRANCH   6   7
ENDBRANCH   5   6
ENDBRANCH   4   5
ENDBRANCH   3   4
ENDBRANCH   2   3
ENDBRANCH   1   2
BRANCH   1  32
ATOM     32  C   UNL A   1      44.069  18.727  25.266  1.00  0.00     0.188 C 
BRANCH  32  33
ATOM     33  O   UNL A   1      44.150  19.746  24.281  1.00  0.00    -0.376 OA
BRANCH  33  34
ATOM     34  C   UNL A   1      45.179  20.715  24.381  1.00  0.00     0.202 C 
BRANCH  34  35
ATOM     35  C   UNL A   1      45.065  21.714  25.539  1.00  0.00     0.261 C 
BRANCH  35  36
ATOM     36  O   UNL A   1      44.135  22.789  25.348  1.00  0.00    -0.460 OA
BRANCH  36  37
ATOM     37  C   UNL A   1      44.632  24.040  25.238  1.00  0.00     0.338 C 
ATOM     38  O   UNL A   1      45.436  24.449  24.419  1.00  0.00    -0.246 OA
BRANCH  37  39
ATOM     39  C   UNL A   1      43.861  24.894  26.162  1.00  0.00     0.060 A 
ATOM     40  C   UNL A   1      44.090  26.277  26.172  1.00  0.00     0.016 A 
ATOM     41  C   UNL A   1      42.879  24.330  26.980  1.00  0.00     0.016 A 
ATOM     42  C   UNL A   1      43.350  27.098  27.020  1.00  0.00     0.010 A 
ATOM     43  C   UNL A   1      42.161  25.148  27.852  1.00  0.00     0.010 A 
ATOM     44  C   UNL A   1      42.417  26.528  27.897  1.00  0.00    -0.014 A 
BRANCH  44  45
ATOM     45  C   UNL A   1      41.878  27.338  29.011  1.00  0.00     0.031 A 
ATOM     46  C   UNL A   1      42.623  27.322  30.315  1.00  0.00     0.074 A 
ATOM     47  C   UNL A   1      40.778  28.094  28.864  1.00  0.00     0.049 A 
ATOM     48  N   UNL A   1      42.353  27.943  31.432  1.00  0.00    -0.248 NA
ATOM     49  C   UNL A   1      43.840  26.495  30.360  1.00  0.00     0.031 C 
ATOM     50  C   UNL A   1      40.008  28.241  27.632  1.00  0.00     0.029 A 
ATOM     51  N   UNL A   1      40.125  28.890  29.773  1.00  0.00    -0.354 N 
ATOM     52  C   UNL A   1      43.369  27.589  32.310  1.00  0.00     0.074 A 
ATOM     53  C   UNL A   1      44.235  26.665  31.612  1.00  0.00     0.031 C 
ATOM     54  C   UNL A   1      38.988  29.088  27.858  1.00  0.00     0.029 A 
ATOM     55  C   UNL A   1      39.017  29.514  29.258  1.00  0.00     0.049 A 
ATOM     56  H   UNL A   1      40.424  29.002  30.703  1.00  0.00     0.167 HD
ATOM     57  C   UNL A   1      43.573  28.006  33.580  1.00  0.00     0.031 A 
ATOM     58  C   UNL A   1      38.125  30.329  29.853  1.00  0.00     0.031 A 
ATOM     59  C   UNL A   1      42.692  28.893  34.286  1.00  0.00     0.049 A 
ATOM     60  C   UNL A   1      38.299  30.684  31.306  1.00  0.00     0.074 A 
ATOM     61  C   UNL A   1      42.799  29.363  35.582  1.00  0.00     0.029 A 
ATOM     62  N   UNL A   1      41.530  29.436  33.755  1.00  0.00    -0.354 N 
ATOM     63  N   UNL A   1      39.266  30.349  32.127  1.00  0.00    -0.248 NA
ATOM     64  C   UNL A   1      37.261  31.531  31.913  1.00  0.00     0.031 C 
ATOM     65  C   UNL A   1      41.668  30.139  35.857  1.00  0.00     0.029 A 
ATOM     66  C   UNL A   1      40.895  30.212  34.709  1.00  0.00     0.049 A 
ATOM     67  H   UNL A   1      41.207  29.291  32.837  1.00  0.00     0.167 HD
ATOM     68  C   UNL A   1      38.970  30.966  33.338  1.00  0.00     0.074 A 
ATOM     69  C   UNL A   1      37.736  31.699  33.141  1.00  0.00     0.031 C 
ATOM     70  C   UNL A   1      39.663  30.931  34.502  1.00  0.00     0.031 A 
BRANCH  57  71
ATOM     71  C   UNL A   1      44.785  27.471  34.289  1.00  0.00    -0.014 A 
ATOM     72  C   UNL A   1      44.734  26.264  35.007  1.00  0.00     0.009 A 
ATOM     73  C   UNL A   1      45.996  28.177  34.233  1.00  0.00     0.009 A 
ATOM     74  C   UNL A   1      45.861  25.797  35.687  1.00  0.00     0.001 A 
ATOM     75  C   UNL A   1      47.130  27.690  34.887  1.00  0.00     0.001 A 
ATOM     76  C   UNL A   1      47.059  26.508  35.621  1.00  0.00     0.000 A 
ENDBRANCH  57  71
BRANCH  58  77
ATOM     77  C   UNL A   1      36.998  30.883  29.058  1.00  0.00    -0.014 A 
ATOM     78  C   UNL A   1      35.913  30.068  28.704  1.00  0.00     0.009 A 
ATOM     79  C   UNL A   1      36.978  32.238  28.689  1.00  0.00     0.009 A 
ATOM     80  C   UNL A   1      34.831  30.598  27.997  1.00  0.00     0.001 A 
ATOM     81  C   UNL A   1      35.883  32.771  28.004  1.00  0.00     0.001 A 
ATOM     82  C   UNL A   1      34.811  31.950  27.657  1.00  0.00     0.000 A 
ENDBRANCH  58  77
BRANCH  70  83
ATOM     83  C   UNL A   1      39.129  31.725  35.664  1.00  0.00    -0.014 A 
ATOM     84  C   UNL A   1      39.430  33.087  35.815  1.00  0.00     0.009 A 
ATOM     85  C   UNL A   1      38.231  31.124  36.561  1.00  0.00     0.009 A 
ATOM     86  C   UNL A   1      38.853  33.826  36.851  1.00  0.00     0.001 A 
ATOM     87  C   UNL A   1      37.634  31.871  37.576  1.00  0.00     0.001 A 
ATOM     88  C   UNL A   1      37.949  33.220  37.723  1.00  0.00     0.000 A 
ENDBRANCH  70  83
ENDBRANCH  44  45
ENDBRANCH  37  39
ENDBRANCH  36  37
ENDBRANCH  35  36
ENDBRANCH  34  35
ENDBRANCH  33  34
ENDBRANCH  32  33
ENDBRANCH   1  32
TORSDOF 22
ENDMDL
MODEL 2
REMARK VINA RESULT:     -10.5      3.809      9.185
REMARK SMILES Nc1nc(N2CCCCC2)nc2c1[C@H](C(=O)OCCOCCOCCOCCOC(=O)c1ccc(-c3c4nc(c(-c5ccccc5)c5ccc([nH]5)c(-c5ccccc5)c5nc(c(-c6ccccc6)c6ccc3[nH]6)C=C5)C=C4)cc1)CC(=O)N2
REMARK SMILES IDX 24 1 23 2 22 3 21 4 20 5 19 6 18 7 17 8 15 9 16 10 14 11
REMARK SMILES IDX 2 12 3 13 13 14 4 15 12 16 11 17 83 18 80 19 81 20 82 22
REMARK SMILES IDX 1 23 5 26 6 27 10 28 7 29 9 30 8 31 25 32 26 33 27 34 28 35
REMARK SMILES IDX 29 36 30 37 31 38 32 39 33 40 79 41 34 42 78 43 35 44 36 45
REMARK SMILES IDX 37 46 72 47 38 48 77 49 71 50 73 51 39 52 76 53 70 54 69 55
REMARK SMILES IDX 40 57 62 58 47 59 61 60 48 61 51 62 60 63 74 64 49 65 50 66
REMARK SMILES IDX 59 68 75 69 52 70 41 71 42 72 46 73 43 74 45 75 44 76 63 77
REMARK SMILES IDX 64 78 68 79 65 80 67 81 66 82 53 83 54 84 58 85 55 86 57 87
REMARK SMILES IDX 56 88
REMARK H PARENT 83 21 1 24 1 25 73 56 51 67
REMARK Flexibility Score: inf
ROOT
ATOM      1  C   UNL A   1      32.452  29.968  26.059  1.00  0.00     0.188 C 
ENDROOT
BRANCH   1   2
ATOM      2  O   UNL A   1      31.898  28.674  25.808  1.00  0.00    -0.377 OA
BRANCH   2   3
ATOM      3  C   UNL A   1      31.485  28.380  24.485  1.00  0.00     0.188 C 
BRANCH   3   4
ATOM      4  C   UNL A   1      30.692  27.062  24.344  1.00  0.00     0.188 C 
BRANCH   4   5
ATOM      5  O   UNL A   1      31.508  25.956  23.971  1.00  0.00    -0.376 OA
BRANCH   5   6
ATOM      6  C   UNL A   1      32.264  26.068  22.775  1.00  0.00     0.202 C 
BRANCH   6   7
ATOM      7  C   UNL A   1      33.738  25.635  22.834  1.00  0.00     0.261 C 
BRANCH   7   8
ATOM      8  O   UNL A   1      33.997  24.270  22.466  1.00  0.00    -0.463 OA
BRANCH   8   9
ATOM      9  C   UNL A   1      34.970  23.618  23.148  1.00  0.00     0.314 C 
ATOM     10  O   UNL A   1      36.015  23.218  22.658  1.00  0.00    -0.252 OA
BRANCH   9  11
ATOM     11  C   UNL A   1      34.567  23.472  24.614  1.00  0.00     0.146 C 
ATOM     12  C   UNL A   1      32.634  21.875  24.449  1.00  0.00     0.135 A 
ATOM     13  N   UNL A   1      32.188  20.628  24.345  1.00  0.00    -0.196 NA
ATOM     14  C   UNL A   1      33.943  22.135  24.768  1.00  0.00     0.052 A 
ATOM     15  C   UNL A   1      33.058  19.629  24.570  1.00  0.00     0.229 A 
ATOM     16  C   UNL A   1      34.751  21.052  25.031  1.00  0.00     0.144 A 
ATOM     17  N   UNL A   1      34.324  19.801  24.968  1.00  0.00    -0.195 NA
ATOM     18  N   UNL A   1      36.105  21.246  25.296  1.00  0.00    -0.310 N 
ATOM     19  C   UNL A   1      35.749  23.636  25.561  1.00  0.00     0.120 C 
ATOM     20  C   UNL A   1      36.694  22.465  25.468  1.00  0.00     0.226 C 
ATOM     21  H   UNL A   1      36.677  20.448  25.363  1.00  0.00     0.171 HD
ATOM     22  O   UNL A   1      37.903  22.591  25.641  1.00  0.00    -0.275 OA
BRANCH  12  23
ATOM     23  N   UNL A   1      31.709  22.881  24.244  1.00  0.00    -0.383 N 
ATOM     24  H   UNL A   1      31.858  23.773  24.632  1.00  0.00     0.158 HD
ATOM     25  H   UNL A   1      30.902  22.704  23.709  1.00  0.00     0.158 HD
ENDBRANCH  12  23
BRANCH  15  26
ATOM     26  N   UNL A   1      32.675  18.348  24.295  1.00  0.00    -0.341 N 
ATOM     27  C   UNL A   1      32.231  17.498  25.379  1.00  0.00     0.119 C 
ATOM     28  C   UNL A   1      33.151  17.766  23.060  1.00  0.00     0.119 C 
ATOM     29  C   UNL A   1      33.282  16.442  25.695  1.00  0.00     0.022 C 
ATOM     30  C   UNL A   1      34.232  16.733  23.380  1.00  0.00     0.022 C 
ATOM     31  C   UNL A   1      33.736  15.728  24.421  1.00  0.00     0.004 C 
ENDBRANCH  15  26
ENDBRANCH   9  11
ENDBRANCH   8   9
ENDBRANCH   7   8
ENDBRANCH   6   7
ENDBRANCH   5   6
ENDBRANCH   4   5
ENDBRANCH   3   4
ENDBRANCH   2   3
ENDBRANCH   1   2
BRANCH   1  32
ATOM     32  C   UNL A   1      33.152  30.319  27.397  1.00  0.00     0.188 C 
BRANCH  32  33
ATOM     33  O   UNL A   1      34.055  31.412  27.331  1.00  0.00    -0.376 OA
BRANCH  33  34
ATOM     34  C   UNL A   1      33.683  32.645  27.922  1.00  0.00     0.202 C 
BRANCH  34  35
ATOM     35  C   UNL A   1      34.383  33.011  29.236  1.00  0.00     0.261 C 
BRANCH  35  36
ATOM     36  O   UNL A   1      35.728  32.532  29.382  1.00  0.00    -0.460 OA
BRANCH  36  37
ATOM     37  C   UNL A   1      36.000  31.727  30.433  1.00  0.00     0.338 C 
ATOM     38  O   UNL A   1      35.321  31.555  31.429  1.00  0.00    -0.246 OA
BRANCH  37  39
ATOM     39  C   UNL A   1      37.177  30.918  30.062  1.00  0.00     0.060 A 
ATOM     40  C   UNL A   1      37.949  30.327  31.072  1.00  0.00     0.016 A 
ATOM     41  C   UNL A   1      37.484  30.706  28.717  1.00  0.00     0.016 A 
ATOM     42  C   UNL A   1      39.048  29.539  30.737  1.00  0.00     0.010 A 
ATOM     43  C   UNL A   1      38.603  29.943  28.382  1.00  0.00     0.010 A 
ATOM     44  C   UNL A   1      39.405  29.384  29.391  1.00  0.00    -0.014 A 
BRANCH  44  45
ATOM     45  C   UNL A   1      40.735  28.836  29.051  1.00  0.00     0.031 A 
ATOM     46  C   UNL A   1      41.921  29.752  29.154  1.00  0.00     0.074 A 
ATOM     47  C   UNL A   1      40.896  27.552  28.692  1.00  0.00     0.049 A 
ATOM     48  N   UNL A   1      43.181  29.509  28.910  1.00  0.00    -0.248 NA
ATOM     49  C   UNL A   1      41.643  31.129  29.596  1.00  0.00     0.031 C 
ATOM     50  C   UNL A   1      39.835  26.552  28.618  1.00  0.00     0.029 A 
ATOM     51  N   UNL A   1      42.033  26.872  28.329  1.00  0.00    -0.354 N 
ATOM     52  C   UNL A   1      43.847  30.698  29.177  1.00  0.00     0.074 A 
ATOM     53  C   UNL A   1      42.849  31.672  29.557  1.00  0.00     0.031 C 
ATOM     54  C   UNL A   1      40.372  25.378  28.242  1.00  0.00     0.029 A 
ATOM     55  C   UNL A   1      41.807  25.555  28.018  1.00  0.00     0.049 A 
ATOM     56  H   UNL A   1      42.923  27.289  28.296  1.00  0.00     0.167 HD
ATOM     57  C   UNL A   1      45.174  30.954  29.125  1.00  0.00     0.031 A 
ATOM     58  C   UNL A   1      42.662  24.604  27.593  1.00  0.00     0.031 A 
ATOM     59  C   UNL A   1      46.161  29.996  28.710  1.00  0.00     0.049 A 
ATOM     60  C   UNL A   1      44.120  24.942  27.420  1.00  0.00     0.074 A 
ATOM     61  C   UNL A   1      47.530  30.161  28.605  1.00  0.00     0.029 A 
ATOM     62  N   UNL A   1      45.881  28.695  28.319  1.00  0.00    -0.354 N 
ATOM     63  N   UNL A   1      44.742  26.067  27.680  1.00  0.00    -0.248 NA
ATOM     64  C   UNL A   1      44.992  23.879  26.899  1.00  0.00     0.031 C 
ATOM     65  C   UNL A   1      48.071  28.979  28.089  1.00  0.00     0.029 A 
ATOM     66  C   UNL A   1      47.048  28.055  27.942  1.00  0.00     0.049 A 
ATOM     67  H   UNL A   1      44.984  28.288  28.311  1.00  0.00     0.167 HD
ATOM     68  C   UNL A   1      46.081  25.840  27.382  1.00  0.00     0.074 A 
ATOM     69  C   UNL A   1      46.181  24.468  26.927  1.00  0.00     0.031 C 
ATOM     70  C   UNL A   1      47.132  26.691  27.484  1.00  0.00     0.031 A 
BRANCH  57  71
ATOM     71  C   UNL A   1      45.619  32.340  29.497  1.00  0.00    -0.014 A 
ATOM     72  C   UNL A   1      45.949  32.667  30.822  1.00  0.00     0.009 A 
ATOM     73  C   UNL A   1      45.718  33.331  28.508  1.00  0.00     0.009 A 
ATOM     74  C   UNL A   1      46.329  33.969  31.156  1.00  0.00     0.001 A 
ATOM     75  C   UNL A   1      46.131  34.623  28.839  1.00  0.00     0.001 A 
ATOM     76  C   UNL A   1      46.425  34.943  30.163  1.00  0.00     0.000 A 
ENDBRANCH  57  71
BRANCH  58  77
ATOM     77  C   UNL A   1      42.156  23.233  27.325  1.00  0.00    -0.014 A 
ATOM     78  C   UNL A   1      41.697  22.428  28.378  1.00  0.00     0.009 A 
ATOM     79  C   UNL A   1      42.085  22.739  26.012  1.00  0.00     0.009 A 
ATOM     80  C   UNL A   1      41.178  21.157  28.123  1.00  0.00     0.001 A 
ATOM     81  C   UNL A   1      41.543  21.477  25.757  1.00  0.00     0.001 A 
ATOM     82  C   UNL A   1      41.091  20.686  26.813  1.00  0.00     0.000 A 
ENDBRANCH  58  77
BRANCH  70  83
ATOM     83  C   UNL A   1      48.497  26.171  27.123  1.00  0.00    -0.014 A 
ATOM     84  C   UNL A   1      49.055  26.408  25.857  1.00  0.00     0.009 A 
ATOM     85  C   UNL A   1      49.273  25.523  28.097  1.00  0.00     0.009 A 
ATOM     86  C   UNL A   1      50.359  25.994  25.573  1.00  0.00     0.001 A 
ATOM     87  C   UNL A   1      50.585  25.137  27.819  1.00  0.00     0.001 A 
ATOM     88  C   UNL A   1      51.124  25.368  26.556  1.00  0.00     0.000 A 
ENDBRANCH  70  83
ENDBRANCH  44  45
ENDBRANCH  37  39
ENDBRANCH  36  37
ENDBRANCH  35  36
ENDBRANCH  34  35
ENDBRANCH  33  34
ENDBRANCH  32  33
ENDBRANCH   1  32
TORSDOF 22
ENDMDL
MODEL 3
REMARK VINA RESULT:     -10.5      1.531      6.461
REMARK SMILES Nc1nc(N2CCCCC2)nc2c1[C@H](C(=O)OCCOCCOCCOCCOC(=O)c1ccc(-c3c4nc(c(-c5ccccc5)c5ccc([nH]5)c(-c5ccccc5)c5nc(c(-c6ccccc6)c6ccc3[nH]6)C=C5)C=C4)cc1)CC(=O)N2
REMARK SMILES IDX 24 1 23 2 22 3 21 4 20 5 19 6 18 7 17 8 15 9 16 10 14 11
REMARK SMILES IDX 2 12 3 13 13 14 4 15 12 16 11 17 83 18 80 19 81 20 82 22
REMARK SMILES IDX 1 23 5 26 6 27 10 28 7 29 9 30 8 31 25 32 26 33 27 34 28 35
REMARK SMILES IDX 29 36 30 37 31 38 32 39 33 40 79 41 34 42 78 43 35 44 36 45
REMARK SMILES IDX 37 46 72 47 38 48 77 49 71 50 73 51 39 52 76 53 70 54 69 55
REMARK SMILES IDX 40 57 62 58 47 59 61 60 48 61 51 62 60 63 74 64 49 65 50 66
REMARK SMILES IDX 59 68 75 69 52 70 41 71 42 72 46 73 43 74 45 75 44 76 63 77
REMARK SMILES IDX 64 78 68 79 65 80 67 81 66 82 53 83 54 84 58 85 55 86 57 87
REMARK SMILES IDX 56 88
REMARK H PARENT 83 21 1 24 1 25 73 56 51 67
REMARK Flexibility Score: inf
ROOT
ATOM      1  C   UNL A   1      42.116  19.703  26.380  1.00  0.00     0.188 C 
ENDROOT
BRANCH   1   2
ATOM      2  O   UNL A   1      41.480  20.950  26.091  1.00  0.00    -0.377 OA
BRANCH   2   3
ATOM      3  C   UNL A   1      40.269  21.244  26.765  1.00  0.00     0.188 C 
BRANCH   3   4
ATOM      4  C   UNL A   1      39.004  21.097  25.892  1.00  0.00     0.188 C 
BRANCH   4   5
ATOM      5  O   UNL A   1      38.269  22.310  25.763  1.00  0.00    -0.376 OA
BRANCH   5   6
ATOM      6  C   UNL A   1      36.881  22.214  25.481  1.00  0.00     0.202 C 
BRANCH   6   7
ATOM      7  C   UNL A   1      36.362  20.864  24.959  1.00  0.00     0.261 C 
BRANCH   7   8
ATOM      8  O   UNL A   1      34.939  20.679  25.032  1.00  0.00    -0.463 OA
BRANCH   8   9
ATOM      9  C   UNL A   1      34.464  19.428  24.809  1.00  0.00     0.314 C 
ATOM     10  O   UNL A   1      35.149  18.471  24.482  1.00  0.00    -0.252 OA
BRANCH   9  11
ATOM     11  C   UNL A   1      32.955  19.400  25.039  1.00  0.00     0.146 C 
ATOM     12  C   UNL A   1      32.465  21.823  25.488  1.00  0.00     0.135 A 
ATOM     13  N   UNL A   1      32.233  23.046  25.026  1.00  0.00    -0.196 NA
ATOM     14  C   UNL A   1      32.425  20.732  24.656  1.00  0.00     0.052 A 
ATOM     15  C   UNL A   1      31.949  23.180  23.719  1.00  0.00     0.229 A 
ATOM     16  C   UNL A   1      32.077  20.956  23.344  1.00  0.00     0.144 A 
ATOM     17  N   UNL A   1      31.808  22.160  22.866  1.00  0.00    -0.195 NA
ATOM     18  N   UNL A   1      32.083  19.900  22.436  1.00  0.00    -0.310 N 
ATOM     19  C   UNL A   1      32.268  18.292  24.249  1.00  0.00     0.120 C 
ATOM     20  C   UNL A   1      32.268  18.590  22.772  1.00  0.00     0.226 C 
ATOM     21  H   UNL A   1      31.944  20.114  21.485  1.00  0.00     0.171 HD
ATOM     22  O   UNL A   1      32.324  17.699  21.930  1.00  0.00    -0.275 OA
BRANCH  12  23
ATOM     23  N   UNL A   1      32.723  21.712  26.841  1.00  0.00    -0.383 N 
ATOM     24  H   UNL A   1      33.649  21.618  27.160  1.00  0.00     0.158 HD
ATOM     25  H   UNL A   1      31.979  21.728  27.486  1.00  0.00     0.158 HD
ENDBRANCH  12  23
BRANCH  15  26
ATOM     26  N   UNL A   1      31.884  24.435  23.185  1.00  0.00    -0.341 N 
ATOM     27  C   UNL A   1      33.112  25.131  22.870  1.00  0.00     0.119 C 
ATOM     28  C   UNL A   1      30.656  25.173  23.380  1.00  0.00     0.119 C 
ATOM     29  C   UNL A   1      33.358  26.257  23.866  1.00  0.00     0.022 C 
ATOM     30  C   UNL A   1      30.898  26.279  24.408  1.00  0.00     0.022 C 
ATOM     31  C   UNL A   1      32.111  27.127  24.021  1.00  0.00     0.004 C 
ENDBRANCH  15  26
ENDBRANCH   9  11
ENDBRANCH   8   9
ENDBRANCH   7   8
ENDBRANCH   6   7
ENDBRANCH   5   6
ENDBRANCH   4   5
ENDBRANCH   3   4
ENDBRANCH   2   3
ENDBRANCH   1   2
BRANCH   1  32
ATOM     32  C   UNL A   1      43.472  19.302  25.744  1.00  0.00     0.188 C 
BRANCH  32  33
ATOM     33  O   UNL A   1      43.807  20.005  24.557  1.00  0.00    -0.376 OA
BRANCH  33  34
ATOM     34  C   UNL A   1      44.994  20.778  24.532  1.00  0.00     0.202 C 
BRANCH  34  35
ATOM     35  C   UNL A   1      45.254  21.671  25.751  1.00  0.00     0.261 C 
BRANCH  35  36
ATOM     36  O   UNL A   1      44.212  22.603  26.076  1.00  0.00    -0.460 OA
BRANCH  36  37
ATOM     37  C   UNL A   1      44.305  23.853  25.573  1.00  0.00     0.338 C 
ATOM     38  O   UNL A   1      44.702  24.180  24.469  1.00  0.00    -0.246 OA
BRANCH  37  39
ATOM     39  C   UNL A   1      43.632  24.753  26.529  1.00  0.00     0.060 A 
ATOM     40  C   UNL A   1      43.996  26.106  26.571  1.00  0.00     0.016 A 
ATOM     41  C   UNL A   1      42.610  24.267  27.347  1.00  0.00     0.016 A 
ATOM     42  C   UNL A   1      43.350  26.974  27.450  1.00  0.00     0.010 A 
ATOM     43  C   UNL A   1      41.986  25.128  28.249  1.00  0.00     0.010 A 
ATOM     44  C   UNL A   1      42.377  26.475  28.325  1.00  0.00    -0.014 A 
BRANCH  44  45
ATOM     45  C   UNL A   1      41.934  27.305  29.466  1.00  0.00     0.031 A 
ATOM     46  C   UNL A   1      40.659  28.085  29.315  1.00  0.00     0.074 A 
ATOM     47  C   UNL A   1      42.622  27.341  30.619  1.00  0.00     0.049 A 
ATOM     48  N   UNL A   1      40.068  28.880  30.166  1.00  0.00    -0.248 NA
ATOM     49  C   UNL A   1      39.958  27.945  28.028  1.00  0.00     0.031 C 
ATOM     50  C   UNL A   1      43.834  26.580  30.908  1.00  0.00     0.029 A 
ATOM     51  N   UNL A   1      42.382  28.052  31.769  1.00  0.00    -0.354 N 
ATOM     52  C   UNL A   1      38.921  29.327  29.523  1.00  0.00     0.074 A 
ATOM     53  C   UNL A   1      38.924  28.753  28.196  1.00  0.00     0.031 C 
ATOM     54  C   UNL A   1      44.229  26.856  32.163  1.00  0.00     0.029 A 
ATOM     55  C   UNL A   1      43.317  27.838  32.750  1.00  0.00     0.049 A 
ATOM     56  H   UNL A   1      41.614  28.656  31.878  1.00  0.00     0.167 HD
ATOM     57  C   UNL A   1      37.945  30.134  29.997  1.00  0.00     0.031 A 
ATOM     58  C   UNL A   1      43.426  28.380  33.979  1.00  0.00     0.031 A 
ATOM     59  C   UNL A   1      37.963  30.736  31.301  1.00  0.00     0.049 A 
ATOM     60  C   UNL A   1      42.395  29.374  34.444  1.00  0.00     0.074 A 
ATOM     61  C   UNL A   1      37.031  31.583  31.872  1.00  0.00     0.029 A 
ATOM     62  N   UNL A   1      38.974  30.562  32.235  1.00  0.00    -0.354 N 
ATOM     63  N   UNL A   1      41.312  29.787  33.831  1.00  0.00    -0.248 NA
ATOM     64  C   UNL A   1      42.600  29.973  35.772  1.00  0.00     0.031 C 
ATOM     65  C   UNL A   1      37.509  31.972  33.127  1.00  0.00     0.029 A 
ATOM     66  C   UNL A   1      38.704  31.311  33.367  1.00  0.00     0.049 A 
ATOM     67  H   UNL A   1      39.766  29.990  32.111  1.00  0.00     0.167 HD
ATOM     68  C   UNL A   1      40.691  30.672  34.707  1.00  0.00     0.074 A 
ATOM     69  C   UNL A   1      41.517  30.730  35.896  1.00  0.00     0.031 C 
ATOM     70  C   UNL A   1      39.538  31.365  34.541  1.00  0.00     0.031 A 
BRANCH  57  71
ATOM     71  C   UNL A   1      36.796  30.433  29.075  1.00  0.00    -0.014 A 
ATOM     72  C   UNL A   1      35.907  29.423  28.671  1.00  0.00     0.009 A 
ATOM     73  C   UNL A   1      36.595  31.741  28.611  1.00  0.00     0.009 A 
ATOM     74  C   UNL A   1      34.863  29.712  27.789  1.00  0.00     0.001 A 
ATOM     75  C   UNL A   1      35.530  32.033  27.756  1.00  0.00     0.001 A 
ATOM     76  C   UNL A   1      34.673  31.017  27.337  1.00  0.00     0.000 A 
ENDBRANCH  57  71
BRANCH  58  77
ATOM     77  C   UNL A   1      44.548  27.969  34.861  1.00  0.00    -0.014 A 
ATOM     78  C   UNL A   1      44.396  26.894  35.749  1.00  0.00     0.009 A 
ATOM     79  C   UNL A   1      45.792  28.619  34.790  1.00  0.00     0.009 A 
ATOM     80  C   UNL A   1      45.464  26.477  36.547  1.00  0.00     0.001 A 
ATOM     81  C   UNL A   1      46.866  28.184  35.570  1.00  0.00     0.001 A 
ATOM     82  C   UNL A   1      46.701  27.114  36.449  1.00  0.00     0.000 A 
ENDBRANCH  58  77
BRANCH  70  83
ATOM     83  C   UNL A   1      39.071  32.237  35.674  1.00  0.00    -0.014 A 
ATOM     84  C   UNL A   1      38.374  31.701  36.767  1.00  0.00     0.009 A 
ATOM     85  C   UNL A   1      39.424  33.597  35.694  1.00  0.00     0.009 A 
ATOM     86  C   UNL A   1      38.027  32.513  37.850  1.00  0.00     0.001 A 
ATOM     87  C   UNL A   1      39.102  34.398  36.790  1.00  0.00     0.001 A 
ATOM     88  C   UNL A   1      38.400  33.857  37.865  1.00  0.00     0.000 A 
ENDBRANCH  70  83
ENDBRANCH  44  45
ENDBRANCH  37  39
ENDBRANCH  36  37
ENDBRANCH  35  36
ENDBRANCH  34  35
ENDBRANCH  33  34
ENDBRANCH  32  33
ENDBRANCH   1  32
TORSDOF 22
ENDMDL
