MODEL 1
REMARK VINA RESULT:      -9.3      0.000      0.000
REMARK SMILES CC(C)COC(=O)N[C@H](Cc1c[nH]c2ccccc12)C(=O)OCCOCCOCCOCCOC(=O)c1ccc(-c2c3nc(c(-c4ccccc4)c4ccc([nH]4)c(-c4ccccc4)c4nc(c(-c5ccccc5)c5ccc2[nH]5)C=C4)C=C3)cc1
REMARK SMILES IDX 27 1 26 2 25 3 24 4 23 5 22 6 20 7 21 8 9 9 8 10 6 11 7 12
REMARK SMILES IDX 5 14 4 15 2 16 1 17 3 18 10 19 11 20 12 21 19 22 13 23 14 24
REMARK SMILES IDX 18 25 15 27 17 28 16 29 28 30 29 31 30 32 31 33 32 34 33 35
REMARK SMILES IDX 34 36 35 37 36 38 37 39 38 40 84 41 39 42 83 43 40 44 41 45
REMARK SMILES IDX 42 46 77 47 43 48 82 49 76 50 78 51 44 52 81 53 75 54 74 55
REMARK SMILES IDX 45 57 67 58 52 59 66 60 53 61 56 62 65 63 79 64 54 65 55 66
REMARK SMILES IDX 64 68 80 69 57 70 46 71 47 72 51 73 48 74 50 75 49 76 68 77
REMARK SMILES IDX 69 78 73 79 70 80 72 81 71 82 58 83 59 84 63 85 60 86 62 87
REMARK SMILES IDX 61 88
REMARK H PARENT 8 13 13 26 78 56 56 67
REMARK Flexibility Score: inf
ROOT
ATOM      1  C   UNL A   1      40.015  19.971  25.638  1.00  0.00     0.188 C 
ENDROOT
BRANCH   1   2
ATOM      2  C   UNL A   1      40.026  21.325  26.354  1.00  0.00     0.188 C 
BRANCH   2   3
ATOM      3  O   UNL A   1      38.951  22.197  26.022  1.00  0.00    -0.376 OA
BRANCH   3   4
ATOM      4  C   UNL A   1      37.759  21.551  25.583  1.00  0.00     0.202 C 
BRANCH   4   5
ATOM      5  C   UNL A   1      36.988  22.272  24.466  1.00  0.00     0.261 C 
BRANCH   5   6
ATOM      6  O   UNL A   1      36.526  23.599  24.763  1.00  0.00    -0.462 OA
BRANCH   6   7
ATOM      7  C   UNL A   1      35.342  23.954  24.236  1.00  0.00     0.329 C 
ATOM      8  O   UNL A   1      35.094  23.876  23.033  1.00  0.00    -0.250 OA
BRANCH   7   9
ATOM      9  C   UNL A   1      34.337  24.558  25.230  1.00  0.00     0.200 C 
BRANCH   9  10
ATOM     10  N   UNL A   1      34.392  23.622  26.353  1.00  0.00    -0.308 N 
ATOM     11  C   UNL A   1      33.735  22.435  26.367  1.00  0.00     0.407 C 
ATOM     12  O   UNL A   1      33.402  21.902  27.421  1.00  0.00    -0.225 OA
ATOM     13  H   UNL A   1      34.932  23.867  27.139  1.00  0.00     0.168 HD
BRANCH  11  14
ATOM     14  O   UNL A   1      33.577  21.913  25.127  1.00  0.00    -0.449 OA
BRANCH  14  15
ATOM     15  C   UNL A   1      33.757  20.497  25.005  1.00  0.00     0.238 C 
BRANCH  15  16
ATOM     16  C   UNL A   1      32.478  19.815  24.490  1.00  0.00     0.021 C 
ATOM     17  C   UNL A   1      32.217  20.070  23.004  1.00  0.00     0.011 C 
ATOM     18  C   UNL A   1      32.551  18.312  24.751  1.00  0.00     0.011 C 
ENDBRANCH  15  16
ENDBRANCH  14  15
ENDBRANCH  11  14
ENDBRANCH   9  10
BRANCH   9  19
ATOM     19  C   UNL A   1      32.911  25.019  24.900  1.00  0.00     0.075 C 
BRANCH  19  20
ATOM     20  C   UNL A   1      32.540  26.459  25.032  1.00  0.00    -0.020 A 
ATOM     21  C   UNL A   1      33.204  27.367  25.836  1.00  0.00     0.087 A 
ATOM     22  C   UNL A   1      31.452  27.169  24.441  1.00  0.00     0.003 A 
ATOM     23  N   UNL A   1      32.693  28.611  25.604  1.00  0.00    -0.361 N 
ATOM     24  C   UNL A   1      31.611  28.519  24.764  1.00  0.00     0.046 A 
ATOM     25  C   UNL A   1      30.349  26.801  23.647  1.00  0.00     0.010 A 
ATOM     26  H   UNL A   1      33.047  29.448  25.983  1.00  0.00     0.166 HD
ATOM     27  C   UNL A   1      30.768  29.523  24.279  1.00  0.00     0.026 A 
ATOM     28  C   UNL A   1      29.488  27.791  23.162  1.00  0.00     0.001 A 
ATOM     29  C   UNL A   1      29.708  29.134  23.459  1.00  0.00     0.002 A 
ENDBRANCH  19  20
ENDBRANCH   9  19
ENDBRANCH   7   9
ENDBRANCH   6   7
ENDBRANCH   5   6
ENDBRANCH   4   5
ENDBRANCH   3   4
ENDBRANCH   2   3
ENDBRANCH   1   2
BRANCH   1  30
ATOM     30  O   UNL A   1      41.049  19.042  25.912  1.00  0.00    -0.377 OA
BRANCH  30  31
ATOM     31  C   UNL A   1      42.317  19.503  26.344  1.00  0.00     0.188 C 
BRANCH  31  32
ATOM     32  C   UNL A   1      43.551  18.935  25.636  1.00  0.00     0.188 C 
BRANCH  32  33
ATOM     33  O   UNL A   1      43.831  19.554  24.388  1.00  0.00    -0.376 OA
BRANCH  33  34
ATOM     34  C   UNL A   1      44.801  20.595  24.393  1.00  0.00     0.202 C 
BRANCH  34  35
ATOM     35  C   UNL A   1      44.890  21.462  25.658  1.00  0.00     0.261 C 
BRANCH  35  36
ATOM     36  O   UNL A   1      44.913  22.888  25.472  1.00  0.00    -0.460 OA
BRANCH  36  37
ATOM     37  C   UNL A   1      43.749  23.520  25.223  1.00  0.00     0.338 C 
ATOM     38  O   UNL A   1      43.015  23.385  24.260  1.00  0.00    -0.246 OA
BRANCH  37  39
ATOM     39  C   UNL A   1      43.451  24.375  26.387  1.00  0.00     0.060 A 
ATOM     40  C   UNL A   1      42.548  23.936  27.364  1.00  0.00     0.016 A 
ATOM     41  C   UNL A   1      44.055  25.629  26.493  1.00  0.00     0.016 A 
ATOM     42  C   UNL A   1      42.225  24.768  28.441  1.00  0.00     0.010 A 
ATOM     43  C   UNL A   1      43.723  26.463  27.564  1.00  0.00     0.010 A 
ATOM     44  C   UNL A   1      42.782  26.051  28.526  1.00  0.00    -0.014 A 
BRANCH  44  45
ATOM     45  C   UNL A   1      42.269  27.042  29.506  1.00  0.00     0.031 A 
ATOM     46  C   UNL A   1      42.965  27.167  30.835  1.00  0.00     0.074 A 
ATOM     47  C   UNL A   1      41.188  27.799  29.245  1.00  0.00     0.049 A 
ATOM     48  N   UNL A   1      42.635  27.877  31.882  1.00  0.00    -0.248 NA
ATOM     49  C   UNL A   1      44.199  26.383  31.000  1.00  0.00     0.031 C 
ATOM     50  C   UNL A   1      40.455  27.829  27.984  1.00  0.00     0.029 A 
ATOM     51  N   UNL A   1      40.506  28.677  30.053  1.00  0.00    -0.354 N 
ATOM     52  C   UNL A   1      43.617  27.624  32.832  1.00  0.00     0.074 A 
ATOM     53  C   UNL A   1      44.536  26.670  32.248  1.00  0.00     0.031 C 
ATOM     54  C   UNL A   1      39.399  28.653  28.112  1.00  0.00     0.029 A 
ATOM     55  C   UNL A   1      39.370  29.188  29.472  1.00  0.00     0.049 A 
ATOM     56  H   UNL A   1      40.802  28.916  30.961  1.00  0.00     0.167 HD
ATOM     57  C   UNL A   1      43.748  28.140  34.076  1.00  0.00     0.031 A 
ATOM     58  C   UNL A   1      38.405  29.975  29.988  1.00  0.00     0.031 A 
ATOM     59  C   UNL A   1      42.827  29.071  34.671  1.00  0.00     0.049 A 
ATOM     60  C   UNL A   1      38.512  30.452  31.414  1.00  0.00     0.074 A 
ATOM     61  C   UNL A   1      42.886  29.662  35.921  1.00  0.00     0.029 A 
ATOM     62  N   UNL A   1      41.673  29.535  34.061  1.00  0.00    -0.354 N 
ATOM     63  N   UNL A   1      39.461  30.230  32.291  1.00  0.00    -0.248 NA
ATOM     64  C   UNL A   1      37.417  31.296  31.917  1.00  0.00     0.031 C 
ATOM     65  C   UNL A   1      41.736  30.438  36.091  1.00  0.00     0.029 A 
ATOM     66  C   UNL A   1      40.993  30.381  34.922  1.00  0.00     0.049 A 
ATOM     67  H   UNL A   1      41.380  29.300  33.152  1.00  0.00     0.167 HD
ATOM     68  C   UNL A   1      39.098  30.939  33.431  1.00  0.00     0.074 A 
ATOM     69  C   UNL A   1      37.844  31.599  33.135  1.00  0.00     0.031 C 
ATOM     70  C   UNL A   1      39.751  31.039  34.615  1.00  0.00     0.031 A 
BRANCH  57  71
ATOM     71  C   UNL A   1      44.920  27.677  34.896  1.00  0.00    -0.014 A 
ATOM     72  C   UNL A   1      46.082  28.456  35.014  1.00  0.00     0.009 A 
ATOM     73  C   UNL A   1      44.848  26.456  35.585  1.00  0.00     0.009 A 
ATOM     74  C   UNL A   1      47.159  28.007  35.778  1.00  0.00     0.001 A 
ATOM     75  C   UNL A   1      45.916  26.022  36.372  1.00  0.00     0.001 A 
ATOM     76  C   UNL A   1      47.074  26.792  36.460  1.00  0.00     0.000 A 
ENDBRANCH  57  71
BRANCH  58  77
ATOM     77  C   UNL A   1      37.229  30.351  29.159  1.00  0.00    -0.014 A 
ATOM     78  C   UNL A   1      36.240  29.405  28.847  1.00  0.00     0.009 A 
ATOM     79  C   UNL A   1      37.103  31.655  28.652  1.00  0.00     0.009 A 
ATOM     80  C   UNL A   1      35.165  29.750  28.024  1.00  0.00     0.001 A 
ATOM     81  C   UNL A   1      36.012  32.003  27.853  1.00  0.00     0.001 A 
ATOM     82  C   UNL A   1      35.050  31.048  27.532  1.00  0.00     0.000 A 
ENDBRANCH  58  77
BRANCH  70  83
ATOM     83  C   UNL A   1      39.156  31.932  35.669  1.00  0.00    -0.014 A 
ATOM     84  C   UNL A   1      38.245  31.444  36.618  1.00  0.00     0.009 A 
ATOM     85  C   UNL A   1      39.568  33.273  35.751  1.00  0.00     0.009 A 
ATOM     86  C   UNL A   1      37.741  32.286  37.611  1.00  0.00     0.001 A 
ATOM     87  C   UNL A   1      39.085  34.104  36.761  1.00  0.00     0.001 A 
ATOM     88  C   UNL A   1      38.165  33.612  37.687  1.00  0.00     0.000 A 
ENDBRANCH  70  83
ENDBRANCH  44  45
ENDBRANCH  37  39
ENDBRANCH  36  37
ENDBRANCH  35  36
ENDBRANCH  34  35
ENDBRANCH  33  34
ENDBRANCH  32  33
ENDBRANCH  31  32
ENDBRANCH  30  31
ENDBRANCH   1  30
TORSDOF 26
ENDMDL
MODEL 2
REMARK VINA RESULT:      -9.1      1.586      5.973
REMARK SMILES CC(C)COC(=O)N[C@H](Cc1c[nH]c2ccccc12)C(=O)OCCOCCOCCOCCOC(=O)c1ccc(-c2c3nc(c(-c4ccccc4)c4ccc([nH]4)c(-c4ccccc4)c4nc(c(-c5ccccc5)c5ccc2[nH]5)C=C4)C=C3)cc1
REMARK SMILES IDX 27 1 26 2 25 3 24 4 23 5 22 6 20 7 21 8 9 9 8 10 6 11 7 12
REMARK SMILES IDX 5 14 4 15 2 16 1 17 3 18 10 19 11 20 12 21 19 22 13 23 14 24
REMARK SMILES IDX 18 25 15 27 17 28 16 29 28 30 29 31 30 32 31 33 32 34 33 35
REMARK SMILES IDX 34 36 35 37 36 38 37 39 38 40 84 41 39 42 83 43 40 44 41 45
REMARK SMILES IDX 42 46 77 47 43 48 82 49 76 50 78 51 44 52 81 53 75 54 74 55
REMARK SMILES IDX 45 57 67 58 52 59 66 60 53 61 56 62 65 63 79 64 54 65 55 66
REMARK SMILES IDX 64 68 80 69 57 70 46 71 47 72 51 73 48 74 50 75 49 76 68 77
REMARK SMILES IDX 69 78 73 79 70 80 72 81 71 82 58 83 59 84 63 85 60 86 62 87
REMARK SMILES IDX 61 88
REMARK H PARENT 8 13 13 26 78 56 56 67
REMARK Flexibility Score: inf
ROOT
ATOM      1  C   UNL A   1      41.668  21.536  26.950  1.00  0.00     0.188 C 
ENDROOT
BRANCH   1   2
ATOM      2  C   UNL A   1      40.136  21.563  26.913  1.00  0.00     0.188 C 
BRANCH   2   3
ATOM      3  O   UNL A   1      39.563  21.728  25.621  1.00  0.00    -0.376 OA
BRANCH   3   4
ATOM      4  C   UNL A   1      38.403  20.941  25.367  1.00  0.00     0.202 C 
BRANCH   4   5
ATOM      5  C   UNL A   1      37.059  21.670  25.531  1.00  0.00     0.261 C 
BRANCH   5   6
ATOM      6  O   UNL A   1      36.891  22.878  24.772  1.00  0.00    -0.462 OA
BRANCH   6   7
ATOM      7  C   UNL A   1      35.717  23.029  24.137  1.00  0.00     0.329 C 
ATOM      8  O   UNL A   1      35.628  23.438  22.979  1.00  0.00    -0.250 OA
BRANCH   7   9
ATOM      9  C   UNL A   1      34.470  22.744  24.989  1.00  0.00     0.200 C 
BRANCH   9  10
ATOM     10  N   UNL A   1      33.390  22.779  24.004  1.00  0.00    -0.308 N 
ATOM     11  C   UNL A   1      32.668  21.685  23.651  1.00  0.00     0.407 C 
ATOM     12  O   UNL A   1      32.128  21.605  22.552  1.00  0.00    -0.225 OA
ATOM     13  H   UNL A   1      33.176  23.639  23.575  1.00  0.00     0.168 HD
BRANCH  11  14
ATOM     14  O   UNL A   1      32.570  20.780  24.653  1.00  0.00    -0.449 OA
BRANCH  14  15
ATOM     15  C   UNL A   1      33.353  19.588  24.512  1.00  0.00     0.238 C 
BRANCH  15  16
ATOM     16  C   UNL A   1      32.471  18.382  24.147  1.00  0.00     0.021 C 
ATOM     17  C   UNL A   1      32.839  17.754  22.801  1.00  0.00     0.011 C 
ATOM     18  C   UNL A   1      32.553  17.328  25.248  1.00  0.00     0.011 C 
ENDBRANCH  15  16
ENDBRANCH  14  15
ENDBRANCH  11  14
ENDBRANCH   9  10
BRANCH   9  19
ATOM     19  C   UNL A   1      34.103  23.439  26.309  1.00  0.00     0.075 C 
BRANCH  19  20
ATOM     20  C   UNL A   1      32.978  24.419  26.351  1.00  0.00    -0.020 A 
ATOM     21  C   UNL A   1      31.666  24.091  26.641  1.00  0.00     0.087 A 
ATOM     22  C   UNL A   1      32.987  25.817  26.064  1.00  0.00     0.003 A 
ATOM     23  N   UNL A   1      30.939  25.243  26.733  1.00  0.00    -0.361 N 
ATOM     24  C   UNL A   1      31.719  26.314  26.373  1.00  0.00     0.046 A 
ATOM     25  C   UNL A   1      33.956  26.719  25.584  1.00  0.00     0.010 A 
ATOM     26  H   UNL A   1      29.997  25.297  27.016  1.00  0.00     0.166 HD
ATOM     27  C   UNL A   1      31.392  27.671  26.294  1.00  0.00     0.026 A 
ATOM     28  C   UNL A   1      33.643  28.079  25.487  1.00  0.00     0.001 A 
ATOM     29  C   UNL A   1      32.385  28.548  25.855  1.00  0.00     0.002 A 
ENDBRANCH  19  20
ENDBRANCH   9  19
ENDBRANCH   7   9
ENDBRANCH   6   7
ENDBRANCH   5   6
ENDBRANCH   4   5
ENDBRANCH   3   4
ENDBRANCH   2   3
ENDBRANCH   1   2
BRANCH   1  30
ATOM     30  O   UNL A   1      42.374  21.091  25.806  1.00  0.00    -0.377 OA
BRANCH  30  31
ATOM     31  C   UNL A   1      43.546  21.771  25.390  1.00  0.00     0.188 C 
BRANCH  31  32
ATOM     32  C   UNL A   1      44.817  20.937  25.208  1.00  0.00     0.188 C 
BRANCH  32  33
ATOM     33  O   UNL A   1      46.018  21.673  25.395  1.00  0.00    -0.376 OA
BRANCH  33  34
ATOM     34  C   UNL A   1      45.890  22.976  25.952  1.00  0.00     0.202 C 
BRANCH  34  35
ATOM     35  C   UNL A   1      46.089  24.166  25.000  1.00  0.00     0.261 C 
BRANCH  35  36
ATOM     36  O   UNL A   1      45.049  25.160  24.970  1.00  0.00    -0.460 OA
BRANCH  36  37
ATOM     37  C   UNL A   1      45.394  26.451  25.141  1.00  0.00     0.338 C 
ATOM     38  O   UNL A   1      45.941  27.192  24.345  1.00  0.00    -0.246 OA
BRANCH  37  39
ATOM     39  C   UNL A   1      44.911  26.866  26.472  1.00  0.00     0.060 A 
ATOM     40  C   UNL A   1      44.119  25.995  27.231  1.00  0.00     0.016 A 
ATOM     41  C   UNL A   1      45.228  28.137  26.954  1.00  0.00     0.016 A 
ATOM     42  C   UNL A   1      43.617  26.408  28.469  1.00  0.00     0.010 A 
ATOM     43  C   UNL A   1      44.716  28.551  28.186  1.00  0.00     0.010 A 
ATOM     44  C   UNL A   1      43.881  27.702  28.937  1.00  0.00    -0.014 A 
BRANCH  44  45
ATOM     45  C   UNL A   1      43.159  28.251  30.112  1.00  0.00     0.031 A 
ATOM     46  C   UNL A   1      41.770  28.795  29.913  1.00  0.00     0.074 A 
ATOM     47  C   UNL A   1      43.727  28.302  31.330  1.00  0.00     0.049 A 
ATOM     48  N   UNL A   1      40.993  29.420  30.759  1.00  0.00    -0.248 NA
ATOM     49  C   UNL A   1      41.181  28.606  28.577  1.00  0.00     0.031 C 
ATOM     50  C   UNL A   1      45.036  27.760  31.682  1.00  0.00     0.029 A 
ATOM     51  N   UNL A   1      43.270  28.866  32.498  1.00  0.00    -0.354 N 
ATOM     52  C   UNL A   1      39.826  29.702  30.059  1.00  0.00     0.074 A 
ATOM     53  C   UNL A   1      40.010  29.209  28.710  1.00  0.00     0.031 C 
ATOM     54  C   UNL A   1      45.297  28.051  32.969  1.00  0.00     0.029 A 
ATOM     55  C   UNL A   1      44.184  28.821  33.523  1.00  0.00     0.049 A 
ATOM     56  H   UNL A   1      42.375  29.264  32.590  1.00  0.00     0.167 HD
ATOM     57  C   UNL A   1      38.699  30.311  30.497  1.00  0.00     0.031 A 
ATOM     58  C   UNL A   1      44.138  29.361  34.756  1.00  0.00     0.031 A 
ATOM     59  C   UNL A   1      38.518  30.823  31.829  1.00  0.00     0.049 A 
ATOM     60  C   UNL A   1      42.917  30.133  35.190  1.00  0.00     0.074 A 
ATOM     61  C   UNL A   1      37.404  31.442  32.369  1.00  0.00     0.029 A 
ATOM     62  N   UNL A   1      39.480  30.787  32.824  1.00  0.00    -0.354 N 
ATOM     63  N   UNL A   1      41.809  30.366  34.529  1.00  0.00    -0.248 NA
ATOM     64  C   UNL A   1      42.940  30.708  36.544  1.00  0.00     0.031 C 
ATOM     65  C   UNL A   1      37.713  31.834  33.675  1.00  0.00     0.029 A 
ATOM     66  C   UNL A   1      38.998  31.402  33.968  1.00  0.00     0.049 A 
ATOM     67  H   UNL A   1      40.373  30.384  32.733  1.00  0.00     0.167 HD
ATOM     68  C   UNL A   1      40.990  31.076  35.400  1.00  0.00     0.074 A 
ATOM     69  C   UNL A   1      41.726  31.235  36.636  1.00  0.00     0.031 C 
ATOM     70  C   UNL A   1      39.735  31.548  35.194  1.00  0.00     0.031 A 
BRANCH  57  71
ATOM     71  C   UNL A   1      37.581  30.490  29.508  1.00  0.00    -0.014 A 
ATOM     72  C   UNL A   1      36.712  29.435  29.191  1.00  0.00     0.009 A 
ATOM     73  C   UNL A   1      37.379  31.742  28.906  1.00  0.00     0.009 A 
ATOM     74  C   UNL A   1      35.682  29.622  28.268  1.00  0.00     0.001 A 
ATOM     75  C   UNL A   1      36.331  31.934  28.005  1.00  0.00     0.001 A 
ATOM     76  C   UNL A   1      35.489  30.872  27.679  1.00  0.00     0.000 A 
ENDBRANCH  57  71
BRANCH  58  77
ATOM     77  C   UNL A   1      45.297  29.217  35.677  1.00  0.00    -0.014 A 
ATOM     78  C   UNL A   1      46.344  30.151  35.663  1.00  0.00     0.009 A 
ATOM     79  C   UNL A   1      45.376  28.125  36.557  1.00  0.00     0.009 A 
ATOM     80  C   UNL A   1      47.456  29.980  36.492  1.00  0.00     0.001 A 
ATOM     81  C   UNL A   1      46.475  27.973  37.404  1.00  0.00     0.001 A 
ATOM     82  C   UNL A   1      47.519  28.895  37.364  1.00  0.00     0.000 A 
ENDBRANCH  58  77
BRANCH  70  83
ATOM     83  C   UNL A   1      39.050  32.237  36.342  1.00  0.00    -0.014 A 
ATOM     84  C   UNL A   1      39.213  33.610  36.577  1.00  0.00     0.009 A 
ATOM     85  C   UNL A   1      38.174  31.507  37.163  1.00  0.00     0.009 A 
ATOM     86  C   UNL A   1      38.532  34.234  37.625  1.00  0.00     0.001 A 
ATOM     87  C   UNL A   1      37.473  32.137  38.191  1.00  0.00     0.001 A 
ATOM     88  C   UNL A   1      37.657  33.499  38.427  1.00  0.00     0.000 A 
ENDBRANCH  70  83
ENDBRANCH  44  45
ENDBRANCH  37  39
ENDBRANCH  36  37
ENDBRANCH  35  36
ENDBRANCH  34  35
ENDBRANCH  33  34
ENDBRANCH  32  33
ENDBRANCH  31  32
ENDBRANCH  30  31
ENDBRANCH   1  30
TORSDOF 26
ENDMDL
MODEL 3
REMARK VINA RESULT:      -8.9      6.664      9.187
REMARK SMILES CC(C)COC(=O)N[C@H](Cc1c[nH]c2ccccc12)C(=O)OCCOCCOCCOCCOC(=O)c1ccc(-c2c3nc(c(-c4ccccc4)c4ccc([nH]4)c(-c4ccccc4)c4nc(c(-c5ccccc5)c5ccc2[nH]5)C=C4)C=C3)cc1
REMARK SMILES IDX 27 1 26 2 25 3 24 4 23 5 22 6 20 7 21 8 9 9 8 10 6 11 7 12
REMARK SMILES IDX 5 14 4 15 2 16 1 17 3 18 10 19 11 20 12 21 19 22 13 23 14 24
REMARK SMILES IDX 18 25 15 27 17 28 16 29 28 30 29 31 30 32 31 33 32 34 33 35
REMARK SMILES IDX 34 36 35 37 36 38 37 39 38 40 84 41 39 42 83 43 40 44 41 45
REMARK SMILES IDX 42 46 77 47 43 48 82 49 76 50 78 51 44 52 81 53 75 54 74 55
REMARK SMILES IDX 45 57 67 58 52 59 66 60 53 61 56 62 65 63 79 64 54 65 55 66
REMARK SMILES IDX 64 68 80 69 57 70 46 71 47 72 51 73 48 74 50 75 49 76 68 77
REMARK SMILES IDX 69 78 73 79 70 80 72 81 71 82 58 83 59 84 63 85 60 86 62 87
REMARK SMILES IDX 61 88
REMARK H PARENT 8 13 13 26 78 56 56 67
REMARK Flexibility Score: inf
ROOT
ATOM      1  C   UNL A   1      37.454  21.664  25.350  1.00  0.00     0.188 C 
ENDROOT
BRANCH   1   2
ATOM      2  C   UNL A   1      36.007  21.474  25.816  1.00  0.00     0.188 C 
BRANCH   2   3
ATOM      3  O   UNL A   1      35.206  22.650  25.809  1.00  0.00    -0.376 OA
BRANCH   3   4
ATOM      4  C   UNL A   1      35.731  23.737  25.052  1.00  0.00     0.202 C 
BRANCH   4   5
ATOM      5  C   UNL A   1      34.798  24.950  24.901  1.00  0.00     0.261 C 
BRANCH   5   6
ATOM      6  O   UNL A   1      34.189  25.440  26.107  1.00  0.00    -0.462 OA
BRANCH   6   7
ATOM      7  C   UNL A   1      33.364  26.493  25.977  1.00  0.00     0.329 C 
ATOM      8  O   UNL A   1      33.665  27.629  26.343  1.00  0.00    -0.250 OA
BRANCH   7   9
ATOM      9  C   UNL A   1      31.969  26.167  25.420  1.00  0.00     0.200 C 
BRANCH   9  10
ATOM     10  N   UNL A   1      31.301  27.469  25.441  1.00  0.00    -0.308 N 
ATOM     11  C   UNL A   1      30.818  28.076  24.329  1.00  0.00     0.407 C 
ATOM     12  O   UNL A   1      30.701  29.297  24.268  1.00  0.00    -0.225 OA
ATOM     13  H   UNL A   1      31.197  27.925  26.307  1.00  0.00     0.168 HD
BRANCH  11  14
ATOM     14  O   UNL A   1      30.433  27.192  23.378  1.00  0.00    -0.449 OA
BRANCH  14  15
ATOM     15  C   UNL A   1      31.086  27.302  22.106  1.00  0.00     0.238 C 
BRANCH  15  16
ATOM     16  C   UNL A   1      32.376  26.466  22.068  1.00  0.00     0.021 C 
ATOM     17  C   UNL A   1      32.517  25.635  20.791  1.00  0.00     0.011 C 
ATOM     18  C   UNL A   1      33.590  27.379  22.226  1.00  0.00     0.011 C 
ENDBRANCH  15  16
ENDBRANCH  14  15
ENDBRANCH  11  14
ENDBRANCH   9  10
BRANCH   9  19
ATOM     19  C   UNL A   1      31.062  25.017  25.880  1.00  0.00     0.075 C 
BRANCH  19  20
ATOM     20  C   UNL A   1      31.573  23.615  25.881  1.00  0.00    -0.020 A 
ATOM     21  C   UNL A   1      31.970  22.928  27.014  1.00  0.00     0.087 A 
ATOM     22  C   UNL A   1      31.810  22.739  24.779  1.00  0.00     0.003 A 
ATOM     23  N   UNL A   1      32.240  21.636  26.669  1.00  0.00    -0.361 N 
ATOM     24  C   UNL A   1      32.163  21.494  25.306  1.00  0.00     0.046 A 
ATOM     25  C   UNL A   1      31.744  22.875  23.380  1.00  0.00     0.010 A 
ATOM     26  H   UNL A   1      32.458  20.914  27.302  1.00  0.00     0.166 HD
ATOM     27  C   UNL A   1      32.383  20.366  24.510  1.00  0.00     0.026 A 
ATOM     28  C   UNL A   1      31.974  21.759  22.567  1.00  0.00     0.001 A 
ATOM     29  C   UNL A   1      32.270  20.519  23.127  1.00  0.00     0.002 A 
ENDBRANCH  19  20
ENDBRANCH   9  19
ENDBRANCH   7   9
ENDBRANCH   6   7
ENDBRANCH   5   6
ENDBRANCH   4   5
ENDBRANCH   3   4
ENDBRANCH   2   3
ENDBRANCH   1   2
BRANCH   1  30
ATOM     30  O   UNL A   1      38.192  20.533  24.924  1.00  0.00    -0.377 OA
BRANCH  30  31
ATOM     31  C   UNL A   1      39.158  19.954  25.784  1.00  0.00     0.188 C 
BRANCH  31  32
ATOM     32  C   UNL A   1      40.378  20.806  26.146  1.00  0.00     0.188 C 
BRANCH  32  33
ATOM     33  O   UNL A   1      40.355  21.305  27.477  1.00  0.00    -0.376 OA
BRANCH  33  34
ATOM     34  C   UNL A   1      40.311  22.718  27.630  1.00  0.00     0.202 C 
BRANCH  34  35
ATOM     35  C   UNL A   1      41.294  23.545  26.786  1.00  0.00     0.261 C 
BRANCH  35  36
ATOM     36  O   UNL A   1      42.697  23.345  27.035  1.00  0.00    -0.460 OA
BRANCH  36  37
ATOM     37  C   UNL A   1      43.215  23.815  28.186  1.00  0.00     0.338 C 
ATOM     38  O   UNL A   1      42.996  23.427  29.320  1.00  0.00    -0.246 OA
BRANCH  37  39
ATOM     39  C   UNL A   1      44.193  24.862  27.837  1.00  0.00     0.060 A 
ATOM     40  C   UNL A   1      44.866  25.556  28.850  1.00  0.00     0.016 A 
ATOM     41  C   UNL A   1      44.422  25.170  26.495  1.00  0.00     0.016 A 
ATOM     42  C   UNL A   1      45.754  26.585  28.521  1.00  0.00     0.010 A 
ATOM     43  C   UNL A   1      45.302  26.206  26.169  1.00  0.00     0.010 A 
ATOM     44  C   UNL A   1      45.948  26.941  27.180  1.00  0.00    -0.014 A 
BRANCH  44  45
ATOM     45  C   UNL A   1      46.679  28.182  26.817  1.00  0.00     0.031 A 
ATOM     46  C   UNL A   1      48.161  28.098  26.571  1.00  0.00     0.074 A 
ATOM     47  C   UNL A   1      46.055  29.371  26.737  1.00  0.00     0.049 A 
ATOM     48  N   UNL A   1      49.022  29.057  26.351  1.00  0.00    -0.248 NA
ATOM     49  C   UNL A   1      48.747  26.748  26.573  1.00  0.00     0.031 C 
ATOM     50  C   UNL A   1      44.620  29.591  26.889  1.00  0.00     0.029 A 
ATOM     51  N   UNL A   1      46.570  30.628  26.529  1.00  0.00    -0.354 N 
ATOM     52  C   UNL A   1      50.252  28.429  26.193  1.00  0.00     0.074 A 
ATOM     53  C   UNL A   1      50.030  27.010  26.374  1.00  0.00     0.031 C 
ATOM     54  C   UNL A   1      44.371  30.910  26.809  1.00  0.00     0.029 A 
ATOM     55  C   UNL A   1      45.632  31.627  26.624  1.00  0.00     0.049 A 
ATOM     56  H   UNL A   1      47.519  30.797  26.331  1.00  0.00     0.167 HD
ATOM     57  C   UNL A   1      51.458  28.978  25.917  1.00  0.00     0.031 A 
ATOM     58  C   UNL A   1      45.777  32.967  26.593  1.00  0.00     0.031 A 
ATOM     59  C   UNL A   1      51.689  30.389  25.758  1.00  0.00     0.049 A 
ATOM     60  C   UNL A   1      47.147  33.565  26.394  1.00  0.00     0.074 A 
ATOM     61  C   UNL A   1      52.875  31.038  25.460  1.00  0.00     0.029 A 
ATOM     62  N   UNL A   1      50.719  31.367  25.896  1.00  0.00    -0.354 N 
ATOM     63  N   UNL A   1      48.296  32.959  26.216  1.00  0.00    -0.248 NA
ATOM     64  C   UNL A   1      47.236  35.034  26.384  1.00  0.00     0.031 C 
ATOM     65  C   UNL A   1      52.634  32.415  25.478  1.00  0.00     0.029 A 
ATOM     66  C   UNL A   1      51.285  32.619  25.722  1.00  0.00     0.049 A 
ATOM     67  H   UNL A   1      49.769  31.198  26.089  1.00  0.00     0.167 HD
ATOM     68  C   UNL A   1      49.233  33.970  26.031  1.00  0.00     0.074 A 
ATOM     69  C   UNL A   1      48.521  35.227  26.118  1.00  0.00     0.031 C 
ATOM     70  C   UNL A   1      50.566  33.863  25.803  1.00  0.00     0.031 A 
BRANCH  57  71
ATOM     71  C   UNL A   1      52.632  28.047  25.805  1.00  0.00    -0.014 A 
ATOM     72  C   UNL A   1      52.994  27.474  24.576  1.00  0.00     0.009 A 
ATOM     73  C   UNL A   1      53.406  27.763  26.941  1.00  0.00     0.009 A 
ATOM     74  C   UNL A   1      54.087  26.609  24.494  1.00  0.00     0.001 A 
ATOM     75  C   UNL A   1      54.515  26.921  26.852  1.00  0.00     0.001 A 
ATOM     76  C   UNL A   1      54.849  26.337  25.631  1.00  0.00     0.000 A 
ENDBRANCH  57  71
BRANCH  58  77
ATOM     77  C   UNL A   1      44.595  33.850  26.777  1.00  0.00    -0.014 A 
ATOM     78  C   UNL A   1      43.917  34.380  25.669  1.00  0.00     0.009 A 
ATOM     79  C   UNL A   1      44.155  34.191  28.067  1.00  0.00     0.009 A 
ATOM     80  C   UNL A   1      42.840  35.253  25.849  1.00  0.00     0.001 A 
ATOM     81  C   UNL A   1      43.061  35.040  28.242  1.00  0.00     0.001 A 
ATOM     82  C   UNL A   1      42.411  35.578  27.133  1.00  0.00     0.000 A 
ENDBRANCH  58  77
BRANCH  70  83
ATOM     83  C   UNL A   1      51.340  35.133  25.578  1.00  0.00    -0.014 A 
ATOM     84  C   UNL A   1      51.531  35.658  24.291  1.00  0.00     0.009 A 
ATOM     85  C   UNL A   1      51.830  35.849  26.683  1.00  0.00     0.009 A 
ATOM     86  C   UNL A   1      52.218  36.861  24.114  1.00  0.00     0.001 A 
ATOM     87  C   UNL A   1      52.490  37.065  26.505  1.00  0.00     0.001 A 
ATOM     88  C   UNL A   1      52.691  37.567  25.221  1.00  0.00     0.000 A 
ENDBRANCH  70  83
ENDBRANCH  44  45
ENDBRANCH  37  39
ENDBRANCH  36  37
ENDBRANCH  35  36
ENDBRANCH  34  35
ENDBRANCH  33  34
ENDBRANCH  32  33
ENDBRANCH  31  32
ENDBRANCH  30  31
ENDBRANCH   1  30
TORSDOF 26
ENDMDL
