MODEL 1
REMARK VINA RESULT:      -8.7      0.000      0.000
REMARK SMILES CCN(CCC(=O)OCCOCCOCCOCCOC(=O)c1ccc(-c2c3nc(c(-c4ccccc4)c4ccc([nH]4)c(-c4ccccc4)c4nc(c(-c5ccccc5)c5ccc2[nH]5)C=C4)C=C3)cc1)C(=O)N1C[C@H](C(=O)OC)[C@@H](C)C1
REMARK SMILES IDX 12 1 11 2 10 3 9 4 8 5 6 6 7 7 5 8 4 9 3 10 2 11 1 12 71 13
REMARK SMILES IDX 72 14 73 15 74 16 82 17 75 18 80 19 81 20 76 21 77 22 78 23
REMARK SMILES IDX 79 24 13 25 14 26 15 27 16 28 17 29 18 30 19 31 20 32 21 33
REMARK SMILES IDX 22 34 23 35 24 36 70 37 25 38 69 39 26 40 27 41 28 42 63 43
REMARK SMILES IDX 29 44 68 45 62 46 64 47 30 48 67 49 61 50 60 51 31 53 53 54
REMARK SMILES IDX 38 55 52 56 39 57 42 58 51 59 65 60 40 61 41 62 50 64 66 65
REMARK SMILES IDX 43 66 32 67 33 68 37 69 34 70 36 71 35 72 54 73 55 74 59 75
REMARK SMILES IDX 56 76 58 77 57 78 44 79 45 80 49 81 46 82 48 83 47 84
REMARK H PARENT 64 52 42 63
REMARK Flexibility Score: inf
ROOT
ATOM      1  C   UNL A   1      34.183  34.032  28.207  1.00  0.00     0.188 C 
ENDROOT
BRANCH   1   2
ATOM      2  O   UNL A   1      34.424  32.139  27.567  1.00  0.00    -0.376 OA
BRANCH   2   3
ATOM      3  C   UNL A   1      35.034  30.731  28.026  1.00  0.00     0.202 C 
BRANCH   3   4
ATOM      4  C   UNL A   1      34.383  29.378  27.656  1.00  0.00     0.261 C 
BRANCH   4   5
ATOM      5  O   UNL A   1      32.982  29.499  27.358  1.00  0.00    -0.463 OA
BRANCH   5   6
ATOM      6  C   UNL A   1      32.651  29.743  26.074  1.00  0.00     0.307 C 
ATOM      7  O   UNL A   1      31.778  30.528  25.722  1.00  0.00    -0.252 OA
BRANCH   6   8
ATOM      8  C   UNL A   1      33.486  28.964  25.086  1.00  0.00     0.144 C 
BRANCH   8   9
ATOM      9  C   UNL A   1      32.794  27.981  24.139  1.00  0.00     0.133 C 
BRANCH   9  10
ATOM     10  N   UNL A   1      31.798  27.107  24.740  1.00  0.00    -0.324 N 
BRANCH  10  11
ATOM     11  C   UNL A   1      30.400  27.427  24.431  1.00  0.00     0.118 C 
ATOM     12  C   UNL A   1      30.103  27.449  22.932  1.00  0.00     0.027 C 
ENDBRANCH  10  11
BRANCH  10  13
ATOM     13  C   UNL A   1      32.029  26.011  25.566  1.00  0.00     0.320 C 
ATOM     14  O   UNL A   1      31.700  26.028  26.755  1.00  0.00    -0.248 OA
BRANCH  13  15
ATOM     15  N   UNL A   1      32.556  24.844  25.029  1.00  0.00    -0.323 N 
ATOM     16  C   UNL A   1      31.765  23.379  24.018  1.00  0.00     0.137 C 
ATOM     17  C   UNL A   1      34.468  24.503  25.286  1.00  0.00     0.125 C 
ATOM     18  C   UNL A   1      33.190  21.984  23.750  1.00  0.00     0.123 C 
ATOM     19  C   UNL A   1      34.897  22.715  24.483  1.00  0.00     0.021 C 
ATOM     20  C   UNL A   1      35.989  22.820  23.421  1.00  0.00     0.010 C 
BRANCH  18  21
ATOM     21  C   UNL A   1      32.842  20.617  24.359  1.00  0.00     0.310 C 
ATOM     22  O   UNL A   1      32.855  20.381  25.559  1.00  0.00    -0.252 OA
BRANCH  21  23
ATOM     23  O   UNL A   1      32.381  19.755  23.404  1.00  0.00    -0.469 OA
ATOM     24  C   UNL A   1      32.460  18.358  23.732  1.00  0.00     0.282 C 
ENDBRANCH  21  23
ENDBRANCH  18  21
ENDBRANCH  13  15
ENDBRANCH  10  13
ENDBRANCH   9  10
ENDBRANCH   8   9
ENDBRANCH   6   8
ENDBRANCH   5   6
ENDBRANCH   4   5
ENDBRANCH   3   4
ENDBRANCH   2   3
ENDBRANCH   1   2
BRANCH   1  25
ATOM     25  C   UNL A   1      33.430  34.784  29.485  1.00  0.00     0.188 C 
BRANCH  25  26
ATOM     26  O   UNL A   1      33.519  34.204  30.766  1.00  0.00    -0.377 OA
BRANCH  26  27
ATOM     27  C   UNL A   1      34.766  34.156  31.441  1.00  0.00     0.188 C 
BRANCH  27  28
ATOM     28  C   UNL A   1      34.860  34.221  32.984  1.00  0.00     0.188 C 
BRANCH  28  29
ATOM     29  O   UNL A   1      36.186  34.421  33.453  1.00  0.00    -0.376 OA
BRANCH  29  30
ATOM     30  C   UNL A   1      37.194  34.557  32.460  1.00  0.00     0.202 C 
BRANCH  30  31
ATOM     31  C   UNL A   1      38.234  33.426  32.422  1.00  0.00     0.261 C 
BRANCH  31  32
ATOM     32  O   UNL A   1      37.847  32.164  33.001  1.00  0.00    -0.460 OA
BRANCH  32  33
ATOM     33  C   UNL A   1      37.329  31.187  32.221  1.00  0.00     0.338 C 
ATOM     34  O   UNL A   1      36.151  31.001  31.982  1.00  0.00    -0.246 OA
BRANCH  33  35
ATOM     35  C   UNL A   1      38.464  30.584  31.453  1.00  0.00     0.060 A 
ATOM     36  C   UNL A   1      39.329  29.703  32.125  1.00  0.00     0.016 A 
ATOM     37  C   UNL A   1      38.574  30.731  30.062  1.00  0.00     0.016 A 
ATOM     38  C   UNL A   1      40.316  29.001  31.422  1.00  0.00     0.010 A 
ATOM     39  C   UNL A   1      39.574  30.044  29.358  1.00  0.00     0.010 A 
ATOM     40  C   UNL A   1      40.488  29.225  30.048  1.00  0.00    -0.014 A 
BRANCH  40  41
ATOM     41  C   UNL A   1      41.849  29.031  29.474  1.00  0.00     0.031 A 
ATOM     42  C   UNL A   1      42.103  27.667  28.875  1.00  0.00     0.074 A 
ATOM     43  C   UNL A   1      42.806  29.975  29.436  1.00  0.00     0.049 A 
ATOM     44  N   UNL A   1      43.169  27.188  28.288  1.00  0.00    -0.248 NA
ATOM     45  C   UNL A   1      40.986  26.706  28.958  1.00  0.00     0.031 C 
ATOM     46  C   UNL A   1      42.689  31.345  29.930  1.00  0.00     0.029 A 
ATOM     47  N   UNL A   1      44.087  29.906  28.939  1.00  0.00    -0.354 N 
ATOM     48  C   UNL A   1      42.843  25.880  27.945  1.00  0.00     0.074 A 
ATOM     49  C   UNL A   1      41.509  25.622  28.419  1.00  0.00     0.031 C 
ATOM     50  C   UNL A   1      43.851  31.990  29.704  1.00  0.00     0.029 A 
ATOM     51  C   UNL A   1      44.802  31.073  29.076  1.00  0.00     0.049 A 
ATOM     52  H   UNL A   1      44.459  29.095  28.523  1.00  0.00     0.167 HD
ATOM     53  C   UNL A   1      43.583  24.962  27.285  1.00  0.00     0.031 A 
ATOM     54  C   UNL A   1      46.078  31.352  28.736  1.00  0.00     0.031 A 
ATOM     55  C   UNL A   1      44.924  25.193  26.842  1.00  0.00     0.049 A 
ATOM     56  C   UNL A   1      46.923  30.279  28.086  1.00  0.00     0.074 A 
ATOM     57  C   UNL A   1      45.767  24.332  26.167  1.00  0.00     0.029 A 
ATOM     58  N   UNL A   1      45.623  26.370  27.053  1.00  0.00    -0.354 N 
ATOM     59  N   UNL A   1      46.593  29.061  27.729  1.00  0.00    -0.248 NA
ATOM     60  C   UNL A   1      48.321  30.630  27.782  1.00  0.00     0.031 C 
ATOM     61  C   UNL A   1      47.005  24.967  26.029  1.00  0.00     0.029 A 
ATOM     62  C   UNL A   1      46.902  26.249  26.547  1.00  0.00     0.049 A 
ATOM     63  H   UNL A   1      45.261  27.171  27.496  1.00  0.00     0.167 HD
ATOM     64  C   UNL A   1      47.723  28.518  27.121  1.00  0.00     0.074 A 
ATOM     65  C   UNL A   1      48.745  29.543  27.151  1.00  0.00     0.031 C 
ATOM     66  C   UNL A   1      47.899  27.287  26.578  1.00  0.00     0.031 A 
BRANCH  53  67
ATOM     67  C   UNL A   1      42.956  23.612  27.074  1.00  0.00    -0.014 A 
ATOM     68  C   UNL A   1      42.340  23.268  25.859  1.00  0.00     0.009 A 
ATOM     69  C   UNL A   1      42.944  22.688  28.128  1.00  0.00     0.009 A 
ATOM     70  C   UNL A   1      41.686  22.043  25.722  1.00  0.00     0.001 A 
ATOM     71  C   UNL A   1      42.321  21.450  27.976  1.00  0.00     0.001 A 
ATOM     72  C   UNL A   1      41.682  21.133  26.778  1.00  0.00     0.000 A 
ENDBRANCH  53  67
BRANCH  54  73
ATOM     73  C   UNL A   1      46.662  32.701  28.995  1.00  0.00    -0.014 A 
ATOM     74  C   UNL A   1      47.352  32.967  30.191  1.00  0.00     0.009 A 
ATOM     75  C   UNL A   1      46.486  33.747  28.077  1.00  0.00     0.009 A 
ATOM     76  C   UNL A   1      47.824  34.253  30.472  1.00  0.00     0.001 A 
ATOM     77  C   UNL A   1      46.985  35.026  28.346  1.00  0.00     0.001 A 
ATOM     78  C   UNL A   1      47.644  35.280  29.547  1.00  0.00     0.000 A 
ENDBRANCH  54  73
BRANCH  66  79
ATOM     79  C   UNL A   1      49.216  26.996  25.915  1.00  0.00    -0.014 A 
ATOM     80  C   UNL A   1      50.261  26.351  26.593  1.00  0.00     0.009 A 
ATOM     81  C   UNL A   1      49.385  27.319  24.557  1.00  0.00     0.009 A 
ATOM     82  C   UNL A   1      51.461  26.071  25.937  1.00  0.00     0.001 A 
ATOM     83  C   UNL A   1      50.572  27.006  23.895  1.00  0.00     0.001 A 
ATOM     84  C   UNL A   1      51.613  26.393  24.588  1.00  0.00     0.000 A 
ENDBRANCH  66  79
ENDBRANCH  40  41
ENDBRANCH  33  35
ENDBRANCH  32  33
ENDBRANCH  31  32
ENDBRANCH  30  31
ENDBRANCH  29  30
ENDBRANCH  28  29
ENDBRANCH  27  28
ENDBRANCH  26  27
ENDBRANCH  25  26
ENDBRANCH   1  25
TORSDOF 27
ENDMDL
MODEL 2
REMARK VINA RESULT:      -8.4      4.532     11.956
REMARK SMILES CCN(CCC(=O)OCCOCCOCCOCCOC(=O)c1ccc(-c2c3nc(c(-c4ccccc4)c4ccc([nH]4)c(-c4ccccc4)c4nc(c(-c5ccccc5)c5ccc2[nH]5)C=C4)C=C3)cc1)C(=O)N1C[C@H](C(=O)OC)[C@@H](C)C1
REMARK SMILES IDX 12 1 11 2 10 3 9 4 8 5 6 6 7 7 5 8 4 9 3 10 2 11 1 12 71 13
REMARK SMILES IDX 72 14 73 15 74 16 82 17 75 18 80 19 81 20 76 21 77 22 78 23
REMARK SMILES IDX 79 24 13 25 14 26 15 27 16 28 17 29 18 30 19 31 20 32 21 33
REMARK SMILES IDX 22 34 23 35 24 36 70 37 25 38 69 39 26 40 27 41 28 42 63 43
REMARK SMILES IDX 29 44 68 45 62 46 64 47 30 48 67 49 61 50 60 51 31 53 53 54
REMARK SMILES IDX 38 55 52 56 39 57 42 58 51 59 65 60 40 61 41 62 50 64 66 65
REMARK SMILES IDX 43 66 32 67 33 68 37 69 34 70 36 71 35 72 54 73 55 74 59 75
REMARK SMILES IDX 56 76 58 77 57 78 44 79 45 80 49 81 46 82 48 83 47 84
REMARK H PARENT 64 52 42 63
REMARK Flexibility Score: inf
ROOT
ATOM      1  C   UNL A   1      40.244  21.801  27.132  1.00  0.00     0.188 C 
ENDROOT
BRANCH   1   2
ATOM      2  O   UNL A   1      39.511  23.675  27.132  1.00  0.00    -0.376 OA
BRANCH   2   3
ATOM      3  C   UNL A   1      39.126  24.868  28.131  1.00  0.00     0.202 C 
BRANCH   3   4
ATOM      4  C   UNL A   1      39.620  26.318  27.927  1.00  0.00     0.261 C 
BRANCH   4   5
ATOM      5  O   UNL A   1      39.073  27.233  28.892  1.00  0.00    -0.463 OA
BRANCH   5   6
ATOM      6  C   UNL A   1      39.323  28.544  28.698  1.00  0.00     0.307 C 
ATOM      7  O   UNL A   1      40.388  28.992  28.291  1.00  0.00    -0.252 OA
BRANCH   6   8
ATOM      8  C   UNL A   1      38.139  29.428  29.012  1.00  0.00     0.144 C 
BRANCH   8   9
ATOM      9  C   UNL A   1      38.384  30.886  29.406  1.00  0.00     0.133 C 
BRANCH   9  10
ATOM     10  N   UNL A   1      37.220  31.630  29.863  1.00  0.00    -0.324 N 
BRANCH  10  11
ATOM     11  C   UNL A   1      36.261  30.876  30.678  1.00  0.00     0.118 C 
ATOM     12  C   UNL A   1      36.795  30.527  32.068  1.00  0.00     0.027 C 
ENDBRANCH  10  11
BRANCH  10  13
ATOM     13  C   UNL A   1      36.924  32.966  29.611  1.00  0.00     0.320 C 
ATOM     14  O   UNL A   1      37.375  33.543  28.618  1.00  0.00    -0.248 OA
BRANCH  13  15
ATOM     15  N   UNL A   1      36.036  33.642  30.440  1.00  0.00    -0.323 N 
ATOM     16  C   UNL A   1      34.135  34.038  30.295  1.00  0.00     0.137 C 
ATOM     17  C   UNL A   1      36.735  34.389  32.110  1.00  0.00     0.125 C 
ATOM     18  C   UNL A   1      33.636  35.208  31.854  1.00  0.00     0.123 C 
ATOM     19  C   UNL A   1      35.244  35.372  33.026  1.00  0.00     0.021 C 
ATOM     20  C   UNL A   1      34.996  34.836  34.433  1.00  0.00     0.010 C 
BRANCH  18  21
ATOM     21  C   UNL A   1      33.080  36.580  31.447  1.00  0.00     0.310 C 
ATOM     22  O   UNL A   1      33.246  37.086  30.347  1.00  0.00    -0.252 OA
BRANCH  21  23
ATOM     23  O   UNL A   1      32.262  37.088  32.418  1.00  0.00    -0.469 OA
ATOM     24  C   UNL A   1      31.248  36.196  32.910  1.00  0.00     0.282 C 
ENDBRANCH  21  23
ENDBRANCH  18  21
ENDBRANCH  13  15
ENDBRANCH  10  13
ENDBRANCH   9  10
ENDBRANCH   8   9
ENDBRANCH   6   8
ENDBRANCH   5   6
ENDBRANCH   4   5
ENDBRANCH   3   4
ENDBRANCH   2   3
ENDBRANCH   1   2
BRANCH   1  25
ATOM     25  C   UNL A   1      41.747  21.096  27.235  1.00  0.00     0.188 C 
BRANCH  25  26
ATOM     26  O   UNL A   1      42.859  21.903  27.547  1.00  0.00    -0.377 OA
BRANCH  26  27
ATOM     27  C   UNL A   1      43.630  22.486  26.506  1.00  0.00     0.188 C 
BRANCH  27  28
ATOM     28  C   UNL A   1      43.033  22.756  25.105  1.00  0.00     0.188 C 
BRANCH  28  29
ATOM     29  O   UNL A   1      43.977  22.590  24.056  1.00  0.00    -0.376 OA
BRANCH  29  30
ATOM     30  C   UNL A   1      45.301  22.248  24.446  1.00  0.00     0.202 C 
BRANCH  30  31
ATOM     31  C   UNL A   1      46.331  23.382  24.334  1.00  0.00     0.261 C 
BRANCH  31  32
ATOM     32  O   UNL A   1      46.268  24.421  25.332  1.00  0.00    -0.460 OA
BRANCH  32  33
ATOM     33  C   UNL A   1      46.794  25.642  25.079  1.00  0.00     0.338 C 
ATOM     34  O   UNL A   1      47.463  25.955  24.112  1.00  0.00    -0.246 OA
BRANCH  33  35
ATOM     35  C   UNL A   1      46.144  26.608  26.020  1.00  0.00     0.060 A 
ATOM     36  C   UNL A   1      46.964  27.331  26.904  1.00  0.00     0.016 A 
ATOM     37  C   UNL A   1      44.784  26.938  25.915  1.00  0.00     0.016 A 
ATOM     38  C   UNL A   1      46.427  28.349  27.701  1.00  0.00     0.010 A 
ATOM     39  C   UNL A   1      44.240  27.945  26.726  1.00  0.00     0.010 A 
ATOM     40  C   UNL A   1      45.049  28.610  27.667  1.00  0.00    -0.014 A 
BRANCH  40  41
ATOM     41  C   UNL A   1      44.413  29.161  28.895  1.00  0.00     0.031 A 
ATOM     42  C   UNL A   1      44.076  30.633  28.838  1.00  0.00     0.074 A 
ATOM     43  C   UNL A   1      44.108  28.441  29.989  1.00  0.00     0.049 A 
ATOM     44  N   UNL A   1      43.508  31.405  29.727  1.00  0.00    -0.248 NA
ATOM     45  C   UNL A   1      44.442  31.332  27.590  1.00  0.00     0.031 C 
ATOM     46  C   UNL A   1      44.329  27.008  30.170  1.00  0.00     0.029 A 
ATOM     47  N   UNL A   1      43.528  28.842  31.171  1.00  0.00    -0.354 N 
ATOM     48  C   UNL A   1      43.460  32.666  29.142  1.00  0.00     0.074 A 
ATOM     49  C   UNL A   1      44.086  32.574  27.850  1.00  0.00     0.031 C 
ATOM     50  C   UNL A   1      43.882  26.649  31.390  1.00  0.00     0.029 A 
ATOM     51  C   UNL A   1      43.371  27.829  32.087  1.00  0.00     0.049 A 
ATOM     52  H   UNL A   1      43.252  29.771  31.345  1.00  0.00     0.167 HD
ATOM     53  C   UNL A   1      42.934  33.812  29.628  1.00  0.00     0.031 A 
ATOM     54  C   UNL A   1      42.876  27.865  33.343  1.00  0.00     0.031 A 
ATOM     55  C   UNL A   1      42.344  33.926  30.927  1.00  0.00     0.049 A 
ATOM     56  C   UNL A   1      42.382  29.179  33.907  1.00  0.00     0.074 A 
ATOM     57  C   UNL A   1      41.783  35.040  31.522  1.00  0.00     0.029 A 
ATOM     58  N   UNL A   1      42.258  32.887  31.838  1.00  0.00    -0.354 N 
ATOM     59  N   UNL A   1      42.302  30.356  33.331  1.00  0.00    -0.248 NA
ATOM     60  C   UNL A   1      41.898  29.164  35.297  1.00  0.00     0.031 C 
ATOM     61  C   UNL A   1      41.418  34.689  32.825  1.00  0.00     0.029 A 
ATOM     62  C   UNL A   1      41.679  33.339  33.007  1.00  0.00     0.049 A 
ATOM     63  H   UNL A   1      42.562  31.965  31.675  1.00  0.00     0.167 HD
ATOM     64  C   UNL A   1      41.721  31.205  34.269  1.00  0.00     0.074 A 
ATOM     65  C   UNL A   1      41.462  30.407  35.449  1.00  0.00     0.031 C 
ATOM     66  C   UNL A   1      41.420  32.523  34.165  1.00  0.00     0.031 A 
BRANCH  53  67
ATOM     67  C   UNL A   1      43.049  35.032  28.758  1.00  0.00    -0.014 A 
ATOM     68  C   UNL A   1      42.018  35.409  27.880  1.00  0.00     0.009 A 
ATOM     69  C   UNL A   1      44.228  35.789  28.786  1.00  0.00     0.009 A 
ATOM     70  C   UNL A   1      42.188  36.493  27.017  1.00  0.00     0.001 A 
ATOM     71  C   UNL A   1      44.381  36.893  27.948  1.00  0.00     0.001 A 
ATOM     72  C   UNL A   1      43.366  37.237  27.056  1.00  0.00     0.000 A 
ENDBRANCH  53  67
BRANCH  54  73
ATOM     73  C   UNL A   1      42.813  26.630  34.177  1.00  0.00    -0.014 A 
ATOM     74  C   UNL A   1      41.590  26.186  34.711  1.00  0.00     0.009 A 
ATOM     75  C   UNL A   1      43.979  25.917  34.493  1.00  0.00     0.009 A 
ATOM     76  C   UNL A   1      41.543  25.078  35.563  1.00  0.00     0.001 A 
ATOM     77  C   UNL A   1      43.926  24.791  35.322  1.00  0.00     0.001 A 
ATOM     78  C   UNL A   1      42.710  24.379  35.864  1.00  0.00     0.000 A 
ENDBRANCH  54  73
BRANCH  66  79
ATOM     79  C   UNL A   1      40.719  33.176  35.324  1.00  0.00    -0.014 A 
ATOM     80  C   UNL A   1      39.320  33.218  35.415  1.00  0.00     0.009 A 
ATOM     81  C   UNL A   1      41.485  33.701  36.379  1.00  0.00     0.009 A 
ATOM     82  C   UNL A   1      38.703  33.808  36.520  1.00  0.00     0.001 A 
ATOM     83  C   UNL A   1      40.866  34.257  37.498  1.00  0.00     0.001 A 
ATOM     84  C   UNL A   1      39.475  34.321  37.563  1.00  0.00     0.000 A 
ENDBRANCH  66  79
ENDBRANCH  40  41
ENDBRANCH  33  35
ENDBRANCH  32  33
ENDBRANCH  31  32
ENDBRANCH  30  31
ENDBRANCH  29  30
ENDBRANCH  28  29
ENDBRANCH  27  28
ENDBRANCH  26  27
ENDBRANCH  25  26
ENDBRANCH   1  25
TORSDOF 27
ENDMDL
MODEL 3
REMARK VINA RESULT:      -8.2      5.767      7.975
REMARK SMILES CCN(CCC(=O)OCCOCCOCCOCCOC(=O)c1ccc(-c2c3nc(c(-c4ccccc4)c4ccc([nH]4)c(-c4ccccc4)c4nc(c(-c5ccccc5)c5ccc2[nH]5)C=C4)C=C3)cc1)C(=O)N1C[C@H](C(=O)OC)[C@@H](C)C1
REMARK SMILES IDX 12 1 11 2 10 3 9 4 8 5 6 6 7 7 5 8 4 9 3 10 2 11 1 12 71 13
REMARK SMILES IDX 72 14 73 15 74 16 82 17 75 18 80 19 81 20 76 21 77 22 78 23
REMARK SMILES IDX 79 24 13 25 14 26 15 27 16 28 17 29 18 30 19 31 20 32 21 33
REMARK SMILES IDX 22 34 23 35 24 36 70 37 25 38 69 39 26 40 27 41 28 42 63 43
REMARK SMILES IDX 29 44 68 45 62 46 64 47 30 48 67 49 61 50 60 51 31 53 53 54
REMARK SMILES IDX 38 55 52 56 39 57 42 58 51 59 65 60 40 61 41 62 50 64 66 65
REMARK SMILES IDX 43 66 32 67 33 68 37 69 34 70 36 71 35 72 54 73 55 74 59 75
REMARK SMILES IDX 56 76 58 77 57 78 44 79 45 80 49 81 46 82 48 83 47 84
REMARK H PARENT 64 52 42 63
REMARK Flexibility Score: inf
ROOT
ATOM      1  C   UNL A   1      33.096  33.099  27.564  1.00  0.00     0.188 C 
ENDROOT
BRANCH   1   2
ATOM      2  O   UNL A   1      33.421  31.125  27.343  1.00  0.00    -0.376 OA
BRANCH   2   3
ATOM      3  C   UNL A   1      34.542  30.007  27.590  1.00  0.00     0.202 C 
BRANCH   3   4
ATOM      4  C   UNL A   1      34.477  28.604  26.944  1.00  0.00     0.261 C 
BRANCH   4   5
ATOM      5  O   UNL A   1      33.136  28.203  26.618  1.00  0.00    -0.463 OA
BRANCH   5   6
ATOM      6  C   UNL A   1      32.720  28.437  25.357  1.00  0.00     0.307 C 
ATOM      7  O   UNL A   1      31.633  28.924  25.066  1.00  0.00    -0.252 OA
BRANCH   6   8
ATOM      8  C   UNL A   1      33.744  28.060  24.313  1.00  0.00     0.144 C 
BRANCH   8   9
ATOM      9  C   UNL A   1      33.637  26.698  23.625  1.00  0.00     0.133 C 
BRANCH   9  10
ATOM     10  N   UNL A   1      32.464  25.903  23.956  1.00  0.00    -0.324 N 
BRANCH  10  11
ATOM     11  C   UNL A   1      31.322  26.045  23.046  1.00  0.00     0.118 C 
ATOM     12  C   UNL A   1      31.733  26.250  21.588  1.00  0.00     0.027 C 
ENDBRANCH  10  11
BRANCH  10  13
ATOM     13  C   UNL A   1      32.313  25.032  25.030  1.00  0.00     0.320 C 
ATOM     14  O   UNL A   1      31.637  25.344  26.014  1.00  0.00    -0.248 OA
BRANCH  13  15
ATOM     15  N   UNL A   1      32.856  23.755  24.962  1.00  0.00    -0.323 N 
ATOM     16  C   UNL A   1      32.315  22.138  24.021  1.00  0.00     0.137 C 
ATOM     17  C   UNL A   1      34.490  23.402  25.983  1.00  0.00     0.125 C 
ATOM     18  C   UNL A   1      33.563  20.662  24.580  1.00  0.00     0.123 C 
ATOM     19  C   UNL A   1      34.964  21.466  25.753  1.00  0.00     0.021 C 
ATOM     20  C   UNL A   1      36.370  21.292  25.183  1.00  0.00     0.010 C 
BRANCH  18  21
ATOM     21  C   UNL A   1      32.858  19.476  25.256  1.00  0.00     0.310 C 
ATOM     22  O   UNL A   1      32.993  19.184  26.436  1.00  0.00    -0.252 OA
BRANCH  21  23
ATOM     23  O   UNL A   1      31.959  18.889  24.410  1.00  0.00    -0.469 OA
ATOM     24  C   UNL A   1      32.503  18.357  23.192  1.00  0.00     0.282 C 
ENDBRANCH  21  23
ENDBRANCH  18  21
ENDBRANCH  13  15
ENDBRANCH  10  13
ENDBRANCH   9  10
ENDBRANCH   8   9
ENDBRANCH   6   8
ENDBRANCH   5   6
ENDBRANCH   4   5
ENDBRANCH   3   4
ENDBRANCH   2   3
ENDBRANCH   1   2
BRANCH   1  25
ATOM     25  C   UNL A   1      33.602  34.294  28.603  1.00  0.00     0.188 C 
BRANCH  25  26
ATOM     26  O   UNL A   1      32.637  35.093  29.247  1.00  0.00    -0.377 OA
BRANCH  26  27
ATOM     27  C   UNL A   1      33.041  36.200  30.039  1.00  0.00     0.188 C 
BRANCH  27  28
ATOM     28  C   UNL A   1      33.381  36.046  31.540  1.00  0.00     0.188 C 
BRANCH  28  29
ATOM     29  O   UNL A   1      33.180  34.726  32.024  1.00  0.00    -0.376 OA
BRANCH  29  30
ATOM     30  C   UNL A   1      34.244  34.161  32.778  1.00  0.00     0.202 C 
BRANCH  30  31
ATOM     31  C   UNL A   1      35.653  34.613  32.364  1.00  0.00     0.261 C 
BRANCH  31  32
ATOM     32  O   UNL A   1      36.272  33.900  31.274  1.00  0.00    -0.460 OA
BRANCH  32  33
ATOM     33  C   UNL A   1      36.216  32.549  31.223  1.00  0.00     0.338 C 
ATOM     34  O   UNL A   1      35.552  31.882  30.452  1.00  0.00    -0.246 OA
BRANCH  33  35
ATOM     35  C   UNL A   1      37.346  32.026  32.054  1.00  0.00     0.060 A 
ATOM     36  C   UNL A   1      37.037  31.306  33.221  1.00  0.00     0.016 A 
ATOM     37  C   UNL A   1      38.675  32.077  31.607  1.00  0.00     0.016 A 
ATOM     38  C   UNL A   1      38.048  30.672  33.955  1.00  0.00     0.010 A 
ATOM     39  C   UNL A   1      39.692  31.460  32.350  1.00  0.00     0.010 A 
ATOM     40  C   UNL A   1      39.388  30.808  33.561  1.00  0.00    -0.014 A 
BRANCH  40  41
ATOM     41  C   UNL A   1      40.436  30.731  34.615  1.00  0.00     0.031 A 
ATOM     42  C   UNL A   1      41.220  29.439  34.647  1.00  0.00     0.074 A 
ATOM     43  C   UNL A   1      40.728  31.719  35.479  1.00  0.00     0.049 A 
ATOM     44  N   UNL A   1      42.201  29.066  35.425  1.00  0.00    -0.248 NA
ATOM     45  C   UNL A   1      40.829  28.422  33.651  1.00  0.00     0.031 C 
ATOM     46  C   UNL A   1      40.091  33.033  35.537  1.00  0.00     0.029 A 
ATOM     47  N   UNL A   1      41.664  31.756  36.487  1.00  0.00    -0.354 N 
ATOM     48  C   UNL A   1      42.530  27.779  35.012  1.00  0.00     0.074 A 
ATOM     49  C   UNL A   1      41.627  27.417  33.950  1.00  0.00     0.031 C 
ATOM     50  C   UNL A   1      40.662  33.750  36.525  1.00  0.00     0.029 A 
ATOM     51  C   UNL A   1      41.683  32.939  37.188  1.00  0.00     0.049 A 
ATOM     52  H   UNL A   1      42.266  31.003  36.688  1.00  0.00     0.167 HD
ATOM     53  C   UNL A   1      43.503  26.959  35.466  1.00  0.00     0.031 A 
ATOM     54  C   UNL A   1      42.437  33.308  38.245  1.00  0.00     0.031 A 
ATOM     55  C   UNL A   1      44.381  27.292  36.546  1.00  0.00     0.049 A 
ATOM     56  C   UNL A   1      43.456  32.338  38.803  1.00  0.00     0.074 A 
ATOM     57  C   UNL A   1      45.401  26.536  37.090  1.00  0.00     0.029 A 
ATOM     58  N   UNL A   1      44.324  28.478  37.259  1.00  0.00    -0.354 N 
ATOM     59  N   UNL A   1      43.787  31.142  38.378  1.00  0.00    -0.248 NA
ATOM     60  C   UNL A   1      44.214  32.781  39.985  1.00  0.00     0.031 C 
ATOM     61  C   UNL A   1      45.919  27.239  38.181  1.00  0.00     0.029 A 
ATOM     62  C   UNL A   1      45.274  28.464  38.262  1.00  0.00     0.049 A 
ATOM     63  H   UNL A   1      43.702  29.219  37.077  1.00  0.00     0.167 HD
ATOM     64  C   UNL A   1      44.817  30.710  39.210  1.00  0.00     0.074 A 
ATOM     65  C   UNL A   1      45.061  31.776  40.159  1.00  0.00     0.031 C 
ATOM     66  C   UNL A   1      45.506  29.542  39.188  1.00  0.00     0.031 A 
BRANCH  53  67
ATOM     67  C   UNL A   1      43.603  25.605  34.822  1.00  0.00    -0.014 A 
ATOM     68  C   UNL A   1      44.382  25.393  33.671  1.00  0.00     0.009 A 
ATOM     69  C   UNL A   1      42.867  24.536  35.352  1.00  0.00     0.009 A 
ATOM     70  C   UNL A   1      44.383  24.147  33.041  1.00  0.00     0.001 A 
ATOM     71  C   UNL A   1      42.900  23.283  34.740  1.00  0.00     0.001 A 
ATOM     72  C   UNL A   1      43.648  23.093  33.579  1.00  0.00     0.000 A 
ENDBRANCH  53  67
BRANCH  54  73
ATOM     73  C   UNL A   1      42.277  34.655  38.867  1.00  0.00    -0.014 A 
ATOM     74  C   UNL A   1      41.493  34.824  40.022  1.00  0.00     0.009 A 
ATOM     75  C   UNL A   1      42.859  35.790  38.281  1.00  0.00     0.009 A 
ATOM     76  C   UNL A   1      41.272  36.097  40.555  1.00  0.00     0.001 A 
ATOM     77  C   UNL A   1      42.662  37.059  38.834  1.00  0.00     0.001 A 
ATOM     78  C   UNL A   1      41.861  37.214  39.963  1.00  0.00     0.000 A 
ENDBRANCH  54  73
BRANCH  66  79
ATOM     79  C   UNL A   1      46.632  29.374  40.170  1.00  0.00    -0.014 A 
ATOM     80  C   UNL A   1      46.421  28.858  41.458  1.00  0.00     0.009 A 
ATOM     81  C   UNL A   1      47.944  29.679  39.767  1.00  0.00     0.009 A 
ATOM     82  C   UNL A   1      47.494  28.689  42.334  1.00  0.00     0.001 A 
ATOM     83  C   UNL A   1      49.018  29.475  40.632  1.00  0.00     0.001 A 
ATOM     84  C   UNL A   1      48.792  28.991  41.919  1.00  0.00     0.000 A 
ENDBRANCH  66  79
ENDBRANCH  40  41
ENDBRANCH  33  35
ENDBRANCH  32  33
ENDBRANCH  31  32
ENDBRANCH  30  31
ENDBRANCH  29  30
ENDBRANCH  28  29
ENDBRANCH  27  28
ENDBRANCH  26  27
ENDBRANCH  25  26
ENDBRANCH   1  25
TORSDOF 27
ENDMDL
