MODEL 1
REMARK VINA RESULT:      -7.6      0.000      0.000
REMARK SMILES Cc1ccc(S(=O)(=O)n2cc(C(=O)C(=O)NCC(=O)NCC(=O)OCCOCCOCCOCCOC(=O)c3ccc(-c4c5nc(c(-c6ccccc6)c6ccc([nH]6)c(-c6ccccc6)c6nc(c(-c7ccccc7)c7ccc4[nH]7)C=C6)C=C5)cc3)c3ccccc32)cc1
REMARK SMILES IDX 28 1 27 2 26 3 25 4 24 5 22 6 23 7 21 8 20 9 18 10 19 11
REMARK SMILES IDX 17 13 16 14 14 15 15 16 12 18 13 19 11 20 9 21 10 22 92 23
REMARK SMILES IDX 87 24 91 25 88 26 90 27 89 28 6 29 7 30 8 31 5 32 1 33 2 34
REMARK SMILES IDX 3 35 94 36 4 37 93 38 29 39 30 40 31 41 32 42 33 43 34 44
REMARK SMILES IDX 35 45 36 46 37 47 38 48 39 49 40 50 86 51 41 52 85 53 42 54
REMARK SMILES IDX 43 55 44 56 79 57 45 58 84 59 78 60 80 61 46 62 83 63 77 64
REMARK SMILES IDX 76 65 47 67 69 68 54 69 68 70 55 71 58 72 67 73 81 74 56 75
REMARK SMILES IDX 57 76 66 78 82 79 59 80 48 81 49 82 53 83 50 84 52 85 51 86
REMARK SMILES IDX 70 87 71 88 75 89 72 90 74 91 73 92 60 93 61 94 65 95 62 96
REMARK SMILES IDX 64 97 63 98
REMARK H PARENT 20 12 16 17 80 66 58 77
REMARK Flexibility Score: inf
ROOT
ATOM      1  C   UNL A   1      51.352  28.097  33.561  1.00  0.00     0.188 C 
ENDROOT
BRANCH   1   2
ATOM      2  O   UNL A   1      51.148  26.715  33.301  1.00  0.00    -0.376 OA
BRANCH   2   3
ATOM      3  C   UNL A   1      51.828  26.170  32.170  1.00  0.00     0.202 C 
BRANCH   3   4
ATOM      4  C   UNL A   1      50.948  25.428  31.171  1.00  0.00     0.261 C 
BRANCH   4   5
ATOM      5  O   UNL A   1      49.861  26.306  30.837  1.00  0.00    -0.462 OA
BRANCH   5   6
ATOM      6  C   UNL A   1      48.612  25.814  30.971  1.00  0.00     0.325 C 
ATOM      7  O   UNL A   1      48.034  25.616  32.031  1.00  0.00    -0.250 OA
BRANCH   6   8
ATOM      8  C   UNL A   1      47.931  25.732  29.609  1.00  0.00     0.238 C 
BRANCH   8   9
ATOM      9  N   UNL A   1      46.483  25.553  29.630  1.00  0.00    -0.344 N 
ATOM     10  C   UNL A   1      45.715  24.701  28.900  1.00  0.00     0.239 C 
ATOM     11  O   UNL A   1      44.575  24.421  29.274  1.00  0.00    -0.273 OA
ATOM     12  H   UNL A   1      45.994  26.129  30.262  1.00  0.00     0.164 HD
BRANCH  10  13
ATOM     13  C   UNL A   1      46.239  24.253  27.545  1.00  0.00     0.216 C 
BRANCH  13  14
ATOM     14  N   UNL A   1      45.679  25.182  26.568  1.00  0.00    -0.340 N 
ATOM     15  C   UNL A   1      45.157  24.978  25.313  1.00  0.00     0.292 C 
ATOM     16  O   UNL A   1      44.789  25.950  24.664  1.00  0.00    -0.265 OA
ATOM     17  H   UNL A   1      45.673  26.122  26.862  1.00  0.00     0.164 HD
BRANCH  15  18
ATOM     18  C   UNL A   1      45.037  23.553  24.726  1.00  0.00     0.252 C 
ATOM     19  O   UNL A   1      45.830  23.223  23.847  1.00  0.00    -0.283 OA
BRANCH  18  20
ATOM     20  C   UNL A   1      43.996  22.622  25.176  1.00  0.00     0.054 A 
ATOM     21  N   UNL A   1      42.084  21.792  25.986  1.00  0.00    -0.240 N 
ATOM     22  C   UNL A   1      42.795  22.946  25.779  1.00  0.00     0.117 A 
ATOM     23  C   UNL A   1      42.874  20.688  25.745  1.00  0.00     0.065 A 
ATOM     24  C   UNL A   1      44.058  21.183  25.176  1.00  0.00     0.012 A 
ATOM     25  C   UNL A   1      42.688  19.317  26.001  1.00  0.00     0.028 A 
ATOM     26  C   UNL A   1      45.046  20.257  24.778  1.00  0.00     0.011 A 
ATOM     27  C   UNL A   1      43.718  18.437  25.662  1.00  0.00     0.002 A 
ATOM     28  C   UNL A   1      44.873  18.895  25.040  1.00  0.00     0.001 A 
BRANCH  21  29
ATOM     29  S   UNL A   1      40.569  21.769  26.767  1.00  0.00     0.268 S 
ATOM     30  O   UNL A   1      40.738  20.910  27.933  1.00  0.00    -0.201 OA
ATOM     31  O   UNL A   1      39.587  21.510  25.746  1.00  0.00    -0.201 OA
BRANCH  29  32
ATOM     32  C   UNL A   1      40.276  23.414  27.343  1.00  0.00     0.088 A 
ATOM     33  C   UNL A   1      39.338  27.349  28.764  1.00  0.00     0.044 C 
ATOM     34  C   UNL A   1      39.675  25.983  28.250  1.00  0.00    -0.051 A 
ATOM     35  C   UNL A   1      38.733  25.261  27.506  1.00  0.00     0.005 A 
ATOM     36  C   UNL A   1      40.930  25.419  28.507  1.00  0.00     0.005 A 
ATOM     37  C   UNL A   1      39.029  23.975  27.055  1.00  0.00     0.022 A 
ATOM     38  C   UNL A   1      41.236  24.142  28.046  1.00  0.00     0.022 A 
ENDBRANCH  29  32
ENDBRANCH  21  29
ENDBRANCH  18  20
ENDBRANCH  15  18
ENDBRANCH  13  14
ENDBRANCH  10  13
ENDBRANCH   8   9
ENDBRANCH   6   8
ENDBRANCH   5   6
ENDBRANCH   4   5
ENDBRANCH   3   4
ENDBRANCH   2   3
ENDBRANCH   1   2
BRANCH   1  39
ATOM     39  C   UNL A   1      50.599  29.122  32.705  1.00  0.00     0.188 C 
BRANCH  39  40
ATOM     40  O   UNL A   1      51.383  29.790  31.720  1.00  0.00    -0.377 OA
BRANCH  40  41
ATOM     41  C   UNL A   1      50.568  30.537  30.806  1.00  0.00     0.188 C 
BRANCH  41  42
ATOM     42  C   UNL A   1      50.193  29.685  29.606  1.00  0.00     0.188 C 
BRANCH  42  43
ATOM     43  O   UNL A   1      49.216  30.220  28.723  1.00  0.00    -0.376 OA
BRANCH  43  44
ATOM     44  C   UNL A   1      47.837  30.034  29.015  1.00  0.00     0.202 C 
BRANCH  44  45
ATOM     45  C   UNL A   1      47.143  28.925  28.219  1.00  0.00     0.261 C 
BRANCH  45  46
ATOM     46  O   UNL A   1      45.955  29.470  27.611  1.00  0.00    -0.460 OA
BRANCH  46  47
ATOM     47  C   UNL A   1      44.793  28.840  27.935  1.00  0.00     0.338 C 
ATOM     48  O   UNL A   1      44.549  27.664  27.719  1.00  0.00    -0.246 OA
BRANCH  47  49
ATOM     49  C   UNL A   1      43.743  29.859  28.251  1.00  0.00     0.060 A 
ATOM     50  C   UNL A   1      44.152  31.085  28.802  1.00  0.00     0.016 A 
ATOM     51  C   UNL A   1      42.424  29.443  28.408  1.00  0.00     0.016 A 
ATOM     52  C   UNL A   1      43.325  31.755  29.714  1.00  0.00     0.010 A 
ATOM     53  C   UNL A   1      41.648  30.065  29.373  1.00  0.00     0.010 A 
ATOM     54  C   UNL A   1      42.126  31.169  30.102  1.00  0.00    -0.014 A 
BRANCH  54  55
ATOM     55  C   UNL A   1      41.410  31.466  31.362  1.00  0.00     0.031 A 
ATOM     56  C   UNL A   1      40.391  32.556  31.353  1.00  0.00     0.074 A 
ATOM     57  C   UNL A   1      41.437  30.567  32.387  1.00  0.00     0.049 A 
ATOM     58  N   UNL A   1      39.581  32.793  32.320  1.00  0.00    -0.248 NA
ATOM     59  C   UNL A   1      40.143  33.446  30.219  1.00  0.00     0.031 C 
ATOM     60  C   UNL A   1      40.488  30.415  33.491  1.00  0.00     0.029 A 
ATOM     61  N   UNL A   1      42.376  29.579  32.679  1.00  0.00    -0.354 N 
ATOM     62  C   UNL A   1      38.589  33.640  31.893  1.00  0.00     0.074 A 
ATOM     63  C   UNL A   1      38.988  34.027  30.566  1.00  0.00     0.031 C 
ATOM     64  C   UNL A   1      40.937  29.551  34.412  1.00  0.00     0.029 A 
ATOM     65  C   UNL A   1      42.308  29.295  34.063  1.00  0.00     0.049 A 
ATOM     66  H   UNL A   1      42.983  29.151  32.032  1.00  0.00     0.167 HD
ATOM     67  C   UNL A   1      37.516  33.825  32.715  1.00  0.00     0.031 A 
ATOM     68  C   UNL A   1      43.352  29.664  34.863  1.00  0.00     0.031 A 
ATOM     69  C   UNL A   1      37.819  33.321  34.064  1.00  0.00     0.049 A 
ATOM     70  C   UNL A   1      42.983  30.891  35.696  1.00  0.00     0.074 A 
ATOM     71  C   UNL A   1      37.336  32.292  34.852  1.00  0.00     0.029 A 
ATOM     72  N   UNL A   1      39.017  33.728  34.661  1.00  0.00    -0.354 N 
ATOM     73  N   UNL A   1      41.966  31.676  35.422  1.00  0.00    -0.248 NA
ATOM     74  C   UNL A   1      43.609  31.258  36.957  1.00  0.00     0.031 C 
ATOM     75  C   UNL A   1      38.377  31.954  35.771  1.00  0.00     0.029 A 
ATOM     76  C   UNL A   1      39.382  32.902  35.705  1.00  0.00     0.049 A 
ATOM     77  H   UNL A   1      39.537  34.512  34.371  1.00  0.00     0.167 HD
ATOM     78  C   UNL A   1      41.674  32.489  36.485  1.00  0.00     0.074 A 
ATOM     79  C   UNL A   1      42.802  32.255  37.378  1.00  0.00     0.031 C 
ATOM     80  C   UNL A   1      40.519  33.236  36.573  1.00  0.00     0.031 A 
BRANCH  67  81
ATOM     81  C   UNL A   1      36.152  34.325  32.282  1.00  0.00    -0.014 A 
ATOM     82  C   UNL A   1      35.570  33.831  31.096  1.00  0.00     0.009 A 
ATOM     83  C   UNL A   1      35.427  35.347  32.928  1.00  0.00     0.009 A 
ATOM     84  C   UNL A   1      34.353  34.323  30.592  1.00  0.00     0.001 A 
ATOM     85  C   UNL A   1      34.198  35.828  32.441  1.00  0.00     0.001 A 
ATOM     86  C   UNL A   1      33.662  35.319  31.269  1.00  0.00     0.000 A 
ENDBRANCH  67  81
BRANCH  68  87
ATOM     87  C   UNL A   1      44.627  29.154  34.251  1.00  0.00    -0.014 A 
ATOM     88  C   UNL A   1      45.663  30.129  34.220  1.00  0.00     0.009 A 
ATOM     89  C   UNL A   1      45.008  27.814  34.418  1.00  0.00     0.009 A 
ATOM     90  C   UNL A   1      46.954  29.822  34.671  1.00  0.00     0.001 A 
ATOM     91  C   UNL A   1      46.328  27.507  34.805  1.00  0.00     0.001 A 
ATOM     92  C   UNL A   1      47.270  28.516  35.019  1.00  0.00     0.000 A 
ENDBRANCH  68  87
BRANCH  80  93
ATOM     93  C   UNL A   1      40.308  34.417  37.509  1.00  0.00    -0.014 A 
ATOM     94  C   UNL A   1      40.948  35.649  37.414  1.00  0.00     0.009 A 
ATOM     95  C   UNL A   1      39.337  34.315  38.537  1.00  0.00     0.009 A 
ATOM     96  C   UNL A   1      40.517  36.758  38.155  1.00  0.00     0.001 A 
ATOM     97  C   UNL A   1      38.905  35.406  39.288  1.00  0.00     0.001 A 
ATOM     98  C   UNL A   1      39.469  36.645  39.062  1.00  0.00     0.000 A 
ENDBRANCH  80  93
ENDBRANCH  54  55
ENDBRANCH  47  49
ENDBRANCH  46  47
ENDBRANCH  45  46
ENDBRANCH  44  45
ENDBRANCH  43  44
ENDBRANCH  42  43
ENDBRANCH  41  42
ENDBRANCH  40  41
ENDBRANCH  39  40
ENDBRANCH   1  39
TORSDOF 27
ENDMDL
MODEL 2
REMARK VINA RESULT:      -7.1      6.521      9.075
REMARK SMILES Cc1ccc(S(=O)(=O)n2cc(C(=O)C(=O)NCC(=O)NCC(=O)OCCOCCOCCOCCOC(=O)c3ccc(-c4c5nc(c(-c6ccccc6)c6ccc([nH]6)c(-c6ccccc6)c6nc(c(-c7ccccc7)c7ccc4[nH]7)C=C6)C=C5)cc3)c3ccccc32)cc1
REMARK SMILES IDX 28 1 27 2 26 3 25 4 24 5 22 6 23 7 21 8 20 9 18 10 19 11
REMARK SMILES IDX 17 13 16 14 14 15 15 16 12 18 13 19 11 20 9 21 10 22 92 23
REMARK SMILES IDX 87 24 91 25 88 26 90 27 89 28 6 29 7 30 8 31 5 32 1 33 2 34
REMARK SMILES IDX 3 35 94 36 4 37 93 38 29 39 30 40 31 41 32 42 33 43 34 44
REMARK SMILES IDX 35 45 36 46 37 47 38 48 39 49 40 50 86 51 41 52 85 53 42 54
REMARK SMILES IDX 43 55 44 56 79 57 45 58 84 59 78 60 80 61 46 62 83 63 77 64
REMARK SMILES IDX 76 65 47 67 69 68 54 69 68 70 55 71 58 72 67 73 81 74 56 75
REMARK SMILES IDX 57 76 66 78 82 79 59 80 48 81 49 82 53 83 50 84 52 85 51 86
REMARK SMILES IDX 70 87 71 88 75 89 72 90 74 91 73 92 60 93 61 94 65 95 62 96
REMARK SMILES IDX 64 97 63 98
REMARK H PARENT 20 12 16 17 80 66 58 77
REMARK Flexibility Score: inf
ROOT
ATOM      1  C   UNL A   1      48.264  28.754  28.447  1.00  0.00     0.188 C 
ENDROOT
BRANCH   1   2
ATOM      2  O   UNL A   1      47.917  27.429  28.069  1.00  0.00    -0.376 OA
BRANCH   2   3
ATOM      3  C   UNL A   1      48.153  26.407  29.037  1.00  0.00     0.202 C 
BRANCH   3   4
ATOM      4  C   UNL A   1      47.128  25.278  29.061  1.00  0.00     0.261 C 
BRANCH   4   5
ATOM      5  O   UNL A   1      46.434  25.315  27.804  1.00  0.00    -0.462 OA
BRANCH   5   6
ATOM      6  C   UNL A   1      46.412  24.176  27.082  1.00  0.00     0.325 C 
ATOM      7  O   UNL A   1      47.267  23.824  26.280  1.00  0.00    -0.250 OA
BRANCH   6   8
ATOM      8  C   UNL A   1      45.276  23.276  27.554  1.00  0.00     0.238 C 
BRANCH   8   9
ATOM      9  N   UNL A   1      44.419  22.729  26.507  1.00  0.00    -0.344 N 
ATOM     10  C   UNL A   1      43.264  23.233  25.995  1.00  0.00     0.239 C 
ATOM     11  O   UNL A   1      42.856  22.849  24.898  1.00  0.00    -0.273 OA
ATOM     12  H   UNL A   1      44.719  21.876  26.117  1.00  0.00     0.164 HD
BRANCH  10  13
ATOM     13  C   UNL A   1      42.426  24.138  26.883  1.00  0.00     0.216 C 
BRANCH  13  14
ATOM     14  N   UNL A   1      41.138  24.282  26.212  1.00  0.00    -0.340 N 
ATOM     15  C   UNL A   1      39.938  24.793  26.645  1.00  0.00     0.292 C 
ATOM     16  O   UNL A   1      38.974  24.754  25.887  1.00  0.00    -0.265 OA
ATOM     17  H   UNL A   1      41.128  23.955  25.282  1.00  0.00     0.164 HD
BRANCH  15  18
ATOM     18  C   UNL A   1      39.799  25.402  28.059  1.00  0.00     0.252 C 
ATOM     19  O   UNL A   1      39.083  24.818  28.870  1.00  0.00    -0.283 OA
BRANCH  18  20
ATOM     20  C   UNL A   1      40.473  26.652  28.426  1.00  0.00     0.054 A 
ATOM     21  N   UNL A   1      42.044  28.145  28.978  1.00  0.00    -0.240 N 
ATOM     22  C   UNL A   1      41.803  26.811  28.762  1.00  0.00     0.117 A 
ATOM     23  C   UNL A   1      40.859  28.849  29.016  1.00  0.00     0.065 A 
ATOM     24  C   UNL A   1      39.865  27.945  28.611  1.00  0.00     0.012 A 
ATOM     25  C   UNL A   1      40.554  30.168  29.398  1.00  0.00     0.028 A 
ATOM     26  C   UNL A   1      38.536  28.413  28.509  1.00  0.00     0.011 A 
ATOM     27  C   UNL A   1      39.219  30.575  29.357  1.00  0.00     0.002 A 
ATOM     28  C   UNL A   1      38.225  29.719  28.898  1.00  0.00     0.001 A 
BRANCH  21  29
ATOM     29  S   UNL A   1      43.561  28.741  29.474  1.00  0.00     0.268 S 
ATOM     30  O   UNL A   1      44.549  27.830  28.908  1.00  0.00    -0.201 OA
ATOM     31  O   UNL A   1      43.458  28.996  30.888  1.00  0.00    -0.201 OA
BRANCH  29  32
ATOM     32  C   UNL A   1      43.764  30.314  28.691  1.00  0.00     0.088 A 
ATOM     33  C   UNL A   1      44.151  34.039  26.606  1.00  0.00     0.044 C 
ATOM     34  C   UNL A   1      44.037  32.738  27.338  1.00  0.00    -0.051 A 
ATOM     35  C   UNL A   1      44.085  31.528  26.633  1.00  0.00     0.005 A 
ATOM     36  C   UNL A   1      43.885  32.719  28.730  1.00  0.00     0.005 A 
ATOM     37  C   UNL A   1      43.944  30.315  27.306  1.00  0.00     0.022 A 
ATOM     38  C   UNL A   1      43.758  31.510  29.409  1.00  0.00     0.022 A 
ENDBRANCH  29  32
ENDBRANCH  21  29
ENDBRANCH  18  20
ENDBRANCH  15  18
ENDBRANCH  13  14
ENDBRANCH  10  13
ENDBRANCH   8   9
ENDBRANCH   6   8
ENDBRANCH   5   6
ENDBRANCH   4   5
ENDBRANCH   3   4
ENDBRANCH   2   3
ENDBRANCH   1   2
BRANCH   1  39
ATOM     39  C   UNL A   1      47.700  29.921  27.628  1.00  0.00     0.188 C 
BRANCH  39  40
ATOM     40  O   UNL A   1      47.138  30.987  28.389  1.00  0.00    -0.377 OA
BRANCH  40  41
ATOM     41  C   UNL A   1      48.061  32.073  28.547  1.00  0.00     0.188 C 
BRANCH  41  42
ATOM     42  C   UNL A   1      48.725  32.015  29.912  1.00  0.00     0.188 C 
BRANCH  42  43
ATOM     43  O   UNL A   1      50.067  32.477  29.991  1.00  0.00    -0.376 OA
BRANCH  43  44
ATOM     44  C   UNL A   1      50.381  33.785  29.532  1.00  0.00     0.202 C 
BRANCH  44  45
ATOM     45  C   UNL A   1      51.266  33.845  28.283  1.00  0.00     0.261 C 
BRANCH  45  46
ATOM     46  O   UNL A   1      50.417  33.964  27.123  1.00  0.00    -0.460 OA
BRANCH  46  47
ATOM     47  C   UNL A   1      50.989  34.560  26.042  1.00  0.00     0.338 C 
ATOM     48  O   UNL A   1      52.096  34.298  25.600  1.00  0.00    -0.246 OA
BRANCH  47  49
ATOM     49  C   UNL A   1      50.237  35.809  25.704  1.00  0.00     0.060 A 
ATOM     50  C   UNL A   1      50.569  36.991  26.389  1.00  0.00     0.016 A 
ATOM     51  C   UNL A   1      48.996  35.704  25.082  1.00  0.00     0.016 A 
ATOM     52  C   UNL A   1      49.579  37.942  26.669  1.00  0.00     0.010 A 
ATOM     53  C   UNL A   1      48.005  36.606  25.434  1.00  0.00     0.010 A 
ATOM     54  C   UNL A   1      48.263  37.680  26.305  1.00  0.00    -0.014 A 
BRANCH  54  55
ATOM     55  C   UNL A   1      47.075  38.298  26.933  1.00  0.00     0.031 A 
ATOM     56  C   UNL A   1      46.548  39.566  26.350  1.00  0.00     0.074 A 
ATOM     57  C   UNL A   1      46.301  37.568  27.787  1.00  0.00     0.049 A 
ATOM     58  N   UNL A   1      45.433  40.104  26.683  1.00  0.00    -0.248 NA
ATOM     59  C   UNL A   1      47.204  40.318  25.280  1.00  0.00     0.031 C 
ATOM     60  C   UNL A   1      44.899  37.780  28.153  1.00  0.00     0.029 A 
ATOM     61  N   UNL A   1      46.634  36.456  28.559  1.00  0.00    -0.354 N 
ATOM     62  C   UNL A   1      45.095  41.072  25.770  1.00  0.00     0.074 A 
ATOM     63  C   UNL A   1      46.244  41.174  24.908  1.00  0.00     0.031 C 
ATOM     64  C   UNL A   1      44.527  36.980  29.163  1.00  0.00     0.029 A 
ATOM     65  C   UNL A   1      45.743  36.393  29.656  1.00  0.00     0.049 A 
ATOM     66  H   UNL A   1      47.363  35.823  28.372  1.00  0.00     0.167 HD
ATOM     67  C   UNL A   1      43.838  41.595  25.835  1.00  0.00     0.031 A 
ATOM     68  C   UNL A   1      46.225  36.643  30.910  1.00  0.00     0.031 A 
ATOM     69  C   UNL A   1      43.205  41.236  27.114  1.00  0.00     0.049 A 
ATOM     70  C   UNL A   1      45.785  38.026  31.389  1.00  0.00     0.074 A 
ATOM     71  C   UNL A   1      42.125  40.455  27.482  1.00  0.00     0.029 A 
ATOM     72  N   UNL A   1      43.931  41.461  28.289  1.00  0.00    -0.354 N 
ATOM     73  N   UNL A   1      45.328  38.961  30.587  1.00  0.00    -0.248 NA
ATOM     74  C   UNL A   1      45.680  38.428  32.783  1.00  0.00     0.031 C 
ATOM     75  C   UNL A   1      42.358  40.039  28.829  1.00  0.00     0.029 A 
ATOM     76  C   UNL A   1      43.434  40.734  29.351  1.00  0.00     0.049 A 
ATOM     77  H   UNL A   1      44.703  42.068  28.350  1.00  0.00     0.167 HD
ATOM     78  C   UNL A   1      44.717  39.960  31.297  1.00  0.00     0.074 A 
ATOM     79  C   UNL A   1      45.061  39.622  32.673  1.00  0.00     0.031 C 
ATOM     80  C   UNL A   1      43.943  40.940  30.714  1.00  0.00     0.031 A 
BRANCH  67  81
ATOM     81  C   UNL A   1      43.121  42.306  24.703  1.00  0.00    -0.014 A 
ATOM     82  C   UNL A   1      41.955  41.739  24.149  1.00  0.00     0.009 A 
ATOM     83  C   UNL A   1      43.583  43.476  24.067  1.00  0.00     0.009 A 
ATOM     84  C   UNL A   1      41.299  42.299  23.038  1.00  0.00     0.001 A 
ATOM     85  C   UNL A   1      42.919  44.054  22.969  1.00  0.00     0.001 A 
ATOM     86  C   UNL A   1      41.778  43.462  22.450  1.00  0.00     0.000 A 
ENDBRANCH  67  81
BRANCH  68  87
ATOM     87  C   UNL A   1      47.445  35.793  31.132  1.00  0.00    -0.014 A 
ATOM     88  C   UNL A   1      48.639  36.552  31.273  1.00  0.00     0.009 A 
ATOM     89  C   UNL A   1      47.354  34.596  31.858  1.00  0.00     0.009 A 
ATOM     90  C   UNL A   1      49.528  36.308  32.329  1.00  0.00     0.001 A 
ATOM     91  C   UNL A   1      48.291  34.322  32.873  1.00  0.00     0.001 A 
ATOM     92  C   UNL A   1      49.320  35.221  33.167  1.00  0.00     0.000 A 
ENDBRANCH  68  87
BRANCH  80  93
ATOM     93  C   UNL A   1      43.559  42.259  31.366  1.00  0.00    -0.014 A 
ATOM     94  C   UNL A   1      42.402  42.490  32.104  1.00  0.00     0.009 A 
ATOM     95  C   UNL A   1      44.461  43.351  31.294  1.00  0.00     0.009 A 
ATOM     96  C   UNL A   1      42.244  43.650  32.876  1.00  0.00     0.001 A 
ATOM     97  C   UNL A   1      44.313  44.513  32.048  1.00  0.00     0.001 A 
ATOM     98  C   UNL A   1      43.219  44.642  32.879  1.00  0.00     0.000 A 
ENDBRANCH  80  93
ENDBRANCH  54  55
ENDBRANCH  47  49
ENDBRANCH  46  47
ENDBRANCH  45  46
ENDBRANCH  44  45
ENDBRANCH  43  44
ENDBRANCH  42  43
ENDBRANCH  41  42
ENDBRANCH  40  41
ENDBRANCH  39  40
ENDBRANCH   1  39
TORSDOF 27
ENDMDL
MODEL 3
REMARK VINA RESULT:      -7.0     12.359     20.122
REMARK SMILES Cc1ccc(S(=O)(=O)n2cc(C(=O)C(=O)NCC(=O)NCC(=O)OCCOCCOCCOCCOC(=O)c3ccc(-c4c5nc(c(-c6ccccc6)c6ccc([nH]6)c(-c6ccccc6)c6nc(c(-c7ccccc7)c7ccc4[nH]7)C=C6)C=C5)cc3)c3ccccc32)cc1
REMARK SMILES IDX 28 1 27 2 26 3 25 4 24 5 22 6 23 7 21 8 20 9 18 10 19 11
REMARK SMILES IDX 17 13 16 14 14 15 15 16 12 18 13 19 11 20 9 21 10 22 92 23
REMARK SMILES IDX 87 24 91 25 88 26 90 27 89 28 6 29 7 30 8 31 5 32 1 33 2 34
REMARK SMILES IDX 3 35 94 36 4 37 93 38 29 39 30 40 31 41 32 42 33 43 34 44
REMARK SMILES IDX 35 45 36 46 37 47 38 48 39 49 40 50 86 51 41 52 85 53 42 54
REMARK SMILES IDX 43 55 44 56 79 57 45 58 84 59 78 60 80 61 46 62 83 63 77 64
REMARK SMILES IDX 76 65 47 67 69 68 54 69 68 70 55 71 58 72 67 73 81 74 56 75
REMARK SMILES IDX 57 76 66 78 82 79 59 80 48 81 49 82 53 83 50 84 52 85 51 86
REMARK SMILES IDX 70 87 71 88 75 89 72 90 74 91 73 92 60 93 61 94 65 95 62 96
REMARK SMILES IDX 64 97 63 98
REMARK H PARENT 20 12 16 17 80 66 58 77
REMARK Flexibility Score: inf
ROOT
ATOM      1  C   UNL A   1      31.261  39.219  42.363  1.00  0.00     0.188 C 
ENDROOT
BRANCH   1   2
ATOM      2  O   UNL A   1      31.181  38.603  41.085  1.00  0.00    -0.376 OA
BRANCH   2   3
ATOM      3  C   UNL A   1      32.148  37.592  40.802  1.00  0.00     0.202 C 
BRANCH   3   4
ATOM      4  C   UNL A   1      31.580  36.221  40.455  1.00  0.00     0.261 C 
BRANCH   4   5
ATOM      5  O   UNL A   1      31.098  35.644  41.678  1.00  0.00    -0.462 OA
BRANCH   5   6
ATOM      6  C   UNL A   1      31.238  34.310  41.825  1.00  0.00     0.325 C 
ATOM      7  O   UNL A   1      30.327  33.494  41.833  1.00  0.00    -0.250 OA
BRANCH   6   8
ATOM      8  C   UNL A   1      32.713  33.928  41.770  1.00  0.00     0.238 C 
BRANCH   8   9
ATOM      9  N   UNL A   1      33.141  32.901  42.714  1.00  0.00    -0.344 N 
ATOM     10  C   UNL A   1      34.376  32.357  42.887  1.00  0.00     0.239 C 
ATOM     11  O   UNL A   1      34.654  31.774  43.935  1.00  0.00    -0.273 OA
ATOM     12  H   UNL A   1      32.439  32.554  43.310  1.00  0.00     0.164 HD
BRANCH  10  13
ATOM     13  C   UNL A   1      35.322  32.347  41.696  1.00  0.00     0.216 C 
BRANCH  13  14
ATOM     14  N   UNL A   1      36.170  33.525  41.845  1.00  0.00    -0.340 N 
ATOM     15  C   UNL A   1      37.349  33.881  41.235  1.00  0.00     0.292 C 
ATOM     16  O   UNL A   1      37.899  34.922  41.578  1.00  0.00    -0.265 OA
ATOM     17  H   UNL A   1      35.838  34.182  42.500  1.00  0.00     0.164 HD
BRANCH  15  18
ATOM     18  C   UNL A   1      37.977  32.988  40.139  1.00  0.00     0.252 C 
ATOM     19  O   UNL A   1      38.372  31.871  40.463  1.00  0.00    -0.283 OA
BRANCH  18  20
ATOM     20  C   UNL A   1      38.126  33.460  38.758  1.00  0.00     0.054 A 
ATOM     21  N   UNL A   1      37.760  33.846  36.586  1.00  0.00    -0.240 N 
ATOM     22  C   UNL A   1      37.311  33.157  37.684  1.00  0.00     0.117 A 
ATOM     23  C   UNL A   1      38.985  34.423  36.846  1.00  0.00     0.065 A 
ATOM     24  C   UNL A   1      39.206  34.247  38.221  1.00  0.00     0.012 A 
ATOM     25  C   UNL A   1      39.934  35.044  36.014  1.00  0.00     0.028 A 
ATOM     26  C   UNL A   1      40.382  34.789  38.784  1.00  0.00     0.011 A 
ATOM     27  C   UNL A   1      41.120  35.502  36.592  1.00  0.00     0.002 A 
ATOM     28  C   UNL A   1      41.333  35.397  37.961  1.00  0.00     0.001 A 
BRANCH  21  29
ATOM     29  S   UNL A   1      37.051  33.690  35.044  1.00  0.00     0.268 S 
ATOM     30  O   UNL A   1      37.548  34.817  34.264  1.00  0.00    -0.201 OA
ATOM     31  O   UNL A   1      35.647  33.453  35.262  1.00  0.00    -0.201 OA
BRANCH  29  32
ATOM     32  C   UNL A   1      37.708  32.209  34.337  1.00  0.00     0.088 A 
ATOM     33  C   UNL A   1      39.196  28.674  32.421  1.00  0.00     0.044 C 
ATOM     34  C   UNL A   1      38.667  29.896  33.106  1.00  0.00    -0.051 A 
ATOM     35  C   UNL A   1      37.427  30.430  32.733  1.00  0.00     0.005 A 
ATOM     36  C   UNL A   1      39.405  30.513  34.123  1.00  0.00     0.005 A 
ATOM     37  C   UNL A   1      36.947  31.588  33.343  1.00  0.00     0.022 A 
ATOM     38  C   UNL A   1      38.924  31.661  34.746  1.00  0.00     0.022 A 
ENDBRANCH  29  32
ENDBRANCH  21  29
ENDBRANCH  18  20
ENDBRANCH  15  18
ENDBRANCH  13  14
ENDBRANCH  10  13
ENDBRANCH   8   9
ENDBRANCH   6   8
ENDBRANCH   5   6
ENDBRANCH   4   5
ENDBRANCH   3   4
ENDBRANCH   2   3
ENDBRANCH   1   2
BRANCH   1  39
ATOM     39  C   UNL A   1      31.908  38.440  43.513  1.00  0.00     0.188 C 
BRANCH  39  40
ATOM     40  O   UNL A   1      31.099  38.282  44.676  1.00  0.00    -0.377 OA
BRANCH  40  41
ATOM     41  C   UNL A   1      29.714  38.525  44.399  1.00  0.00     0.188 C 
BRANCH  41  42
ATOM     42  C   UNL A   1      29.069  39.295  45.538  1.00  0.00     0.188 C 
BRANCH  42  43
ATOM     43  O   UNL A   1      29.380  40.679  45.633  1.00  0.00    -0.376 OA
BRANCH  43  44
ATOM     44  C   UNL A   1      28.337  41.610  45.888  1.00  0.00     0.202 C 
BRANCH  44  45
ATOM     45  C   UNL A   1      28.652  42.673  46.945  1.00  0.00     0.261 C 
BRANCH  45  46
ATOM     46  O   UNL A   1      29.678  43.544  46.430  1.00  0.00    -0.460 OA
BRANCH  46  47
ATOM     47  C   UNL A   1      30.370  44.247  47.366  1.00  0.00     0.338 C 
ATOM     48  O   UNL A   1      29.962  45.246  47.938  1.00  0.00    -0.246 OA
BRANCH  47  49
ATOM     49  C   UNL A   1      31.812  43.847  47.327  1.00  0.00     0.060 A 
ATOM     50  C   UNL A   1      32.749  44.672  47.973  1.00  0.00     0.016 A 
ATOM     51  C   UNL A   1      32.243  42.966  46.339  1.00  0.00     0.016 A 
ATOM     52  C   UNL A   1      34.046  44.800  47.457  1.00  0.00     0.010 A 
ATOM     53  C   UNL A   1      33.497  43.160  45.785  1.00  0.00     0.010 A 
ATOM     54  C   UNL A   1      34.375  44.142  46.277  1.00  0.00    -0.014 A 
BRANCH  54  55
ATOM     55  C   UNL A   1      35.469  44.543  45.366  1.00  0.00     0.031 A 
ATOM     56  C   UNL A   1      36.585  43.578  45.138  1.00  0.00     0.074 A 
ATOM     57  C   UNL A   1      35.295  45.596  44.518  1.00  0.00     0.049 A 
ATOM     58  N   UNL A   1      37.493  43.726  44.244  1.00  0.00    -0.248 NA
ATOM     59  C   UNL A   1      36.744  42.315  45.857  1.00  0.00     0.031 C 
ATOM     60  C   UNL A   1      36.000  45.884  43.267  1.00  0.00     0.029 A 
ATOM     61  N   UNL A   1      34.435  46.688  44.621  1.00  0.00    -0.354 N 
ATOM     62  C   UNL A   1      38.180  42.548  44.084  1.00  0.00     0.074 A 
ATOM     63  C   UNL A   1      37.676  41.690  45.125  1.00  0.00     0.031 C 
ATOM     64  C   UNL A   1      35.697  47.105  42.801  1.00  0.00     0.029 A 
ATOM     65  C   UNL A   1      34.975  47.753  43.862  1.00  0.00     0.049 A 
ATOM     66  H   UNL A   1      33.595  46.714  45.133  1.00  0.00     0.167 HD
ATOM     67  C   UNL A   1      39.031  42.448  43.024  1.00  0.00     0.031 A 
ATOM     68  C   UNL A   1      35.457  48.850  44.517  1.00  0.00     0.031 A 
ATOM     69  C   UNL A   1      39.285  43.780  42.452  1.00  0.00     0.049 A 
ATOM     70  C   UNL A   1      36.986  48.851  44.510  1.00  0.00     0.074 A 
ATOM     71  C   UNL A   1      39.000  44.395  41.246  1.00  0.00     0.029 A 
ATOM     72  N   UNL A   1      39.652  44.808  43.327  1.00  0.00    -0.354 N 
ATOM     73  N   UNL A   1      37.712  47.789  44.239  1.00  0.00    -0.248 NA
ATOM     74  C   UNL A   1      37.817  50.035  44.657  1.00  0.00     0.031 C 
ATOM     75  C   UNL A   1      38.979  45.801  41.497  1.00  0.00     0.029 A 
ATOM     76  C   UNL A   1      39.467  46.055  42.766  1.00  0.00     0.049 A 
ATOM     77  H   UNL A   1      40.003  44.659  44.235  1.00  0.00     0.167 HD
ATOM     78  C   UNL A   1      39.012  48.136  43.989  1.00  0.00     0.074 A 
ATOM     79  C   UNL A   1      39.040  49.543  44.369  1.00  0.00     0.031 C 
ATOM     80  C   UNL A   1      39.937  47.270  43.447  1.00  0.00     0.031 A 
BRANCH  67  81
ATOM     81  C   UNL A   1      39.523  41.152  42.409  1.00  0.00    -0.014 A 
ATOM     82  C   UNL A   1      39.500  40.989  41.009  1.00  0.00     0.009 A 
ATOM     83  C   UNL A   1      39.927  40.017  43.141  1.00  0.00     0.009 A 
ATOM     84  C   UNL A   1      39.853  39.780  40.385  1.00  0.00     0.001 A 
ATOM     85  C   UNL A   1      40.304  38.811  42.522  1.00  0.00     0.001 A 
ATOM     86  C   UNL A   1      40.262  38.690  41.141  1.00  0.00     0.000 A 
ENDBRANCH  67  81
BRANCH  68  87
ATOM     87  C   UNL A   1      34.411  49.329  45.484  1.00  0.00    -0.014 A 
ATOM     88  C   UNL A   1      34.906  50.277  46.422  1.00  0.00     0.009 A 
ATOM     89  C   UNL A   1      33.076  49.463  45.077  1.00  0.00     0.009 A 
ATOM     90  C   UNL A   1      34.220  51.476  46.665  1.00  0.00     0.001 A 
ATOM     91  C   UNL A   1      32.367  50.642  45.384  1.00  0.00     0.001 A 
ATOM     92  C   UNL A   1      32.970  51.681  46.097  1.00  0.00     0.000 A 
ENDBRANCH  68  87
BRANCH  80  93
ATOM     93  C   UNL A   1      41.446  47.454  43.495  1.00  0.00    -0.014 A 
ATOM     94  C   UNL A   1      42.319  47.258  42.429  1.00  0.00     0.009 A 
ATOM     95  C   UNL A   1      42.045  47.927  44.690  1.00  0.00     0.009 A 
ATOM     96  C   UNL A   1      43.652  47.687  42.485  1.00  0.00     0.001 A 
ATOM     97  C   UNL A   1      43.370  48.349  44.763  1.00  0.00     0.001 A 
ATOM     98  C   UNL A   1      44.166  48.269  43.639  1.00  0.00     0.000 A 
ENDBRANCH  80  93
ENDBRANCH  54  55
ENDBRANCH  47  49
ENDBRANCH  46  47
ENDBRANCH  45  46
ENDBRANCH  44  45
ENDBRANCH  43  44
ENDBRANCH  42  43
ENDBRANCH  41  42
ENDBRANCH  40  41
ENDBRANCH  39  40
ENDBRANCH   1  39
TORSDOF 27
ENDMDL
