MODEL 1
REMARK VINA RESULT:      -8.0      0.000      0.000
REMARK SMILES CC(C)CN(C)c1cc2c(cc1Cl)C=C(C(=O)OCCOCCOCCOCCOC(=O)c1ccc(-c3c4nc(c(-c5ccccc5)c5ccc([nH]5)c(-c5ccccc5)c5nc(c(-c6ccccc6)c6ccc3[nH]6)C=C5)C=C4)cc1)[C@H](C(F)(F)F)O2
REMARK SMILES IDX 23 1 22 2 21 3 20 4 19 5 18 6 16 7 17 8 15 9 7 10 8 11 12 12
REMARK SMILES IDX 9 13 11 14 13 15 10 16 86 17 14 18 81 19 5 20 6 21 4 22 2 23
REMARK SMILES IDX 1 24 3 25 82 26 83 27 84 28 85 29 24 30 25 31 26 32 27 33
REMARK SMILES IDX 28 34 29 35 30 36 31 37 32 38 33 39 34 40 80 41 35 42 79 43
REMARK SMILES IDX 36 44 37 45 38 46 73 47 39 48 78 49 72 50 74 51 40 52 77 53
REMARK SMILES IDX 71 54 70 55 41 57 63 58 48 59 62 60 49 61 52 62 61 63 75 64
REMARK SMILES IDX 50 65 51 66 60 68 76 69 53 70 42 71 43 72 47 73 44 74 46 75
REMARK SMILES IDX 45 76 64 77 65 78 69 79 66 80 68 81 67 82 54 83 55 84 59 85
REMARK SMILES IDX 56 86 58 87 57 88
REMARK H PARENT 74 56 52 67
REMARK Flexibility Score: inf
ROOT
ATOM      1  C   UNL A   1      33.459  33.450  28.256  1.00  0.00     0.188 C 
ENDROOT
BRANCH   1   2
ATOM      2  C   UNL A   1      34.623  32.470  28.448  1.00  0.00     0.188 C 
BRANCH   2   3
ATOM      3  O   UNL A   1      34.312  31.092  28.388  1.00  0.00    -0.376 OA
BRANCH   3   4
ATOM      4  C   UNL A   1      34.852  30.273  27.355  1.00  0.00     0.202 C 
BRANCH   4   5
ATOM      5  C   UNL A   1      36.059  29.341  27.565  1.00  0.00     0.261 C 
BRANCH   5   6
ATOM      6  O   UNL A   1      36.672  29.432  28.861  1.00  0.00    -0.460 OA
BRANCH   6   7
ATOM      7  C   UNL A   1      37.949  29.871  28.861  1.00  0.00     0.338 C 
ATOM      8  O   UNL A   1      38.303  31.042  28.871  1.00  0.00    -0.246 OA
BRANCH   7   9
ATOM      9  C   UNL A   1      38.924  28.775  29.010  1.00  0.00     0.087 C 
ATOM     10  C   UNL A   1      41.962  25.110  27.297  1.00  0.00     0.059 A 
ATOM     11  C   UNL A   1      41.085  25.244  28.395  1.00  0.00     0.074 A 
ATOM     12  C   UNL A   1      42.058  26.215  26.424  1.00  0.00     0.065 A 
ATOM     13  C   UNL A   1      40.374  26.431  28.629  1.00  0.00     0.130 A 
ATOM     14  C   UNL A   1      41.442  27.433  26.724  1.00  0.00     0.034 A 
ATOM     15  Cl  UNL A   1      42.832  26.117  24.878  1.00  0.00    -0.082 Cl
ATOM     16  C   UNL A   1      40.601  27.543  27.829  1.00  0.00     0.019 A 
ATOM     17  O   UNL A   1      39.442  26.404  29.631  1.00  0.00    -0.475 OA
ATOM     18  C   UNL A   1      39.865  28.772  28.055  1.00  0.00     0.027 C 
ATOM     19  C   UNL A   1      38.631  27.596  29.897  1.00  0.00     0.316 C 
BRANCH  10  20
ATOM     20  N   UNL A   1      42.674  23.921  27.082  1.00  0.00    -0.373 N 
ATOM     21  C   UNL A   1      44.131  24.031  27.123  1.00  0.00     0.143 C 
BRANCH  20  22
ATOM     22  C   UNL A   1      42.106  22.928  26.142  1.00  0.00     0.119 C 
BRANCH  22  23
ATOM     23  C   UNL A   1      41.212  21.876  26.836  1.00  0.00     0.002 C 
ATOM     24  C   UNL A   1      39.743  22.003  26.419  1.00  0.00     0.009 C 
ATOM     25  C   UNL A   1      41.673  20.446  26.534  1.00  0.00     0.009 C 
ENDBRANCH  22  23
ENDBRANCH  20  22
ENDBRANCH  10  20
BRANCH  19  26
ATOM     26  C   UNL A   1      38.706  27.847  31.412  1.00  0.00     0.430 C 
ATOM     27  F   UNL A   1      38.306  26.778  32.134  1.00  0.00    -0.167 F 
ATOM     28  F   UNL A   1      39.936  28.209  31.836  1.00  0.00    -0.167 F 
ATOM     29  F   UNL A   1      37.884  28.879  31.745  1.00  0.00    -0.167 F 
ENDBRANCH  19  26
ENDBRANCH   7   9
ENDBRANCH   6   7
ENDBRANCH   5   6
ENDBRANCH   4   5
ENDBRANCH   3   4
ENDBRANCH   2   3
ENDBRANCH   1   2
BRANCH   1  30
ATOM     30  O   UNL A   1      33.759  34.836  28.265  1.00  0.00    -0.377 OA
BRANCH  30  31
ATOM     31  C   UNL A   1      33.856  35.516  29.517  1.00  0.00     0.188 C 
BRANCH  31  32
ATOM     32  C   UNL A   1      33.222  36.908  29.677  1.00  0.00     0.188 C 
BRANCH  32  33
ATOM     33  O   UNL A   1      32.580  37.227  30.911  1.00  0.00    -0.376 OA
BRANCH  33  34
ATOM     34  C   UNL A   1      33.353  37.228  32.107  1.00  0.00     0.202 C 
BRANCH  34  35
ATOM     35  C   UNL A   1      33.211  35.965  32.946  1.00  0.00     0.261 C 
BRANCH  35  36
ATOM     36  O   UNL A   1      34.467  35.279  33.044  1.00  0.00    -0.460 OA
BRANCH  36  37
ATOM     37  C   UNL A   1      34.396  33.942  33.223  1.00  0.00     0.338 C 
ATOM     38  O   UNL A   1      33.393  33.250  33.299  1.00  0.00    -0.246 OA
BRANCH  37  39
ATOM     39  C   UNL A   1      35.762  33.390  33.165  1.00  0.00     0.060 A 
ATOM     40  C   UNL A   1      36.103  32.431  32.209  1.00  0.00     0.016 A 
ATOM     41  C   UNL A   1      36.720  33.874  34.064  1.00  0.00     0.016 A 
ATOM     42  C   UNL A   1      37.422  31.987  32.126  1.00  0.00     0.010 A 
ATOM     43  C   UNL A   1      38.041  33.436  33.975  1.00  0.00     0.010 A 
ATOM     44  C   UNL A   1      38.404  32.515  32.983  1.00  0.00    -0.014 A 
BRANCH  44  45
ATOM     45  C   UNL A   1      39.832  32.242  32.702  1.00  0.00     0.031 A 
ATOM     46  C   UNL A   1      40.565  31.116  33.359  1.00  0.00     0.074 A 
ATOM     47  C   UNL A   1      40.457  33.047  31.822  1.00  0.00     0.049 A 
ATOM     48  N   UNL A   1      41.784  30.699  33.133  1.00  0.00    -0.248 NA
ATOM     49  C   UNL A   1      39.850  30.362  34.399  1.00  0.00     0.031 C 
ATOM     50  C   UNL A   1      39.835  34.191  31.150  1.00  0.00     0.029 A 
ATOM     51  N   UNL A   1      41.734  33.023  31.325  1.00  0.00    -0.354 N 
ATOM     52  C   UNL A   1      41.980  29.622  33.984  1.00  0.00     0.074 A 
ATOM     53  C   UNL A   1      40.771  29.477  34.766  1.00  0.00     0.031 C 
ATOM     54  C   UNL A   1      40.716  34.730  30.297  1.00  0.00     0.029 A 
ATOM     55  C   UNL A   1      41.977  34.002  30.391  1.00  0.00     0.049 A 
ATOM     56  H   UNL A   1      42.412  32.368  31.609  1.00  0.00     0.167 HD
ATOM     57  C   UNL A   1      43.068  28.822  34.081  1.00  0.00     0.031 A 
ATOM     58  C   UNL A   1      43.087  34.282  29.682  1.00  0.00     0.031 A 
ATOM     59  C   UNL A   1      44.269  28.995  33.303  1.00  0.00     0.049 A 
ATOM     60  C   UNL A   1      44.294  33.402  29.845  1.00  0.00     0.074 A 
ATOM     61  C   UNL A   1      45.408  28.208  33.307  1.00  0.00     0.029 A 
ATOM     62  N   UNL A   1      44.496  30.022  32.399  1.00  0.00    -0.354 N 
ATOM     63  N   UNL A   1      44.434  32.332  30.590  1.00  0.00    -0.248 NA
ATOM     64  C   UNL A   1      45.487  33.751  29.062  1.00  0.00     0.031 C 
ATOM     65  C   UNL A   1      46.352  28.804  32.469  1.00  0.00     0.029 A 
ATOM     66  C   UNL A   1      45.771  29.910  31.870  1.00  0.00     0.049 A 
ATOM     67  H   UNL A   1      43.846  30.725  32.167  1.00  0.00     0.167 HD
ATOM     68  C   UNL A   1      45.720  31.867  30.349  1.00  0.00     0.074 A 
ATOM     69  C   UNL A   1      46.310  32.757  29.371  1.00  0.00     0.031 C 
ATOM     70  C   UNL A   1      46.352  30.800  30.895  1.00  0.00     0.031 A 
BRANCH  57  71
ATOM     71  C   UNL A   1      43.029  27.668  35.046  1.00  0.00    -0.014 A 
ATOM     72  C   UNL A   1      42.400  26.467  34.676  1.00  0.00     0.009 A 
ATOM     73  C   UNL A   1      43.474  27.821  36.368  1.00  0.00     0.009 A 
ATOM     74  C   UNL A   1      42.188  25.458  35.618  1.00  0.00     0.001 A 
ATOM     75  C   UNL A   1      43.289  26.797  37.300  1.00  0.00     0.001 A 
ATOM     76  C   UNL A   1      42.633  25.624  36.929  1.00  0.00     0.000 A 
ENDBRANCH  57  71
BRANCH  58  77
ATOM     77  C   UNL A   1      43.079  35.430  28.735  1.00  0.00    -0.014 A 
ATOM     78  C   UNL A   1      43.379  36.728  29.184  1.00  0.00     0.009 A 
ATOM     79  C   UNL A   1      42.718  35.250  27.392  1.00  0.00     0.009 A 
ATOM     80  C   UNL A   1      43.289  37.820  28.319  1.00  0.00     0.001 A 
ATOM     81  C   UNL A   1      42.666  36.340  26.518  1.00  0.00     0.001 A 
ATOM     82  C   UNL A   1      42.940  37.625  26.986  1.00  0.00     0.000 A 
ENDBRANCH  58  77
BRANCH  70  83
ATOM     83  C   UNL A   1      47.761  30.506  30.451  1.00  0.00    -0.014 A 
ATOM     84  C   UNL A   1      48.838  31.154  31.079  1.00  0.00     0.009 A 
ATOM     85  C   UNL A   1      48.016  29.694  29.337  1.00  0.00     0.009 A 
ATOM     86  C   UNL A   1      50.136  31.018  30.584  1.00  0.00     0.001 A 
ATOM     87  C   UNL A   1      49.321  29.529  28.866  1.00  0.00     0.001 A 
ATOM     88  C   UNL A   1      50.376  30.202  29.481  1.00  0.00     0.000 A 
ENDBRANCH  70  83
ENDBRANCH  44  45
ENDBRANCH  37  39
ENDBRANCH  36  37
ENDBRANCH  35  36
ENDBRANCH  34  35
ENDBRANCH  33  34
ENDBRANCH  32  33
ENDBRANCH  31  32
ENDBRANCH  30  31
ENDBRANCH   1  30
TORSDOF 24
ENDMDL
MODEL 2
REMARK VINA RESULT:      -7.6      4.522      6.590
REMARK SMILES CC(C)CN(C)c1cc2c(cc1Cl)C=C(C(=O)OCCOCCOCCOCCOC(=O)c1ccc(-c3c4nc(c(-c5ccccc5)c5ccc([nH]5)c(-c5ccccc5)c5nc(c(-c6ccccc6)c6ccc3[nH]6)C=C5)C=C4)cc1)[C@H](C(F)(F)F)O2
REMARK SMILES IDX 23 1 22 2 21 3 20 4 19 5 18 6 16 7 17 8 15 9 7 10 8 11 12 12
REMARK SMILES IDX 9 13 11 14 13 15 10 16 86 17 14 18 81 19 5 20 6 21 4 22 2 23
REMARK SMILES IDX 1 24 3 25 82 26 83 27 84 28 85 29 24 30 25 31 26 32 27 33
REMARK SMILES IDX 28 34 29 35 30 36 31 37 32 38 33 39 34 40 80 41 35 42 79 43
REMARK SMILES IDX 36 44 37 45 38 46 73 47 39 48 78 49 72 50 74 51 40 52 77 53
REMARK SMILES IDX 71 54 70 55 41 57 63 58 48 59 62 60 49 61 52 62 61 63 75 64
REMARK SMILES IDX 50 65 51 66 60 68 76 69 53 70 42 71 43 72 47 73 44 74 46 75
REMARK SMILES IDX 45 76 64 77 65 78 69 79 66 80 68 81 67 82 54 83 55 84 59 85
REMARK SMILES IDX 56 86 58 87 57 88
REMARK H PARENT 74 56 52 67
REMARK Flexibility Score: inf
ROOT
ATOM      1  C   UNL A   1      33.494  33.538  28.028  1.00  0.00     0.188 C 
ENDROOT
BRANCH   1   2
ATOM      2  C   UNL A   1      34.596  32.473  28.090  1.00  0.00     0.188 C 
BRANCH   2   3
ATOM      3  O   UNL A   1      34.337  31.249  27.431  1.00  0.00    -0.376 OA
BRANCH   3   4
ATOM      4  C   UNL A   1      33.027  30.942  26.964  1.00  0.00     0.202 C 
BRANCH   4   5
ATOM      5  C   UNL A   1      32.688  29.650  26.198  1.00  0.00     0.261 C 
BRANCH   5   6
ATOM      6  O   UNL A   1      33.768  29.110  25.419  1.00  0.00    -0.460 OA
BRANCH   6   7
ATOM      7  C   UNL A   1      33.392  28.368  24.356  1.00  0.00     0.338 C 
ATOM      8  O   UNL A   1      33.424  28.725  23.186  1.00  0.00    -0.246 OA
BRANCH   7   9
ATOM      9  C   UNL A   1      33.069  26.976  24.723  1.00  0.00     0.087 C 
ATOM     10  C   UNL A   1      34.066  22.041  25.210  1.00  0.00     0.059 A 
ATOM     11  C   UNL A   1      32.946  22.794  24.796  1.00  0.00     0.074 A 
ATOM     12  C   UNL A   1      35.217  22.768  25.582  1.00  0.00     0.065 A 
ATOM     13  C   UNL A   1      32.963  24.197  24.791  1.00  0.00     0.130 A 
ATOM     14  C   UNL A   1      35.192  24.162  25.689  1.00  0.00     0.034 A 
ATOM     15  Cl  UNL A   1      36.760  22.017  25.814  1.00  0.00    -0.082 Cl
ATOM     16  C   UNL A   1      34.063  24.878  25.296  1.00  0.00     0.019 A 
ATOM     17  O   UNL A   1      31.884  24.825  24.233  1.00  0.00    -0.475 OA
ATOM     18  C   UNL A   1      34.097  26.327  25.288  1.00  0.00     0.027 C 
ATOM     19  C   UNL A   1      31.859  26.289  24.153  1.00  0.00     0.316 C 
BRANCH  10  20
ATOM     20  N   UNL A   1      34.030  20.639  25.220  1.00  0.00    -0.373 N 
ATOM     21  C   UNL A   1      35.276  19.964  24.862  1.00  0.00     0.143 C 
BRANCH  20  22
ATOM     22  C   UNL A   1      32.770  19.971  24.819  1.00  0.00     0.119 C 
BRANCH  22  23
ATOM     23  C   UNL A   1      32.989  18.550  24.256  1.00  0.00     0.002 C 
ATOM     24  C   UNL A   1      32.578  17.463  25.255  1.00  0.00     0.009 C 
ATOM     25  C   UNL A   1      32.209  18.324  22.956  1.00  0.00     0.009 C 
ENDBRANCH  22  23
ENDBRANCH  20  22
ENDBRANCH  10  20
BRANCH  19  26
ATOM     26  C   UNL A   1      30.496  26.734  24.708  1.00  0.00     0.430 C 
ATOM     27  F   UNL A   1      30.071  27.897  24.168  1.00  0.00    -0.167 F 
ATOM     28  F   UNL A   1      29.524  25.811  24.549  1.00  0.00    -0.167 F 
ATOM     29  F   UNL A   1      30.596  26.936  26.051  1.00  0.00    -0.167 F 
ENDBRANCH  19  26
ENDBRANCH   7   9
ENDBRANCH   6   7
ENDBRANCH   5   6
ENDBRANCH   4   5
ENDBRANCH   3   4
ENDBRANCH   2   3
ENDBRANCH   1   2
BRANCH   1  30
ATOM     30  O   UNL A   1      33.580  34.624  28.935  1.00  0.00    -0.377 OA
BRANCH  30  31
ATOM     31  C   UNL A   1      34.343  34.470  30.132  1.00  0.00     0.188 C 
BRANCH  31  32
ATOM     32  C   UNL A   1      33.700  34.791  31.491  1.00  0.00     0.188 C 
BRANCH  32  33
ATOM     33  O   UNL A   1      33.728  33.794  32.512  1.00  0.00    -0.376 OA
BRANCH  33  34
ATOM     34  C   UNL A   1      34.988  33.296  32.950  1.00  0.00     0.202 C 
BRANCH  34  35
ATOM     35  C   UNL A   1      35.365  31.941  32.364  1.00  0.00     0.261 C 
BRANCH  35  36
ATOM     36  O   UNL A   1      36.682  31.983  31.799  1.00  0.00    -0.460 OA
BRANCH  36  37
ATOM     37  C   UNL A   1      37.408  30.848  31.911  1.00  0.00     0.338 C 
ATOM     38  O   UNL A   1      37.012  29.735  32.218  1.00  0.00    -0.246 OA
BRANCH  37  39
ATOM     39  C   UNL A   1      38.780  31.124  31.446  1.00  0.00     0.060 A 
ATOM     40  C   UNL A   1      39.154  30.856  30.128  1.00  0.00     0.016 A 
ATOM     41  C   UNL A   1      39.689  31.696  32.345  1.00  0.00     0.016 A 
ATOM     42  C   UNL A   1      40.433  31.202  29.697  1.00  0.00     0.010 A 
ATOM     43  C   UNL A   1      40.967  32.049  31.911  1.00  0.00     0.010 A 
ATOM     44  C   UNL A   1      41.332  31.834  30.574  1.00  0.00    -0.014 A 
BRANCH  44  45
ATOM     45  C   UNL A   1      42.570  32.437  30.032  1.00  0.00     0.031 A 
ATOM     46  C   UNL A   1      43.852  31.671  29.948  1.00  0.00     0.074 A 
ATOM     47  C   UNL A   1      42.505  33.713  29.605  1.00  0.00     0.049 A 
ATOM     48  N   UNL A   1      44.984  32.037  29.405  1.00  0.00    -0.248 NA
ATOM     49  C   UNL A   1      43.874  30.328  30.547  1.00  0.00     0.031 C 
ATOM     50  C   UNL A   1      41.307  34.554  29.671  1.00  0.00     0.029 A 
ATOM     51  N   UNL A   1      43.446  34.519  29.019  1.00  0.00    -0.354 N 
ATOM     52  C   UNL A   1      45.850  30.968  29.575  1.00  0.00     0.074 A 
ATOM     53  C   UNL A   1      45.128  29.954  30.315  1.00  0.00     0.031 C 
ATOM     54  C   UNL A   1      41.572  35.740  29.106  1.00  0.00     0.029 A 
ATOM     55  C   UNL A   1      42.967  35.761  28.677  1.00  0.00     0.049 A 
ATOM     56  H   UNL A   1      44.375  34.235  28.857  1.00  0.00     0.167 HD
ATOM     57  C   UNL A   1      47.123  30.846  29.132  1.00  0.00     0.031 A 
ATOM     58  C   UNL A   1      43.577  36.802  28.079  1.00  0.00     0.031 A 
ATOM     59  C   UNL A   1      47.829  31.876  28.412  1.00  0.00     0.049 A 
ATOM     60  C   UNL A   1      45.006  36.652  27.640  1.00  0.00     0.074 A 
ATOM     61  C   UNL A   1      49.111  31.826  27.889  1.00  0.00     0.029 A 
ATOM     62  N   UNL A   1      47.328  33.136  28.122  1.00  0.00    -0.354 N 
ATOM     63  N   UNL A   1      45.785  35.601  27.729  1.00  0.00    -0.248 NA
ATOM     64  C   UNL A   1      45.635  37.817  27.003  1.00  0.00     0.031 C 
ATOM     65  C   UNL A   1      49.414  33.081  27.359  1.00  0.00     0.029 A 
ATOM     66  C   UNL A   1      48.290  33.885  27.464  1.00  0.00     0.049 A 
ATOM     67  H   UNL A   1      46.423  33.451  28.349  1.00  0.00     0.167 HD
ATOM     68  C   UNL A   1      46.988  35.970  27.141  1.00  0.00     0.074 A 
ATOM     69  C   UNL A   1      46.827  37.332  26.676  1.00  0.00     0.031 C 
ATOM     70  C   UNL A   1      48.122  35.241  27.003  1.00  0.00     0.031 A 
BRANCH  57  71
ATOM     71  C   UNL A   1      47.855  29.557  29.389  1.00  0.00    -0.014 A 
ATOM     72  C   UNL A   1      48.693  29.439  30.510  1.00  0.00     0.009 A 
ATOM     73  C   UNL A   1      47.837  28.519  28.443  1.00  0.00     0.009 A 
ATOM     74  C   UNL A   1      49.522  28.326  30.663  1.00  0.00     0.001 A 
ATOM     75  C   UNL A   1      48.645  27.392  28.615  1.00  0.00     0.001 A 
ATOM     76  C   UNL A   1      49.497  27.303  29.715  1.00  0.00     0.000 A 
ENDBRANCH  57  71
BRANCH  58  77
ATOM     77  C   UNL A   1      42.813  38.057  27.840  1.00  0.00    -0.014 A 
ATOM     78  C   UNL A   1      41.986  38.185  26.710  1.00  0.00     0.009 A 
ATOM     79  C   UNL A   1      42.946  39.155  28.703  1.00  0.00     0.009 A 
ATOM     80  C   UNL A   1      41.335  39.389  26.436  1.00  0.00     0.001 A 
ATOM     81  C   UNL A   1      42.263  40.347  28.447  1.00  0.00     0.001 A 
ATOM     82  C   UNL A   1      41.469  40.467  27.307  1.00  0.00     0.000 A 
ENDBRANCH  58  77
BRANCH  70  83
ATOM     83  C   UNL A   1      49.297  35.882  26.313  1.00  0.00    -0.014 A 
ATOM     84  C   UNL A   1      49.469  35.713  24.928  1.00  0.00     0.009 A 
ATOM     85  C   UNL A   1      50.297  36.541  27.043  1.00  0.00     0.009 A 
ATOM     86  C   UNL A   1      50.628  36.164  24.295  1.00  0.00     0.001 A 
ATOM     87  C   UNL A   1      51.439  37.025  26.400  1.00  0.00     0.001 A 
ATOM     88  C   UNL A   1      51.610  36.823  25.031  1.00  0.00     0.000 A 
ENDBRANCH  70  83
ENDBRANCH  44  45
ENDBRANCH  37  39
ENDBRANCH  36  37
ENDBRANCH  35  36
ENDBRANCH  34  35
ENDBRANCH  33  34
ENDBRANCH  32  33
ENDBRANCH  31  32
ENDBRANCH  30  31
ENDBRANCH   1  30
TORSDOF 24
ENDMDL
MODEL 3
REMARK VINA RESULT:      -7.0      4.670      8.947
REMARK SMILES CC(C)CN(C)c1cc2c(cc1Cl)C=C(C(=O)OCCOCCOCCOCCOC(=O)c1ccc(-c3c4nc(c(-c5ccccc5)c5ccc([nH]5)c(-c5ccccc5)c5nc(c(-c6ccccc6)c6ccc3[nH]6)C=C5)C=C4)cc1)[C@H](C(F)(F)F)O2
REMARK SMILES IDX 23 1 22 2 21 3 20 4 19 5 18 6 16 7 17 8 15 9 7 10 8 11 12 12
REMARK SMILES IDX 9 13 11 14 13 15 10 16 86 17 14 18 81 19 5 20 6 21 4 22 2 23
REMARK SMILES IDX 1 24 3 25 82 26 83 27 84 28 85 29 24 30 25 31 26 32 27 33
REMARK SMILES IDX 28 34 29 35 30 36 31 37 32 38 33 39 34 40 80 41 35 42 79 43
REMARK SMILES IDX 36 44 37 45 38 46 73 47 39 48 78 49 72 50 74 51 40 52 77 53
REMARK SMILES IDX 71 54 70 55 41 57 63 58 48 59 62 60 49 61 52 62 61 63 75 64
REMARK SMILES IDX 50 65 51 66 60 68 76 69 53 70 42 71 43 72 47 73 44 74 46 75
REMARK SMILES IDX 45 76 64 77 65 78 69 79 66 80 68 81 67 82 54 83 55 84 59 85
REMARK SMILES IDX 56 86 58 87 57 88
REMARK H PARENT 74 56 52 67
REMARK Flexibility Score: inf
ROOT
ATOM      1  C   UNL A   1      39.147  28.273  28.210  1.00  0.00     0.188 C 
ENDROOT
BRANCH   1   2
ATOM      2  C   UNL A   1      39.560  27.029  27.414  1.00  0.00     0.188 C 
BRANCH   2   3
ATOM      3  O   UNL A   1      38.801  25.855  27.626  1.00  0.00    -0.376 OA
BRANCH   3   4
ATOM      4  C   UNL A   1      39.024  24.696  26.831  1.00  0.00     0.202 C 
BRANCH   4   5
ATOM      5  C   UNL A   1      37.889  23.775  26.349  1.00  0.00     0.261 C 
BRANCH   5   6
ATOM      6  O   UNL A   1      36.751  24.458  25.798  1.00  0.00    -0.460 OA
BRANCH   6   7
ATOM      7  C   UNL A   1      35.569  23.826  25.960  1.00  0.00     0.338 C 
ATOM      8  O   UNL A   1      35.329  22.959  26.790  1.00  0.00    -0.246 OA
BRANCH   7   9
ATOM      9  C   UNL A   1      34.501  24.399  25.120  1.00  0.00     0.087 C 
ATOM     10  C   UNL A   1      30.750  27.632  24.090  1.00  0.00     0.059 A 
ATOM     11  C   UNL A   1      30.960  26.252  23.881  1.00  0.00     0.074 A 
ATOM     12  C   UNL A   1      31.782  28.339  24.744  1.00  0.00     0.065 A 
ATOM     13  C   UNL A   1      32.153  25.622  24.267  1.00  0.00     0.130 A 
ATOM     14  C   UNL A   1      33.013  27.736  25.019  1.00  0.00     0.034 A 
ATOM     15  Cl  UNL A   1      31.571  29.946  25.355  1.00  0.00    -0.082 Cl
ATOM     16  C   UNL A   1      33.200  26.377  24.779  1.00  0.00     0.019 A 
ATOM     17  O   UNL A   1      32.195  24.259  24.155  1.00  0.00    -0.475 OA
ATOM     18  C   UNL A   1      34.433  25.736  25.190  1.00  0.00     0.027 C 
ATOM     19  C   UNL A   1      33.394  23.534  24.585  1.00  0.00     0.316 C 
BRANCH  10  20
ATOM     20  N   UNL A   1      29.556  28.250  23.689  1.00  0.00    -0.373 N 
ATOM     21  C   UNL A   1      28.409  27.365  23.500  1.00  0.00     0.143 C 
BRANCH  20  22
ATOM     22  C   UNL A   1      29.647  29.426  22.792  1.00  0.00     0.119 C 
BRANCH  22  23
ATOM     23  C   UNL A   1      28.273  30.057  22.478  1.00  0.00     0.002 C 
ATOM     24  C   UNL A   1      27.885  31.132  23.500  1.00  0.00     0.009 C 
ATOM     25  C   UNL A   1      28.240  30.690  21.083  1.00  0.00     0.009 C 
ENDBRANCH  22  23
ENDBRANCH  20  22
ENDBRANCH  10  20
BRANCH  19  26
ATOM     26  C   UNL A   1      33.766  22.583  23.435  1.00  0.00     0.430 C 
ATOM     27  F   UNL A   1      32.803  22.513  22.490  1.00  0.00    -0.167 F 
ATOM     28  F   UNL A   1      34.931  22.900  22.832  1.00  0.00    -0.167 F 
ATOM     29  F   UNL A   1      33.934  21.323  23.922  1.00  0.00    -0.167 F 
ENDBRANCH  19  26
ENDBRANCH   7   9
ENDBRANCH   6   7
ENDBRANCH   5   6
ENDBRANCH   4   5
ENDBRANCH   3   4
ENDBRANCH   2   3
ENDBRANCH   1   2
BRANCH   1  30
ATOM     30  O   UNL A   1      37.763  28.574  28.285  1.00  0.00    -0.377 OA
BRANCH  30  31
ATOM     31  C   UNL A   1      37.332  29.918  28.073  1.00  0.00     0.188 C 
BRANCH  31  32
ATOM     32  C   UNL A   1      37.541  30.968  29.177  1.00  0.00     0.188 C 
BRANCH  32  33
ATOM     33  O   UNL A   1      36.414  31.717  29.629  1.00  0.00    -0.376 OA
BRANCH  33  34
ATOM     34  C   UNL A   1      36.625  33.022  30.159  1.00  0.00     0.202 C 
BRANCH  34  35
ATOM     35  C   UNL A   1      35.921  33.281  31.484  1.00  0.00     0.261 C 
BRANCH  35  36
ATOM     36  O   UNL A   1      35.875  32.086  32.276  1.00  0.00    -0.460 OA
BRANCH  36  37
ATOM     37  C   UNL A   1      36.621  32.096  33.403  1.00  0.00     0.338 C 
ATOM     38  O   UNL A   1      36.288  32.471  34.516  1.00  0.00    -0.246 OA
BRANCH  37  39
ATOM     39  C   UNL A   1      37.902  31.423  33.121  1.00  0.00     0.060 A 
ATOM     40  C   UNL A   1      37.938  30.236  32.386  1.00  0.00     0.016 A 
ATOM     41  C   UNL A   1      39.086  32.020  33.573  1.00  0.00     0.016 A 
ATOM     42  C   UNL A   1      39.169  29.667  32.066  1.00  0.00     0.010 A 
ATOM     43  C   UNL A   1      40.318  31.454  33.246  1.00  0.00     0.010 A 
ATOM     44  C   UNL A   1      40.365  30.292  32.462  1.00  0.00    -0.014 A 
BRANCH  44  45
ATOM     45  C   UNL A   1      41.648  29.831  31.885  1.00  0.00     0.031 A 
ATOM     46  C   UNL A   1      42.313  30.555  30.758  1.00  0.00     0.074 A 
ATOM     47  C   UNL A   1      42.208  28.729  32.418  1.00  0.00     0.049 A 
ATOM     48  N   UNL A   1      43.484  30.323  30.223  1.00  0.00    -0.248 NA
ATOM     49  C   UNL A   1      41.579  31.674  30.149  1.00  0.00     0.031 C 
ATOM     50  C   UNL A   1      41.622  27.937  33.503  1.00  0.00     0.029 A 
ATOM     51  N   UNL A   1      43.391  28.094  32.144  1.00  0.00    -0.354 N 
ATOM     52  C   UNL A   1      43.642  31.278  29.229  1.00  0.00     0.074 A 
ATOM     53  C   UNL A   1      42.426  32.063  29.202  1.00  0.00     0.031 C 
ATOM     54  C   UNL A   1      42.467  26.950  33.831  1.00  0.00     0.029 A 
ATOM     55  C   UNL A   1      43.633  27.011  32.955  1.00  0.00     0.049 A 
ATOM     56  H   UNL A   1      44.009  28.385  31.435  1.00  0.00     0.167 HD
ATOM     57  C   UNL A   1      44.716  31.483  28.432  1.00  0.00     0.031 A 
ATOM     58  C   UNL A   1      44.677  26.162  32.998  1.00  0.00     0.031 A 
ATOM     59  C   UNL A   1      45.911  30.678  28.464  1.00  0.00     0.049 A 
ATOM     60  C   UNL A   1      45.836  26.390  32.068  1.00  0.00     0.074 A 
ATOM     61  C   UNL A   1      47.067  30.836  27.718  1.00  0.00     0.029 A 
ATOM     62  N   UNL A   1      46.103  29.564  29.267  1.00  0.00    -0.354 N 
ATOM     63  N   UNL A   1      46.009  27.351  31.193  1.00  0.00    -0.248 NA
ATOM     64  C   UNL A   1      46.949  25.433  32.139  1.00  0.00     0.031 C 
ATOM     65  C   UNL A   1      47.922  29.773  28.010  1.00  0.00     0.029 A 
ATOM     66  C   UNL A   1      47.342  29.003  29.005  1.00  0.00     0.049 A 
ATOM     67  H   UNL A   1      45.455  29.223  29.926  1.00  0.00     0.167 HD
ATOM     68  C   UNL A   1      47.257  27.130  30.627  1.00  0.00     0.074 A 
ATOM     69  C   UNL A   1      47.808  25.957  31.274  1.00  0.00     0.031 C 
ATOM     70  C   UNL A   1      47.885  27.835  29.655  1.00  0.00     0.031 A 
BRANCH  57  71
ATOM     71  C   UNL A   1      44.681  32.628  27.456  1.00  0.00    -0.014 A 
ATOM     72  C   UNL A   1      44.152  32.435  26.169  1.00  0.00     0.009 A 
ATOM     73  C   UNL A   1      45.309  33.848  27.755  1.00  0.00     0.009 A 
ATOM     74  C   UNL A   1      44.281  33.424  25.192  1.00  0.00     0.001 A 
ATOM     75  C   UNL A   1      45.409  34.848  26.785  1.00  0.00     0.001 A 
ATOM     76  C   UNL A   1      44.909  34.631  25.501  1.00  0.00     0.000 A 
ENDBRANCH  57  71
BRANCH  58  77
ATOM     77  C   UNL A   1      44.673  25.047  33.982  1.00  0.00    -0.014 A 
ATOM     78  C   UNL A   1      44.406  23.730  33.568  1.00  0.00     0.009 A 
ATOM     79  C   UNL A   1      44.879  25.293  35.348  1.00  0.00     0.009 A 
ATOM     80  C   UNL A   1      44.316  22.694  34.500  1.00  0.00     0.001 A 
ATOM     81  C   UNL A   1      44.827  24.248  36.274  1.00  0.00     0.001 A 
ATOM     82  C   UNL A   1      44.533  22.952  35.851  1.00  0.00     0.000 A 
ENDBRANCH  58  77
BRANCH  70  83
ATOM     83  C   UNL A   1      49.253  27.381  29.220  1.00  0.00    -0.014 A 
ATOM     84  C   UNL A   1      50.396  27.942  29.816  1.00  0.00     0.009 A 
ATOM     85  C   UNL A   1      49.417  26.499  28.141  1.00  0.00     0.009 A 
ATOM     86  C   UNL A   1      51.669  27.654  29.323  1.00  0.00     0.001 A 
ATOM     87  C   UNL A   1      50.694  26.182  27.675  1.00  0.00     0.001 A 
ATOM     88  C   UNL A   1      51.817  26.771  28.256  1.00  0.00     0.000 A 
ENDBRANCH  70  83
ENDBRANCH  44  45
ENDBRANCH  37  39
ENDBRANCH  36  37
ENDBRANCH  35  36
ENDBRANCH  34  35
ENDBRANCH  33  34
ENDBRANCH  32  33
ENDBRANCH  31  32
ENDBRANCH  30  31
ENDBRANCH   1  30
TORSDOF 24
ENDMDL
