MODEL 1
REMARK VINA RESULT:      -9.6      0.000      0.000
REMARK SMILES Cc1ccc(NC(=O)c2cccn2CC(=O)OCCOCCOCCOCCOC(=O)c2ccc(-c3c4nc(c(-c5ccccc5)c5ccc([nH]5)c(-c5ccccc5)c5nc(c(-c6ccccc6)c6ccc3[nH]6)C=C5)C=C4)cc2)cc1
REMARK SMILES IDX 22 1 21 2 20 3 19 4 18 5 17 6 15 7 16 8 14 9 13 10 9 11
REMARK SMILES IDX 10 12 11 13 12 14 7 15 6 16 8 18 5 19 1 20 2 21 3 22 81 23
REMARK SMILES IDX 4 24 80 25 23 26 24 27 25 28 26 29 27 30 28 31 29 32 30 33
REMARK SMILES IDX 31 34 32 35 33 36 79 37 34 38 78 39 35 40 36 41 37 42 72 43
REMARK SMILES IDX 38 44 77 45 71 46 73 47 39 48 76 49 70 50 69 51 40 53 62 54
REMARK SMILES IDX 47 55 61 56 48 57 51 58 60 59 74 60 49 61 50 62 59 64 75 65
REMARK SMILES IDX 52 66 41 67 42 68 46 69 43 70 45 71 44 72 63 73 64 74 68 75
REMARK SMILES IDX 65 76 67 77 66 78 53 79 54 80 58 81 55 82 57 83 56 84
REMARK H PARENT 6 17 73 52 51 63
REMARK Flexibility Score: inf
ROOT
ATOM      1  C   UNL A   1      33.554  32.900  27.693  1.00  0.00     0.188 C 
ENDROOT
BRANCH   1   2
ATOM      2  C   UNL A   1      32.115  32.579  27.245  1.00  0.00     0.188 C 
BRANCH   2   3
ATOM      3  O   UNL A   1      31.758  31.281  26.823  1.00  0.00    -0.376 OA
BRANCH   3   4
ATOM      4  C   UNL A   1      32.597  30.197  27.193  1.00  0.00     0.202 C 
BRANCH   4   5
ATOM      5  C   UNL A   1      33.095  29.204  26.146  1.00  0.00     0.261 C 
BRANCH   5   6
ATOM      6  O   UNL A   1      33.371  27.849  26.557  1.00  0.00    -0.462 OA
BRANCH   6   7
ATOM      7  C   UNL A   1      33.715  26.984  25.560  1.00  0.00     0.326 C 
ATOM      8  O   UNL A   1      34.228  25.881  25.731  1.00  0.00    -0.250 OA
BRANCH   7   9
ATOM      9  C   UNL A   1      33.527  27.544  24.179  1.00  0.00     0.244 C 
BRANCH   9  10
ATOM     10  N   UNL A   1      32.969  26.632  23.192  1.00  0.00    -0.332 N 
ATOM     11  C   UNL A   1      31.740  25.990  23.252  1.00  0.00     0.107 A 
ATOM     12  C   UNL A   1      31.602  25.298  22.055  1.00  0.00     0.033 A 
ATOM     13  C   UNL A   1      32.735  25.554  21.253  1.00  0.00     0.020 A 
ATOM     14  C   UNL A   1      33.532  26.425  21.954  1.00  0.00     0.087 A 
BRANCH  11  15
ATOM     15  C   UNL A   1      30.766  26.156  24.306  1.00  0.00     0.272 C 
ATOM     16  N   UNL A   1      29.943  27.255  24.387  1.00  0.00    -0.321 N 
ATOM     17  H   UNL A   1      29.536  27.363  25.278  1.00  0.00     0.170 HD
ATOM     18  O   UNL A   1      30.660  25.332  25.219  1.00  0.00    -0.267 OA
BRANCH  16  19
ATOM     19  C   UNL A   1      29.552  28.259  23.486  1.00  0.00     0.041 A 
ATOM     20  C   UNL A   1      28.023  31.345  20.873  1.00  0.00     0.044 C 
ATOM     21  C   UNL A   1      28.543  30.239  21.741  1.00  0.00    -0.051 A 
ATOM     22  C   UNL A   1      29.905  30.170  22.041  1.00  0.00     0.005 A 
ATOM     23  C   UNL A   1      27.690  29.283  22.290  1.00  0.00     0.005 A 
ATOM     24  C   UNL A   1      30.412  29.172  22.882  1.00  0.00     0.026 A 
ATOM     25  C   UNL A   1      28.193  28.301  23.149  1.00  0.00     0.026 A 
ENDBRANCH  16  19
ENDBRANCH  11  15
ENDBRANCH   9  10
ENDBRANCH   7   9
ENDBRANCH   6   7
ENDBRANCH   5   6
ENDBRANCH   4   5
ENDBRANCH   3   4
ENDBRANCH   2   3
ENDBRANCH   1   2
BRANCH   1  26
ATOM     26  O   UNL A   1      33.761  33.792  28.780  1.00  0.00    -0.377 OA
BRANCH  26  27
ATOM     27  C   UNL A   1      33.936  35.188  28.518  1.00  0.00     0.188 C 
BRANCH  27  28
ATOM     28  C   UNL A   1      33.087  36.196  29.288  1.00  0.00     0.188 C 
BRANCH  28  29
ATOM     29  O   UNL A   1      32.663  35.611  30.512  1.00  0.00    -0.376 OA
BRANCH  29  30
ATOM     30  C   UNL A   1      32.880  36.423  31.661  1.00  0.00     0.202 C 
BRANCH  30  31
ATOM     31  C   UNL A   1      33.865  35.748  32.607  1.00  0.00     0.261 C 
BRANCH  31  32
ATOM     32  O   UNL A   1      34.367  34.568  31.950  1.00  0.00    -0.460 OA
BRANCH  32  33
ATOM     33  C   UNL A   1      34.206  33.393  32.621  1.00  0.00     0.338 C 
ATOM     34  O   UNL A   1      33.225  33.070  33.268  1.00  0.00    -0.246 OA
BRANCH  33  35
ATOM     35  C   UNL A   1      35.451  32.573  32.526  1.00  0.00     0.060 A 
ATOM     36  C   UNL A   1      35.677  31.697  31.452  1.00  0.00     0.016 A 
ATOM     37  C   UNL A   1      36.360  32.563  33.573  1.00  0.00     0.016 A 
ATOM     38  C   UNL A   1      36.791  30.809  31.438  1.00  0.00     0.010 A 
ATOM     39  C   UNL A   1      37.450  31.687  33.549  1.00  0.00     0.010 A 
ATOM     40  C   UNL A   1      37.701  30.762  32.501  1.00  0.00    -0.014 A 
BRANCH  40  41
ATOM     41  C   UNL A   1      38.838  29.786  32.696  1.00  0.00     0.031 A 
ATOM     42  C   UNL A   1      38.968  28.776  31.631  1.00  0.00     0.074 A 
ATOM     43  C   UNL A   1      39.987  29.668  33.424  1.00  0.00     0.049 A 
ATOM     44  N   UNL A   1      39.724  28.967  30.598  1.00  0.00    -0.248 NA
ATOM     45  C   UNL A   1      38.303  27.487  31.717  1.00  0.00     0.031 C 
ATOM     46  C   UNL A   1      40.559  30.628  34.352  1.00  0.00     0.029 A 
ATOM     47  N   UNL A   1      40.996  28.668  33.314  1.00  0.00    -0.354 N 
ATOM     48  C   UNL A   1      39.709  27.789  29.899  1.00  0.00     0.074 A 
ATOM     49  C   UNL A   1      38.799  26.907  30.622  1.00  0.00     0.031 C 
ATOM     50  C   UNL A   1      41.853  30.305  34.569  1.00  0.00     0.029 A 
ATOM     51  C   UNL A   1      42.206  29.070  33.852  1.00  0.00     0.049 A 
ATOM     52  H   UNL A   1      40.849  27.788  32.900  1.00  0.00     0.167 HD
ATOM     53  C   UNL A   1      40.500  27.566  28.817  1.00  0.00     0.031 A 
ATOM     54  C   UNL A   1      43.476  28.743  33.480  1.00  0.00     0.031 A 
ATOM     55  C   UNL A   1      41.473  28.588  28.421  1.00  0.00     0.049 A 
ATOM     56  C   UNL A   1      43.862  29.884  32.606  1.00  0.00     0.074 A 
ATOM     57  C   UNL A   1      42.200  28.837  27.272  1.00  0.00     0.029 A 
ATOM     58  N   UNL A   1      41.874  29.580  29.312  1.00  0.00    -0.354 N 
ATOM     59  N   UNL A   1      43.355  29.976  31.416  1.00  0.00    -0.248 NA
ATOM     60  C   UNL A   1      44.865  30.880  32.931  1.00  0.00     0.031 C 
ATOM     61  C   UNL A   1      43.043  29.970  27.496  1.00  0.00     0.029 A 
ATOM     62  C   UNL A   1      42.835  30.434  28.785  1.00  0.00     0.049 A 
ATOM     63  H   UNL A   1      41.513  29.668  30.223  1.00  0.00     0.167 HD
ATOM     64  C   UNL A   1      43.901  31.074  30.832  1.00  0.00     0.074 A 
ATOM     65  C   UNL A   1      44.849  31.597  31.800  1.00  0.00     0.031 C 
ATOM     66  C   UNL A   1      43.447  31.486  29.622  1.00  0.00     0.031 A 
BRANCH  53  67
ATOM     67  C   UNL A   1      40.419  26.205  28.191  1.00  0.00    -0.014 A 
ATOM     68  C   UNL A   1      41.434  25.272  28.437  1.00  0.00     0.009 A 
ATOM     69  C   UNL A   1      39.296  25.780  27.453  1.00  0.00     0.009 A 
ATOM     70  C   UNL A   1      41.292  23.939  28.035  1.00  0.00     0.001 A 
ATOM     71  C   UNL A   1      39.129  24.437  27.101  1.00  0.00     0.001 A 
ATOM     72  C   UNL A   1      40.126  23.515  27.401  1.00  0.00     0.000 A 
ENDBRANCH  53  67
BRANCH  54  73
ATOM     73  C   UNL A   1      44.102  27.473  32.947  1.00  0.00    -0.014 A 
ATOM     74  C   UNL A   1      43.823  26.278  33.626  1.00  0.00     0.009 A 
ATOM     75  C   UNL A   1      45.233  27.472  32.096  1.00  0.00     0.009 A 
ATOM     76  C   UNL A   1      44.700  25.181  33.545  1.00  0.00     0.001 A 
ATOM     77  C   UNL A   1      46.128  26.396  32.049  1.00  0.00     0.001 A 
ATOM     78  C   UNL A   1      45.871  25.255  32.793  1.00  0.00     0.000 A 
ENDBRANCH  54  73
BRANCH  66  79
ATOM     79  C   UNL A   1      43.496  32.951  29.260  1.00  0.00    -0.014 A 
ATOM     80  C   UNL A   1      44.650  33.589  28.745  1.00  0.00     0.009 A 
ATOM     81  C   UNL A   1      42.468  33.801  29.668  1.00  0.00     0.009 A 
ATOM     82  C   UNL A   1      44.762  34.978  28.622  1.00  0.00     0.001 A 
ATOM     83  C   UNL A   1      42.611  35.192  29.620  1.00  0.00     0.001 A 
ATOM     84  C   UNL A   1      43.746  35.788  29.089  1.00  0.00     0.000 A 
ENDBRANCH  66  79
ENDBRANCH  40  41
ENDBRANCH  33  35
ENDBRANCH  32  33
ENDBRANCH  31  32
ENDBRANCH  30  31
ENDBRANCH  29  30
ENDBRANCH  28  29
ENDBRANCH  27  28
ENDBRANCH  26  27
ENDBRANCH   1  26
TORSDOF 23
ENDMDL
MODEL 2
REMARK VINA RESULT:      -9.4      2.829      6.962
REMARK SMILES Cc1ccc(NC(=O)c2cccn2CC(=O)OCCOCCOCCOCCOC(=O)c2ccc(-c3c4nc(c(-c5ccccc5)c5ccc([nH]5)c(-c5ccccc5)c5nc(c(-c6ccccc6)c6ccc3[nH]6)C=C5)C=C4)cc2)cc1
REMARK SMILES IDX 22 1 21 2 20 3 19 4 18 5 17 6 15 7 16 8 14 9 13 10 9 11
REMARK SMILES IDX 10 12 11 13 12 14 7 15 6 16 8 18 5 19 1 20 2 21 3 22 81 23
REMARK SMILES IDX 4 24 80 25 23 26 24 27 25 28 26 29 27 30 28 31 29 32 30 33
REMARK SMILES IDX 31 34 32 35 33 36 79 37 34 38 78 39 35 40 36 41 37 42 72 43
REMARK SMILES IDX 38 44 77 45 71 46 73 47 39 48 76 49 70 50 69 51 40 53 62 54
REMARK SMILES IDX 47 55 61 56 48 57 51 58 60 59 74 60 49 61 50 62 59 64 75 65
REMARK SMILES IDX 52 66 41 67 42 68 46 69 43 70 45 71 44 72 63 73 64 74 68 75
REMARK SMILES IDX 65 76 67 77 66 78 53 79 54 80 58 81 55 82 57 83 56 84
REMARK H PARENT 6 17 73 52 51 63
REMARK Flexibility Score: inf
ROOT
ATOM      1  C   UNL A   1      33.389  35.376  29.514  1.00  0.00     0.188 C 
ENDROOT
BRANCH   1   2
ATOM      2  C   UNL A   1      33.827  34.405  28.400  1.00  0.00     0.188 C 
BRANCH   2   3
ATOM      3  O   UNL A   1      33.970  33.024  28.654  1.00  0.00    -0.376 OA
BRANCH   3   4
ATOM      4  C   UNL A   1      33.517  32.107  27.671  1.00  0.00     0.202 C 
BRANCH   4   5
ATOM      5  C   UNL A   1      34.230  30.772  27.464  1.00  0.00     0.261 C 
BRANCH   5   6
ATOM      6  O   UNL A   1      33.766  29.899  26.414  1.00  0.00    -0.462 OA
BRANCH   6   7
ATOM      7  C   UNL A   1      33.264  28.697  26.818  1.00  0.00     0.326 C 
ATOM      8  O   UNL A   1      32.385  28.549  27.663  1.00  0.00    -0.250 OA
BRANCH   7   9
ATOM      9  C   UNL A   1      33.970  27.513  26.222  1.00  0.00     0.244 C 
BRANCH   9  10
ATOM     10  N   UNL A   1      33.445  27.031  24.953  1.00  0.00    -0.332 N 
ATOM     11  C   UNL A   1      32.488  26.044  24.767  1.00  0.00     0.107 A 
ATOM     12  C   UNL A   1      32.243  25.989  23.400  1.00  0.00     0.033 A 
ATOM     13  C   UNL A   1      33.027  26.974  22.762  1.00  0.00     0.020 A 
ATOM     14  C   UNL A   1      33.713  27.640  23.748  1.00  0.00     0.087 A 
BRANCH  11  15
ATOM     15  C   UNL A   1      31.803  25.341  25.828  1.00  0.00     0.272 C 
ATOM     16  N   UNL A   1      32.018  24.009  26.092  1.00  0.00    -0.321 N 
ATOM     17  H   UNL A   1      31.306  23.608  26.643  1.00  0.00     0.170 HD
ATOM     18  O   UNL A   1      30.949  25.900  26.521  1.00  0.00    -0.267 OA
BRANCH  16  19
ATOM     19  C   UNL A   1      33.024  23.089  25.753  1.00  0.00     0.041 A 
ATOM     20  C   UNL A   1      36.280  20.341  25.024  1.00  0.00     0.044 C 
ATOM     21  C   UNL A   1      35.176  21.330  25.246  1.00  0.00    -0.051 A 
ATOM     22  C   UNL A   1      33.914  21.101  24.693  1.00  0.00     0.005 A 
ATOM     23  C   UNL A   1      35.366  22.470  26.024  1.00  0.00     0.005 A 
ATOM     24  C   UNL A   1      32.853  21.987  24.919  1.00  0.00     0.026 A 
ATOM     25  C   UNL A   1      34.301  23.342  26.270  1.00  0.00     0.026 A 
ENDBRANCH  16  19
ENDBRANCH  11  15
ENDBRANCH   9  10
ENDBRANCH   7   9
ENDBRANCH   6   7
ENDBRANCH   5   6
ENDBRANCH   4   5
ENDBRANCH   3   4
ENDBRANCH   2   3
ENDBRANCH   1   2
BRANCH   1  26
ATOM     26  O   UNL A   1      33.108  34.866  30.810  1.00  0.00    -0.377 OA
BRANCH  26  27
ATOM     27  C   UNL A   1      33.999  35.166  31.889  1.00  0.00     0.188 C 
BRANCH  27  28
ATOM     28  C   UNL A   1      34.003  34.259  33.116  1.00  0.00     0.188 C 
BRANCH  28  29
ATOM     29  O   UNL A   1      34.839  33.138  32.865  1.00  0.00    -0.376 OA
BRANCH  29  30
ATOM     30  C   UNL A   1      35.921  32.990  33.779  1.00  0.00     0.202 C 
BRANCH  30  31
ATOM     31  C   UNL A   1      37.170  32.517  33.048  1.00  0.00     0.261 C 
BRANCH  31  32
ATOM     32  O   UNL A   1      36.953  31.150  32.645  1.00  0.00    -0.460 OA
BRANCH  32  33
ATOM     33  C   UNL A   1      36.804  30.935  31.308  1.00  0.00     0.338 C 
ATOM     34  O   UNL A   1      35.771  31.066  30.675  1.00  0.00    -0.246 OA
BRANCH  33  35
ATOM     35  C   UNL A   1      38.082  30.426  30.725  1.00  0.00     0.060 A 
ATOM     36  C   UNL A   1      38.534  29.119  30.966  1.00  0.00     0.016 A 
ATOM     37  C   UNL A   1      38.921  31.285  30.032  1.00  0.00     0.016 A 
ATOM     38  C   UNL A   1      39.820  28.684  30.534  1.00  0.00     0.010 A 
ATOM     39  C   UNL A   1      40.182  30.849  29.613  1.00  0.00     0.010 A 
ATOM     40  C   UNL A   1      40.694  29.548  29.861  1.00  0.00    -0.014 A 
BRANCH  40  41
ATOM     41  C   UNL A   1      42.130  29.281  29.470  1.00  0.00     0.031 A 
ATOM     42  C   UNL A   1      42.957  28.695  30.538  1.00  0.00     0.074 A 
ATOM     43  C   UNL A   1      42.889  29.162  28.342  1.00  0.00     0.049 A 
ATOM     44  N   UNL A   1      43.086  27.415  30.678  1.00  0.00    -0.248 NA
ATOM     45  C   UNL A   1      43.722  29.527  31.453  1.00  0.00     0.031 C 
ATOM     46  C   UNL A   1      42.451  29.236  26.958  1.00  0.00     0.029 A 
ATOM     47  N   UNL A   1      44.250  28.752  28.240  1.00  0.00    -0.354 N 
ATOM     48  C   UNL A   1      44.017  27.237  31.666  1.00  0.00     0.074 A 
ATOM     49  C   UNL A   1      44.369  28.575  32.129  1.00  0.00     0.031 C 
ATOM     50  C   UNL A   1      43.412  28.706  26.170  1.00  0.00     0.029 A 
ATOM     51  C   UNL A   1      44.580  28.308  26.972  1.00  0.00     0.049 A 
ATOM     52  H   UNL A   1      44.886  28.782  28.990  1.00  0.00     0.167 HD
ATOM     53  C   UNL A   1      44.513  26.016  31.999  1.00  0.00     0.031 A 
ATOM     54  C   UNL A   1      45.477  27.355  26.589  1.00  0.00     0.031 A 
ATOM     55  C   UNL A   1      44.106  24.844  31.219  1.00  0.00     0.049 A 
ATOM     56  C   UNL A   1      44.621  26.149  26.430  1.00  0.00     0.074 A 
ATOM     57  C   UNL A   1      44.159  23.478  31.428  1.00  0.00     0.029 A 
ATOM     58  N   UNL A   1      43.549  24.984  29.951  1.00  0.00    -0.354 N 
ATOM     59  N   UNL A   1      44.171  25.543  27.485  1.00  0.00    -0.248 NA
ATOM     60  C   UNL A   1      44.318  25.502  25.168  1.00  0.00     0.031 C 
ATOM     61  C   UNL A   1      43.647  22.815  30.269  1.00  0.00     0.029 A 
ATOM     62  C   UNL A   1      43.265  23.770  29.339  1.00  0.00     0.049 A 
ATOM     63  H   UNL A   1      43.374  25.856  29.529  1.00  0.00     0.167 HD
ATOM     64  C   UNL A   1      43.460  24.468  27.056  1.00  0.00     0.074 A 
ATOM     65  C   UNL A   1      43.592  24.467  25.610  1.00  0.00     0.031 C 
ATOM     66  C   UNL A   1      42.762  23.725  27.951  1.00  0.00     0.031 A 
BRANCH  53  67
ATOM     67  C   UNL A   1      45.573  25.984  33.060  1.00  0.00    -0.014 A 
ATOM     68  C   UNL A   1      45.235  26.295  34.382  1.00  0.00     0.009 A 
ATOM     69  C   UNL A   1      46.884  25.537  32.802  1.00  0.00     0.009 A 
ATOM     70  C   UNL A   1      46.146  26.084  35.422  1.00  0.00     0.001 A 
ATOM     71  C   UNL A   1      47.776  25.272  33.846  1.00  0.00     0.001 A 
ATOM     72  C   UNL A   1      47.401  25.538  35.159  1.00  0.00     0.000 A 
ENDBRANCH  53  67
BRANCH  54  73
ATOM     73  C   UNL A   1      46.832  26.940  27.119  1.00  0.00    -0.014 A 
ATOM     74  C   UNL A   1      47.828  26.632  26.182  1.00  0.00     0.009 A 
ATOM     75  C   UNL A   1      47.027  26.458  28.437  1.00  0.00     0.009 A 
ATOM     76  C   UNL A   1      48.902  25.790  26.521  1.00  0.00     0.001 A 
ATOM     77  C   UNL A   1      48.072  25.586  28.762  1.00  0.00     0.001 A 
ATOM     78  C   UNL A   1      49.000  25.233  27.796  1.00  0.00     0.000 A 
ENDBRANCH  54  73
BRANCH  66  79
ATOM     79  C   UNL A   1      41.504  23.011  27.516  1.00  0.00    -0.014 A 
ATOM     80  C   UNL A   1      41.485  21.669  27.067  1.00  0.00     0.009 A 
ATOM     81  C   UNL A   1      40.335  23.739  27.294  1.00  0.00     0.009 A 
ATOM     82  C   UNL A   1      40.369  21.085  26.459  1.00  0.00     0.001 A 
ATOM     83  C   UNL A   1      39.247  23.180  26.615  1.00  0.00     0.001 A 
ATOM     84  C   UNL A   1      39.251  21.854  26.206  1.00  0.00     0.000 A 
ENDBRANCH  66  79
ENDBRANCH  40  41
ENDBRANCH  33  35
ENDBRANCH  32  33
ENDBRANCH  31  32
ENDBRANCH  30  31
ENDBRANCH  29  30
ENDBRANCH  28  29
ENDBRANCH  27  28
ENDBRANCH  26  27
ENDBRANCH   1  26
TORSDOF 23
ENDMDL
MODEL 3
REMARK VINA RESULT:      -9.3      2.502      4.222
REMARK SMILES Cc1ccc(NC(=O)c2cccn2CC(=O)OCCOCCOCCOCCOC(=O)c2ccc(-c3c4nc(c(-c5ccccc5)c5ccc([nH]5)c(-c5ccccc5)c5nc(c(-c6ccccc6)c6ccc3[nH]6)C=C5)C=C4)cc2)cc1
REMARK SMILES IDX 22 1 21 2 20 3 19 4 18 5 17 6 15 7 16 8 14 9 13 10 9 11
REMARK SMILES IDX 10 12 11 13 12 14 7 15 6 16 8 18 5 19 1 20 2 21 3 22 81 23
REMARK SMILES IDX 4 24 80 25 23 26 24 27 25 28 26 29 27 30 28 31 29 32 30 33
REMARK SMILES IDX 31 34 32 35 33 36 79 37 34 38 78 39 35 40 36 41 37 42 72 43
REMARK SMILES IDX 38 44 77 45 71 46 73 47 39 48 76 49 70 50 69 51 40 53 62 54
REMARK SMILES IDX 47 55 61 56 48 57 51 58 60 59 74 60 49 61 50 62 59 64 75 65
REMARK SMILES IDX 52 66 41 67 42 68 46 69 43 70 45 71 44 72 63 73 64 74 68 75
REMARK SMILES IDX 65 76 67 77 66 78 53 79 54 80 58 81 55 82 57 83 56 84
REMARK H PARENT 6 17 73 52 51 63
REMARK Flexibility Score: inf
ROOT
ATOM      1  C   UNL A   1      36.502  33.642  28.740  1.00  0.00     0.188 C 
ENDROOT
BRANCH   1   2
ATOM      2  C   UNL A   1      36.413  32.169  29.184  1.00  0.00     0.188 C 
BRANCH   2   3
ATOM      3  O   UNL A   1      36.401  31.124  28.237  1.00  0.00    -0.376 OA
BRANCH   3   4
ATOM      4  C   UNL A   1      35.186  30.837  27.564  1.00  0.00     0.202 C 
BRANCH   4   5
ATOM      5  C   UNL A   1      34.493  29.489  27.747  1.00  0.00     0.261 C 
BRANCH   5   6
ATOM      6  O   UNL A   1      34.465  28.572  26.633  1.00  0.00    -0.462 OA
BRANCH   6   7
ATOM      7  C   UNL A   1      33.261  28.430  26.010  1.00  0.00     0.326 C 
ATOM      8  O   UNL A   1      32.363  29.268  26.013  1.00  0.00    -0.250 OA
BRANCH   7   9
ATOM      9  C   UNL A   1      33.052  27.076  25.394  1.00  0.00     0.244 C 
BRANCH   9  10
ATOM     10  N   UNL A   1      31.959  26.972  24.438  1.00  0.00    -0.332 N 
ATOM     11  C   UNL A   1      32.058  26.678  23.086  1.00  0.00     0.107 A 
ATOM     12  C   UNL A   1      30.756  26.601  22.607  1.00  0.00     0.033 A 
ATOM     13  C   UNL A   1      29.866  26.811  23.682  1.00  0.00     0.020 A 
ATOM     14  C   UNL A   1      30.633  26.978  24.808  1.00  0.00     0.087 A 
BRANCH  11  15
ATOM     15  C   UNL A   1      33.288  26.375  22.390  1.00  0.00     0.272 C 
ATOM     16  N   UNL A   1      33.940  25.172  22.529  1.00  0.00    -0.321 N 
ATOM     17  H   UNL A   1      34.876  25.207  22.222  1.00  0.00     0.170 HD
ATOM     18  O   UNL A   1      33.839  27.209  21.667  1.00  0.00    -0.267 OA
BRANCH  16  19
ATOM     19  C   UNL A   1      33.574  23.905  23.013  1.00  0.00     0.041 A 
ATOM     20  C   UNL A   1      32.460  20.148  24.837  1.00  0.00     0.044 C 
ATOM     21  C   UNL A   1      32.897  21.433  24.201  1.00  0.00    -0.051 A 
ATOM     22  C   UNL A   1      32.487  21.743  22.903  1.00  0.00     0.005 A 
ATOM     23  C   UNL A   1      33.685  22.353  24.891  1.00  0.00     0.005 A 
ATOM     24  C   UNL A   1      32.846  22.956  22.301  1.00  0.00     0.026 A 
ATOM     25  C   UNL A   1      34.023  23.574  24.298  1.00  0.00     0.026 A 
ENDBRANCH  16  19
ENDBRANCH  11  15
ENDBRANCH   9  10
ENDBRANCH   7   9
ENDBRANCH   6   7
ENDBRANCH   5   6
ENDBRANCH   4   5
ENDBRANCH   3   4
ENDBRANCH   2   3
ENDBRANCH   1   2
BRANCH   1  26
ATOM     26  O   UNL A   1      35.506  34.560  29.170  1.00  0.00    -0.377 OA
BRANCH  26  27
ATOM     27  C   UNL A   1      34.408  34.860  28.302  1.00  0.00     0.188 C 
BRANCH  27  28
ATOM     28  C   UNL A   1      33.804  36.261  28.335  1.00  0.00     0.188 C 
BRANCH  28  29
ATOM     29  O   UNL A   1      32.528  36.205  28.958  1.00  0.00    -0.376 OA
BRANCH  29  30
ATOM     30  C   UNL A   1      32.564  35.936  30.356  1.00  0.00     0.202 C 
BRANCH  30  31
ATOM     31  C   UNL A   1      33.124  37.135  31.110  1.00  0.00     0.261 C 
BRANCH  31  32
ATOM     32  O   UNL A   1      34.292  36.693  31.831  1.00  0.00    -0.460 OA
BRANCH  32  33
ATOM     33  C   UNL A   1      34.103  36.372  33.141  1.00  0.00     0.338 C 
ATOM     34  O   UNL A   1      33.482  37.033  33.956  1.00  0.00    -0.246 OA
BRANCH  33  35
ATOM     35  C   UNL A   1      34.842  35.116  33.473  1.00  0.00     0.060 A 
ATOM     36  C   UNL A   1      35.239  34.820  34.787  1.00  0.00     0.016 A 
ATOM     37  C   UNL A   1      35.267  34.270  32.460  1.00  0.00     0.016 A 
ATOM     38  C   UNL A   1      36.069  33.700  35.078  1.00  0.00     0.010 A 
ATOM     39  C   UNL A   1      36.082  33.174  32.757  1.00  0.00     0.010 A 
ATOM     40  C   UNL A   1      36.536  32.854  34.065  1.00  0.00    -0.014 A 
BRANCH  40  41
ATOM     41  C   UNL A   1      37.529  31.721  34.196  1.00  0.00     0.031 A 
ATOM     42  C   UNL A   1      37.887  31.071  32.924  1.00  0.00     0.074 A 
ATOM     43  C   UNL A   1      38.434  31.239  35.096  1.00  0.00     0.049 A 
ATOM     44  N   UNL A   1      38.899  31.460  32.218  1.00  0.00    -0.248 NA
ATOM     45  C   UNL A   1      37.158  29.915  32.427  1.00  0.00     0.031 C 
ATOM     46  C   UNL A   1      38.786  31.791  36.393  1.00  0.00     0.029 A 
ATOM     47  N   UNL A   1      39.385  30.194  34.910  1.00  0.00    -0.354 N 
ATOM     48  C   UNL A   1      39.012  30.560  31.193  1.00  0.00     0.074 A 
ATOM     49  C   UNL A   1      37.898  29.630  31.353  1.00  0.00     0.031 C 
ATOM     50  C   UNL A   1      39.957  31.249  36.793  1.00  0.00     0.029 A 
ATOM     51  C   UNL A   1      40.426  30.251  35.819  1.00  0.00     0.049 A 
ATOM     52  H   UNL A   1      39.309  29.506  34.210  1.00  0.00     0.167 HD
ATOM     53  C   UNL A   1      40.050  30.569  30.316  1.00  0.00     0.031 A 
ATOM     54  C   UNL A   1      41.731  29.884  35.672  1.00  0.00     0.031 A 
ATOM     55  C   UNL A   1      41.144  31.523  30.516  1.00  0.00     0.049 A 
ATOM     56  C   UNL A   1      42.393  31.173  35.334  1.00  0.00     0.074 A 
ATOM     57  C   UNL A   1      42.163  32.006  29.715  1.00  0.00     0.029 A 
ATOM     58  N   UNL A   1      41.343  32.139  31.748  1.00  0.00    -0.354 N 
ATOM     59  N   UNL A   1      42.227  31.684  34.154  1.00  0.00    -0.248 NA
ATOM     60  C   UNL A   1      43.323  31.882  36.192  1.00  0.00     0.031 C 
ATOM     61  C   UNL A   1      42.972  32.898  30.488  1.00  0.00     0.029 A 
ATOM     62  C   UNL A   1      42.451  32.977  31.770  1.00  0.00     0.049 A 
ATOM     63  H   UNL A   1      40.757  31.997  32.526  1.00  0.00     0.167 HD
ATOM     64  C   UNL A   1      42.964  32.825  34.104  1.00  0.00     0.074 A 
ATOM     65  C   UNL A   1      43.645  32.902  35.385  1.00  0.00     0.031 C 
ATOM     66  C   UNL A   1      42.871  33.637  33.023  1.00  0.00     0.031 A 
BRANCH  53  67
ATOM     67  C   UNL A   1      40.070  29.481  29.282  1.00  0.00    -0.014 A 
ATOM     68  C   UNL A   1      39.432  29.687  28.053  1.00  0.00     0.009 A 
ATOM     69  C   UNL A   1      40.810  28.294  29.451  1.00  0.00     0.009 A 
ATOM     70  C   UNL A   1      39.599  28.782  27.000  1.00  0.00     0.001 A 
ATOM     71  C   UNL A   1      41.024  27.418  28.382  1.00  0.00     0.001 A 
ATOM     72  C   UNL A   1      40.423  27.668  27.153  1.00  0.00     0.000 A 
ENDBRANCH  53  67
BRANCH  54  73
ATOM     73  C   UNL A   1      42.411  28.761  34.920  1.00  0.00    -0.014 A 
ATOM     74  C   UNL A   1      41.927  27.461  35.121  1.00  0.00     0.009 A 
ATOM     75  C   UNL A   1      43.712  28.879  34.374  1.00  0.00     0.009 A 
ATOM     76  C   UNL A   1      42.750  26.342  34.895  1.00  0.00     0.001 A 
ATOM     77  C   UNL A   1      44.544  27.769  34.190  1.00  0.00     0.001 A 
ATOM     78  C   UNL A   1      44.069  26.498  34.472  1.00  0.00     0.000 A 
ENDBRANCH  54  73
BRANCH  66  79
ATOM     79  C   UNL A   1      43.089  35.123  33.178  1.00  0.00    -0.014 A 
ATOM     80  C   UNL A   1      44.185  35.814  32.609  1.00  0.00     0.009 A 
ATOM     81  C   UNL A   1      42.347  35.839  34.117  1.00  0.00     0.009 A 
ATOM     82  C   UNL A   1      44.506  37.136  32.936  1.00  0.00     0.001 A 
ATOM     83  C   UNL A   1      42.714  37.133  34.504  1.00  0.00     0.001 A 
ATOM     84  C   UNL A   1      43.782  37.791  33.912  1.00  0.00     0.000 A 
ENDBRANCH  66  79
ENDBRANCH  40  41
ENDBRANCH  33  35
ENDBRANCH  32  33
ENDBRANCH  31  32
ENDBRANCH  30  31
ENDBRANCH  29  30
ENDBRANCH  28  29
ENDBRANCH  27  28
ENDBRANCH  26  27
ENDBRANCH   1  26
TORSDOF 23
ENDMDL
