MODEL 1
REMARK VINA RESULT:      -9.1      0.000      0.000
REMARK SMILES CC(C)[C@H](NC(=O)[C@H](C)NC(=O)CNC(=O)OCc1ccccc1)C(=O)OCCOCCOCCOCCOC(=O)c1ccc(-c2c3nc(c(-c4ccccc4)c4ccc([nH]4)c(-c4ccccc4)c4nc(c(-c5ccccc5)c5ccc2[nH]5)C=C4)C=C3)cc1
REMARK SMILES IDX 30 1 29 2 28 3 27 4 25 5 26 6 4 7 2 8 1 9 3 10 5 11 6 12
REMARK SMILES IDX 7 14 8 15 9 16 10 17 11 18 12 20 13 21 14 22 15 23 16 25
REMARK SMILES IDX 17 26 18 27 19 28 20 29 24 30 21 31 23 32 22 33 31 34 32 35
REMARK SMILES IDX 33 36 34 37 35 38 36 39 37 40 38 41 39 42 40 43 41 44 42 45
REMARK SMILES IDX 43 46 89 47 44 48 88 49 45 50 46 51 47 52 82 53 48 54 87 55
REMARK SMILES IDX 81 56 83 57 49 58 86 59 80 60 79 61 50 63 72 64 57 65 71 66
REMARK SMILES IDX 58 67 61 68 70 69 84 70 59 71 60 72 69 74 85 75 62 76 51 77
REMARK SMILES IDX 52 78 56 79 53 80 55 81 54 82 73 83 74 84 78 85 75 86 77 87
REMARK SMILES IDX 76 88 63 89 64 90 68 91 65 92 67 93 66 94
REMARK H PARENT 5 13 10 19 14 24 83 62 61 73
REMARK Flexibility Score: inf
ROOT
ATOM      1  O   UNL A   1      34.393  28.737  25.961  1.00  0.00    -0.376 OA
ENDROOT
BRANCH   1   2
ATOM      2  C   UNL A   1      33.609  29.253  24.889  1.00  0.00     0.202 C 
BRANCH   2   3
ATOM      3  C   UNL A   1      33.443  28.302  23.693  1.00  0.00     0.261 C 
BRANCH   3   4
ATOM      4  O   UNL A   1      32.249  28.444  22.873  1.00  0.00    -0.462 OA
BRANCH   4   5
ATOM      5  C   UNL A   1      31.461  27.385  22.587  1.00  0.00     0.328 C 
ATOM      6  O   UNL A   1      31.675  26.602  21.670  1.00  0.00    -0.250 OA
BRANCH   5   7
ATOM      7  C   UNL A   1      30.161  27.348  23.467  1.00  0.00     0.194 C 
BRANCH   7   8
ATOM      8  C   UNL A   1      29.309  28.663  23.206  1.00  0.00     0.017 C 
ATOM      9  C   UNL A   1      29.781  29.560  22.052  1.00  0.00     0.010 C 
ATOM     10  C   UNL A   1      27.799  28.424  23.010  1.00  0.00     0.010 C 
ENDBRANCH   7   8
BRANCH   7  11
ATOM     11  N   UNL A   1      30.247  26.984  24.931  1.00  0.00    -0.341 N 
ATOM     12  C   UNL A   1      30.351  25.746  25.543  1.00  0.00     0.242 C 
ATOM     13  H   UNL A   1      30.226  27.749  25.549  1.00  0.00     0.164 HD
ATOM     14  O   UNL A   1      29.576  25.539  26.485  1.00  0.00    -0.273 OA
BRANCH  12  15
ATOM     15  C   UNL A   1      31.551  24.760  25.302  1.00  0.00     0.168 C 
ATOM     16  C   UNL A   1      32.893  25.435  25.363  1.00  0.00     0.041 C 
BRANCH  15  17
ATOM     17  N   UNL A   1      31.530  23.961  24.070  1.00  0.00    -0.343 N 
ATOM     18  C   UNL A   1      32.161  22.744  23.909  1.00  0.00     0.240 C 
ATOM     19  H   UNL A   1      31.026  24.319  23.303  1.00  0.00     0.164 HD
ATOM     20  O   UNL A   1      32.851  22.580  22.900  1.00  0.00    -0.273 OA
BRANCH  18  21
ATOM     21  C   UNL A   1      32.050  21.645  24.994  1.00  0.00     0.219 C 
BRANCH  21  22
ATOM     22  N   UNL A   1      32.204  20.268  24.549  1.00  0.00    -0.312 N 
ATOM     23  C   UNL A   1      33.325  19.480  24.657  1.00  0.00     0.407 C 
ATOM     24  H   UNL A   1      31.419  19.855  24.124  1.00  0.00     0.167 HD
ATOM     25  O   UNL A   1      33.410  18.431  24.034  1.00  0.00    -0.225 OA
BRANCH  23  26
ATOM     26  O   UNL A   1      34.293  19.981  25.470  1.00  0.00    -0.445 OA
BRANCH  26  27
ATOM     27  C   UNL A   1      35.444  20.559  24.823  1.00  0.00     0.270 C 
BRANCH  27  28
ATOM     28  C   UNL A   1      36.323  21.631  25.433  1.00  0.00    -0.011 A 
ATOM     29  C   UNL A   1      37.702  21.510  25.601  1.00  0.00     0.007 A 
ATOM     30  C   UNL A   1      35.739  22.902  25.624  1.00  0.00     0.007 A 
ATOM     31  C   UNL A   1      38.471  22.630  25.945  1.00  0.00     0.000 A 
ATOM     32  C   UNL A   1      36.505  24.019  25.960  1.00  0.00     0.000 A 
ATOM     33  C   UNL A   1      37.877  23.882  26.118  1.00  0.00     0.000 A 
ENDBRANCH  27  28
ENDBRANCH  26  27
ENDBRANCH  23  26
ENDBRANCH  21  22
ENDBRANCH  18  21
ENDBRANCH  15  17
ENDBRANCH  12  15
ENDBRANCH   7  11
ENDBRANCH   5   7
ENDBRANCH   4   5
ENDBRANCH   3   4
ENDBRANCH   2   3
ENDBRANCH   1   2
BRANCH   1  34
ATOM     34  C   UNL A   1      34.081  29.325  27.216  1.00  0.00     0.188 C 
BRANCH  34  35
ATOM     35  C   UNL A   1      32.967  30.358  27.078  1.00  0.00     0.188 C 
BRANCH  35  36
ATOM     36  O   UNL A   1      33.384  31.606  27.586  1.00  0.00    -0.377 OA
BRANCH  36  37
ATOM     37  C   UNL A   1      34.746  31.668  27.954  1.00  0.00     0.188 C 
BRANCH  37  38
ATOM     38  C   UNL A   1      35.441  33.036  27.935  1.00  0.00     0.188 C 
BRANCH  38  39
ATOM     39  O   UNL A   1      34.709  34.180  27.506  1.00  0.00    -0.376 OA
BRANCH  39  40
ATOM     40  C   UNL A   1      34.399  35.329  28.272  1.00  0.00     0.202 C 
BRANCH  40  41
ATOM     41  C   UNL A   1      33.248  35.460  29.252  1.00  0.00     0.261 C 
BRANCH  41  42
ATOM     42  O   UNL A   1      33.198  34.394  30.175  1.00  0.00    -0.460 OA
BRANCH  42  43
ATOM     43  C   UNL A   1      33.251  34.785  31.475  1.00  0.00     0.338 C 
ATOM     44  O   UNL A   1      32.400  35.290  32.141  1.00  0.00    -0.246 OA
BRANCH  43  45
ATOM     45  C   UNL A   1      34.529  34.248  31.961  1.00  0.00     0.060 A 
ATOM     46  C   UNL A   1      35.675  35.041  31.836  1.00  0.00     0.016 A 
ATOM     47  C   UNL A   1      34.533  33.035  32.651  1.00  0.00     0.016 A 
ATOM     48  C   UNL A   1      36.846  34.628  32.447  1.00  0.00     0.010 A 
ATOM     49  C   UNL A   1      35.713  32.598  33.216  1.00  0.00     0.010 A 
ATOM     50  C   UNL A   1      36.865  33.389  33.096  1.00  0.00    -0.014 A 
BRANCH  50  51
ATOM     51  C   UNL A   1      38.151  32.773  33.420  1.00  0.00     0.031 A 
ATOM     52  C   UNL A   1      38.648  31.737  32.463  1.00  0.00     0.074 A 
ATOM     53  C   UNL A   1      38.783  33.098  34.554  1.00  0.00     0.049 A 
ATOM     54  N   UNL A   1      39.679  30.948  32.563  1.00  0.00    -0.248 NA
ATOM     55  C   UNL A   1      37.862  31.557  31.227  1.00  0.00     0.031 C 
ATOM     56  C   UNL A   1      38.353  34.126  35.503  1.00  0.00     0.029 A 
ATOM     57  N   UNL A   1      39.916  32.574  35.107  1.00  0.00    -0.354 N 
ATOM     58  C   UNL A   1      39.659  30.173  31.411  1.00  0.00     0.074 A 
ATOM     59  C   UNL A   1      38.506  30.565  30.637  1.00  0.00     0.031 C 
ATOM     60  C   UNL A   1      39.208  34.141  36.540  1.00  0.00     0.029 A 
ATOM     61  C   UNL A   1      40.212  33.101  36.337  1.00  0.00     0.049 A 
ATOM     62  H   UNL A   1      40.465  31.885  34.667  1.00  0.00     0.167 HD
ATOM     63  C   UNL A   1      40.532  29.211  31.045  1.00  0.00     0.031 A 
ATOM     64  C   UNL A   1      41.177  32.744  37.203  1.00  0.00     0.031 A 
ATOM     65  C   UNL A   1      41.636  28.815  31.871  1.00  0.00     0.049 A 
ATOM     66  C   UNL A   1      42.099  31.624  36.801  1.00  0.00     0.074 A 
ATOM     67  C   UNL A   1      42.595  27.852  31.633  1.00  0.00     0.029 A 
ATOM     68  N   UNL A   1      41.912  29.369  33.116  1.00  0.00    -0.354 N 
ATOM     69  N   UNL A   1      42.097  30.906  35.701  1.00  0.00    -0.248 NA
ATOM     70  C   UNL A   1      43.157  31.269  37.753  1.00  0.00     0.031 C 
ATOM     71  C   UNL A   1      43.421  27.785  32.761  1.00  0.00     0.029 A 
ATOM     72  C   UNL A   1      43.015  28.752  33.671  1.00  0.00     0.049 A 
ATOM     73  H   UNL A   1      41.396  30.093  33.539  1.00  0.00     0.167 HD
ATOM     74  C   UNL A   1      43.169  30.033  35.811  1.00  0.00     0.074 A 
ATOM     75  C   UNL A   1      43.803  30.322  37.085  1.00  0.00     0.031 C 
ATOM     76  C   UNL A   1      43.600  29.079  34.948  1.00  0.00     0.031 A 
BRANCH  63  77
ATOM     77  C   UNL A   1      40.268  28.508  29.745  1.00  0.00    -0.014 A 
ATOM     78  C   UNL A   1      39.554  27.299  29.697  1.00  0.00     0.009 A 
ATOM     79  C   UNL A   1      40.774  29.043  28.550  1.00  0.00     0.009 A 
ATOM     80  C   UNL A   1      39.387  26.621  28.487  1.00  0.00     0.001 A 
ATOM     81  C   UNL A   1      40.579  28.379  27.338  1.00  0.00     0.001 A 
ATOM     82  C   UNL A   1      39.897  27.164  27.308  1.00  0.00     0.000 A 
ENDBRANCH  63  77
BRANCH  64  83
ATOM     83  C   UNL A   1      41.303  33.439  38.509  1.00  0.00    -0.014 A 
ATOM     84  C   UNL A   1      40.745  32.886  39.670  1.00  0.00     0.009 A 
ATOM     85  C   UNL A   1      42.005  34.651  38.608  1.00  0.00     0.009 A 
ATOM     86  C   UNL A   1      40.870  33.542  40.898  1.00  0.00     0.001 A 
ATOM     87  C   UNL A   1      42.153  35.291  39.841  1.00  0.00     0.001 A 
ATOM     88  C   UNL A   1      41.578  34.739  40.984  1.00  0.00     0.000 A 
ENDBRANCH  64  83
BRANCH  76  89
ATOM     89  C   UNL A   1      44.831  28.318  35.343  1.00  0.00    -0.014 A 
ATOM     90  C   UNL A   1      44.746  27.108  36.049  1.00  0.00     0.009 A 
ATOM     91  C   UNL A   1      46.090  28.797  34.950  1.00  0.00     0.009 A 
ATOM     92  C   UNL A   1      45.906  26.409  36.383  1.00  0.00     0.001 A 
ATOM     93  C   UNL A   1      47.245  28.079  35.256  1.00  0.00     0.001 A 
ATOM     94  C   UNL A   1      47.152  26.891  35.981  1.00  0.00     0.000 A 
ENDBRANCH  76  89
ENDBRANCH  50  51
ENDBRANCH  43  45
ENDBRANCH  42  43
ENDBRANCH  41  42
ENDBRANCH  40  41
ENDBRANCH  39  40
ENDBRANCH  38  39
ENDBRANCH  37  38
ENDBRANCH  36  37
ENDBRANCH  35  36
ENDBRANCH  34  35
ENDBRANCH   1  34
TORSDOF 29
ENDMDL
MODEL 2
REMARK VINA RESULT:      -8.6      1.970      5.908
REMARK SMILES CC(C)[C@H](NC(=O)[C@H](C)NC(=O)CNC(=O)OCc1ccccc1)C(=O)OCCOCCOCCOCCOC(=O)c1ccc(-c2c3nc(c(-c4ccccc4)c4ccc([nH]4)c(-c4ccccc4)c4nc(c(-c5ccccc5)c5ccc2[nH]5)C=C4)C=C3)cc1
REMARK SMILES IDX 30 1 29 2 28 3 27 4 25 5 26 6 4 7 2 8 1 9 3 10 5 11 6 12
REMARK SMILES IDX 7 14 8 15 9 16 10 17 11 18 12 20 13 21 14 22 15 23 16 25
REMARK SMILES IDX 17 26 18 27 19 28 20 29 24 30 21 31 23 32 22 33 31 34 32 35
REMARK SMILES IDX 33 36 34 37 35 38 36 39 37 40 38 41 39 42 40 43 41 44 42 45
REMARK SMILES IDX 43 46 89 47 44 48 88 49 45 50 46 51 47 52 82 53 48 54 87 55
REMARK SMILES IDX 81 56 83 57 49 58 86 59 80 60 79 61 50 63 72 64 57 65 71 66
REMARK SMILES IDX 58 67 61 68 70 69 84 70 59 71 60 72 69 74 85 75 62 76 51 77
REMARK SMILES IDX 52 78 56 79 53 80 55 81 54 82 73 83 74 84 78 85 75 86 77 87
REMARK SMILES IDX 76 88 63 89 64 90 68 91 65 92 67 93 66 94
REMARK H PARENT 5 13 10 19 14 24 83 62 61 73
REMARK Flexibility Score: inf
ROOT
ATOM      1  O   UNL A   1      34.583  29.038  26.395  1.00  0.00    -0.376 OA
ENDROOT
BRANCH   1   2
ATOM      2  C   UNL A   1      33.553  29.264  25.438  1.00  0.00     0.202 C 
BRANCH   2   3
ATOM      3  C   UNL A   1      33.790  28.611  24.066  1.00  0.00     0.261 C 
BRANCH   3   4
ATOM      4  O   UNL A   1      32.624  28.319  23.244  1.00  0.00    -0.462 OA
BRANCH   4   5
ATOM      5  C   UNL A   1      32.371  27.068  22.801  1.00  0.00     0.328 C 
ATOM      6  O   UNL A   1      32.857  26.594  21.782  1.00  0.00    -0.250 OA
BRANCH   5   7
ATOM      7  C   UNL A   1      31.275  26.337  23.656  1.00  0.00     0.194 C 
BRANCH   7   8
ATOM      8  C   UNL A   1      29.834  26.782  23.159  1.00  0.00     0.017 C 
ATOM      9  C   UNL A   1      28.644  26.284  23.993  1.00  0.00     0.010 C 
ATOM     10  C   UNL A   1      29.657  28.302  22.974  1.00  0.00     0.010 C 
ENDBRANCH   7   8
BRANCH   7  11
ATOM     11  N   UNL A   1      31.392  26.296  25.162  1.00  0.00    -0.341 N 
ATOM     12  C   UNL A   1      31.769  25.265  26.006  1.00  0.00     0.242 C 
ATOM     13  H   UNL A   1      31.163  27.139  25.617  1.00  0.00     0.164 HD
ATOM     14  O   UNL A   1      31.030  25.062  26.978  1.00  0.00    -0.273 OA
BRANCH  12  15
ATOM     15  C   UNL A   1      33.179  24.574  25.951  1.00  0.00     0.168 C 
ATOM     16  C   UNL A   1      34.268  25.490  25.466  1.00  0.00     0.041 C 
BRANCH  15  17
ATOM     17  N   UNL A   1      33.290  23.330  25.179  1.00  0.00    -0.343 N 
ATOM     18  C   UNL A   1      34.448  22.590  25.038  1.00  0.00     0.240 C 
ATOM     19  H   UNL A   1      32.479  22.997  24.730  1.00  0.00     0.164 HD
ATOM     20  O   UNL A   1      34.769  22.232  23.903  1.00  0.00    -0.273 OA
BRANCH  18  21
ATOM     21  C   UNL A   1      35.341  22.277  26.263  1.00  0.00     0.219 C 
BRANCH  21  22
ATOM     22  N   UNL A   1      36.655  21.715  25.989  1.00  0.00    -0.312 N 
ATOM     23  C   UNL A   1      37.855  22.384  25.956  1.00  0.00     0.407 C 
ATOM     24  H   UNL A   1      36.688  20.748  25.807  1.00  0.00     0.167 HD
ATOM     25  O   UNL A   1      38.849  21.854  25.479  1.00  0.00    -0.225 OA
BRANCH  23  26
ATOM     26  O   UNL A   1      37.813  23.646  26.461  1.00  0.00    -0.445 OA
BRANCH  26  27
ATOM     27  C   UNL A   1      39.002  24.112  27.131  1.00  0.00     0.270 C 
BRANCH  27  28
ATOM     28  C   UNL A   1      39.557  25.516  27.014  1.00  0.00    -0.011 A 
ATOM     29  C   UNL A   1      39.318  26.531  27.939  1.00  0.00     0.007 A 
ATOM     30  C   UNL A   1      40.555  25.728  26.037  1.00  0.00     0.007 A 
ATOM     31  C   UNL A   1      40.058  27.720  27.888  1.00  0.00     0.000 A 
ATOM     32  C   UNL A   1      41.297  26.908  25.991  1.00  0.00     0.000 A 
ATOM     33  C   UNL A   1      41.049  27.907  26.922  1.00  0.00     0.000 A 
ENDBRANCH  27  28
ENDBRANCH  26  27
ENDBRANCH  23  26
ENDBRANCH  21  22
ENDBRANCH  18  21
ENDBRANCH  15  17
ENDBRANCH  12  15
ENDBRANCH   7  11
ENDBRANCH   5   7
ENDBRANCH   4   5
ENDBRANCH   3   4
ENDBRANCH   2   3
ENDBRANCH   1   2
BRANCH   1  34
ATOM     34  C   UNL A   1      34.499  29.897  27.523  1.00  0.00     0.188 C 
BRANCH  34  35
ATOM     35  C   UNL A   1      33.282  30.812  27.427  1.00  0.00     0.188 C 
BRANCH  35  36
ATOM     36  O   UNL A   1      33.566  32.075  27.988  1.00  0.00    -0.377 OA
BRANCH  36  37
ATOM     37  C   UNL A   1      34.907  32.250  28.395  1.00  0.00     0.188 C 
BRANCH  37  38
ATOM     38  C   UNL A   1      35.503  33.663  28.335  1.00  0.00     0.188 C 
BRANCH  38  39
ATOM     39  O   UNL A   1      34.695  34.739  27.869  1.00  0.00    -0.376 OA
BRANCH  39  40
ATOM     40  C   UNL A   1      34.207  35.830  28.627  1.00  0.00     0.202 C 
BRANCH  40  41
ATOM     41  C   UNL A   1      33.050  35.785  29.608  1.00  0.00     0.261 C 
BRANCH  41  42
ATOM     42  O   UNL A   1      33.106  34.661  30.460  1.00  0.00    -0.460 OA
BRANCH  42  43
ATOM     43  C   UNL A   1      33.139  34.970  31.783  1.00  0.00     0.338 C 
ATOM     44  O   UNL A   1      32.277  35.428  32.468  1.00  0.00    -0.246 OA
BRANCH  43  45
ATOM     45  C   UNL A   1      34.415  34.412  32.251  1.00  0.00     0.060 A 
ATOM     46  C   UNL A   1      34.513  33.027  32.423  1.00  0.00     0.016 A 
ATOM     47  C   UNL A   1      35.517  35.260  32.376  1.00  0.00     0.016 A 
ATOM     48  C   UNL A   1      35.752  32.471  32.690  1.00  0.00     0.010 A 
ATOM     49  C   UNL A   1      36.742  34.712  32.692  1.00  0.00     0.010 A 
ATOM     50  C   UNL A   1      36.848  33.323  32.863  1.00  0.00    -0.014 A 
BRANCH  50  51
ATOM     51  C   UNL A   1      38.060  32.805  33.497  1.00  0.00     0.031 A 
ATOM     52  C   UNL A   1      38.184  33.030  34.971  1.00  0.00     0.074 A 
ATOM     53  C   UNL A   1      39.012  32.229  32.753  1.00  0.00     0.049 A 
ATOM     54  N   UNL A   1      39.193  32.795  35.759  1.00  0.00    -0.248 NA
ATOM     55  C   UNL A   1      37.008  33.615  35.644  1.00  0.00     0.031 C 
ATOM     56  C   UNL A   1      38.922  31.960  31.317  1.00  0.00     0.029 A 
ATOM     57  N   UNL A   1      40.253  31.787  33.107  1.00  0.00    -0.354 N 
ATOM     58  C   UNL A   1      38.778  33.212  37.016  1.00  0.00     0.074 A 
ATOM     59  C   UNL A   1      37.440  33.736  36.887  1.00  0.00     0.031 C 
ATOM     60  C   UNL A   1      40.079  31.415  30.907  1.00  0.00     0.029 A 
ATOM     61  C   UNL A   1      40.992  31.336  32.044  1.00  0.00     0.049 A 
ATOM     62  H   UNL A   1      40.586  31.793  34.034  1.00  0.00     0.167 HD
ATOM     63  C   UNL A   1      39.470  33.165  38.174  1.00  0.00     0.031 A 
ATOM     64  C   UNL A   1      42.276  30.939  32.011  1.00  0.00     0.031 A 
ATOM     65  C   UNL A   1      40.821  32.685  38.248  1.00  0.00     0.049 A 
ATOM     66  C   UNL A   1      43.048  30.955  33.303  1.00  0.00     0.074 A 
ATOM     67  C   UNL A   1      41.647  32.586  39.349  1.00  0.00     0.029 A 
ATOM     68  N   UNL A   1      41.545  32.233  37.151  1.00  0.00    -0.354 N 
ATOM     69  N   UNL A   1      42.650  31.326  34.499  1.00  0.00    -0.248 NA
ATOM     70  C   UNL A   1      44.439  30.496  33.244  1.00  0.00     0.031 C 
ATOM     71  C   UNL A   1      42.892  32.125  38.908  1.00  0.00     0.029 A 
ATOM     72  C   UNL A   1      42.819  31.875  37.544  1.00  0.00     0.049 A 
ATOM     73  H   UNL A   1      41.200  32.177  36.231  1.00  0.00     0.167 HD
ATOM     74  C   UNL A   1      43.730  31.118  35.343  1.00  0.00     0.074 A 
ATOM     75  C   UNL A   1      44.797  30.578  34.519  1.00  0.00     0.031 C 
ATOM     76  C   UNL A   1      43.842  31.346  36.676  1.00  0.00     0.031 A 
BRANCH  63  77
ATOM     77  C   UNL A   1      38.789  33.701  39.400  1.00  0.00    -0.014 A 
ATOM     78  C   UNL A   1      39.011  35.014  39.847  1.00  0.00     0.009 A 
ATOM     79  C   UNL A   1      37.939  32.868  40.143  1.00  0.00     0.009 A 
ATOM     80  C   UNL A   1      38.429  35.469  41.033  1.00  0.00     0.001 A 
ATOM     81  C   UNL A   1      37.334  33.335  41.312  1.00  0.00     0.001 A 
ATOM     82  C   UNL A   1      37.587  34.629  41.761  1.00  0.00     0.000 A 
ENDBRANCH  63  77
BRANCH  64  83
ATOM     83  C   UNL A   1      42.892  30.510  30.729  1.00  0.00    -0.014 A 
ATOM     84  C   UNL A   1      42.915  29.156  30.366  1.00  0.00     0.009 A 
ATOM     85  C   UNL A   1      43.439  31.456  29.848  1.00  0.00     0.009 A 
ATOM     86  C   UNL A   1      43.492  28.757  29.156  1.00  0.00     0.001 A 
ATOM     87  C   UNL A   1      43.990  31.058  28.627  1.00  0.00     0.001 A 
ATOM     88  C   UNL A   1      44.023  29.708  28.286  1.00  0.00     0.000 A 
ENDBRANCH  64  83
BRANCH  76  89
ATOM     89  C   UNL A   1      45.147  30.972  37.317  1.00  0.00    -0.014 A 
ATOM     90  C   UNL A   1      45.355  29.692  37.854  1.00  0.00     0.009 A 
ATOM     91  C   UNL A   1      46.198  31.901  37.329  1.00  0.00     0.009 A 
ATOM     92  C   UNL A   1      46.585  29.363  38.422  1.00  0.00     0.001 A 
ATOM     93  C   UNL A   1      47.437  31.558  37.867  1.00  0.00     0.001 A 
ATOM     94  C   UNL A   1      47.626  30.293  38.422  1.00  0.00     0.000 A 
ENDBRANCH  76  89
ENDBRANCH  50  51
ENDBRANCH  43  45
ENDBRANCH  42  43
ENDBRANCH  41  42
ENDBRANCH  40  41
ENDBRANCH  39  40
ENDBRANCH  38  39
ENDBRANCH  37  38
ENDBRANCH  36  37
ENDBRANCH  35  36
ENDBRANCH  34  35
ENDBRANCH   1  34
TORSDOF 29
ENDMDL
MODEL 3
REMARK VINA RESULT:      -8.4      2.944      8.329
REMARK SMILES CC(C)[C@H](NC(=O)[C@H](C)NC(=O)CNC(=O)OCc1ccccc1)C(=O)OCCOCCOCCOCCOC(=O)c1ccc(-c2c3nc(c(-c4ccccc4)c4ccc([nH]4)c(-c4ccccc4)c4nc(c(-c5ccccc5)c5ccc2[nH]5)C=C4)C=C3)cc1
REMARK SMILES IDX 30 1 29 2 28 3 27 4 25 5 26 6 4 7 2 8 1 9 3 10 5 11 6 12
REMARK SMILES IDX 7 14 8 15 9 16 10 17 11 18 12 20 13 21 14 22 15 23 16 25
REMARK SMILES IDX 17 26 18 27 19 28 20 29 24 30 21 31 23 32 22 33 31 34 32 35
REMARK SMILES IDX 33 36 34 37 35 38 36 39 37 40 38 41 39 42 40 43 41 44 42 45
REMARK SMILES IDX 43 46 89 47 44 48 88 49 45 50 46 51 47 52 82 53 48 54 87 55
REMARK SMILES IDX 81 56 83 57 49 58 86 59 80 60 79 61 50 63 72 64 57 65 71 66
REMARK SMILES IDX 58 67 61 68 70 69 84 70 59 71 60 72 69 74 85 75 62 76 51 77
REMARK SMILES IDX 52 78 56 79 53 80 55 81 54 82 73 83 74 84 78 85 75 86 77 87
REMARK SMILES IDX 76 88 63 89 64 90 68 91 65 92 67 93 66 94
REMARK H PARENT 5 13 10 19 14 24 83 62 61 73
REMARK Flexibility Score: inf
ROOT
ATOM      1  O   UNL A   1      37.509  23.154  26.024  1.00  0.00    -0.376 OA
ENDROOT
BRANCH   1   2
ATOM      2  C   UNL A   1      36.597  22.653  25.052  1.00  0.00     0.202 C 
BRANCH   2   3
ATOM      3  C   UNL A   1      35.707  23.718  24.390  1.00  0.00     0.261 C 
BRANCH   3   4
ATOM      4  O   UNL A   1      34.271  23.636  24.613  1.00  0.00    -0.462 OA
BRANCH   4   5
ATOM      5  C   UNL A   1      33.493  22.801  23.890  1.00  0.00     0.328 C 
ATOM      6  O   UNL A   1      33.324  22.902  22.681  1.00  0.00    -0.250 OA
BRANCH   5   7
ATOM      7  C   UNL A   1      32.714  21.776  24.788  1.00  0.00     0.194 C 
BRANCH   7   8
ATOM      8  C   UNL A   1      33.072  20.297  24.333  1.00  0.00     0.017 C 
ATOM      9  C   UNL A   1      33.058  19.225  25.433  1.00  0.00     0.010 C 
ATOM     10  C   UNL A   1      32.225  19.759  23.163  1.00  0.00     0.010 C 
ENDBRANCH   7   8
BRANCH   7  11
ATOM     11  N   UNL A   1      31.239  21.969  25.053  1.00  0.00    -0.341 N 
ATOM     12  C   UNL A   1      30.591  22.740  26.004  1.00  0.00     0.242 C 
ATOM     13  H   UNL A   1      30.642  21.465  24.454  1.00  0.00     0.164 HD
ATOM     14  O   UNL A   1      29.691  22.175  26.639  1.00  0.00    -0.273 OA
BRANCH  12  15
ATOM     15  C   UNL A   1      30.738  24.302  26.096  1.00  0.00     0.168 C 
ATOM     16  C   UNL A   1      30.481  24.998  24.789  1.00  0.00     0.041 C 
BRANCH  15  17
ATOM     17  N   UNL A   1      32.003  24.830  26.622  1.00  0.00    -0.343 N 
ATOM     18  C   UNL A   1      32.351  26.166  26.643  1.00  0.00     0.240 C 
ATOM     19  H   UNL A   1      32.650  24.184  26.987  1.00  0.00     0.164 HD
ATOM     20  O   UNL A   1      33.468  26.478  26.225  1.00  0.00    -0.273 OA
BRANCH  18  21
ATOM     21  C   UNL A   1      31.343  27.238  27.123  1.00  0.00     0.219 C 
BRANCH  21  22
ATOM     22  N   UNL A   1      31.901  28.492  27.607  1.00  0.00    -0.312 N 
ATOM     23  C   UNL A   1      32.225  29.601  26.862  1.00  0.00     0.407 C 
ATOM     24  H   UNL A   1      32.067  28.553  28.575  1.00  0.00     0.167 HD
ATOM     25  O   UNL A   1      32.907  30.495  27.342  1.00  0.00    -0.225 OA
BRANCH  23  26
ATOM     26  O   UNL A   1      31.749  29.585  25.588  1.00  0.00    -0.445 OA
BRANCH  26  27
ATOM     27  C   UNL A   1      32.724  29.423  24.538  1.00  0.00     0.270 C 
BRANCH  27  28
ATOM     28  C   UNL A   1      32.616  28.412  23.416  1.00  0.00    -0.011 A 
ATOM     29  C   UNL A   1      33.654  27.572  23.017  1.00  0.00     0.007 A 
ATOM     30  C   UNL A   1      31.322  28.157  22.910  1.00  0.00     0.007 A 
ATOM     31  C   UNL A   1      33.403  26.506  22.142  1.00  0.00     0.000 A 
ATOM     32  C   UNL A   1      31.070  27.092  22.045  1.00  0.00     0.000 A 
ATOM     33  C   UNL A   1      32.115  26.262  21.662  1.00  0.00     0.000 A 
ENDBRANCH  27  28
ENDBRANCH  26  27
ENDBRANCH  23  26
ENDBRANCH  21  22
ENDBRANCH  18  21
ENDBRANCH  15  17
ENDBRANCH  12  15
ENDBRANCH   7  11
ENDBRANCH   5   7
ENDBRANCH   4   5
ENDBRANCH   3   4
ENDBRANCH   2   3
ENDBRANCH   1   2
BRANCH   1  34
ATOM     34  C   UNL A   1      38.677  22.356  26.160  1.00  0.00     0.188 C 
BRANCH  34  35
ATOM     35  C   UNL A   1      39.808  23.144  26.814  1.00  0.00     0.188 C 
BRANCH  35  36
ATOM     36  O   UNL A   1      40.544  22.318  27.690  1.00  0.00    -0.377 OA
BRANCH  36  37
ATOM     37  C   UNL A   1      41.086  21.160  27.092  1.00  0.00     0.188 C 
BRANCH  37  38
ATOM     38  C   UNL A   1      42.194  21.336  26.044  1.00  0.00     0.188 C 
BRANCH  38  39
ATOM     39  O   UNL A   1      43.047  22.474  26.121  1.00  0.00    -0.376 OA
BRANCH  39  40
ATOM     40  C   UNL A   1      43.035  23.607  25.273  1.00  0.00     0.202 C 
BRANCH  40  41
ATOM     41  C   UNL A   1      44.218  24.512  24.982  1.00  0.00     0.261 C 
BRANCH  41  42
ATOM     42  O   UNL A   1      44.236  25.660  25.803  1.00  0.00    -0.460 OA
BRANCH  42  43
ATOM     43  C   UNL A   1      45.090  25.572  26.857  1.00  0.00     0.338 C 
ATOM     44  O   UNL A   1      46.201  25.139  26.888  1.00  0.00    -0.246 OA
BRANCH  43  45
ATOM     45  C   UNL A   1      44.426  26.334  27.923  1.00  0.00     0.060 A 
ATOM     46  C   UNL A   1      44.743  27.689  28.070  1.00  0.00     0.016 A 
ATOM     47  C   UNL A   1      43.410  25.722  28.658  1.00  0.00     0.016 A 
ATOM     48  C   UNL A   1      44.000  28.460  28.946  1.00  0.00     0.010 A 
ATOM     49  C   UNL A   1      42.703  26.478  29.569  1.00  0.00     0.010 A 
ATOM     50  C   UNL A   1      43.014  27.838  29.719  1.00  0.00    -0.014 A 
BRANCH  50  51
ATOM     51  C   UNL A   1      42.482  28.533  30.891  1.00  0.00     0.031 A 
ATOM     52  C   UNL A   1      41.253  29.356  30.671  1.00  0.00     0.074 A 
ATOM     53  C   UNL A   1      43.127  28.463  32.062  1.00  0.00     0.049 A 
ATOM     54  N   UNL A   1      40.647  30.169  31.488  1.00  0.00    -0.248 NA
ATOM     55  C   UNL A   1      40.632  29.260  29.335  1.00  0.00     0.031 C 
ATOM     56  C   UNL A   1      44.311  27.647  32.333  1.00  0.00     0.029 A 
ATOM     57  N   UNL A   1      42.882  29.113  33.237  1.00  0.00    -0.354 N 
ATOM     58  C   UNL A   1      39.582  30.686  30.763  1.00  0.00     0.074 A 
ATOM     59  C   UNL A   1      39.634  30.120  29.438  1.00  0.00     0.031 C 
ATOM     60  C   UNL A   1      44.705  27.865  33.599  1.00  0.00     0.029 A 
ATOM     61  C   UNL A   1      43.822  28.860  34.202  1.00  0.00     0.049 A 
ATOM     62  H   UNL A   1      42.109  29.706  33.377  1.00  0.00     0.167 HD
ATOM     63  C   UNL A   1      38.648  31.568  31.180  1.00  0.00     0.031 A 
ATOM     64  C   UNL A   1      43.954  29.408  35.423  1.00  0.00     0.031 A 
ATOM     65  C   UNL A   1      38.665  32.148  32.492  1.00  0.00     0.049 A 
ATOM     66  C   UNL A   1      42.939  30.437  35.841  1.00  0.00     0.074 A 
ATOM     67  C   UNL A   1      37.790  33.059  33.049  1.00  0.00     0.029 A 
ATOM     68  N   UNL A   1      39.632  31.872  33.451  1.00  0.00    -0.354 N 
ATOM     69  N   UNL A   1      41.915  30.910  35.167  1.00  0.00    -0.248 NA
ATOM     70  C   UNL A   1      43.091  31.003  37.185  1.00  0.00     0.031 C 
ATOM     71  C   UNL A   1      38.261  33.376  34.327  1.00  0.00     0.029 A 
ATOM     72  C   UNL A   1      39.390  32.612  34.591  1.00  0.00     0.049 A 
ATOM     73  H   UNL A   1      40.380  31.241  33.334  1.00  0.00     0.167 HD
ATOM     74  C   UNL A   1      41.281  31.808  36.013  1.00  0.00     0.074 A 
ATOM     75  C   UNL A   1      42.035  31.803  37.255  1.00  0.00     0.031 C 
ATOM     76  C   UNL A   1      40.179  32.570  35.797  1.00  0.00     0.031 A 
BRANCH  63  77
ATOM     77  C   UNL A   1      37.604  31.980  30.183  1.00  0.00    -0.014 A 
ATOM     78  C   UNL A   1      36.380  31.299  30.080  1.00  0.00     0.009 A 
ATOM     79  C   UNL A   1      37.862  33.045  29.306  1.00  0.00     0.009 A 
ATOM     80  C   UNL A   1      35.454  31.648  29.094  1.00  0.00     0.001 A 
ATOM     81  C   UNL A   1      36.922  33.412  28.342  1.00  0.00     0.001 A 
ATOM     82  C   UNL A   1      35.725  32.708  28.228  1.00  0.00     0.000 A 
ENDBRANCH  63  77
BRANCH  64  83
ATOM     83  C   UNL A   1      45.076  29.002  36.306  1.00  0.00    -0.014 A 
ATOM     84  C   UNL A   1      44.865  28.104  37.363  1.00  0.00     0.009 A 
ATOM     85  C   UNL A   1      46.374  29.491  36.084  1.00  0.00     0.009 A 
ATOM     86  C   UNL A   1      45.925  27.721  38.190  1.00  0.00     0.001 A 
ATOM     87  C   UNL A   1      47.437  29.084  36.894  1.00  0.00     0.001 A 
ATOM     88  C   UNL A   1      47.210  28.206  37.952  1.00  0.00     0.000 A 
ENDBRANCH  64  83
BRANCH  76  89
ATOM     89  C   UNL A   1      39.712  33.420  36.942  1.00  0.00    -0.014 A 
ATOM     90  C   UNL A   1      38.876  32.901  37.943  1.00  0.00     0.009 A 
ATOM     91  C   UNL A   1      40.166  34.744  37.045  1.00  0.00     0.009 A 
ATOM     92  C   UNL A   1      38.477  33.706  39.008  1.00  0.00     0.001 A 
ATOM     93  C   UNL A   1      39.792  35.535  38.129  1.00  0.00     0.001 A 
ATOM     94  C   UNL A   1      38.939  35.019  39.104  1.00  0.00     0.000 A 
ENDBRANCH  76  89
ENDBRANCH  50  51
ENDBRANCH  43  45
ENDBRANCH  42  43
ENDBRANCH  41  42
ENDBRANCH  40  41
ENDBRANCH  39  40
ENDBRANCH  38  39
ENDBRANCH  37  38
ENDBRANCH  36  37
ENDBRANCH  35  36
ENDBRANCH  34  35
ENDBRANCH   1  34
TORSDOF 29
ENDMDL
