MODEL 1
REMARK VINA RESULT:      -8.9      0.000      0.000
REMARK SMILES COc1ccc(-c2ccc(/C=C3\SC(=S)N([C@H](Cc4ccccc4)C(=O)OCCOCCOCCOCCOC(=O)c4ccc(-c5c6nc(c(-c7ccccc7)c7ccc([nH]7)c(-c7ccccc7)c7nc(c(-c8ccccc8)c8ccc5[nH]8)C=C7)C=C6)cc4)C3=O)o2)cc1
REMARK SMILES IDX 32 1 31 2 30 3 29 4 28 5 27 6 25 7 26 8 17 9 16 10 11 11
REMARK SMILES IDX 12 12 13 13 90 14 14 15 91 16 15 17 10 18 7 19 8 20 92 21
REMARK SMILES IDX 9 22 6 23 3 24 4 25 94 26 5 27 93 28 2 29 1 30 18 31 19 32
REMARK SMILES IDX 20 33 24 34 21 35 23 36 22 37 33 38 34 39 35 40 36 41 37 42
REMARK SMILES IDX 38 43 39 44 40 45 41 46 42 47 43 48 89 49 44 50 88 51 45 52
REMARK SMILES IDX 46 53 47 54 82 55 48 56 87 57 81 58 83 59 49 60 86 61 80 62
REMARK SMILES IDX 79 63 50 65 72 66 57 67 71 68 58 69 61 70 70 71 84 72 59 73
REMARK SMILES IDX 60 74 69 76 85 77 62 78 51 79 52 80 56 81 53 82 55 83 54 84
REMARK SMILES IDX 73 85 74 86 78 87 75 88 77 89 76 90 63 91 64 92 68 93 65 94
REMARK SMILES IDX 67 95 66 96
REMARK H PARENT 83 64 61 75
REMARK Flexibility Score: inf
ROOT
ATOM      1  C   UNL A   1      31.910  29.019  26.610  1.00  0.00     0.188 C 
ENDROOT
BRANCH   1   2
ATOM      2  C   UNL A   1      31.672  28.144  25.370  1.00  0.00     0.188 C 
BRANCH   2   3
ATOM      3  O   UNL A   1      30.826  27.046  25.633  1.00  0.00    -0.376 OA
BRANCH   3   4
ATOM      4  C   UNL A   1      31.333  25.927  26.335  1.00  0.00     0.202 C 
BRANCH   4   5
ATOM      5  C   UNL A   1      32.392  24.984  25.729  1.00  0.00     0.261 C 
BRANCH   5   6
ATOM      6  O   UNL A   1      32.224  23.579  25.945  1.00  0.00    -0.462 OA
BRANCH   6   7
ATOM      7  C   UNL A   1      31.871  22.868  24.854  1.00  0.00     0.329 C 
ATOM      8  O   UNL A   1      30.970  23.203  24.086  1.00  0.00    -0.250 OA
BRANCH   7   9
ATOM      9  C   UNL A   1      32.669  21.580  24.630  1.00  0.00     0.206 C 
BRANCH   9  10
ATOM     10  N   UNL A   1      34.051  22.034  24.486  1.00  0.00    -0.278 N 
ATOM     11  C   UNL A   1      37.094  22.103  26.258  1.00  0.00     0.068 C 
ATOM     12  C   UNL A   1      36.230  22.228  25.254  1.00  0.00     0.084 C 
ATOM     13  S   UNL A   1      36.265  23.144  23.810  1.00  0.00    -0.054 SA
ATOM     14  C   UNL A   1      34.981  21.469  25.335  1.00  0.00     0.267 C 
ATOM     15  C   UNL A   1      34.554  22.846  23.499  1.00  0.00     0.149 C 
ATOM     16  O   UNL A   1      34.850  20.446  25.990  1.00  0.00    -0.268 OA
ATOM     17  S   UNL A   1      33.750  23.529  22.210  1.00  0.00    -0.052 S 
BRANCH  11  18
ATOM     18  C   UNL A   1      38.381  22.665  26.251  1.00  0.00     0.128 A 
ATOM     19  C   UNL A   1      39.849  24.273  26.591  1.00  0.00     0.134 A 
ATOM     20  C   UNL A   1      40.583  23.162  26.250  1.00  0.00     0.051 A 
ATOM     21  O   UNL A   1      38.529  23.989  26.537  1.00  0.00    -0.457 OA
ATOM     22  C   UNL A   1      39.641  22.128  26.032  1.00  0.00     0.051 A 
BRANCH  19  23
ATOM     23  C   UNL A   1      40.140  25.627  26.991  1.00  0.00     0.017 A 
ATOM     24  C   UNL A   1      40.683  28.254  27.794  1.00  0.00     0.118 A 
ATOM     25  C   UNL A   1      39.877  27.436  28.583  1.00  0.00     0.047 A 
ATOM     26  C   UNL A   1      41.218  27.757  26.603  1.00  0.00     0.047 A 
ATOM     27  C   UNL A   1      39.594  26.134  28.179  1.00  0.00     0.016 A 
ATOM     28  C   UNL A   1      40.953  26.443  26.206  1.00  0.00     0.016 A 
BRANCH  24  29
ATOM     29  O   UNL A   1      40.902  29.503  28.302  1.00  0.00    -0.497 OA
ATOM     30  C   UNL A   1      40.152  29.843  29.460  1.00  0.00     0.278 C 
ENDBRANCH  24  29
ENDBRANCH  19  23
ENDBRANCH  11  18
ENDBRANCH   9  10
BRANCH   9  31
ATOM     31  C   UNL A   1      32.286  20.464  23.626  1.00  0.00     0.073 C 
BRANCH  31  32
ATOM     32  C   UNL A   1      32.632  19.021  23.911  1.00  0.00    -0.045 A 
ATOM     33  C   UNL A   1      32.415  18.478  25.183  1.00  0.00     0.004 A 
ATOM     34  C   UNL A   1      33.172  18.200  22.906  1.00  0.00     0.004 A 
ATOM     35  C   UNL A   1      32.689  17.133  25.435  1.00  0.00     0.000 A 
ATOM     36  C   UNL A   1      33.445  16.854  23.160  1.00  0.00     0.000 A 
ATOM     37  C   UNL A   1      33.195  16.320  24.422  1.00  0.00     0.000 A 
ENDBRANCH  31  32
ENDBRANCH   9  31
ENDBRANCH   7   9
ENDBRANCH   6   7
ENDBRANCH   5   6
ENDBRANCH   4   5
ENDBRANCH   3   4
ENDBRANCH   2   3
ENDBRANCH   1   2
BRANCH   1  38
ATOM     38  O   UNL A   1      31.507  30.382  26.571  1.00  0.00    -0.377 OA
BRANCH  38  39
ATOM     39  C   UNL A   1      32.482  31.424  26.552  1.00  0.00     0.188 C 
BRANCH  39  40
ATOM     40  C   UNL A   1      33.568  31.494  27.644  1.00  0.00     0.188 C 
BRANCH  40  41
ATOM     41  O   UNL A   1      33.839  32.802  28.115  1.00  0.00    -0.376 OA
BRANCH  41  42
ATOM     42  C   UNL A   1      34.892  32.947  29.056  1.00  0.00     0.202 C 
BRANCH  42  43
ATOM     43  C   UNL A   1      34.512  33.547  30.417  1.00  0.00     0.261 C 
BRANCH  43  44
ATOM     44  O   UNL A   1      34.216  32.612  31.469  1.00  0.00    -0.460 OA
BRANCH  44  45
ATOM     45  C   UNL A   1      34.609  32.900  32.726  1.00  0.00     0.338 C 
ATOM     46  O   UNL A   1      33.924  33.275  33.660  1.00  0.00    -0.246 OA
BRANCH  45  47
ATOM     47  C   UNL A   1      36.031  32.528  32.836  1.00  0.00     0.060 A 
ATOM     48  C   UNL A   1      36.896  33.307  33.618  1.00  0.00     0.016 A 
ATOM     49  C   UNL A   1      36.504  31.418  32.139  1.00  0.00     0.016 A 
ATOM     50  C   UNL A   1      38.255  32.992  33.675  1.00  0.00     0.010 A 
ATOM     51  C   UNL A   1      37.864  31.117  32.180  1.00  0.00     0.010 A 
ATOM     52  C   UNL A   1      38.750  31.923  32.917  1.00  0.00    -0.014 A 
BRANCH  52  53
ATOM     53  C   UNL A   1      40.205  31.755  32.695  1.00  0.00     0.031 A 
ATOM     54  C   UNL A   1      40.884  32.709  31.752  1.00  0.00     0.074 A 
ATOM     55  C   UNL A   1      40.896  30.752  33.262  1.00  0.00     0.049 A 
ATOM     56  N   UNL A   1      42.090  32.662  31.249  1.00  0.00    -0.248 NA
ATOM     57  C   UNL A   1      40.086  33.864  31.307  1.00  0.00     0.031 C 
ATOM     58  C   UNL A   1      40.369  29.796  34.234  1.00  0.00     0.029 A 
ATOM     59  N   UNL A   1      42.197  30.357  33.070  1.00  0.00    -0.354 N 
ATOM     60  C   UNL A   1      42.186  33.765  30.409  1.00  0.00     0.074 A 
ATOM     61  C   UNL A   1      40.915  34.453  30.458  1.00  0.00     0.031 C 
ATOM     62  C   UNL A   1      41.333  28.907  34.535  1.00  0.00     0.029 A 
ATOM     63  C   UNL A   1      42.524  29.204  33.740  1.00  0.00     0.049 A 
ATOM     64  H   UNL A   1      42.834  30.854  32.507  1.00  0.00     0.167 HD
ATOM     65  C   UNL A   1      43.237  34.164  29.657  1.00  0.00     0.031 A 
ATOM     66  C   UNL A   1      43.642  28.453  33.681  1.00  0.00     0.031 A 
ATOM     67  C   UNL A   1      44.494  33.472  29.599  1.00  0.00     0.049 A 
ATOM     68  C   UNL A   1      44.769  28.871  32.770  1.00  0.00     0.074 A 
ATOM     69  C   UNL A   1      45.627  33.805  28.878  1.00  0.00     0.029 A 
ATOM     70  N   UNL A   1      44.779  32.301  30.284  1.00  0.00    -0.354 N 
ATOM     71  N   UNL A   1      44.858  29.922  31.991  1.00  0.00    -0.248 NA
ATOM     72  C   UNL A   1      45.951  27.995  32.729  1.00  0.00     0.031 C 
ATOM     73  C   UNL A   1      46.579  32.802  29.080  1.00  0.00     0.029 A 
ATOM     74  C   UNL A   1      46.062  31.883  29.981  1.00  0.00     0.049 A 
ATOM     75  H   UNL A   1      44.162  31.838  30.893  1.00  0.00     0.167 HD
ATOM     76  C   UNL A   1      46.116  29.854  31.401  1.00  0.00     0.074 A 
ATOM     77  C   UNL A   1      46.757  28.662  31.914  1.00  0.00     0.031 C 
ATOM     78  C   UNL A   1      46.692  30.704  30.516  1.00  0.00     0.031 A 
BRANCH  65  79
ATOM     79  C   UNL A   1      43.054  35.385  28.800  1.00  0.00    -0.014 A 
ATOM     80  C   UNL A   1      43.262  36.676  29.311  1.00  0.00     0.009 A 
ATOM     81  C   UNL A   1      42.706  35.235  27.449  1.00  0.00     0.009 A 
ATOM     82  C   UNL A   1      43.095  37.793  28.490  1.00  0.00     0.001 A 
ATOM     83  C   UNL A   1      42.568  36.352  26.624  1.00  0.00     0.001 A 
ATOM     84  C   UNL A   1      42.754  37.630  27.148  1.00  0.00     0.000 A 
ENDBRANCH  65  79
BRANCH  66  85
ATOM     85  C   UNL A   1      43.746  27.199  34.475  1.00  0.00    -0.014 A 
ATOM     86  C   UNL A   1      44.293  27.213  35.768  1.00  0.00     0.009 A 
ATOM     87  C   UNL A   1      43.333  25.973  33.930  1.00  0.00     0.009 A 
ATOM     88  C   UNL A   1      44.452  26.024  36.483  1.00  0.00     0.001 A 
ATOM     89  C   UNL A   1      43.464  24.789  34.659  1.00  0.00     0.001 A 
ATOM     90  C   UNL A   1      44.034  24.814  35.930  1.00  0.00     0.000 A 
ENDBRANCH  66  85
BRANCH  78  91
ATOM     91  C   UNL A   1      48.105  30.423  30.089  1.00  0.00    -0.014 A 
ATOM     92  C   UNL A   1      48.392  29.574  29.010  1.00  0.00     0.009 A 
ATOM     93  C   UNL A   1      49.162  31.091  30.729  1.00  0.00     0.009 A 
ATOM     94  C   UNL A   1      49.712  29.385  28.594  1.00  0.00     0.001 A 
ATOM     95  C   UNL A   1      50.476  30.922  30.293  1.00  0.00     0.001 A 
ATOM     96  C   UNL A   1      50.751  30.065  29.229  1.00  0.00     0.000 A 
ENDBRANCH  78  91
ENDBRANCH  52  53
ENDBRANCH  45  47
ENDBRANCH  44  45
ENDBRANCH  43  44
ENDBRANCH  42  43
ENDBRANCH  41  42
ENDBRANCH  40  41
ENDBRANCH  39  40
ENDBRANCH  38  39
ENDBRANCH   1  38
TORSDOF 26
ENDMDL
MODEL 2
REMARK VINA RESULT:      -8.7      3.496      5.870
REMARK SMILES COc1ccc(-c2ccc(/C=C3\SC(=S)N([C@H](Cc4ccccc4)C(=O)OCCOCCOCCOCCOC(=O)c4ccc(-c5c6nc(c(-c7ccccc7)c7ccc([nH]7)c(-c7ccccc7)c7nc(c(-c8ccccc8)c8ccc5[nH]8)C=C7)C=C6)cc4)C3=O)o2)cc1
REMARK SMILES IDX 32 1 31 2 30 3 29 4 28 5 27 6 25 7 26 8 17 9 16 10 11 11
REMARK SMILES IDX 12 12 13 13 90 14 14 15 91 16 15 17 10 18 7 19 8 20 92 21
REMARK SMILES IDX 9 22 6 23 3 24 4 25 94 26 5 27 93 28 2 29 1 30 18 31 19 32
REMARK SMILES IDX 20 33 24 34 21 35 23 36 22 37 33 38 34 39 35 40 36 41 37 42
REMARK SMILES IDX 38 43 39 44 40 45 41 46 42 47 43 48 89 49 44 50 88 51 45 52
REMARK SMILES IDX 46 53 47 54 82 55 48 56 87 57 81 58 83 59 49 60 86 61 80 62
REMARK SMILES IDX 79 63 50 65 72 66 57 67 71 68 58 69 61 70 70 71 84 72 59 73
REMARK SMILES IDX 60 74 69 76 85 77 62 78 51 79 52 80 56 81 53 82 55 83 54 84
REMARK SMILES IDX 73 85 74 86 78 87 75 88 77 89 76 90 63 91 64 92 68 93 65 94
REMARK SMILES IDX 67 95 66 96
REMARK H PARENT 83 64 61 75
REMARK Flexibility Score: inf
ROOT
ATOM      1  C   UNL A   1      32.034  28.768  26.679  1.00  0.00     0.188 C 
ENDROOT
BRANCH   1   2
ATOM      2  C   UNL A   1      31.879  27.795  25.501  1.00  0.00     0.188 C 
BRANCH   2   3
ATOM      3  O   UNL A   1      30.764  26.942  25.642  1.00  0.00    -0.376 OA
BRANCH   3   4
ATOM      4  C   UNL A   1      30.950  25.621  26.114  1.00  0.00     0.202 C 
BRANCH   4   5
ATOM      5  C   UNL A   1      32.161  24.761  25.700  1.00  0.00     0.261 C 
BRANCH   5   6
ATOM      6  O   UNL A   1      32.046  23.343  25.854  1.00  0.00    -0.462 OA
BRANCH   6   7
ATOM      7  C   UNL A   1      31.838  22.656  24.711  1.00  0.00     0.329 C 
ATOM      8  O   UNL A   1      31.005  22.980  23.864  1.00  0.00    -0.250 OA
BRANCH   7   9
ATOM      9  C   UNL A   1      32.711  21.411  24.531  1.00  0.00     0.206 C 
BRANCH   9  10
ATOM     10  N   UNL A   1      34.071  21.937  24.426  1.00  0.00    -0.278 N 
ATOM     11  C   UNL A   1      37.095  22.053  26.227  1.00  0.00     0.068 C 
ATOM     12  C   UNL A   1      36.233  22.191  25.223  1.00  0.00     0.084 C 
ATOM     13  S   UNL A   1      36.233  23.187  23.832  1.00  0.00    -0.054 SA
ATOM     14  C   UNL A   1      35.021  21.371  25.250  1.00  0.00     0.267 C 
ATOM     15  C   UNL A   1      34.541  22.826  23.489  1.00  0.00     0.149 C 
ATOM     16  O   UNL A   1      34.935  20.308  25.847  1.00  0.00    -0.268 OA
ATOM     17  S   UNL A   1      33.713  23.541  22.232  1.00  0.00    -0.052 S 
BRANCH  11  18
ATOM     18  C   UNL A   1      38.353  22.674  26.263  1.00  0.00     0.128 A 
ATOM     19  C   UNL A   1      39.735  24.341  26.673  1.00  0.00     0.134 A 
ATOM     20  C   UNL A   1      40.529  23.275  26.324  1.00  0.00     0.051 A 
ATOM     21  O   UNL A   1      38.432  23.996  26.582  1.00  0.00    -0.457 OA
ATOM     22  C   UNL A   1      39.642  22.202  26.061  1.00  0.00     0.051 A 
BRANCH  19  23
ATOM     23  C   UNL A   1      39.953  25.697  27.111  1.00  0.00     0.017 A 
ATOM     24  C   UNL A   1      40.352  28.327  27.985  1.00  0.00     0.118 A 
ATOM     25  C   UNL A   1      39.571  27.452  28.739  1.00  0.00     0.047 A 
ATOM     26  C   UNL A   1      40.933  27.885  26.794  1.00  0.00     0.047 A 
ATOM     27  C   UNL A   1      39.360  26.149  28.298  1.00  0.00     0.016 A 
ATOM     28  C   UNL A   1      40.740  26.571  26.362  1.00  0.00     0.016 A 
BRANCH  24  29
ATOM     29  O   UNL A   1      40.500  29.572  28.527  1.00  0.00    -0.497 OA
ATOM     30  C   UNL A   1      41.124  29.624  29.803  1.00  0.00     0.278 C 
ENDBRANCH  24  29
ENDBRANCH  19  23
ENDBRANCH  11  18
ENDBRANCH   9  10
BRANCH   9  31
ATOM     31  C   UNL A   1      32.421  20.263  23.532  1.00  0.00     0.073 C 
BRANCH  31  32
ATOM     32  C   UNL A   1      32.718  18.828  23.902  1.00  0.00    -0.045 A 
ATOM     33  C   UNL A   1      32.282  18.307  25.126  1.00  0.00     0.004 A 
ATOM     34  C   UNL A   1      33.430  17.992  23.024  1.00  0.00     0.004 A 
ATOM     35  C   UNL A   1      32.513  16.969  25.449  1.00  0.00     0.000 A 
ATOM     36  C   UNL A   1      33.658  16.653  23.349  1.00  0.00     0.000 A 
ATOM     37  C   UNL A   1      33.193  16.141  24.557  1.00  0.00     0.000 A 
ENDBRANCH  31  32
ENDBRANCH   9  31
ENDBRANCH   7   9
ENDBRANCH   6   7
ENDBRANCH   5   6
ENDBRANCH   4   5
ENDBRANCH   3   4
ENDBRANCH   2   3
ENDBRANCH   1   2
BRANCH   1  38
ATOM     38  O   UNL A   1      31.680  30.133  26.486  1.00  0.00    -0.377 OA
BRANCH  38  39
ATOM     39  C   UNL A   1      32.676  31.154  26.550  1.00  0.00     0.188 C 
BRANCH  39  40
ATOM     40  C   UNL A   1      33.278  31.569  27.906  1.00  0.00     0.188 C 
BRANCH  40  41
ATOM     41  O   UNL A   1      34.670  31.830  27.871  1.00  0.00    -0.376 OA
BRANCH  41  42
ATOM     42  C   UNL A   1      35.362  31.828  29.111  1.00  0.00     0.202 C 
BRANCH  42  43
ATOM     43  C   UNL A   1      34.823  32.773  30.194  1.00  0.00     0.261 C 
BRANCH  43  44
ATOM     44  O   UNL A   1      34.339  32.156  31.399  1.00  0.00    -0.460 OA
BRANCH  44  45
ATOM     45  C   UNL A   1      34.272  32.892  32.526  1.00  0.00     0.338 C 
ATOM     46  O   UNL A   1      33.297  33.111  33.223  1.00  0.00    -0.246 OA
BRANCH  45  47
ATOM     47  C   UNL A   1      35.649  33.282  32.879  1.00  0.00     0.060 A 
ATOM     48  C   UNL A   1      36.014  34.635  32.869  1.00  0.00     0.016 A 
ATOM     49  C   UNL A   1      36.579  32.293  33.196  1.00  0.00     0.016 A 
ATOM     50  C   UNL A   1      37.334  35.001  33.143  1.00  0.00     0.010 A 
ATOM     51  C   UNL A   1      37.900  32.658  33.449  1.00  0.00     0.010 A 
ATOM     52  C   UNL A   1      38.290  34.007  33.388  1.00  0.00    -0.014 A 
BRANCH  52  53
ATOM     53  C   UNL A   1      39.738  34.321  33.365  1.00  0.00     0.031 A 
ATOM     54  C   UNL A   1      40.385  34.739  34.657  1.00  0.00     0.074 A 
ATOM     55  C   UNL A   1      40.449  34.298  32.225  1.00  0.00     0.049 A 
ATOM     56  N   UNL A   1      41.574  35.240  34.866  1.00  0.00    -0.248 NA
ATOM     57  C   UNL A   1      39.570  34.582  35.874  1.00  0.00     0.031 C 
ATOM     58  C   UNL A   1      39.955  33.860  30.921  1.00  0.00     0.029 A 
ATOM     59  N   UNL A   1      41.744  34.686  31.984  1.00  0.00    -0.354 N 
ATOM     60  C   UNL A   1      41.640  35.482  36.233  1.00  0.00     0.074 A 
ATOM     61  C   UNL A   1      40.371  35.087  36.800  1.00  0.00     0.031 C 
ATOM     62  C   UNL A   1      40.930  34.028  30.009  1.00  0.00     0.029 A 
ATOM     63  C   UNL A   1      42.094  34.630  30.658  1.00  0.00     0.049 A 
ATOM     64  H   UNL A   1      42.362  34.975  32.694  1.00  0.00     0.167 HD
ATOM     65  C   UNL A   1      42.667  35.995  36.950  1.00  0.00     0.031 A 
ATOM     66  C   UNL A   1      43.212  35.058  30.036  1.00  0.00     0.031 A 
ATOM     67  C   UNL A   1      43.923  36.398  36.383  1.00  0.00     0.049 A 
ATOM     68  C   UNL A   1      44.309  35.705  30.844  1.00  0.00     0.074 A 
ATOM     69  C   UNL A   1      45.031  36.917  37.028  1.00  0.00     0.029 A 
ATOM     70  N   UNL A   1      44.232  36.336  35.033  1.00  0.00    -0.354 N 
ATOM     71  N   UNL A   1      44.371  35.916  32.138  1.00  0.00    -0.248 NA
ATOM     72  C   UNL A   1      45.491  36.177  30.104  1.00  0.00     0.031 C 
ATOM     73  C   UNL A   1      45.991  37.224  36.060  1.00  0.00     0.029 A 
ATOM     74  C   UNL A   1      45.505  36.833  34.822  1.00  0.00     0.049 A 
ATOM     75  H   UNL A   1      43.635  35.991  34.331  1.00  0.00     0.167 HD
ATOM     76  C   UNL A   1      45.609  36.506  32.368  1.00  0.00     0.074 A 
ATOM     77  C   UNL A   1      46.269  36.616  31.084  1.00  0.00     0.031 C 
ATOM     78  C   UNL A   1      46.154  36.916  33.540  1.00  0.00     0.031 A 
BRANCH  65  79
ATOM     79  C   UNL A   1      42.454  36.190  38.425  1.00  0.00    -0.014 A 
ATOM     80  C   UNL A   1      41.915  37.381  38.935  1.00  0.00     0.009 A 
ATOM     81  C   UNL A   1      42.762  35.146  39.311  1.00  0.00     0.009 A 
ATOM     82  C   UNL A   1      41.719  37.533  40.309  1.00  0.00     0.001 A 
ATOM     83  C   UNL A   1      42.536  35.291  40.681  1.00  0.00     0.001 A 
ATOM     84  C   UNL A   1      42.023  36.487  41.179  1.00  0.00     0.000 A 
ENDBRANCH  65  79
BRANCH  66  85
ATOM     85  C   UNL A   1      43.344  34.932  28.559  1.00  0.00    -0.014 A 
ATOM     86  C   UNL A   1      42.773  35.890  27.706  1.00  0.00     0.009 A 
ATOM     87  C   UNL A   1      44.008  33.833  27.993  1.00  0.00     0.009 A 
ATOM     88  C   UNL A   1      42.839  35.732  26.320  1.00  0.00     0.001 A 
ATOM     89  C   UNL A   1      44.100  33.694  26.607  1.00  0.00     0.001 A 
ATOM     90  C   UNL A   1      43.506  34.638  25.771  1.00  0.00     0.000 A 
ENDBRANCH  66  85
BRANCH  78  91
ATOM     91  C   UNL A   1      47.554  37.463  33.509  1.00  0.00    -0.014 A 
ATOM     92  C   UNL A   1      48.674  36.624  33.606  1.00  0.00     0.009 A 
ATOM     93  C   UNL A   1      47.750  38.837  33.292  1.00  0.00     0.009 A 
ATOM     94  C   UNL A   1      49.962  37.154  33.506  1.00  0.00     0.001 A 
ATOM     95  C   UNL A   1      49.038  39.359  33.165  1.00  0.00     0.001 A 
ATOM     96  C   UNL A   1      50.143  38.518  33.278  1.00  0.00     0.000 A 
ENDBRANCH  78  91
ENDBRANCH  52  53
ENDBRANCH  45  47
ENDBRANCH  44  45
ENDBRANCH  43  44
ENDBRANCH  42  43
ENDBRANCH  41  42
ENDBRANCH  40  41
ENDBRANCH  39  40
ENDBRANCH  38  39
ENDBRANCH   1  38
TORSDOF 26
ENDMDL
MODEL 3
REMARK VINA RESULT:      -8.4      4.570      6.030
REMARK SMILES COc1ccc(-c2ccc(/C=C3\SC(=S)N([C@H](Cc4ccccc4)C(=O)OCCOCCOCCOCCOC(=O)c4ccc(-c5c6nc(c(-c7ccccc7)c7ccc([nH]7)c(-c7ccccc7)c7nc(c(-c8ccccc8)c8ccc5[nH]8)C=C7)C=C6)cc4)C3=O)o2)cc1
REMARK SMILES IDX 32 1 31 2 30 3 29 4 28 5 27 6 25 7 26 8 17 9 16 10 11 11
REMARK SMILES IDX 12 12 13 13 90 14 14 15 91 16 15 17 10 18 7 19 8 20 92 21
REMARK SMILES IDX 9 22 6 23 3 24 4 25 94 26 5 27 93 28 2 29 1 30 18 31 19 32
REMARK SMILES IDX 20 33 24 34 21 35 23 36 22 37 33 38 34 39 35 40 36 41 37 42
REMARK SMILES IDX 38 43 39 44 40 45 41 46 42 47 43 48 89 49 44 50 88 51 45 52
REMARK SMILES IDX 46 53 47 54 82 55 48 56 87 57 81 58 83 59 49 60 86 61 80 62
REMARK SMILES IDX 79 63 50 65 72 66 57 67 71 68 58 69 61 70 70 71 84 72 59 73
REMARK SMILES IDX 60 74 69 76 85 77 62 78 51 79 52 80 56 81 53 82 55 83 54 84
REMARK SMILES IDX 73 85 74 86 78 87 75 88 77 89 76 90 63 91 64 92 68 93 65 94
REMARK SMILES IDX 67 95 66 96
REMARK H PARENT 83 64 61 75
REMARK Flexibility Score: inf
ROOT
ATOM      1  C   UNL A   1      31.890  28.812  26.519  1.00  0.00     0.188 C 
ENDROOT
BRANCH   1   2
ATOM      2  C   UNL A   1      31.606  28.136  25.170  1.00  0.00     0.188 C 
BRANCH   2   3
ATOM      3  O   UNL A   1      30.674  27.082  25.274  1.00  0.00    -0.376 OA
BRANCH   3   4
ATOM      4  C   UNL A   1      30.990  25.944  26.054  1.00  0.00     0.202 C 
BRANCH   4   5
ATOM      5  C   UNL A   1      32.130  24.977  25.676  1.00  0.00     0.261 C 
BRANCH   5   6
ATOM      6  O   UNL A   1      31.900  23.578  25.877  1.00  0.00    -0.462 OA
BRANCH   6   7
ATOM      7  C   UNL A   1      31.681  22.866  24.753  1.00  0.00     0.329 C 
ATOM      8  O   UNL A   1      30.824  23.157  23.918  1.00  0.00    -0.250 OA
BRANCH   7   9
ATOM      9  C   UNL A   1      32.572  21.632  24.578  1.00  0.00     0.206 C 
BRANCH   9  10
ATOM     10  N   UNL A   1      33.926  22.177  24.489  1.00  0.00    -0.278 N 
ATOM     11  C   UNL A   1      36.827  22.602  26.440  1.00  0.00     0.068 C 
ATOM     12  C   UNL A   1      36.027  22.589  25.377  1.00  0.00     0.084 C 
ATOM     13  S   UNL A   1      36.097  23.399  23.872  1.00  0.00    -0.054 SA
ATOM     14  C   UNL A   1      34.832  21.746  25.436  1.00  0.00     0.267 C 
ATOM     15  C   UNL A   1      34.438  22.952  23.476  1.00  0.00     0.149 C 
ATOM     16  O   UNL A   1      34.729  20.766  26.158  1.00  0.00    -0.268 OA
ATOM     17  S   UNL A   1      33.678  23.478  22.090  1.00  0.00    -0.052 S 
BRANCH  11  18
ATOM     18  C   UNL A   1      38.068  23.257  26.473  1.00  0.00     0.128 A 
ATOM     19  C   UNL A   1      39.455  24.857  27.081  1.00  0.00     0.134 A 
ATOM     20  C   UNL A   1      40.224  23.926  26.424  1.00  0.00     0.051 A 
ATOM     21  O   UNL A   1      38.157  24.482  27.061  1.00  0.00    -0.457 OA
ATOM     22  C   UNL A   1      39.334  22.896  26.033  1.00  0.00     0.051 A 
BRANCH  19  23
ATOM     23  C   UNL A   1      39.696  26.097  27.776  1.00  0.00     0.017 A 
ATOM     24  C   UNL A   1      40.177  28.517  29.099  1.00  0.00     0.118 A 
ATOM     25  C   UNL A   1      40.361  28.427  27.721  1.00  0.00     0.047 A 
ATOM     26  C   UNL A   1      39.751  27.396  29.816  1.00  0.00     0.047 A 
ATOM     27  C   UNL A   1      40.136  27.221  27.063  1.00  0.00     0.016 A 
ATOM     28  C   UNL A   1      39.504  26.190  29.154  1.00  0.00     0.016 A 
BRANCH  24  29
ATOM     29  O   UNL A   1      40.412  29.755  29.628  1.00  0.00    -0.497 OA
ATOM     30  C   UNL A   1      39.467  30.763  29.294  1.00  0.00     0.278 C 
ENDBRANCH  24  29
ENDBRANCH  19  23
ENDBRANCH  11  18
ENDBRANCH   9  10
BRANCH   9  31
ATOM     31  C   UNL A   1      32.309  20.484  23.573  1.00  0.00     0.073 C 
BRANCH  31  32
ATOM     32  C   UNL A   1      32.633  19.053  23.937  1.00  0.00    -0.045 A 
ATOM     33  C   UNL A   1      32.401  18.582  25.235  1.00  0.00     0.004 A 
ATOM     34  C   UNL A   1      33.168  18.172  22.981  1.00  0.00     0.004 A 
ATOM     35  C   UNL A   1      32.654  17.249  25.560  1.00  0.00     0.000 A 
ATOM     36  C   UNL A   1      33.420  16.838  23.309  1.00  0.00     0.000 A 
ATOM     37  C   UNL A   1      33.155  16.375  24.596  1.00  0.00     0.000 A 
ENDBRANCH  31  32
ENDBRANCH   9  31
ENDBRANCH   7   9
ENDBRANCH   6   7
ENDBRANCH   5   6
ENDBRANCH   4   5
ENDBRANCH   3   4
ENDBRANCH   2   3
ENDBRANCH   1   2
BRANCH   1  38
ATOM     38  O   UNL A   1      31.625  30.203  26.654  1.00  0.00    -0.377 OA
BRANCH  38  39
ATOM     39  C   UNL A   1      32.696  31.130  26.828  1.00  0.00     0.188 C 
BRANCH  39  40
ATOM     40  C   UNL A   1      33.831  30.828  27.827  1.00  0.00     0.188 C 
BRANCH  40  41
ATOM     41  O   UNL A   1      35.040  31.518  27.563  1.00  0.00    -0.376 OA
BRANCH  41  42
ATOM     42  C   UNL A   1      36.086  31.379  28.512  1.00  0.00     0.202 C 
BRANCH  42  43
ATOM     43  C   UNL A   1      36.087  32.379  29.677  1.00  0.00     0.261 C 
BRANCH  43  44
ATOM     44  O   UNL A   1      35.343  31.999  30.847  1.00  0.00    -0.460 OA
BRANCH  44  45
ATOM     45  C   UNL A   1      34.809  32.965  31.622  1.00  0.00     0.338 C 
ATOM     46  O   UNL A   1      33.768  33.575  31.452  1.00  0.00    -0.246 OA
BRANCH  45  47
ATOM     47  C   UNL A   1      35.641  33.065  32.834  1.00  0.00     0.060 A 
ATOM     48  C   UNL A   1      35.635  34.247  33.588  1.00  0.00     0.016 A 
ATOM     49  C   UNL A   1      36.444  31.987  33.204  1.00  0.00     0.016 A 
ATOM     50  C   UNL A   1      36.468  34.366  34.702  1.00  0.00     0.010 A 
ATOM     51  C   UNL A   1      37.290  32.115  34.303  1.00  0.00     0.010 A 
ATOM     52  C   UNL A   1      37.333  33.315  35.034  1.00  0.00    -0.014 A 
BRANCH  52  53
ATOM     53  C   UNL A   1      38.444  33.517  35.993  1.00  0.00     0.031 A 
ATOM     54  C   UNL A   1      39.774  33.955  35.442  1.00  0.00     0.074 A 
ATOM     55  C   UNL A   1      38.302  33.261  37.304  1.00  0.00     0.049 A 
ATOM     56  N   UNL A   1      40.937  34.019  36.034  1.00  0.00    -0.248 NA
ATOM     57  C   UNL A   1      39.790  34.361  34.026  1.00  0.00     0.031 C 
ATOM     58  C   UNL A   1      37.057  32.885  37.969  1.00  0.00     0.029 A 
ATOM     59  N   UNL A   1      39.239  33.255  38.308  1.00  0.00    -0.354 N 
ATOM     60  C   UNL A   1      41.828  34.447  35.058  1.00  0.00     0.074 A 
ATOM     61  C   UNL A   1      41.077  34.613  33.834  1.00  0.00     0.031 C 
ATOM     62  C   UNL A   1      37.312  32.659  39.271  1.00  0.00     0.029 A 
ATOM     63  C   UNL A   1      38.744  32.826  39.515  1.00  0.00     0.049 A 
ATOM     64  H   UNL A   1      40.174  33.532  38.176  1.00  0.00     0.167 HD
ATOM     65  C   UNL A   1      43.157  34.675  35.170  1.00  0.00     0.031 A 
ATOM     66  C   UNL A   1      39.385  32.558  40.671  1.00  0.00     0.031 A 
ATOM     67  C   UNL A   1      43.905  34.497  36.382  1.00  0.00     0.049 A 
ATOM     68  C   UNL A   1      40.880  32.736  40.748  1.00  0.00     0.074 A 
ATOM     69  C   UNL A   1      45.254  34.714  36.602  1.00  0.00     0.029 A 
ATOM     70  N   UNL A   1      43.368  34.049  37.579  1.00  0.00    -0.354 N 
ATOM     71  N   UNL A   1      41.714  33.156  39.825  1.00  0.00    -0.248 NA
ATOM     72  C   UNL A   1      41.526  32.401  42.028  1.00  0.00     0.031 C 
ATOM     73  C   UNL A   1      45.544  34.341  37.917  1.00  0.00     0.029 A 
ATOM     74  C   UNL A   1      44.364  33.957  38.534  1.00  0.00     0.049 A 
ATOM     75  H   UNL A   1      42.420  33.829  37.726  1.00  0.00     0.167 HD
ATOM     76  C   UNL A   1      42.969  33.172  40.425  1.00  0.00     0.074 A 
ATOM     77  C   UNL A   1      42.789  32.726  41.790  1.00  0.00     0.031 C 
ATOM     78  C   UNL A   1      44.164  33.530  39.894  1.00  0.00     0.031 A 
BRANCH  65  79
ATOM     79  C   UNL A   1      43.896  35.099  33.931  1.00  0.00    -0.014 A 
ATOM     80  C   UNL A   1      44.042  36.453  33.594  1.00  0.00     0.009 A 
ATOM     81  C   UNL A   1      44.486  34.125  33.111  1.00  0.00     0.009 A 
ATOM     82  C   UNL A   1      44.742  36.821  32.443  1.00  0.00     0.001 A 
ATOM     83  C   UNL A   1      45.210  34.497  31.978  1.00  0.00     0.001 A 
ATOM     84  C   UNL A   1      45.329  35.844  31.640  1.00  0.00     0.000 A 
ENDBRANCH  65  79
BRANCH  66  85
ATOM     85  C   UNL A   1      38.629  32.049  41.847  1.00  0.00    -0.014 A 
ATOM     86  C   UNL A   1      38.573  30.673  42.121  1.00  0.00     0.009 A 
ATOM     87  C   UNL A   1      37.928  32.933  42.682  1.00  0.00     0.009 A 
ATOM     88  C   UNL A   1      37.806  30.193  43.185  1.00  0.00     0.001 A 
ATOM     89  C   UNL A   1      37.188  32.453  43.765  1.00  0.00     0.001 A 
ATOM     90  C   UNL A   1      37.118  31.083  44.009  1.00  0.00     0.000 A 
ENDBRANCH  66  85
BRANCH  78  91
ATOM     91  C   UNL A   1      45.365  33.518  40.797  1.00  0.00    -0.014 A 
ATOM     92  C   UNL A   1      46.143  32.364  40.970  1.00  0.00     0.009 A 
ATOM     93  C   UNL A   1      45.771  34.711  41.416  1.00  0.00     0.009 A 
ATOM     94  C   UNL A   1      47.293  32.401  41.763  1.00  0.00     0.001 A 
ATOM     95  C   UNL A   1      46.935  34.753  42.184  1.00  0.00     0.001 A 
ATOM     96  C   UNL A   1      47.692  33.597  42.361  1.00  0.00     0.000 A 
ENDBRANCH  78  91
ENDBRANCH  52  53
ENDBRANCH  45  47
ENDBRANCH  44  45
ENDBRANCH  43  44
ENDBRANCH  42  43
ENDBRANCH  41  42
ENDBRANCH  40  41
ENDBRANCH  39  40
ENDBRANCH  38  39
ENDBRANCH   1  38
TORSDOF 26
ENDMDL
