MODEL 1
REMARK VINA RESULT:      -8.4      0.000      0.000
REMARK SMILES C#CCNC(=O)C[N@@H+](CC(=O)OCCOCCOCCOCCOC(=O)c1ccc(-c2c3nc(c(-c4ccccc4)c4ccc([nH]4)c(-c4ccccc4)c4nc(c(-c5ccccc5)c5ccc2[nH]5)C=C4)C=C3)cc1)C(C)(C)C
REMARK SMILES IDX 16 1 15 2 14 3 13 4 12 5 10 6 11 7 9 8 8 9 7 11 5 12 4 13
REMARK SMILES IDX 6 15 3 16 2 17 1 18 75 19 76 20 77 21 78 22 17 23 18 24
REMARK SMILES IDX 19 25 20 26 21 27 22 28 23 29 24 30 25 31 26 32 27 33 28 34
REMARK SMILES IDX 74 35 29 36 73 37 30 38 31 39 32 40 67 41 33 42 72 43 66 44
REMARK SMILES IDX 68 45 34 46 71 47 65 48 64 49 35 51 57 52 42 53 56 54 43 55
REMARK SMILES IDX 46 56 55 57 69 58 44 59 45 60 54 62 70 63 47 64 36 65 37 66
REMARK SMILES IDX 41 67 38 68 40 69 39 70 58 71 59 72 63 73 60 74 62 75 61 76
REMARK SMILES IDX 48 77 49 78 53 79 50 80 52 81 51 82
REMARK H PARENT 8 10 4 14 68 50 46 61
REMARK Flexibility Score: inf
ROOT
ATOM      1  C   UNL A   1      39.513  21.761  26.351  1.00  0.00     0.188 C 
ENDROOT
BRANCH   1   2
ATOM      2  O   UNL A   1      39.184  22.848  27.219  1.00  0.00    -0.376 OA
BRANCH   2   3
ATOM      3  C   UNL A   1      38.838  24.080  26.592  1.00  0.00     0.202 C 
BRANCH   3   4
ATOM      4  C   UNL A   1      37.666  24.077  25.593  1.00  0.00     0.261 C 
BRANCH   4   5
ATOM      5  O   UNL A   1      36.375  23.645  26.085  1.00  0.00    -0.459 OA
BRANCH   5   6
ATOM      6  C   UNL A   1      35.316  23.917  25.280  1.00  0.00     0.361 C 
ATOM      7  O   UNL A   1      35.337  23.744  24.061  1.00  0.00    -0.245 OA
BRANCH   6   8
ATOM      8  C   UNL A   1      34.056  24.509  25.932  1.00  0.00     0.387 C 
BRANCH   8   9
ATOM      9  N   UNL A   1      32.684  23.970  25.686  1.00  0.00    -0.314 N 
ATOM     10  H   UNL A   1      32.177  24.052  26.568  1.00  0.00     0.349 HD
BRANCH   9  11
ATOM     11  C   UNL A   1      32.709  22.513  25.440  1.00  0.00     0.364 C 
BRANCH  11  12
ATOM     12  C   UNL A   1      33.026  21.659  26.671  1.00  0.00     0.275 C 
ATOM     13  N   UNL A   1      33.307  20.334  26.522  1.00  0.00    -0.340 N 
ATOM     14  H   UNL A   1      33.661  19.860  27.309  1.00  0.00     0.164 HD
ATOM     15  O   UNL A   1      32.998  22.138  27.807  1.00  0.00    -0.268 OA
BRANCH  13  16
ATOM     16  C   UNL A   1      33.135  19.573  25.326  1.00  0.00     0.206 C 
BRANCH  16  17
ATOM     17  C   UNL A   1      32.920  18.083  25.537  1.00  0.00    -0.085 C 
ATOM     18  C   UNL A   1      32.736  16.804  25.718  1.00  0.00     0.006 C 
ENDBRANCH  16  17
ENDBRANCH  13  16
ENDBRANCH  11  12
ENDBRANCH   9  11
BRANCH   9  19
ATOM     19  C   UNL A   1      31.707  24.833  24.972  1.00  0.00     0.090 C 
ATOM     20  C   UNL A   1      32.451  26.006  24.410  1.00  0.00     0.078 C 
ATOM     21  C   UNL A   1      30.953  24.258  23.739  1.00  0.00     0.078 C 
ATOM     22  C   UNL A   1      30.618  25.389  25.922  1.00  0.00     0.078 C 
ENDBRANCH   9  19
ENDBRANCH   8   9
ENDBRANCH   6   8
ENDBRANCH   5   6
ENDBRANCH   4   5
ENDBRANCH   3   4
ENDBRANCH   2   3
ENDBRANCH   1   2
BRANCH   1  23
ATOM     23  C   UNL A   1      40.898  21.130  26.587  1.00  0.00     0.188 C 
BRANCH  23  24
ATOM     24  O   UNL A   1      40.881  19.770  26.166  1.00  0.00    -0.377 OA
BRANCH  24  25
ATOM     25  C   UNL A   1      42.101  19.112  25.850  1.00  0.00     0.188 C 
BRANCH  25  26
ATOM     26  C   UNL A   1      43.394  19.935  25.792  1.00  0.00     0.188 C 
BRANCH  26  27
ATOM     27  O   UNL A   1      43.935  20.303  24.524  1.00  0.00    -0.376 OA
BRANCH  27  28
ATOM     28  C   UNL A   1      45.175  20.994  24.485  1.00  0.00     0.202 C 
BRANCH  28  29
ATOM     29  C   UNL A   1      45.166  22.475  24.124  1.00  0.00     0.261 C 
BRANCH  29  30
ATOM     30  O   UNL A   1      44.518  23.243  25.148  1.00  0.00    -0.460 OA
BRANCH  30  31
ATOM     31  C   UNL A   1      44.912  24.532  25.214  1.00  0.00     0.338 C 
ATOM     32  O   UNL A   1      45.833  25.062  24.624  1.00  0.00    -0.246 OA
BRANCH  31  33
ATOM     33  C   UNL A   1      43.935  25.289  26.008  1.00  0.00     0.060 A 
ATOM     34  C   UNL A   1      44.060  26.683  26.031  1.00  0.00     0.016 A 
ATOM     35  C   UNL A   1      42.992  24.635  26.802  1.00  0.00     0.016 A 
ATOM     36  C   UNL A   1      43.280  27.433  26.897  1.00  0.00     0.010 A 
ATOM     37  C   UNL A   1      42.226  25.386  27.692  1.00  0.00     0.010 A 
ATOM     38  C   UNL A   1      42.409  26.778  27.773  1.00  0.00    -0.014 A 
BRANCH  38  39
ATOM     39  C   UNL A   1      41.872  27.530  28.920  1.00  0.00     0.031 A 
ATOM     40  C   UNL A   1      42.628  27.482  30.216  1.00  0.00     0.074 A 
ATOM     41  C   UNL A   1      40.772  28.286  28.784  1.00  0.00     0.049 A 
ATOM     42  N   UNL A   1      42.348  28.045  31.363  1.00  0.00    -0.248 NA
ATOM     43  C   UNL A   1      43.872  26.694  30.215  1.00  0.00     0.031 C 
ATOM     44  C   UNL A   1      40.020  28.467  27.544  1.00  0.00     0.029 A 
ATOM     45  N   UNL A   1      40.108  29.048  29.706  1.00  0.00    -0.354 N 
ATOM     46  C   UNL A   1      43.372  27.666  32.221  1.00  0.00     0.074 A 
ATOM     47  C   UNL A   1      44.262  26.804  31.475  1.00  0.00     0.031 C 
ATOM     48  C   UNL A   1      38.990  29.297  27.783  1.00  0.00     0.029 A 
ATOM     49  C   UNL A   1      38.991  29.662  29.198  1.00  0.00     0.049 A 
ATOM     50  H   UNL A   1      40.401  29.146  30.640  1.00  0.00     0.167 HD
ATOM     51  C   UNL A   1      43.552  28.006  33.520  1.00  0.00     0.031 A 
ATOM     52  C   UNL A   1      38.066  30.413  29.821  1.00  0.00     0.031 A 
ATOM     53  C   UNL A   1      42.637  28.836  34.257  1.00  0.00     0.049 A 
ATOM     54  C   UNL A   1      38.220  30.680  31.294  1.00  0.00     0.074 A 
ATOM     55  C   UNL A   1      42.707  29.242  35.577  1.00  0.00     0.029 A 
ATOM     56  N   UNL A   1      41.469  29.373  33.733  1.00  0.00    -0.354 N 
ATOM     57  N   UNL A   1      39.188  30.321  32.104  1.00  0.00    -0.248 NA
ATOM     58  C   UNL A   1      37.151  31.455  31.935  1.00  0.00     0.031 C 
ATOM     59  C   UNL A   1      41.546  29.966  35.869  1.00  0.00     0.029 A 
ATOM     60  C   UNL A   1      40.790  30.076  34.712  1.00  0.00     0.049 A 
ATOM     61  H   UNL A   1      41.168  29.268  32.801  1.00  0.00     0.167 HD
ATOM     62  C   UNL A   1      38.862  30.854  33.344  1.00  0.00     0.074 A 
ATOM     63  C   UNL A   1      37.612  31.569  33.173  1.00  0.00     0.031 C 
ATOM     64  C   UNL A   1      39.539  30.769  34.518  1.00  0.00     0.031 A 
BRANCH  51  65
ATOM     65  C   UNL A   1      44.743  27.413  34.223  1.00  0.00    -0.014 A 
ATOM     66  C   UNL A   1      45.987  28.068  34.251  1.00  0.00     0.009 A 
ATOM     67  C   UNL A   1      44.628  26.158  34.840  1.00  0.00     0.009 A 
ATOM     68  C   UNL A   1      47.100  27.451  34.830  1.00  0.00     0.001 A 
ATOM     69  C   UNL A   1      45.732  25.560  35.450  1.00  0.00     0.001 A 
ATOM     70  C   UNL A   1      46.971  26.200  35.429  1.00  0.00     0.000 A 
ENDBRANCH  51  65
BRANCH  52  71
ATOM     71  C   UNL A   1      36.921  30.962  29.051  1.00  0.00    -0.014 A 
ATOM     72  C   UNL A   1      35.885  30.119  28.624  1.00  0.00     0.009 A 
ATOM     73  C   UNL A   1      36.846  32.333  28.759  1.00  0.00     0.009 A 
ATOM     74  C   UNL A   1      34.802  30.637  27.910  1.00  0.00     0.001 A 
ATOM     75  C   UNL A   1      35.749  32.853  28.070  1.00  0.00     0.001 A 
ATOM     76  C   UNL A   1      34.731  32.002  27.640  1.00  0.00     0.000 A 
ENDBRANCH  52  71
BRANCH  64  77
ATOM     77  C   UNL A   1      38.956  31.499  35.698  1.00  0.00    -0.014 A 
ATOM     78  C   UNL A   1      39.183  32.869  35.898  1.00  0.00     0.009 A 
ATOM     79  C   UNL A   1      38.135  30.806  36.601  1.00  0.00     0.009 A 
ATOM     80  C   UNL A   1      38.628  33.521  37.002  1.00  0.00     0.001 A 
ATOM     81  C   UNL A   1      37.554  31.468  37.683  1.00  0.00     0.001 A 
ATOM     82  C   UNL A   1      37.810  32.822  37.888  1.00  0.00     0.000 A 
ENDBRANCH  64  77
ENDBRANCH  38  39
ENDBRANCH  31  33
ENDBRANCH  30  31
ENDBRANCH  29  30
ENDBRANCH  28  29
ENDBRANCH  27  28
ENDBRANCH  26  27
ENDBRANCH  25  26
ENDBRANCH  24  25
ENDBRANCH  23  24
ENDBRANCH   1  23
TORSDOF 26
ENDMDL
MODEL 2
REMARK VINA RESULT:      -8.4      4.829     10.779
REMARK SMILES C#CCNC(=O)C[N@@H+](CC(=O)OCCOCCOCCOCCOC(=O)c1ccc(-c2c3nc(c(-c4ccccc4)c4ccc([nH]4)c(-c4ccccc4)c4nc(c(-c5ccccc5)c5ccc2[nH]5)C=C4)C=C3)cc1)C(C)(C)C
REMARK SMILES IDX 16 1 15 2 14 3 13 4 12 5 10 6 11 7 9 8 8 9 7 11 5 12 4 13
REMARK SMILES IDX 6 15 3 16 2 17 1 18 75 19 76 20 77 21 78 22 17 23 18 24
REMARK SMILES IDX 19 25 20 26 21 27 22 28 23 29 24 30 25 31 26 32 27 33 28 34
REMARK SMILES IDX 74 35 29 36 73 37 30 38 31 39 32 40 67 41 33 42 72 43 66 44
REMARK SMILES IDX 68 45 34 46 71 47 65 48 64 49 35 51 57 52 42 53 56 54 43 55
REMARK SMILES IDX 46 56 55 57 69 58 44 59 45 60 54 62 70 63 47 64 36 65 37 66
REMARK SMILES IDX 41 67 38 68 40 69 39 70 58 71 59 72 63 73 60 74 62 75 61 76
REMARK SMILES IDX 48 77 49 78 53 79 50 80 52 81 51 82
REMARK H PARENT 8 10 4 14 68 50 46 61
REMARK Flexibility Score: inf
ROOT
ATOM      1  C   UNL A   1      34.598  32.443  27.905  1.00  0.00     0.188 C 
ENDROOT
BRANCH   1   2
ATOM      2  O   UNL A   1      35.638  31.772  28.619  1.00  0.00    -0.376 OA
BRANCH   2   3
ATOM      3  C   UNL A   1      35.506  30.360  28.757  1.00  0.00     0.202 C 
BRANCH   3   4
ATOM      4  C   UNL A   1      35.216  29.536  27.488  1.00  0.00     0.261 C 
BRANCH   4   5
ATOM      5  O   UNL A   1      33.850  29.104  27.275  1.00  0.00    -0.459 OA
BRANCH   5   6
ATOM      6  C   UNL A   1      33.590  28.549  26.063  1.00  0.00     0.361 C 
ATOM      7  O   UNL A   1      34.419  28.501  25.154  1.00  0.00    -0.245 OA
BRANCH   6   8
ATOM      8  C   UNL A   1      32.174  28.003  25.817  1.00  0.00     0.387 C 
BRANCH   8   9
ATOM      9  N   UNL A   1      31.774  27.328  24.545  1.00  0.00    -0.314 N 
ATOM     10  H   UNL A   1      32.607  27.300  23.957  1.00  0.00     0.349 HD
BRANCH   9  11
ATOM     11  C   UNL A   1      30.832  28.157  23.764  1.00  0.00     0.364 C 
BRANCH  11  12
ATOM     12  C   UNL A   1      31.489  29.068  22.723  1.00  0.00     0.275 C 
ATOM     13  N   UNL A   1      30.719  29.906  21.973  1.00  0.00    -0.340 N 
ATOM     14  H   UNL A   1      31.187  30.584  21.435  1.00  0.00     0.164 HD
ATOM     15  O   UNL A   1      32.704  29.036  22.520  1.00  0.00    -0.268 OA
BRANCH  13  16
ATOM     16  C   UNL A   1      29.292  29.886  21.898  1.00  0.00     0.206 C 
BRANCH  16  17
ATOM     17  C   UNL A   1      28.588  30.929  22.751  1.00  0.00    -0.085 C 
ATOM     18  C   UNL A   1      27.985  31.823  23.483  1.00  0.00     0.006 C 
ENDBRANCH  16  17
ENDBRANCH  13  16
ENDBRANCH  11  12
ENDBRANCH   9  11
BRANCH   9  19
ATOM     19  C   UNL A   1      31.646  25.848  24.544  1.00  0.00     0.090 C 
ATOM     20  C   UNL A   1      31.837  25.367  25.950  1.00  0.00     0.078 C 
ATOM     21  C   UNL A   1      30.292  25.208  24.124  1.00  0.00     0.078 C 
ATOM     22  C   UNL A   1      32.731  25.170  23.672  1.00  0.00     0.078 C 
ENDBRANCH   9  19
ENDBRANCH   8   9
ENDBRANCH   6   8
ENDBRANCH   5   6
ENDBRANCH   4   5
ENDBRANCH   3   4
ENDBRANCH   2   3
ENDBRANCH   1   2
BRANCH   1  23
ATOM     23  C   UNL A   1      34.616  33.980  28.011  1.00  0.00     0.188 C 
BRANCH  23  24
ATOM     24  O   UNL A   1      35.097  34.364  29.295  1.00  0.00    -0.377 OA
BRANCH  24  25
ATOM     25  C   UNL A   1      34.176  34.678  30.330  1.00  0.00     0.188 C 
BRANCH  25  26
ATOM     26  C   UNL A   1      34.461  34.181  31.753  1.00  0.00     0.188 C 
BRANCH  26  27
ATOM     27  O   UNL A   1      34.150  35.020  32.864  1.00  0.00    -0.376 OA
BRANCH  27  28
ATOM     28  C   UNL A   1      34.918  34.893  34.052  1.00  0.00     0.202 C 
BRANCH  28  29
ATOM     29  C   UNL A   1      36.315  34.292  33.948  1.00  0.00     0.261 C 
BRANCH  29  30
ATOM     30  O   UNL A   1      36.250  32.925  33.516  1.00  0.00    -0.460 OA
BRANCH  30  31
ATOM     31  C   UNL A   1      37.156  32.111  34.095  1.00  0.00     0.338 C 
ATOM     32  O   UNL A   1      37.299  31.876  35.279  1.00  0.00    -0.246 OA
BRANCH  31  33
ATOM     33  C   UNL A   1      37.881  31.382  33.046  1.00  0.00     0.060 A 
ATOM     34  C   UNL A   1      38.883  30.491  33.450  1.00  0.00     0.016 A 
ATOM     35  C   UNL A   1      37.659  31.655  31.696  1.00  0.00     0.016 A 
ATOM     36  C   UNL A   1      39.714  29.911  32.506  1.00  0.00     0.010 A 
ATOM     37  C   UNL A   1      38.511  31.092  30.747  1.00  0.00     0.010 A 
ATOM     38  C   UNL A   1      39.568  30.261  31.160  1.00  0.00    -0.014 A 
BRANCH  38  39
ATOM     39  C   UNL A   1      40.665  29.940  30.229  1.00  0.00     0.031 A 
ATOM     40  C   UNL A   1      40.607  28.636  29.489  1.00  0.00     0.074 A 
ATOM     41  C   UNL A   1      41.649  30.823  30.008  1.00  0.00     0.049 A 
ATOM     42  N   UNL A   1      41.457  28.127  28.635  1.00  0.00    -0.248 NA
ATOM     43  C   UNL A   1      39.428  27.793  29.746  1.00  0.00     0.031 C 
ATOM     44  C   UNL A   1      41.745  32.151  30.611  1.00  0.00     0.029 A 
ATOM     45  N   UNL A   1      42.753  30.729  29.204  1.00  0.00    -0.354 N 
ATOM     46  C   UNL A   1      40.922  26.900  28.265  1.00  0.00     0.074 A 
ATOM     47  C   UNL A   1      39.693  26.727  29.007  1.00  0.00     0.031 C 
ATOM     48  C   UNL A   1      42.854  32.754  30.150  1.00  0.00     0.029 A 
ATOM     49  C   UNL A   1      43.561  31.835  29.261  1.00  0.00     0.049 A 
ATOM     50  H   UNL A   1      42.948  29.946  28.642  1.00  0.00     0.167 HD
ATOM     51  C   UNL A   1      41.415  25.996  27.386  1.00  0.00     0.031 A 
ATOM     52  C   UNL A   1      44.750  32.061  28.675  1.00  0.00     0.031 A 
ATOM     53  C   UNL A   1      42.659  26.169  26.683  1.00  0.00     0.049 A 
ATOM     54  C   UNL A   1      45.340  30.992  27.796  1.00  0.00     0.074 A 
ATOM     55  C   UNL A   1      43.265  25.321  25.775  1.00  0.00     0.029 A 
ATOM     56  N   UNL A   1      43.495  27.267  26.830  1.00  0.00    -0.354 N 
ATOM     57  N   UNL A   1      44.833  29.833  27.447  1.00  0.00    -0.248 NA
ATOM     58  C   UNL A   1      46.666  31.267  27.230  1.00  0.00     0.031 C 
ATOM     59  C   UNL A   1      44.502  25.875  25.426  1.00  0.00     0.029 A 
ATOM     60  C   UNL A   1      44.632  27.103  26.057  1.00  0.00     0.049 A 
ATOM     61  H   UNL A   1      43.308  28.048  27.399  1.00  0.00     0.167 HD
ATOM     62  C   UNL A   1      45.764  29.252  26.596  1.00  0.00     0.074 A 
ATOM     63  C   UNL A   1      46.859  30.195  26.474  1.00  0.00     0.031 C 
ATOM     64  C   UNL A   1      45.715  28.052  25.963  1.00  0.00     0.031 A 
BRANCH  51  65
ATOM     65  C   UNL A   1      40.635  24.721  27.207  1.00  0.00    -0.014 A 
ATOM     66  C   UNL A   1      41.095  23.496  27.721  1.00  0.00     0.009 A 
ATOM     67  C   UNL A   1      39.435  24.740  26.481  1.00  0.00     0.009 A 
ATOM     68  C   UNL A   1      40.398  22.312  27.459  1.00  0.00     0.001 A 
ATOM     69  C   UNL A   1      38.721  23.563  26.253  1.00  0.00     0.001 A 
ATOM     70  C   UNL A   1      39.213  22.347  26.727  1.00  0.00     0.000 A 
ENDBRANCH  51  65
BRANCH  52  71
ATOM     71  C   UNL A   1      45.453  33.349  28.905  1.00  0.00    -0.014 A 
ATOM     72  C   UNL A   1      46.357  33.484  29.968  1.00  0.00     0.009 A 
ATOM     73  C   UNL A   1      45.242  34.442  28.049  1.00  0.00     0.009 A 
ATOM     74  C   UNL A   1      47.027  34.692  30.177  1.00  0.00     0.001 A 
ATOM     75  C   UNL A   1      45.934  35.639  28.243  1.00  0.00     0.001 A 
ATOM     76  C   UNL A   1      46.821  35.765  29.311  1.00  0.00     0.000 A 
ENDBRANCH  52  71
BRANCH  64  77
ATOM     77  C   UNL A   1      46.864  27.710  25.054  1.00  0.00    -0.014 A 
ATOM     78  C   UNL A   1      47.989  27.015  25.523  1.00  0.00     0.009 A 
ATOM     79  C   UNL A   1      46.798  28.060  23.696  1.00  0.00     0.009 A 
ATOM     80  C   UNL A   1      49.041  26.709  24.656  1.00  0.00     0.001 A 
ATOM     81  C   UNL A   1      47.834  27.722  22.826  1.00  0.00     0.001 A 
ATOM     82  C   UNL A   1      48.959  27.057  23.309  1.00  0.00     0.000 A 
ENDBRANCH  64  77
ENDBRANCH  38  39
ENDBRANCH  31  33
ENDBRANCH  30  31
ENDBRANCH  29  30
ENDBRANCH  28  29
ENDBRANCH  27  28
ENDBRANCH  26  27
ENDBRANCH  25  26
ENDBRANCH  24  25
ENDBRANCH  23  24
ENDBRANCH   1  23
TORSDOF 26
ENDMDL
MODEL 3
REMARK VINA RESULT:      -8.1      3.441      5.664
REMARK SMILES C#CCNC(=O)C[N@@H+](CC(=O)OCCOCCOCCOCCOC(=O)c1ccc(-c2c3nc(c(-c4ccccc4)c4ccc([nH]4)c(-c4ccccc4)c4nc(c(-c5ccccc5)c5ccc2[nH]5)C=C4)C=C3)cc1)C(C)(C)C
REMARK SMILES IDX 16 1 15 2 14 3 13 4 12 5 10 6 11 7 9 8 8 9 7 11 5 12 4 13
REMARK SMILES IDX 6 15 3 16 2 17 1 18 75 19 76 20 77 21 78 22 17 23 18 24
REMARK SMILES IDX 19 25 20 26 21 27 22 28 23 29 24 30 25 31 26 32 27 33 28 34
REMARK SMILES IDX 74 35 29 36 73 37 30 38 31 39 32 40 67 41 33 42 72 43 66 44
REMARK SMILES IDX 68 45 34 46 71 47 65 48 64 49 35 51 57 52 42 53 56 54 43 55
REMARK SMILES IDX 46 56 55 57 69 58 44 59 45 60 54 62 70 63 47 64 36 65 37 66
REMARK SMILES IDX 41 67 38 68 40 69 39 70 58 71 59 72 63 73 60 74 62 75 61 76
REMARK SMILES IDX 48 77 49 78 53 79 50 80 52 81 51 82
REMARK H PARENT 8 10 4 14 68 50 46 61
REMARK Flexibility Score: inf
ROOT
ATOM      1  C   UNL A   1      34.573  23.234  25.101  1.00  0.00     0.188 C 
ENDROOT
BRANCH   1   2
ATOM      2  O   UNL A   1      33.225  23.574  24.772  1.00  0.00    -0.376 OA
BRANCH   2   3
ATOM      3  C   UNL A   1      32.974  23.941  23.418  1.00  0.00     0.202 C 
BRANCH   3   4
ATOM      4  C   UNL A   1      31.596  24.539  23.077  1.00  0.00     0.261 C 
BRANCH   4   5
ATOM      5  O   UNL A   1      31.558  25.598  22.090  1.00  0.00    -0.459 OA
BRANCH   5   6
ATOM      6  C   UNL A   1      32.636  26.423  22.067  1.00  0.00     0.361 C 
ATOM      7  O   UNL A   1      33.597  26.251  21.317  1.00  0.00    -0.245 OA
BRANCH   6   8
ATOM      8  C   UNL A   1      32.661  27.595  23.062  1.00  0.00     0.387 C 
BRANCH   8   9
ATOM      9  N   UNL A   1      31.620  27.788  24.116  1.00  0.00    -0.314 N 
ATOM     10  H   UNL A   1      31.032  26.953  24.100  1.00  0.00     0.349 HD
BRANCH   9  11
ATOM     11  C   UNL A   1      30.681  28.873  23.760  1.00  0.00     0.364 C 
BRANCH  11  12
ATOM     12  C   UNL A   1      29.303  28.402  23.290  1.00  0.00     0.275 C 
ATOM     13  N   UNL A   1      28.402  29.308  22.816  1.00  0.00    -0.340 N 
ATOM     14  H   UNL A   1      27.596  28.952  22.378  1.00  0.00     0.164 HD
ATOM     15  O   UNL A   1      28.972  27.216  23.363  1.00  0.00    -0.268 OA
BRANCH  13  16
ATOM     16  C   UNL A   1      28.523  30.729  22.901  1.00  0.00     0.206 C 
BRANCH  16  17
ATOM     17  C   UNL A   1      28.236  31.477  21.609  1.00  0.00    -0.085 C 
ATOM     18  C   UNL A   1      27.990  32.119  20.502  1.00  0.00     0.006 C 
ENDBRANCH  16  17
ENDBRANCH  13  16
ENDBRANCH  11  12
ENDBRANCH   9  11
BRANCH   9  19
ATOM     19  C   UNL A   1      32.005  27.566  25.534  1.00  0.00     0.090 C 
ATOM     20  C   UNL A   1      31.102  26.513  26.099  1.00  0.00     0.078 C 
ATOM     21  C   UNL A   1      33.430  27.029  25.853  1.00  0.00     0.078 C 
ATOM     22  C   UNL A   1      31.824  28.841  26.393  1.00  0.00     0.078 C 
ENDBRANCH   9  19
ENDBRANCH   8   9
ENDBRANCH   6   8
ENDBRANCH   5   6
ENDBRANCH   4   5
ENDBRANCH   3   4
ENDBRANCH   2   3
ENDBRANCH   1   2
BRANCH   1  23
ATOM     23  C   UNL A   1      34.742  22.375  26.369  1.00  0.00     0.188 C 
BRANCH  23  24
ATOM     24  O   UNL A   1      34.214  21.073  26.137  1.00  0.00    -0.377 OA
BRANCH  24  25
ATOM     25  C   UNL A   1      34.527  20.388  24.931  1.00  0.00     0.188 C 
BRANCH  25  26
ATOM     26  C   UNL A   1      35.823  19.572  24.857  1.00  0.00     0.188 C 
BRANCH  26  27
ATOM     27  O   UNL A   1      37.063  20.242  24.634  1.00  0.00    -0.376 OA
BRANCH  27  28
ATOM     28  C   UNL A   1      37.891  20.536  25.750  1.00  0.00     0.202 C 
BRANCH  28  29
ATOM     29  C   UNL A   1      39.021  21.543  25.566  1.00  0.00     0.261 C 
BRANCH  29  30
ATOM     30  O   UNL A   1      38.986  22.540  26.597  1.00  0.00    -0.460 OA
BRANCH  30  31
ATOM     31  C   UNL A   1      38.638  23.772  26.171  1.00  0.00     0.338 C 
ATOM     32  O   UNL A   1      37.749  24.071  25.397  1.00  0.00    -0.246 OA
BRANCH  31  33
ATOM     33  C   UNL A   1      39.405  24.772  26.926  1.00  0.00     0.060 A 
ATOM     34  C   UNL A   1      39.191  24.846  28.307  1.00  0.00     0.016 A 
ATOM     35  C   UNL A   1      40.229  25.690  26.273  1.00  0.00     0.016 A 
ATOM     36  C   UNL A   1      39.752  25.880  29.039  1.00  0.00     0.010 A 
ATOM     37  C   UNL A   1      40.773  26.745  27.004  1.00  0.00     0.010 A 
ATOM     38  C   UNL A   1      40.491  26.865  28.375  1.00  0.00    -0.014 A 
BRANCH  38  39
ATOM     39  C   UNL A   1      40.763  28.131  29.080  1.00  0.00     0.031 A 
ATOM     40  C   UNL A   1      42.136  28.346  29.645  1.00  0.00     0.074 A 
ATOM     41  C   UNL A   1      39.823  29.084  29.153  1.00  0.00     0.049 A 
ATOM     42  N   UNL A   1      42.609  29.365  30.315  1.00  0.00    -0.248 NA
ATOM     43  C   UNL A   1      43.111  27.266  29.418  1.00  0.00     0.031 C 
ATOM     44  C   UNL A   1      38.489  29.004  28.559  1.00  0.00     0.029 A 
ATOM     45  N   UNL A   1      39.858  30.311  29.756  1.00  0.00    -0.354 N 
ATOM     46  C   UNL A   1      43.928  29.040  30.603  1.00  0.00     0.074 A 
ATOM     47  C   UNL A   1      44.174  27.722  30.061  1.00  0.00     0.031 C 
ATOM     48  C   UNL A   1      37.830  30.143  28.827  1.00  0.00     0.029 A 
ATOM     49  C   UNL A   1      38.680  31.004  29.646  1.00  0.00     0.049 A 
ATOM     50  H   UNL A   1      40.650  30.663  30.223  1.00  0.00     0.167 HD
ATOM     51  C   UNL A   1      44.853  29.778  31.263  1.00  0.00     0.031 A 
ATOM     52  C   UNL A   1      38.329  32.191  30.173  1.00  0.00     0.031 A 
ATOM     53  C   UNL A   1      44.580  31.073  31.827  1.00  0.00     0.049 A 
ATOM     54  C   UNL A   1      39.332  32.940  31.007  1.00  0.00     0.074 A 
ATOM     55  C   UNL A   1      45.431  31.911  32.523  1.00  0.00     0.029 A 
ATOM     56  N   UNL A   1      43.347  31.709  31.769  1.00  0.00    -0.354 N 
ATOM     57  N   UNL A   1      40.579  32.632  31.277  1.00  0.00    -0.248 NA
ATOM     58  C   UNL A   1      38.877  34.200  31.606  1.00  0.00     0.031 C 
ATOM     59  C   UNL A   1      44.693  33.022  32.947  1.00  0.00     0.029 A 
ATOM     60  C   UNL A   1      43.403  32.913  32.449  1.00  0.00     0.049 A 
ATOM     61  H   UNL A   1      42.550  31.356  31.311  1.00  0.00     0.167 HD
ATOM     62  C   UNL A   1      41.069  33.676  32.052  1.00  0.00     0.074 A 
ATOM     63  C   UNL A   1      39.984  34.628  32.196  1.00  0.00     0.031 C 
ATOM     64  C   UNL A   1      42.304  33.838  32.588  1.00  0.00     0.031 A 
BRANCH  51  65
ATOM     65  C   UNL A   1      46.208  29.154  31.464  1.00  0.00    -0.014 A 
ATOM     66  C   UNL A   1      46.481  28.319  32.562  1.00  0.00     0.009 A 
ATOM     67  C   UNL A   1      47.239  29.433  30.556  1.00  0.00     0.009 A 
ATOM     68  C   UNL A   1      47.773  27.829  32.775  1.00  0.00     0.001 A 
ATOM     69  C   UNL A   1      48.520  28.913  30.750  1.00  0.00     0.001 A 
ATOM     70  C   UNL A   1      48.790  28.125  31.868  1.00  0.00     0.000 A 
ENDBRANCH  51  65
BRANCH  52  71
ATOM     71  C   UNL A   1      36.970  32.735  29.924  1.00  0.00    -0.014 A 
ATOM     72  C   UNL A   1      36.729  33.564  28.819  1.00  0.00     0.009 A 
ATOM     73  C   UNL A   1      35.902  32.410  30.776  1.00  0.00     0.009 A 
ATOM     74  C   UNL A   1      35.449  34.067  28.579  1.00  0.00     0.001 A 
ATOM     75  C   UNL A   1      34.617  32.891  30.517  1.00  0.00     0.001 A 
ATOM     76  C   UNL A   1      34.393  33.724  29.422  1.00  0.00     0.000 A 
ENDBRANCH  52  71
BRANCH  64  77
ATOM     77  C   UNL A   1      42.558  35.111  33.350  1.00  0.00    -0.014 A 
ATOM     78  C   UNL A   1      43.151  36.226  32.739  1.00  0.00     0.009 A 
ATOM     79  C   UNL A   1      42.160  35.203  34.693  1.00  0.00     0.009 A 
ATOM     80  C   UNL A   1      43.373  37.396  33.469  1.00  0.00     0.001 A 
ATOM     81  C   UNL A   1      42.351  36.384  35.410  1.00  0.00     0.001 A 
ATOM     82  C   UNL A   1      42.967  37.476  34.800  1.00  0.00     0.000 A 
ENDBRANCH  64  77
ENDBRANCH  38  39
ENDBRANCH  31  33
ENDBRANCH  30  31
ENDBRANCH  29  30
ENDBRANCH  28  29
ENDBRANCH  27  28
ENDBRANCH  26  27
ENDBRANCH  25  26
ENDBRANCH  24  25
ENDBRANCH  23  24
ENDBRANCH   1  23
TORSDOF 26
ENDMDL
