MODEL 1
REMARK VINA RESULT:     -10.5      0.000      0.000
REMARK SMILES Cc1ccc(Nc2c(F)cccc2Cl)c(CC(=O)OCCOCCOCCOCCOC(=O)c2ccc(-c3c4nc(c(-c5ccccc5)c5ccc([nH]5)c(-c5ccccc5)c5nc(c(-c6ccccc6)c6ccc3[nH]6)C=C5)C=C4)cc2)c1
REMARK SMILES IDX 24 1 23 2 22 3 21 4 20 5 19 6 17 7 18 8 16 9 15 10 1 11 2 12
REMARK SMILES IDX 3 13 82 14 4 15 5 16 6 17 7 19 8 20 13 21 9 22 10 23 12 24
REMARK SMILES IDX 14 25 11 26 25 27 26 28 27 29 28 30 29 31 30 32 31 33 32 34
REMARK SMILES IDX 33 35 34 36 35 37 81 38 36 39 80 40 37 41 38 42 39 43 74 44
REMARK SMILES IDX 40 45 79 46 73 47 75 48 41 49 78 50 72 51 71 52 42 54 64 55
REMARK SMILES IDX 49 56 63 57 50 58 53 59 62 60 76 61 51 62 52 63 61 65 77 66
REMARK SMILES IDX 54 67 43 68 44 69 48 70 45 71 47 72 46 73 65 74 66 75 70 76
REMARK SMILES IDX 67 77 69 78 68 79 55 80 56 81 60 82 57 83 59 84 58 85
REMARK H PARENT 6 18 75 53 53 64
REMARK Flexibility Score: inf
ROOT
ATOM      1  C   UNL A   1      32.966  26.700  23.447  1.00  0.00     0.188 C 
ENDROOT
BRANCH   1   2
ATOM      2  C   UNL A   1      33.166  25.538  22.506  1.00  0.00     0.188 C 
BRANCH   2   3
ATOM      3  O   UNL A   1      32.183  24.525  22.452  1.00  0.00    -0.376 OA
BRANCH   3   4
ATOM      4  C   UNL A   1      32.198  23.727  23.613  1.00  0.00     0.202 C 
BRANCH   4   5
ATOM      5  C   UNL A   1      30.886  23.622  24.377  1.00  0.00     0.261 C 
BRANCH   5   6
ATOM      6  O   UNL A   1      30.979  22.664  25.441  1.00  0.00    -0.463 OA
BRANCH   6   7
ATOM      7  C   UNL A   1      31.242  23.206  26.648  1.00  0.00     0.310 C 
ATOM      8  O   UNL A   1      30.534  24.051  27.191  1.00  0.00    -0.252 OA
BRANCH   7   9
ATOM      9  C   UNL A   1      32.511  22.720  27.299  1.00  0.00     0.160 C 
BRANCH   9  10
ATOM     10  C   UNL A   1      33.705  22.254  26.476  1.00  0.00    -0.013 A 
ATOM     11  C   UNL A   1      37.214  23.775  25.960  1.00  0.00     0.044 C 
ATOM     12  C   UNL A   1      36.032  22.858  25.877  1.00  0.00    -0.051 A 
ATOM     13  C   UNL A   1      36.165  21.625  25.265  1.00  0.00     0.005 A 
ATOM     14  C   UNL A   1      34.796  23.177  26.444  1.00  0.00     0.009 A 
ATOM     15  C   UNL A   1      35.084  20.740  25.216  1.00  0.00     0.026 A 
ATOM     16  C   UNL A   1      33.838  20.986  25.829  1.00  0.00     0.042 A 
BRANCH  16  17
ATOM     17  N   UNL A   1      32.778  20.010  25.748  1.00  0.00    -0.352 N 
ATOM     18  H   UNL A   1      32.015  20.171  26.349  1.00  0.00     0.167 HD
BRANCH  17  19
ATOM     19  C   UNL A   1      32.666  18.830  24.918  1.00  0.00     0.094 A 
ATOM     20  C   UNL A   1      32.837  17.531  25.411  1.00  0.00     0.148 A 
ATOM     21  C   UNL A   1      32.630  18.922  23.506  1.00  0.00     0.067 A 
ATOM     22  F   UNL A   1      32.594  17.262  26.703  1.00  0.00    -0.205 F 
ATOM     23  C   UNL A   1      33.260  16.466  24.607  1.00  0.00     0.041 A 
ATOM     24  C   UNL A   1      33.120  17.881  22.689  1.00  0.00     0.023 A 
ATOM     25  Cl  UNL A   1      32.040  20.348  22.709  1.00  0.00    -0.082 Cl
ATOM     26  C   UNL A   1      33.484  16.662  23.251  1.00  0.00     0.005 A 
ENDBRANCH  17  19
ENDBRANCH  16  17
ENDBRANCH   9  10
ENDBRANCH   7   9
ENDBRANCH   6   7
ENDBRANCH   5   6
ENDBRANCH   4   5
ENDBRANCH   3   4
ENDBRANCH   2   3
ENDBRANCH   1   2
BRANCH   1  27
ATOM     27  O   UNL A   1      32.575  27.932  22.865  1.00  0.00    -0.377 OA
BRANCH  27  28
ATOM     28  C   UNL A   1      32.739  29.017  23.784  1.00  0.00     0.188 C 
BRANCH  28  29
ATOM     29  C   UNL A   1      31.537  29.414  24.651  1.00  0.00     0.188 C 
BRANCH  29  30
ATOM     30  O   UNL A   1      31.819  29.149  26.018  1.00  0.00    -0.376 OA
BRANCH  30  31
ATOM     31  C   UNL A   1      32.116  30.248  26.870  1.00  0.00     0.202 C 
BRANCH  31  32
ATOM     32  C   UNL A   1      33.636  30.371  26.947  1.00  0.00     0.261 C 
BRANCH  32  33
ATOM     33  O   UNL A   1      33.961  31.319  27.991  1.00  0.00    -0.460 OA
BRANCH  33  34
ATOM     34  C   UNL A   1      35.275  31.699  28.003  1.00  0.00     0.338 C 
ATOM     35  O   UNL A   1      35.688  32.795  27.683  1.00  0.00    -0.246 OA
BRANCH  34  36
ATOM     36  C   UNL A   1      36.166  30.515  28.236  1.00  0.00     0.060 A 
ATOM     37  C   UNL A   1      36.125  29.871  29.484  1.00  0.00     0.016 A 
ATOM     38  C   UNL A   1      37.201  30.217  27.353  1.00  0.00     0.016 A 
ATOM     39  C   UNL A   1      37.187  29.049  29.902  1.00  0.00     0.010 A 
ATOM     40  C   UNL A   1      38.268  29.438  27.792  1.00  0.00     0.010 A 
ATOM     41  C   UNL A   1      38.308  28.898  29.091  1.00  0.00    -0.014 A 
BRANCH  41  42
ATOM     42  C   UNL A   1      39.622  28.381  29.550  1.00  0.00     0.031 A 
ATOM     43  C   UNL A   1      40.098  27.033  29.100  1.00  0.00     0.074 A 
ATOM     44  C   UNL A   1      40.535  29.282  30.007  1.00  0.00     0.049 A 
ATOM     45  N   UNL A   1      41.268  26.544  29.352  1.00  0.00    -0.248 NA
ATOM     46  C   UNL A   1      39.300  26.115  28.282  1.00  0.00     0.031 C 
ATOM     47  C   UNL A   1      41.998  29.220  29.885  1.00  0.00     0.029 A 
ATOM     48  N   UNL A   1      40.365  30.490  30.668  1.00  0.00    -0.354 N 
ATOM     49  C   UNL A   1      41.519  25.545  28.430  1.00  0.00     0.074 A 
ATOM     50  C   UNL A   1      40.218  25.216  27.898  1.00  0.00     0.031 C 
ATOM     51  C   UNL A   1      42.576  30.260  30.505  1.00  0.00     0.029 A 
ATOM     52  C   UNL A   1      41.548  30.803  31.351  1.00  0.00     0.049 A 
ATOM     53  H   UNL A   1      39.547  31.038  30.659  1.00  0.00     0.167 HD
ATOM     54  C   UNL A   1      42.813  25.257  28.085  1.00  0.00     0.031 A 
ATOM     55  C   UNL A   1      41.609  30.773  32.718  1.00  0.00     0.031 A 
ATOM     56  C   UNL A   1      43.810  25.910  28.962  1.00  0.00     0.049 A 
ATOM     57  C   UNL A   1      42.495  29.621  33.207  1.00  0.00     0.074 A 
ATOM     58  C   UNL A   1      45.023  26.561  28.786  1.00  0.00     0.029 A 
ATOM     59  N   UNL A   1      43.517  26.058  30.317  1.00  0.00    -0.354 N 
ATOM     60  N   UNL A   1      42.945  28.670  32.423  1.00  0.00    -0.248 NA
ATOM     61  C   UNL A   1      42.983  29.441  34.568  1.00  0.00     0.031 C 
ATOM     62  C   UNL A   1      45.396  27.167  30.025  1.00  0.00     0.029 A 
ATOM     63  C   UNL A   1      44.469  26.794  30.982  1.00  0.00     0.049 A 
ATOM     64  H   UNL A   1      42.719  25.679  30.749  1.00  0.00     0.167 HD
ATOM     65  C   UNL A   1      43.791  27.827  33.083  1.00  0.00     0.074 A 
ATOM     66  C   UNL A   1      43.731  28.323  34.450  1.00  0.00     0.031 C 
ATOM     67  C   UNL A   1      44.452  26.811  32.443  1.00  0.00     0.031 A 
BRANCH  54  68
ATOM     68  C   UNL A   1      43.220  24.512  26.813  1.00  0.00    -0.014 A 
ATOM     69  C   UNL A   1      42.938  23.135  26.683  1.00  0.00     0.009 A 
ATOM     70  C   UNL A   1      43.977  25.067  25.761  1.00  0.00     0.009 A 
ATOM     71  C   UNL A   1      43.395  22.365  25.598  1.00  0.00     0.001 A 
ATOM     72  C   UNL A   1      44.395  24.314  24.647  1.00  0.00     0.001 A 
ATOM     73  C   UNL A   1      44.115  22.958  24.572  1.00  0.00     0.000 A 
ENDBRANCH  54  68
BRANCH  55  74
ATOM     74  C   UNL A   1      40.380  31.405  33.304  1.00  0.00    -0.014 A 
ATOM     75  C   UNL A   1      40.194  32.762  32.932  1.00  0.00     0.009 A 
ATOM     76  C   UNL A   1      39.231  30.632  33.549  1.00  0.00     0.009 A 
ATOM     77  C   UNL A   1      38.933  33.241  32.557  1.00  0.00     0.001 A 
ATOM     78  C   UNL A   1      37.961  31.135  33.205  1.00  0.00     0.001 A 
ATOM     79  C   UNL A   1      37.824  32.408  32.645  1.00  0.00     0.000 A 
ENDBRANCH  55  74
BRANCH  67  80
ATOM     80  C   UNL A   1      45.130  25.624  33.095  1.00  0.00    -0.014 A 
ATOM     81  C   UNL A   1      46.502  25.469  33.265  1.00  0.00     0.009 A 
ATOM     82  C   UNL A   1      44.313  24.576  33.601  1.00  0.00     0.009 A 
ATOM     83  C   UNL A   1      47.017  24.392  34.002  1.00  0.00     0.001 A 
ATOM     84  C   UNL A   1      44.818  23.496  34.319  1.00  0.00     0.001 A 
ATOM     85  C   UNL A   1      46.179  23.420  34.545  1.00  0.00     0.000 A 
ENDBRANCH  67  80
ENDBRANCH  41  42
ENDBRANCH  34  36
ENDBRANCH  33  34
ENDBRANCH  32  33
ENDBRANCH  31  32
ENDBRANCH  30  31
ENDBRANCH  29  30
ENDBRANCH  28  29
ENDBRANCH  27  28
ENDBRANCH   1  27
TORSDOF 23
ENDMDL
MODEL 2
REMARK VINA RESULT:     -10.2      4.610      9.124
REMARK SMILES Cc1ccc(Nc2c(F)cccc2Cl)c(CC(=O)OCCOCCOCCOCCOC(=O)c2ccc(-c3c4nc(c(-c5ccccc5)c5ccc([nH]5)c(-c5ccccc5)c5nc(c(-c6ccccc6)c6ccc3[nH]6)C=C5)C=C4)cc2)c1
REMARK SMILES IDX 24 1 23 2 22 3 21 4 20 5 19 6 17 7 18 8 16 9 15 10 1 11 2 12
REMARK SMILES IDX 3 13 82 14 4 15 5 16 6 17 7 19 8 20 13 21 9 22 10 23 12 24
REMARK SMILES IDX 14 25 11 26 25 27 26 28 27 29 28 30 29 31 30 32 31 33 32 34
REMARK SMILES IDX 33 35 34 36 35 37 81 38 36 39 80 40 37 41 38 42 39 43 74 44
REMARK SMILES IDX 40 45 79 46 73 47 75 48 41 49 78 50 72 51 71 52 42 54 64 55
REMARK SMILES IDX 49 56 63 57 50 58 53 59 62 60 76 61 51 62 52 63 61 65 77 66
REMARK SMILES IDX 54 67 43 68 44 69 48 70 45 71 47 72 46 73 65 74 66 75 70 76
REMARK SMILES IDX 67 77 69 78 68 79 55 80 56 81 60 82 57 83 59 84 58 85
REMARK H PARENT 6 18 75 53 53 64
REMARK Flexibility Score: inf
ROOT
ATOM      1  C   UNL A   1      40.591  22.939  27.070  1.00  0.00     0.188 C 
ENDROOT
BRANCH   1   2
ATOM      2  C   UNL A   1      39.606  23.908  26.465  1.00  0.00     0.188 C 
BRANCH   2   3
ATOM      3  O   UNL A   1      38.267  23.893  26.917  1.00  0.00    -0.376 OA
BRANCH   3   4
ATOM      4  C   UNL A   1      37.450  23.101  26.087  1.00  0.00     0.202 C 
BRANCH   4   5
ATOM      5  C   UNL A   1      36.047  23.626  25.820  1.00  0.00     0.261 C 
BRANCH   5   6
ATOM      6  O   UNL A   1      35.232  23.558  26.999  1.00  0.00    -0.463 OA
BRANCH   6   7
ATOM      7  C   UNL A   1      34.257  22.628  26.941  1.00  0.00     0.310 C 
ATOM      8  O   UNL A   1      34.368  21.487  27.384  1.00  0.00    -0.252 OA
BRANCH   7   9
ATOM      9  C   UNL A   1      32.994  23.076  26.252  1.00  0.00     0.160 C 
BRANCH   9  10
ATOM     10  C   UNL A   1      32.812  22.939  24.746  1.00  0.00    -0.013 A 
ATOM     11  C   UNL A   1      32.723  25.570  21.924  1.00  0.00     0.044 C 
ATOM     12  C   UNL A   1      32.699  24.262  22.654  1.00  0.00    -0.051 A 
ATOM     13  C   UNL A   1      32.721  23.079  21.938  1.00  0.00     0.005 A 
ATOM     14  C   UNL A   1      32.708  24.182  24.049  1.00  0.00     0.009 A 
ATOM     15  C   UNL A   1      32.742  21.850  22.603  1.00  0.00     0.026 A 
ATOM     16  C   UNL A   1      32.818  21.716  24.005  1.00  0.00     0.042 A 
BRANCH  16  17
ATOM     17  N   UNL A   1      32.856  20.408  24.613  1.00  0.00    -0.352 N 
ATOM     18  H   UNL A   1      32.392  20.337  25.480  1.00  0.00     0.167 HD
BRANCH  17  19
ATOM     19  C   UNL A   1      33.470  19.185  24.145  1.00  0.00     0.094 A 
ATOM     20  C   UNL A   1      32.762  18.187  23.465  1.00  0.00     0.148 A 
ATOM     21  C   UNL A   1      34.766  18.802  24.565  1.00  0.00     0.067 A 
ATOM     22  F   UNL A   1      31.663  18.499  22.762  1.00  0.00    -0.205 F 
ATOM     23  C   UNL A   1      33.148  16.841  23.479  1.00  0.00     0.041 A 
ATOM     24  C   UNL A   1      35.141  17.444  24.649  1.00  0.00     0.023 A 
ATOM     25  Cl  UNL A   1      35.940  19.982  25.060  1.00  0.00    -0.082 Cl
ATOM     26  C   UNL A   1      34.302  16.454  24.147  1.00  0.00     0.005 A 
ENDBRANCH  17  19
ENDBRANCH  16  17
ENDBRANCH   9  10
ENDBRANCH   7   9
ENDBRANCH   6   7
ENDBRANCH   5   6
ENDBRANCH   4   5
ENDBRANCH   3   4
ENDBRANCH   2   3
ENDBRANCH   1   2
BRANCH   1  27
ATOM     27  O   UNL A   1      41.084  21.918  26.219  1.00  0.00    -0.377 OA
BRANCH  27  28
ATOM     28  C   UNL A   1      40.212  20.783  26.207  1.00  0.00     0.188 C 
BRANCH  28  29
ATOM     29  C   UNL A   1      40.845  19.387  26.273  1.00  0.00     0.188 C 
BRANCH  29  30
ATOM     30  O   UNL A   1      42.259  19.494  26.192  1.00  0.00    -0.376 OA
BRANCH  30  31
ATOM     31  C   UNL A   1      43.006  18.325  25.878  1.00  0.00     0.202 C 
BRANCH  31  32
ATOM     32  C   UNL A   1      44.096  18.729  24.889  1.00  0.00     0.261 C 
BRANCH  32  33
ATOM     33  O   UNL A   1      45.269  19.119  25.642  1.00  0.00    -0.460 OA
BRANCH  33  34
ATOM     34  C   UNL A   1      46.046  20.051  25.012  1.00  0.00     0.338 C 
ATOM     35  O   UNL A   1      47.185  19.870  24.633  1.00  0.00    -0.246 OA
BRANCH  34  36
ATOM     36  C   UNL A   1      45.395  21.402  25.059  1.00  0.00     0.060 A 
ATOM     37  C   UNL A   1      45.808  22.385  24.145  1.00  0.00     0.016 A 
ATOM     38  C   UNL A   1      44.601  21.773  26.141  1.00  0.00     0.016 A 
ATOM     39  C   UNL A   1      45.551  23.746  24.390  1.00  0.00     0.010 A 
ATOM     40  C   UNL A   1      44.389  23.125  26.399  1.00  0.00     0.010 A 
ATOM     41  C   UNL A   1      44.915  24.131  25.567  1.00  0.00    -0.014 A 
BRANCH  41  42
ATOM     42  C   UNL A   1      44.914  25.510  26.117  1.00  0.00     0.031 A 
ATOM     43  C   UNL A   1      43.680  26.357  26.018  1.00  0.00     0.074 A 
ATOM     44  C   UNL A   1      45.852  25.822  27.053  1.00  0.00     0.049 A 
ATOM     45  N   UNL A   1      43.543  27.522  26.561  1.00  0.00    -0.248 NA
ATOM     46  C   UNL A   1      42.460  25.947  25.317  1.00  0.00     0.031 C 
ATOM     47  C   UNL A   1      45.718  26.745  28.188  1.00  0.00     0.029 A 
ATOM     48  N   UNL A   1      47.149  25.360  27.226  1.00  0.00    -0.354 N 
ATOM     49  C   UNL A   1      42.191  27.786  26.664  1.00  0.00     0.074 A 
ATOM     50  C   UNL A   1      41.576  26.860  25.745  1.00  0.00     0.031 C 
ATOM     51  C   UNL A   1      46.872  26.844  28.866  1.00  0.00     0.029 A 
ATOM     52  C   UNL A   1      47.866  26.296  27.983  1.00  0.00     0.049 A 
ATOM     53  H   UNL A   1      47.507  24.512  26.874  1.00  0.00     0.167 HD
ATOM     54  C   UNL A   1      41.740  28.616  27.657  1.00  0.00     0.031 A 
ATOM     55  C   UNL A   1      48.868  27.043  27.426  1.00  0.00     0.031 A 
ATOM     56  C   UNL A   1      42.828  29.336  28.354  1.00  0.00     0.049 A 
ATOM     57  C   UNL A   1      48.467  28.520  27.329  1.00  0.00     0.074 A 
ATOM     58  C   UNL A   1      43.127  29.664  29.669  1.00  0.00     0.029 A 
ATOM     59  N   UNL A   1      43.939  29.747  27.620  1.00  0.00    -0.354 N 
ATOM     60  N   UNL A   1      47.250  28.957  27.547  1.00  0.00    -0.248 NA
ATOM     61  C   UNL A   1      49.365  29.628  27.027  1.00  0.00     0.031 C 
ATOM     62  C   UNL A   1      44.456  30.189  29.714  1.00  0.00     0.029 A 
ATOM     63  C   UNL A   1      44.924  30.283  28.415  1.00  0.00     0.049 A 
ATOM     64  H   UNL A   1      44.011  29.662  26.643  1.00  0.00     0.167 HD
ATOM     65  C   UNL A   1      47.182  30.318  27.496  1.00  0.00     0.074 A 
ATOM     66  C   UNL A   1      48.533  30.689  27.103  1.00  0.00     0.031 C 
ATOM     67  C   UNL A   1      46.028  31.001  27.781  1.00  0.00     0.031 A 
BRANCH  54  68
ATOM     68  C   UNL A   1      40.293  28.660  28.152  1.00  0.00    -0.014 A 
ATOM     69  C   UNL A   1      39.332  29.420  27.451  1.00  0.00     0.009 A 
ATOM     70  C   UNL A   1      39.834  28.078  29.351  1.00  0.00     0.009 A 
ATOM     71  C   UNL A   1      38.020  29.604  27.922  1.00  0.00     0.001 A 
ATOM     72  C   UNL A   1      38.508  28.217  29.804  1.00  0.00     0.001 A 
ATOM     73  C   UNL A   1      37.603  28.992  29.095  1.00  0.00     0.000 A 
ENDBRANCH  54  68
BRANCH  55  74
ATOM     74  C   UNL A   1      49.727  26.183  26.546  1.00  0.00    -0.014 A 
ATOM     75  C   UNL A   1      49.882  26.679  25.226  1.00  0.00     0.009 A 
ATOM     76  C   UNL A   1      50.791  25.444  27.095  1.00  0.00     0.009 A 
ATOM     77  C   UNL A   1      51.132  26.676  24.596  1.00  0.00     0.001 A 
ATOM     78  C   UNL A   1      52.036  25.413  26.435  1.00  0.00     0.001 A 
ATOM     79  C   UNL A   1      52.222  26.087  25.226  1.00  0.00     0.000 A 
ENDBRANCH  55  74
BRANCH  67  80
ATOM     80  C   UNL A   1      45.726  32.445  27.440  1.00  0.00    -0.014 A 
ATOM     81  C   UNL A   1      45.912  33.533  28.286  1.00  0.00     0.009 A 
ATOM     82  C   UNL A   1      45.228  32.740  26.141  1.00  0.00     0.009 A 
ATOM     83  C   UNL A   1      45.726  34.844  27.823  1.00  0.00     0.001 A 
ATOM     84  C   UNL A   1      45.026  34.037  25.678  1.00  0.00     0.001 A 
ATOM     85  C   UNL A   1      45.304  35.097  26.519  1.00  0.00     0.000 A 
ENDBRANCH  67  80
ENDBRANCH  41  42
ENDBRANCH  34  36
ENDBRANCH  33  34
ENDBRANCH  32  33
ENDBRANCH  31  32
ENDBRANCH  30  31
ENDBRANCH  29  30
ENDBRANCH  28  29
ENDBRANCH  27  28
ENDBRANCH   1  27
TORSDOF 23
ENDMDL
MODEL 3
REMARK VINA RESULT:      -9.9      3.464      8.750
REMARK SMILES Cc1ccc(Nc2c(F)cccc2Cl)c(CC(=O)OCCOCCOCCOCCOC(=O)c2ccc(-c3c4nc(c(-c5ccccc5)c5ccc([nH]5)c(-c5ccccc5)c5nc(c(-c6ccccc6)c6ccc3[nH]6)C=C5)C=C4)cc2)c1
REMARK SMILES IDX 24 1 23 2 22 3 21 4 20 5 19 6 17 7 18 8 16 9 15 10 1 11 2 12
REMARK SMILES IDX 3 13 82 14 4 15 5 16 6 17 7 19 8 20 13 21 9 22 10 23 12 24
REMARK SMILES IDX 14 25 11 26 25 27 26 28 27 29 28 30 29 31 30 32 31 33 32 34
REMARK SMILES IDX 33 35 34 36 35 37 81 38 36 39 80 40 37 41 38 42 39 43 74 44
REMARK SMILES IDX 40 45 79 46 73 47 75 48 41 49 78 50 72 51 71 52 42 54 64 55
REMARK SMILES IDX 49 56 63 57 50 58 53 59 62 60 76 61 51 62 52 63 61 65 77 66
REMARK SMILES IDX 54 67 43 68 44 69 48 70 45 71 47 72 46 73 65 74 66 75 70 76
REMARK SMILES IDX 67 77 69 78 68 79 55 80 56 81 60 82 57 83 59 84 58 85
REMARK H PARENT 6 18 75 53 53 64
REMARK Flexibility Score: inf
ROOT
ATOM      1  C   UNL A   1      32.365  20.468  24.399  1.00  0.00     0.188 C 
ENDROOT
BRANCH   1   2
ATOM      2  C   UNL A   1      31.674  21.772  24.712  1.00  0.00     0.188 C 
BRANCH   2   3
ATOM      3  O   UNL A   1      30.742  21.814  25.773  1.00  0.00    -0.376 OA
BRANCH   3   4
ATOM      4  C   UNL A   1      30.834  23.020  26.494  1.00  0.00     0.202 C 
BRANCH   4   5
ATOM      5  C   UNL A   1      32.215  23.654  26.578  1.00  0.00     0.261 C 
BRANCH   5   6
ATOM      6  O   UNL A   1      32.140  25.082  26.465  1.00  0.00    -0.463 OA
BRANCH   6   7
ATOM      7  C   UNL A   1      32.761  25.582  25.376  1.00  0.00     0.310 C 
ATOM      8  O   UNL A   1      32.693  25.082  24.256  1.00  0.00    -0.252 OA
BRANCH   7   9
ATOM      9  C   UNL A   1      33.594  26.812  25.630  1.00  0.00     0.160 C 
BRANCH   9  10
ATOM     10  C   UNL A   1      32.956  28.174  25.871  1.00  0.00    -0.013 A 
ATOM     11  C   UNL A   1      34.076  31.189  28.005  1.00  0.00     0.044 C 
ATOM     12  C   UNL A   1      33.288  30.310  27.082  1.00  0.00    -0.051 A 
ATOM     13  C   UNL A   1      32.212  30.836  26.391  1.00  0.00     0.005 A 
ATOM     14  C   UNL A   1      33.629  28.977  26.844  1.00  0.00     0.009 A 
ATOM     15  C   UNL A   1      31.491  30.043  25.494  1.00  0.00     0.026 A 
ATOM     16  C   UNL A   1      31.833  28.714  25.170  1.00  0.00     0.042 A 
BRANCH  16  17
ATOM     17  N   UNL A   1      31.047  27.969  24.216  1.00  0.00    -0.352 N 
ATOM     18  H   UNL A   1      31.173  26.992  24.244  1.00  0.00     0.167 HD
BRANCH  17  19
ATOM     19  C   UNL A   1      30.102  28.437  23.226  1.00  0.00     0.094 A 
ATOM     20  C   UNL A   1      30.397  29.456  22.312  1.00  0.00     0.148 A 
ATOM     21  C   UNL A   1      28.735  28.076  23.282  1.00  0.00     0.067 A 
ATOM     22  F   UNL A   1      31.667  29.686  21.944  1.00  0.00    -0.205 F 
ATOM     23  C   UNL A   1      29.411  30.271  21.743  1.00  0.00     0.041 A 
ATOM     24  C   UNL A   1      27.729  28.926  22.774  1.00  0.00     0.023 A 
ATOM     25  Cl  UNL A   1      28.222  26.598  24.036  1.00  0.00    -0.082 Cl
ATOM     26  C   UNL A   1      28.072  30.058  22.043  1.00  0.00     0.005 A 
ENDBRANCH  17  19
ENDBRANCH  16  17
ENDBRANCH   9  10
ENDBRANCH   7   9
ENDBRANCH   6   7
ENDBRANCH   5   6
ENDBRANCH   4   5
ENDBRANCH   3   4
ENDBRANCH   2   3
ENDBRANCH   1   2
BRANCH   1  27
ATOM     27  O   UNL A   1      33.083  19.857  25.457  1.00  0.00    -0.377 OA
BRANCH  27  28
ATOM     28  C   UNL A   1      34.134  20.706  25.932  1.00  0.00     0.188 C 
BRANCH  28  29
ATOM     29  C   UNL A   1      35.368  20.892  25.040  1.00  0.00     0.188 C 
BRANCH  29  30
ATOM     30  O   UNL A   1      35.120  21.907  24.078  1.00  0.00    -0.376 OA
BRANCH  30  31
ATOM     31  C   UNL A   1      35.866  23.114  24.165  1.00  0.00     0.202 C 
BRANCH  31  32
ATOM     32  C   UNL A   1      36.104  23.401  25.645  1.00  0.00     0.261 C 
BRANCH  32  33
ATOM     33  O   UNL A   1      37.272  24.248  25.760  1.00  0.00    -0.460 OA
BRANCH  33  34
ATOM     34  C   UNL A   1      38.387  23.595  26.207  1.00  0.00     0.338 C 
ATOM     35  O   UNL A   1      38.555  22.392  26.168  1.00  0.00    -0.246 OA
BRANCH  34  36
ATOM     36  C   UNL A   1      39.278  24.529  26.969  1.00  0.00     0.060 A 
ATOM     37  C   UNL A   1      38.945  24.853  28.296  1.00  0.00     0.016 A 
ATOM     38  C   UNL A   1      40.257  25.274  26.316  1.00  0.00     0.016 A 
ATOM     39  C   UNL A   1      39.479  26.000  28.910  1.00  0.00     0.010 A 
ATOM     40  C   UNL A   1      40.747  26.432  26.916  1.00  0.00     0.010 A 
ATOM     41  C   UNL A   1      40.318  26.846  28.190  1.00  0.00    -0.014 A 
BRANCH  41  42
ATOM     42  C   UNL A   1      40.644  28.243  28.574  1.00  0.00     0.031 A 
ATOM     43  C   UNL A   1      39.584  29.303  28.527  1.00  0.00     0.074 A 
ATOM     44  C   UNL A   1      41.746  28.448  29.347  1.00  0.00     0.049 A 
ATOM     45  N   UNL A   1      39.739  30.516  28.945  1.00  0.00    -0.248 NA
ATOM     46  C   UNL A   1      38.224  29.077  28.031  1.00  0.00     0.031 C 
ATOM     47  C   UNL A   1      41.943  29.479  30.375  1.00  0.00     0.029 A 
ATOM     48  N   UNL A   1      42.948  27.759  29.414  1.00  0.00    -0.354 N 
ATOM     49  C   UNL A   1      38.486  31.048  29.179  1.00  0.00     0.074 A 
ATOM     50  C   UNL A   1      37.589  30.180  28.454  1.00  0.00     0.031 C 
ATOM     51  C   UNL A   1      43.179  29.411  30.893  1.00  0.00     0.029 A 
ATOM     52  C   UNL A   1      43.923  28.601  29.966  1.00  0.00     0.049 A 
ATOM     53  H   UNL A   1      43.093  26.830  29.121  1.00  0.00     0.167 HD
ATOM     54  C   UNL A   1      38.337  32.036  30.117  1.00  0.00     0.031 A 
ATOM     55  C   UNL A   1      44.956  29.084  29.210  1.00  0.00     0.031 A 
ATOM     56  C   UNL A   1      39.625  32.589  30.590  1.00  0.00     0.049 A 
ATOM     57  C   UNL A   1      44.821  30.597  28.992  1.00  0.00     0.074 A 
ATOM     58  C   UNL A   1      40.161  32.970  31.812  1.00  0.00     0.029 A 
ATOM     59  N   UNL A   1      40.678  32.706  29.684  1.00  0.00    -0.354 N 
ATOM     60  N   UNL A   1      43.746  31.281  29.304  1.00  0.00    -0.248 NA
ATOM     61  C   UNL A   1      45.853  31.475  28.457  1.00  0.00     0.031 C 
ATOM     62  C   UNL A   1      41.556  33.226  31.635  1.00  0.00     0.029 A 
ATOM     63  C   UNL A   1      41.846  33.109  30.287  1.00  0.00     0.049 A 
ATOM     64  H   UNL A   1      40.595  32.521  28.722  1.00  0.00     0.167 HD
ATOM     65  C   UNL A   1      43.921  32.619  29.104  1.00  0.00     0.074 A 
ATOM     66  C   UNL A   1      45.247  32.681  28.511  1.00  0.00     0.031 C 
ATOM     67  C   UNL A   1      42.962  33.537  29.446  1.00  0.00     0.031 A 
BRANCH  54  68
ATOM     68  C   UNL A   1      37.007  32.407  30.775  1.00  0.00    -0.014 A 
ATOM     69  C   UNL A   1      36.487  33.710  30.625  1.00  0.00     0.009 A 
ATOM     70  C   UNL A   1      36.275  31.569  31.641  1.00  0.00     0.009 A 
ATOM     71  C   UNL A   1      35.338  34.152  31.305  1.00  0.00     0.001 A 
ATOM     72  C   UNL A   1      35.096  31.988  32.286  1.00  0.00     0.001 A 
ATOM     73  C   UNL A   1      34.633  33.285  32.128  1.00  0.00     0.000 A 
ENDBRANCH  54  68
BRANCH  55  74
ATOM     74  C   UNL A   1      45.512  27.997  28.338  1.00  0.00    -0.014 A 
ATOM     75  C   UNL A   1      45.970  26.860  29.053  1.00  0.00     0.009 A 
ATOM     76  C   UNL A   1      45.000  27.792  27.044  1.00  0.00     0.009 A 
ATOM     77  C   UNL A   1      45.677  25.564  28.611  1.00  0.00     0.001 A 
ATOM     78  C   UNL A   1      44.744  26.482  26.591  1.00  0.00     0.001 A 
ATOM     79  C   UNL A   1      45.017  25.378  27.402  1.00  0.00     0.000 A 
ENDBRANCH  55  74
BRANCH  67  80
ATOM     80  C   UNL A   1      42.883  34.975  28.979  1.00  0.00    -0.014 A 
ATOM     81  C   UNL A   1      42.250  35.417  27.822  1.00  0.00     0.009 A 
ATOM     82  C   UNL A   1      43.483  35.980  29.787  1.00  0.00     0.009 A 
ATOM     83  C   UNL A   1      42.120  36.788  27.552  1.00  0.00     0.001 A 
ATOM     84  C   UNL A   1      43.373  37.341  29.518  1.00  0.00     0.001 A 
ATOM     85  C   UNL A   1      42.661  37.747  28.406  1.00  0.00     0.000 A 
ENDBRANCH  67  80
ENDBRANCH  41  42
ENDBRANCH  34  36
ENDBRANCH  33  34
ENDBRANCH  32  33
ENDBRANCH  31  32
ENDBRANCH  30  31
ENDBRANCH  29  30
ENDBRANCH  28  29
ENDBRANCH  27  28
ENDBRANCH   1  27
TORSDOF 23
ENDMDL
