MODEL 1
REMARK VINA RESULT:     -11.4      0.000      0.000
REMARK SMILES Cc1ccccc1NC(=S)NN1C(=O)CS[C@H]1c1ccccc1C(=O)OCCOCCOCCOCCOC(=O)c1ccc(-c2c3nc(c(-c4ccccc4)c4ccc([nH]4)c(-c4ccccc4)c4nc(c(-c5ccccc5)c5ccc2[nH]5)C=C4)C=C3)cc1
REMARK SMILES IDX 30 1 29 2 28 3 27 4 26 5 24 6 25 7 23 8 18 9 19 10 20 11
REMARK SMILES IDX 22 12 21 13 17 14 12 15 13 16 14 17 15 18 16 19 11 20 9 22
REMARK SMILES IDX 10 23 8 24 7 26 1 27 2 28 3 29 4 30 6 31 5 32 31 33 32 34
REMARK SMILES IDX 33 35 34 36 35 37 36 38 37 39 38 40 39 41 40 42 41 43 42 44
REMARK SMILES IDX 88 45 43 46 87 47 44 48 45 49 46 50 81 51 47 52 86 53 80 54
REMARK SMILES IDX 82 55 48 56 85 57 79 58 78 59 49 61 71 62 56 63 70 64 57 65
REMARK SMILES IDX 60 66 69 67 83 68 58 69 59 70 68 72 84 73 61 74 50 75 51 76
REMARK SMILES IDX 55 77 52 78 54 79 53 80 72 81 73 82 77 83 74 84 76 85 75 86
REMARK SMILES IDX 62 87 63 88 67 89 64 90 66 91 65 92
REMARK H PARENT 11 21 8 25 82 60 60 71
REMARK Flexibility Score: inf
ROOT
ATOM      1  C   UNL A   1      33.324  35.409  28.612  1.00  0.00     0.188 C 
ENDROOT
BRANCH   1   2
ATOM      2  O   UNL A   1      32.378  34.373  28.483  1.00  0.00    -0.376 OA
BRANCH   2   3
ATOM      3  C   UNL A   1      32.615  33.288  27.533  1.00  0.00     0.202 C 
BRANCH   3   4
ATOM      4  C   UNL A   1      31.253  32.681  26.461  1.00  0.00     0.261 C 
BRANCH   4   5
ATOM      5  O   UNL A   1      30.931  30.971  25.777  1.00  0.00    -0.460 OA
BRANCH   5   6
ATOM      6  C   UNL A   1      31.759  29.662  25.300  1.00  0.00     0.338 C 
ATOM      7  O   UNL A   1      32.875  29.820  24.800  1.00  0.00    -0.246 OA
BRANCH   6   8
ATOM      8  C   UNL A   1      31.188  28.043  25.132  1.00  0.00     0.066 A 
ATOM      9  C   UNL A   1      30.137  27.825  24.217  1.00  0.00     0.001 A 
ATOM     10  C   UNL A   1      29.339  26.666  24.083  1.00  0.00     0.008 A 
ATOM     11  C   UNL A   1      29.449  25.690  25.034  1.00  0.00     0.000 A 
ATOM     12  C   UNL A   1      31.357  26.956  26.008  1.00  0.00     0.016 A 
ATOM     13  C   UNL A   1      30.449  25.838  25.997  1.00  0.00     0.001 A 
BRANCH   9  14
ATOM     14  C   UNL A   1      29.548  29.036  23.689  1.00  0.00     0.197 C 
ATOM     15  N   UNL A   1      30.349  29.475  22.569  1.00  0.00    -0.236 N 
ATOM     16  C   UNL A   1      29.387  30.360  21.882  1.00  0.00     0.252 C 
ATOM     17  O   UNL A   1      29.569  31.573  21.714  1.00  0.00    -0.272 OA
ATOM     18  C   UNL A   1      27.970  29.787  21.816  1.00  0.00     0.174 C 
ATOM     19  S   UNL A   1      27.789  28.881  23.341  1.00  0.00    -0.120 SA
BRANCH  15  20
ATOM     20  N   UNL A   1      31.679  28.337  21.946  1.00  0.00    -0.270 N 
ATOM     21  H   UNL A   1      31.622  28.277  20.965  1.00  0.00     0.191 HD
BRANCH  20  22
ATOM     22  C   UNL A   1      32.990  27.341  22.508  1.00  0.00     0.189 C 
ATOM     23  S   UNL A   1      34.504  28.067  22.064  1.00  0.00    -0.039 S 
BRANCH  22  24
ATOM     24  N   UNL A   1      33.032  25.730  22.955  1.00  0.00    -0.331 N 
ATOM     25  H   UNL A   1      32.068  25.665  23.142  1.00  0.00     0.169 HD
BRANCH  24  26
ATOM     26  C   UNL A   1      33.392  24.023  23.372  1.00  0.00     0.043 A 
ATOM     27  C   UNL A   1      36.069  23.212  23.570  1.00  0.00     0.046 C 
ATOM     28  C   UNL A   1      34.556  23.165  23.830  1.00  0.00    -0.028 A 
ATOM     29  C   UNL A   1      34.444  21.736  24.306  1.00  0.00     0.005 A 
ATOM     30  C   UNL A   1      33.344  20.959  24.155  1.00  0.00     0.000 A 
ATOM     31  C   UNL A   1      32.438  23.063  23.322  1.00  0.00     0.026 A 
ATOM     32  C   UNL A   1      32.342  21.634  23.578  1.00  0.00     0.002 A 
ENDBRANCH  24  26
ENDBRANCH  22  24
ENDBRANCH  20  22
ENDBRANCH  15  20
ENDBRANCH   9  14
ENDBRANCH   6   8
ENDBRANCH   5   6
ENDBRANCH   4   5
ENDBRANCH   3   4
ENDBRANCH   2   3
ENDBRANCH   1   2
BRANCH   1  33
ATOM     33  C   UNL A   1      33.367  35.719  30.101  1.00  0.00     0.188 C 
BRANCH  33  34
ATOM     34  O   UNL A   1      33.339  34.581  30.944  1.00  0.00    -0.377 OA
BRANCH  34  35
ATOM     35  C   UNL A   1      34.581  33.886  30.987  1.00  0.00     0.188 C 
BRANCH  35  36
ATOM     36  C   UNL A   1      34.775  33.128  32.291  1.00  0.00     0.188 C 
BRANCH  36  37
ATOM     37  O   UNL A   1      34.280  33.764  33.462  1.00  0.00    -0.376 OA
BRANCH  37  38
ATOM     38  C   UNL A   1      35.225  33.963  34.510  1.00  0.00     0.202 C 
BRANCH  38  39
ATOM     39  C   UNL A   1      36.606  34.453  34.044  1.00  0.00     0.261 C 
BRANCH  39  40
ATOM     40  O   UNL A   1      37.623  33.589  34.587  1.00  0.00    -0.460 OA
BRANCH  40  41
ATOM     41  C   UNL A   1      37.960  32.525  33.807  1.00  0.00     0.338 C 
ATOM     42  O   UNL A   1      37.748  31.358  34.067  1.00  0.00    -0.246 OA
BRANCH  41  43
ATOM     43  C   UNL A   1      38.955  32.977  32.788  1.00  0.00     0.060 A 
ATOM     44  C   UNL A   1      38.608  32.846  31.442  1.00  0.00     0.016 A 
ATOM     45  C   UNL A   1      40.300  33.058  33.161  1.00  0.00     0.016 A 
ATOM     46  C   UNL A   1      39.609  32.562  30.522  1.00  0.00     0.010 A 
ATOM     47  C   UNL A   1      41.264  32.599  32.282  1.00  0.00     0.010 A 
ATOM     48  C   UNL A   1      40.914  32.272  30.981  1.00  0.00    -0.014 A 
BRANCH  48  49
ATOM     49  C   UNL A   1      41.845  31.493  30.120  1.00  0.00     0.031 A 
ATOM     50  C   UNL A   1      41.479  29.861  29.993  1.00  0.00     0.074 A 
ATOM     51  C   UNL A   1      42.844  32.346  29.631  1.00  0.00     0.049 A 
ATOM     52  N   UNL A   1      42.105  28.912  29.347  1.00  0.00    -0.248 NA
ATOM     53  C   UNL A   1      40.338  29.196  30.647  1.00  0.00     0.031 C 
ATOM     54  C   UNL A   1      42.632  33.731  29.114  1.00  0.00     0.029 A 
ATOM     55  N   UNL A   1      44.180  32.237  29.309  1.00  0.00    -0.354 N 
ATOM     56  C   UNL A   1      41.572  27.635  29.388  1.00  0.00     0.074 A 
ATOM     57  C   UNL A   1      40.439  27.901  30.268  1.00  0.00     0.031 C 
ATOM     58  C   UNL A   1      43.660  34.121  28.322  1.00  0.00     0.029 A 
ATOM     59  C   UNL A   1      44.753  33.148  28.398  1.00  0.00     0.049 A 
ATOM     60  H   UNL A   1      44.731  31.527  29.712  1.00  0.00     0.167 HD
ATOM     61  C   UNL A   1      42.062  26.564  28.612  1.00  0.00     0.031 A 
ATOM     62  C   UNL A   1      46.034  33.250  27.833  1.00  0.00     0.031 A 
ATOM     63  C   UNL A   1      43.388  26.708  27.739  1.00  0.00     0.049 A 
ATOM     64  C   UNL A   1      46.964  31.940  27.143  1.00  0.00     0.074 A 
ATOM     65  C   UNL A   1      43.613  26.473  26.378  1.00  0.00     0.029 A 
ATOM     66  N   UNL A   1      44.700  27.168  28.125  1.00  0.00    -0.354 N 
ATOM     67  N   UNL A   1      46.471  30.841  26.533  1.00  0.00    -0.248 NA
ATOM     68  C   UNL A   1      48.414  31.714  27.291  1.00  0.00     0.031 C 
ATOM     69  C   UNL A   1      44.839  27.055  25.951  1.00  0.00     0.029 A 
ATOM     70  C   UNL A   1      45.471  27.713  26.995  1.00  0.00     0.049 A 
ATOM     71  H   UNL A   1      45.044  27.122  29.046  1.00  0.00     0.167 HD
ATOM     72  C   UNL A   1      47.284  29.679  26.792  1.00  0.00     0.074 A 
ATOM     73  C   UNL A   1      48.563  30.382  27.036  1.00  0.00     0.031 C 
ATOM     74  C   UNL A   1      46.913  28.303  27.046  1.00  0.00     0.031 A 
BRANCH  61  75
ATOM     75  C   UNL A   1      41.025  25.435  28.186  1.00  0.00    -0.014 A 
ATOM     76  C   UNL A   1      41.379  24.070  28.243  1.00  0.00     0.009 A 
ATOM     77  C   UNL A   1      39.801  25.656  27.524  1.00  0.00     0.009 A 
ATOM     78  C   UNL A   1      40.717  23.065  27.504  1.00  0.00     0.001 A 
ATOM     79  C   UNL A   1      39.095  24.656  26.825  1.00  0.00     0.001 A 
ATOM     80  C   UNL A   1      39.586  23.367  26.764  1.00  0.00     0.000 A 
ENDBRANCH  61  75
BRANCH  62  81
ATOM     81  C   UNL A   1      46.576  34.505  28.578  1.00  0.00    -0.014 A 
ATOM     82  C   UNL A   1      47.333  34.261  29.751  1.00  0.00     0.009 A 
ATOM     83  C   UNL A   1      47.082  35.532  27.724  1.00  0.00     0.009 A 
ATOM     84  C   UNL A   1      48.660  34.745  29.873  1.00  0.00     0.001 A 
ATOM     85  C   UNL A   1      48.416  35.985  27.835  1.00  0.00     0.001 A 
ATOM     86  C   UNL A   1      49.223  35.543  28.878  1.00  0.00     0.000 A 
ENDBRANCH  62  81
BRANCH  74  87
ATOM     87  C   UNL A   1      47.913  27.133  27.346  1.00  0.00    -0.014 A 
ATOM     88  C   UNL A   1      48.003  26.372  28.511  1.00  0.00     0.009 A 
ATOM     89  C   UNL A   1      48.794  26.709  26.302  1.00  0.00     0.009 A 
ATOM     90  C   UNL A   1      48.938  25.313  28.628  1.00  0.00     0.001 A 
ATOM     91  C   UNL A   1      49.686  25.638  26.388  1.00  0.00     0.001 A 
ATOM     92  C   UNL A   1      49.770  24.943  27.571  1.00  0.00     0.000 A 
ENDBRANCH  74  87
ENDBRANCH  48  49
ENDBRANCH  41  43
ENDBRANCH  40  41
ENDBRANCH  39  40
ENDBRANCH  38  39
ENDBRANCH  37  38
ENDBRANCH  36  37
ENDBRANCH  35  36
ENDBRANCH  34  35
ENDBRANCH  33  34
ENDBRANCH   1  33
TORSDOF 25
ENDMDL
MODEL 2
REMARK VINA RESULT:     -10.8      3.184      4.826
REMARK SMILES Cc1ccccc1NC(=S)NN1C(=O)CS[C@H]1c1ccccc1C(=O)OCCOCCOCCOCCOC(=O)c1ccc(-c2c3nc(c(-c4ccccc4)c4ccc([nH]4)c(-c4ccccc4)c4nc(c(-c5ccccc5)c5ccc2[nH]5)C=C4)C=C3)cc1
REMARK SMILES IDX 30 1 29 2 28 3 27 4 26 5 24 6 25 7 23 8 18 9 19 10 20 11
REMARK SMILES IDX 22 12 21 13 17 14 12 15 13 16 14 17 15 18 16 19 11 20 9 22
REMARK SMILES IDX 10 23 8 24 7 26 1 27 2 28 3 29 4 30 6 31 5 32 31 33 32 34
REMARK SMILES IDX 33 35 34 36 35 37 36 38 37 39 38 40 39 41 40 42 41 43 42 44
REMARK SMILES IDX 88 45 43 46 87 47 44 48 45 49 46 50 81 51 47 52 86 53 80 54
REMARK SMILES IDX 82 55 48 56 85 57 79 58 78 59 49 61 71 62 56 63 70 64 57 65
REMARK SMILES IDX 60 66 69 67 83 68 58 69 59 70 68 72 84 73 61 74 50 75 51 76
REMARK SMILES IDX 55 77 52 78 54 79 53 80 72 81 73 82 77 83 74 84 76 85 75 86
REMARK SMILES IDX 62 87 63 88 67 89 64 90 66 91 65 92
REMARK H PARENT 11 21 8 25 82 60 60 71
REMARK Flexibility Score: inf
ROOT
ATOM      1  C   UNL A   1      34.996  32.651  28.036  1.00  0.00     0.188 C 
ENDROOT
BRANCH   1   2
ATOM      2  O   UNL A   1      34.363  31.436  28.363  1.00  0.00    -0.376 OA
BRANCH   2   3
ATOM      3  C   UNL A   1      34.413  30.316  27.426  1.00  0.00     0.202 C 
BRANCH   3   4
ATOM      4  C   UNL A   1      32.863  29.511  26.860  1.00  0.00     0.261 C 
BRANCH   4   5
ATOM      5  O   UNL A   1      32.492  27.707  26.536  1.00  0.00    -0.460 OA
BRANCH   5   6
ATOM      6  C   UNL A   1      33.282  26.317  26.276  1.00  0.00     0.338 C 
ATOM      7  O   UNL A   1      34.493  26.362  26.046  1.00  0.00    -0.246 OA
BRANCH   6   8
ATOM      8  C   UNL A   1      32.619  24.749  25.996  1.00  0.00     0.066 A 
ATOM      9  C   UNL A   1      32.255  24.435  24.671  1.00  0.00     0.001 A 
ATOM     10  C   UNL A   1      31.475  23.342  24.230  1.00  0.00     0.008 A 
ATOM     11  C   UNL A   1      30.842  22.575  25.169  1.00  0.00     0.000 A 
ATOM     12  C   UNL A   1      32.055  23.855  26.924  1.00  0.00     0.016 A 
ATOM     13  C   UNL A   1      31.125  22.836  26.510  1.00  0.00     0.001 A 
BRANCH   9  14
ATOM     14  C   UNL A   1      32.307  25.555  23.758  1.00  0.00     0.197 C 
ATOM     15  N   UNL A   1      33.539  25.467  23.007  1.00  0.00    -0.236 N 
ATOM     16  C   UNL A   1      33.211  26.327  21.853  1.00  0.00     0.252 C 
ATOM     17  O   UNL A   1      33.821  27.369  21.578  1.00  0.00    -0.272 OA
ATOM     18  C   UNL A   1      31.799  26.106  21.309  1.00  0.00     0.174 C 
ATOM     19  S   UNL A   1      30.824  25.726  22.752  1.00  0.00    -0.120 SA
BRANCH  15  20
ATOM     20  N   UNL A   1      34.558  23.923  23.177  1.00  0.00    -0.270 N 
ATOM     21  H   UNL A   1      35.060  23.771  22.344  1.00  0.00     0.191 HD
BRANCH  20  22
ATOM     22  C   UNL A   1      34.925  22.654  24.310  1.00  0.00     0.189 C 
ATOM     23  S   UNL A   1      36.357  23.066  25.202  1.00  0.00    -0.039 S 
BRANCH  22  24
ATOM     24  N   UNL A   1      34.446  21.052  24.357  1.00  0.00    -0.331 N 
ATOM     25  H   UNL A   1      35.338  20.687  24.159  1.00  0.00     0.169 HD
BRANCH  24  26
ATOM     26  C   UNL A   1      33.639  19.454  24.474  1.00  0.00     0.043 A 
ATOM     27  C   UNL A   1      32.593  18.291  22.147  1.00  0.00     0.046 C 
ATOM     28  C   UNL A   1      33.162  18.331  23.572  1.00  0.00    -0.028 A 
ATOM     29  C   UNL A   1      32.691  16.978  24.051  1.00  0.00     0.005 A 
ATOM     30  C   UNL A   1      32.402  16.675  25.339  1.00  0.00     0.000 A 
ATOM     31  C   UNL A   1      33.277  18.926  25.667  1.00  0.00     0.026 A 
ATOM     32  C   UNL A   1      32.638  17.712  26.151  1.00  0.00     0.002 A 
ENDBRANCH  24  26
ENDBRANCH  22  24
ENDBRANCH  20  22
ENDBRANCH  15  20
ENDBRANCH   9  14
ENDBRANCH   6   8
ENDBRANCH   5   6
ENDBRANCH   4   5
ENDBRANCH   3   4
ENDBRANCH   2   3
ENDBRANCH   1   2
BRANCH   1  33
ATOM     33  C   UNL A   1      34.006  33.732  28.445  1.00  0.00     0.188 C 
BRANCH  33  34
ATOM     34  O   UNL A   1      34.480  34.624  29.438  1.00  0.00    -0.377 OA
BRANCH  34  35
ATOM     35  C   UNL A   1      34.464  34.063  30.747  1.00  0.00     0.188 C 
BRANCH  35  36
ATOM     36  C   UNL A   1      35.812  34.174  31.442  1.00  0.00     0.188 C 
BRANCH  36  37
ATOM     37  O   UNL A   1      36.568  32.974  31.533  1.00  0.00    -0.376 OA
BRANCH  37  38
ATOM     38  C   UNL A   1      37.866  33.007  30.946  1.00  0.00     0.202 C 
BRANCH  38  39
ATOM     39  C   UNL A   1      38.448  31.626  30.598  1.00  0.00     0.261 C 
BRANCH  39  40
ATOM     40  O   UNL A   1      37.555  30.950  29.693  1.00  0.00    -0.460 OA
BRANCH  40  41
ATOM     41  C   UNL A   1      36.984  29.814  30.179  1.00  0.00     0.338 C 
ATOM     42  O   UNL A   1      36.083  29.762  30.991  1.00  0.00    -0.246 OA
BRANCH  41  43
ATOM     43  C   UNL A   1      37.877  28.659  29.861  1.00  0.00     0.060 A 
ATOM     44  C   UNL A   1      38.455  27.974  30.931  1.00  0.00     0.016 A 
ATOM     45  C   UNL A   1      38.461  28.598  28.592  1.00  0.00     0.016 A 
ATOM     46  C   UNL A   1      39.727  27.439  30.769  1.00  0.00     0.010 A 
ATOM     47  C   UNL A   1      39.790  28.228  28.487  1.00  0.00     0.010 A 
ATOM     48  C   UNL A   1      40.456  27.721  29.592  1.00  0.00    -0.014 A 
BRANCH  48  49
ATOM     49  C   UNL A   1      41.940  27.610  29.595  1.00  0.00     0.031 A 
ATOM     50  C   UNL A   1      42.537  26.212  28.888  1.00  0.00     0.074 A 
ATOM     51  C   UNL A   1      42.486  28.733  30.232  1.00  0.00     0.049 A 
ATOM     52  N   UNL A   1      43.772  25.803  28.756  1.00  0.00    -0.248 NA
ATOM     53  C   UNL A   1      41.713  25.149  28.285  1.00  0.00     0.031 C 
ATOM     54  C   UNL A   1      42.031  30.144  30.052  1.00  0.00     0.029 A 
ATOM     55  N   UNL A   1      43.586  28.998  31.020  1.00  0.00    -0.354 N 
ATOM     56  C   UNL A   1      43.995  24.603  28.103  1.00  0.00     0.074 A 
ATOM     57  C   UNL A   1      42.608  24.233  27.847  1.00  0.00     0.031 C 
ATOM     58  C   UNL A   1      42.996  31.021  30.423  1.00  0.00     0.029 A 
ATOM     59  C   UNL A   1      44.094  30.311  31.086  1.00  0.00     0.049 A 
ATOM     60  H   UNL A   1      44.015  28.274  31.532  1.00  0.00     0.167 HD
ATOM     61  C   UNL A   1      45.281  24.133  27.762  1.00  0.00     0.031 A 
ATOM     62  C   UNL A   1      45.212  30.867  31.728  1.00  0.00     0.031 A 
ATOM     63  C   UNL A   1      46.599  24.881  28.255  1.00  0.00     0.049 A 
ATOM     64  C   UNL A   1      46.834  30.216  31.721  1.00  0.00     0.074 A 
ATOM     65  C   UNL A   1      47.691  25.375  27.533  1.00  0.00     0.029 A 
ATOM     66  N   UNL A   1      46.984  25.289  29.585  1.00  0.00    -0.354 N 
ATOM     67  N   UNL A   1      47.404  29.492  30.734  1.00  0.00    -0.248 NA
ATOM     68  C   UNL A   1      47.771  30.169  32.860  1.00  0.00     0.031 C 
ATOM     69  C   UNL A   1      48.469  26.269  28.322  1.00  0.00     0.029 A 
ATOM     70  C   UNL A   1      47.923  26.423  29.587  1.00  0.00     0.049 A 
ATOM     71  H   UNL A   1      46.656  24.853  30.404  1.00  0.00     0.167 HD
ATOM     72  C   UNL A   1      48.297  28.489  31.257  1.00  0.00     0.074 A 
ATOM     73  C   UNL A   1      48.637  29.168  32.526  1.00  0.00     0.031 C 
ATOM     74  C   UNL A   1      48.538  27.124  30.836  1.00  0.00     0.031 A 
BRANCH  61  75
ATOM     75  C   UNL A   1      45.404  23.211  26.471  1.00  0.00    -0.014 A 
ATOM     76  C   UNL A   1      45.979  23.707  25.280  1.00  0.00     0.009 A 
ATOM     77  C   UNL A   1      44.787  21.956  26.300  1.00  0.00     0.009 A 
ATOM     78  C   UNL A   1      45.742  23.137  24.010  1.00  0.00     0.001 A 
ATOM     79  C   UNL A   1      44.588  21.344  25.046  1.00  0.00     0.001 A 
ATOM     80  C   UNL A   1      45.015  21.966  23.889  1.00  0.00     0.000 A 
ENDBRANCH  61  75
BRANCH  62  81
ATOM     81  C   UNL A   1      44.519  31.668  32.869  1.00  0.00    -0.014 A 
ATOM     82  C   UNL A   1      44.233  30.949  34.057  1.00  0.00     0.009 A 
ATOM     83  C   UNL A   1      45.022  32.991  33.059  1.00  0.00     0.009 A 
ATOM     84  C   UNL A   1      44.745  31.380  35.307  1.00  0.00     0.001 A 
ATOM     85  C   UNL A   1      45.556  33.400  34.301  1.00  0.00     0.001 A 
ATOM     86  C   UNL A   1      45.470  32.567  35.411  1.00  0.00     0.000 A 
ENDBRANCH  62  81
BRANCH  74  87
ATOM     87  C   UNL A   1      49.529  26.123  31.524  1.00  0.00    -0.014 A 
ATOM     88  C   UNL A   1      49.216  25.099  32.416  1.00  0.00     0.009 A 
ATOM     89  C   UNL A   1      50.911  26.177  31.159  1.00  0.00     0.009 A 
ATOM     90  C   UNL A   1      50.218  24.240  32.933  1.00  0.00     0.001 A 
ATOM     91  C   UNL A   1      51.900  25.308  31.624  1.00  0.00     0.001 A 
ATOM     92  C   UNL A   1      51.552  24.340  32.536  1.00  0.00     0.000 A 
ENDBRANCH  74  87
ENDBRANCH  48  49
ENDBRANCH  41  43
ENDBRANCH  40  41
ENDBRANCH  39  40
ENDBRANCH  38  39
ENDBRANCH  37  38
ENDBRANCH  36  37
ENDBRANCH  35  36
ENDBRANCH  34  35
ENDBRANCH  33  34
ENDBRANCH   1  33
TORSDOF 25
ENDMDL
MODEL 3
REMARK VINA RESULT:     -10.3      3.264      6.421
REMARK SMILES Cc1ccccc1NC(=S)NN1C(=O)CS[C@H]1c1ccccc1C(=O)OCCOCCOCCOCCOC(=O)c1ccc(-c2c3nc(c(-c4ccccc4)c4ccc([nH]4)c(-c4ccccc4)c4nc(c(-c5ccccc5)c5ccc2[nH]5)C=C4)C=C3)cc1
REMARK SMILES IDX 30 1 29 2 28 3 27 4 26 5 24 6 25 7 23 8 18 9 19 10 20 11
REMARK SMILES IDX 22 12 21 13 17 14 12 15 13 16 14 17 15 18 16 19 11 20 9 22
REMARK SMILES IDX 10 23 8 24 7 26 1 27 2 28 3 29 4 30 6 31 5 32 31 33 32 34
REMARK SMILES IDX 33 35 34 36 35 37 36 38 37 39 38 40 39 41 40 42 41 43 42 44
REMARK SMILES IDX 88 45 43 46 87 47 44 48 45 49 46 50 81 51 47 52 86 53 80 54
REMARK SMILES IDX 82 55 48 56 85 57 79 58 78 59 49 61 71 62 56 63 70 64 57 65
REMARK SMILES IDX 60 66 69 67 83 68 58 69 59 70 68 72 84 73 61 74 50 75 51 76
REMARK SMILES IDX 55 77 52 78 54 79 53 80 72 81 73 82 77 83 74 84 76 85 75 86
REMARK SMILES IDX 62 87 63 88 67 89 64 90 66 91 65 92
REMARK H PARENT 11 21 8 25 82 60 60 71
REMARK Flexibility Score: inf
ROOT
ATOM      1  C   UNL A   1      35.316  32.586  28.205  1.00  0.00     0.188 C 
ENDROOT
BRANCH   1   2
ATOM      2  O   UNL A   1      34.867  31.316  28.618  1.00  0.00    -0.376 OA
BRANCH   2   3
ATOM      3  C   UNL A   1      34.835  30.212  27.661  1.00  0.00     0.202 C 
BRANCH   3   4
ATOM      4  C   UNL A   1      33.229  29.564  27.047  1.00  0.00     0.261 C 
BRANCH   4   5
ATOM      5  O   UNL A   1      32.716  27.815  26.633  1.00  0.00    -0.460 OA
BRANCH   5   6
ATOM      6  C   UNL A   1      33.389  26.362  26.390  1.00  0.00     0.338 C 
ATOM      7  O   UNL A   1      34.601  26.303  26.167  1.00  0.00    -0.246 OA
BRANCH   6   8
ATOM      8  C   UNL A   1      32.599  24.852  26.118  1.00  0.00     0.066 A 
ATOM      9  C   UNL A   1      32.170  24.581  24.803  1.00  0.00     0.001 A 
ATOM     10  C   UNL A   1      31.295  23.555  24.378  1.00  0.00     0.008 A 
ATOM     11  C   UNL A   1      30.635  22.830  25.330  1.00  0.00     0.000 A 
ATOM     12  C   UNL A   1      31.998  23.993  27.056  1.00  0.00     0.016 A 
ATOM     13  C   UNL A   1      30.979  23.054  26.663  1.00  0.00     0.001 A 
BRANCH   9  14
ATOM     14  C   UNL A   1      32.280  25.704  23.898  1.00  0.00     0.197 C 
ATOM     15  N   UNL A   1      33.520  25.575  23.168  1.00  0.00    -0.236 N 
ATOM     16  C   UNL A   1      33.245  26.453  22.014  1.00  0.00     0.252 C 
ATOM     17  O   UNL A   1      33.897  27.473  21.756  1.00  0.00    -0.272 OA
ATOM     18  C   UNL A   1      31.835  26.288  21.444  1.00  0.00     0.174 C 
ATOM     19  S   UNL A   1      30.822  25.936  22.868  1.00  0.00    -0.120 SA
BRANCH  15  20
ATOM     20  N   UNL A   1      34.479  23.993  23.345  1.00  0.00    -0.270 N 
ATOM     21  H   UNL A   1      35.072  23.883  22.568  1.00  0.00     0.191 HD
BRANCH  20  22
ATOM     22  C   UNL A   1      34.682  22.640  24.420  1.00  0.00     0.189 C 
ATOM     23  S   UNL A   1      36.231  22.743  25.200  1.00  0.00    -0.039 S 
BRANCH  22  24
ATOM     24  N   UNL A   1      33.910  21.157  24.477  1.00  0.00    -0.331 N 
ATOM     25  H   UNL A   1      33.005  21.532  24.570  1.00  0.00     0.169 HD
BRANCH  24  26
ATOM     26  C   UNL A   1      33.379  19.444  24.507  1.00  0.00     0.043 A 
ATOM     27  C   UNL A   1      32.496  18.257  22.125  1.00  0.00     0.046 C 
ATOM     28  C   UNL A   1      33.076  18.310  23.546  1.00  0.00    -0.028 A 
ATOM     29  C   UNL A   1      32.842  16.874  23.949  1.00  0.00     0.005 A 
ATOM     30  C   UNL A   1      32.630  16.455  25.220  1.00  0.00     0.000 A 
ATOM     31  C   UNL A   1      33.130  18.797  25.670  1.00  0.00     0.026 A 
ATOM     32  C   UNL A   1      32.707  17.470  26.089  1.00  0.00     0.002 A 
ENDBRANCH  24  26
ENDBRANCH  22  24
ENDBRANCH  20  22
ENDBRANCH  15  20
ENDBRANCH   9  14
ENDBRANCH   6   8
ENDBRANCH   5   6
ENDBRANCH   4   5
ENDBRANCH   3   4
ENDBRANCH   2   3
ENDBRANCH   1   2
BRANCH   1  33
ATOM     33  C   UNL A   1      34.347  33.572  28.841  1.00  0.00     0.188 C 
BRANCH  33  34
ATOM     34  O   UNL A   1      34.619  34.934  28.564  1.00  0.00    -0.377 OA
BRANCH  34  35
ATOM     35  C   UNL A   1      33.689  35.825  29.172  1.00  0.00     0.188 C 
BRANCH  35  36
ATOM     36  C   UNL A   1      33.286  35.377  30.568  1.00  0.00     0.188 C 
BRANCH  36  37
ATOM     37  O   UNL A   1      33.583  36.282  31.623  1.00  0.00    -0.376 OA
BRANCH  37  38
ATOM     38  C   UNL A   1      34.136  35.706  32.803  1.00  0.00     0.202 C 
BRANCH  38  39
ATOM     39  C   UNL A   1      35.640  35.398  32.721  1.00  0.00     0.261 C 
BRANCH  39  40
ATOM     40  O   UNL A   1      36.104  34.955  34.011  1.00  0.00    -0.460 OA
BRANCH  40  41
ATOM     41  C   UNL A   1      35.948  33.626  34.261  1.00  0.00     0.338 C 
ATOM     42  O   UNL A   1      34.888  33.047  34.391  1.00  0.00    -0.246 OA
BRANCH  41  43
ATOM     43  C   UNL A   1      37.255  33.072  34.727  1.00  0.00     0.060 A 
ATOM     44  C   UNL A   1      38.351  33.935  34.752  1.00  0.00     0.016 A 
ATOM     45  C   UNL A   1      37.452  31.689  34.666  1.00  0.00     0.016 A 
ATOM     46  C   UNL A   1      39.611  33.417  34.478  1.00  0.00     0.010 A 
ATOM     47  C   UNL A   1      38.668  31.208  34.217  1.00  0.00     0.010 A 
ATOM     48  C   UNL A   1      39.734  32.078  34.043  1.00  0.00    -0.014 A 
BRANCH  48  49
ATOM     49  C   UNL A   1      40.938  31.655  33.278  1.00  0.00     0.031 A 
ATOM     50  C   UNL A   1      41.201  32.513  31.861  1.00  0.00     0.074 A 
ATOM     51  C   UNL A   1      41.561  30.593  33.946  1.00  0.00     0.049 A 
ATOM     52  N   UNL A   1      42.140  32.372  30.961  1.00  0.00    -0.248 NA
ATOM     53  C   UNL A   1      40.353  33.612  31.365  1.00  0.00     0.031 C 
ATOM     54  C   UNL A   1      41.773  30.496  35.422  1.00  0.00     0.029 A 
ATOM     55  N   UNL A   1      42.272  29.467  33.589  1.00  0.00    -0.354 N 
ATOM     56  C   UNL A   1      42.142  33.239  29.881  1.00  0.00     0.074 A 
ATOM     57  C   UNL A   1      40.940  33.997  30.208  1.00  0.00     0.031 C 
ATOM     58  C   UNL A   1      42.762  29.617  35.718  1.00  0.00     0.029 A 
ATOM     59  C   UNL A   1      43.159  28.881  34.514  1.00  0.00     0.049 A 
ATOM     60  H   UNL A   1      42.161  29.075  32.692  1.00  0.00     0.167 HD
ATOM     61  C   UNL A   1      43.182  33.291  28.930  1.00  0.00     0.031 A 
ATOM     62  C   UNL A   1      44.051  27.801  34.424  1.00  0.00     0.031 A 
ATOM     63  C   UNL A   1      44.372  32.230  28.939  1.00  0.00     0.049 A 
ATOM     64  C   UNL A   1      45.175  27.498  33.120  1.00  0.00     0.074 A 
ATOM     65  C   UNL A   1      45.759  32.415  28.975  1.00  0.00     0.029 A 
ATOM     66  N   UNL A   1      44.320  30.788  28.960  1.00  0.00    -0.354 N 
ATOM     67  N   UNL A   1      45.776  28.427  32.347  1.00  0.00    -0.248 NA
ATOM     68  C   UNL A   1      45.494  26.190  32.516  1.00  0.00     0.031 C 
ATOM     69  C   UNL A   1      46.431  31.209  29.318  1.00  0.00     0.029 A 
ATOM     70  C   UNL A   1      45.529  30.180  29.542  1.00  0.00     0.049 A 
ATOM     71  H   UNL A   1      43.559  30.265  28.620  1.00  0.00     0.167 HD
ATOM     72  C   UNL A   1      45.948  27.963  30.993  1.00  0.00     0.074 A 
ATOM     73  C   UNL A   1      45.983  26.513  31.284  1.00  0.00     0.031 C 
ATOM     74  C   UNL A   1      45.811  28.659  29.731  1.00  0.00     0.031 A 
BRANCH  61  75
ATOM     75  C   UNL A   1      43.456  34.689  28.220  1.00  0.00    -0.014 A 
ATOM     76  C   UNL A   1      44.232  35.683  28.854  1.00  0.00     0.009 A 
ATOM     77  C   UNL A   1      42.807  35.157  27.060  1.00  0.00     0.009 A 
ATOM     78  C   UNL A   1      44.165  37.052  28.515  1.00  0.00     0.001 A 
ATOM     79  C   UNL A   1      42.773  36.512  26.674  1.00  0.00     0.001 A 
ATOM     80  C   UNL A   1      43.405  37.473  27.438  1.00  0.00     0.000 A 
ENDBRANCH  61  75
BRANCH  62  81
ATOM     81  C   UNL A   1      43.313  26.747  35.302  1.00  0.00    -0.014 A 
ATOM     82  C   UNL A   1      42.735  25.651  34.613  1.00  0.00     0.009 A 
ATOM     83  C   UNL A   1      43.975  26.422  36.525  1.00  0.00     0.009 A 
ATOM     84  C   UNL A   1      43.099  24.318  34.934  1.00  0.00     0.001 A 
ATOM     85  C   UNL A   1      44.359  25.095  36.820  1.00  0.00     0.001 A 
ATOM     86  C   UNL A   1      43.970  24.050  35.989  1.00  0.00     0.000 A 
ENDBRANCH  62  81
BRANCH  74  87
ATOM     87  C   UNL A   1      46.000  28.014  28.314  1.00  0.00    -0.014 A 
ATOM     88  C   UNL A   1      47.077  28.178  27.445  1.00  0.00     0.009 A 
ATOM     89  C   UNL A   1      45.018  27.080  27.856  1.00  0.00     0.009 A 
ATOM     90  C   UNL A   1      47.131  27.498  26.202  1.00  0.00     0.001 A 
ATOM     91  C   UNL A   1      45.082  26.369  26.657  1.00  0.00     0.001 A 
ATOM     92  C   UNL A   1      46.143  26.594  25.812  1.00  0.00     0.000 A 
ENDBRANCH  74  87
ENDBRANCH  48  49
ENDBRANCH  41  43
ENDBRANCH  40  41
ENDBRANCH  39  40
ENDBRANCH  38  39
ENDBRANCH  37  38
ENDBRANCH  36  37
ENDBRANCH  35  36
ENDBRANCH  34  35
ENDBRANCH  33  34
ENDBRANCH   1  33
TORSDOF 25
ENDMDL
