MODEL 1
REMARK VINA RESULT:      -7.9      0.000      0.000
REMARK SMILES CCOCCC(=O)Nc1cc(C(=O)OCCOCCOCCOCCOC(=O)c2ccc(-c3c4nc(c(-c5ccccc5)c5ccc([nH]5)c(-c5ccccc5)c5nc(c(-c6ccccc6)c6ccc3[nH]6)C=C5)C=C4)cc2)ccc1Cl
REMARK SMILES IDX 18 1 17 2 16 3 15 4 14 5 12 6 13 7 11 8 9 9 10 10 79 11
REMARK SMILES IDX 78 12 80 13 77 14 8 15 6 16 7 17 5 19 4 20 3 21 2 22 1 23
REMARK SMILES IDX 19 24 20 25 21 26 22 27 23 28 24 29 25 30 26 31 27 32 28 33
REMARK SMILES IDX 29 34 30 35 76 36 31 37 75 38 32 39 33 40 34 41 69 42 35 43
REMARK SMILES IDX 74 44 68 45 70 46 36 47 73 48 67 49 66 50 37 52 59 53 44 54
REMARK SMILES IDX 58 55 45 56 48 57 57 58 71 59 46 60 47 61 56 63 72 64 49 65
REMARK SMILES IDX 38 66 39 67 43 68 40 69 42 70 41 71 60 72 61 73 65 74 62 75
REMARK SMILES IDX 64 76 63 77 50 78 51 79 55 80 52 81 54 82 53 83
REMARK H PARENT 8 18 70 51 48 62
REMARK Flexibility Score: inf
ROOT
ATOM      1  C   UNL A   1      36.115  30.880  28.710  1.00  0.00     0.188 C 
ENDROOT
BRANCH   1   2
ATOM      2  O   UNL A   1      35.254  30.829  27.587  1.00  0.00    -0.376 OA
BRANCH   2   3
ATOM      3  C   UNL A   1      34.562  29.638  27.273  1.00  0.00     0.202 C 
BRANCH   3   4
ATOM      4  C   UNL A   1      33.768  29.537  25.962  1.00  0.00     0.261 C 
BRANCH   4   5
ATOM      5  O   UNL A   1      32.727  28.564  25.931  1.00  0.00    -0.460 OA
BRANCH   5   6
ATOM      6  C   UNL A   1      31.653  28.828  25.160  1.00  0.00     0.338 C 
ATOM      7  O   UNL A   1      31.150  29.914  24.933  1.00  0.00    -0.246 OA
BRANCH   6   8
ATOM      8  C   UNL A   1      31.369  27.583  24.419  1.00  0.00     0.062 A 
ATOM      9  C   UNL A   1      32.296  25.607  23.345  1.00  0.00     0.060 A 
ATOM     10  C   UNL A   1      32.456  26.891  23.877  1.00  0.00     0.043 A 
ATOM     11  C   UNL A   1      31.018  25.018  23.397  1.00  0.00     0.064 A 
ATOM     12  C   UNL A   1      29.923  25.737  23.901  1.00  0.00     0.023 A 
ATOM     13  Cl  UNL A   1      30.691  23.357  23.100  1.00  0.00    -0.082 Cl
ATOM     14  C   UNL A   1      30.095  27.018  24.413  1.00  0.00     0.017 A 
BRANCH   9  15
ATOM     15  N   UNL A   1      33.504  25.031  22.907  1.00  0.00    -0.325 N 
ATOM     16  C   UNL A   1      34.356  24.158  23.510  1.00  0.00     0.226 C 
ATOM     17  O   UNL A   1      35.252  23.667  22.812  1.00  0.00    -0.275 OA
ATOM     18  H   UNL A   1      33.780  25.310  22.005  1.00  0.00     0.169 HD
BRANCH  16  19
ATOM     19  C   UNL A   1      34.188  23.735  24.939  1.00  0.00     0.129 C 
BRANCH  19  20
ATOM     20  C   UNL A   1      35.100  22.567  25.306  1.00  0.00     0.170 C 
BRANCH  20  21
ATOM     21  O   UNL A   1      34.517  21.496  26.045  1.00  0.00    -0.381 OA
BRANCH  21  22
ATOM     22  C   UNL A   1      34.019  20.413  25.262  1.00  0.00     0.156 C 
ATOM     23  C   UNL A   1      32.727  20.839  24.600  1.00  0.00     0.035 C 
ENDBRANCH  21  22
ENDBRANCH  20  21
ENDBRANCH  19  20
ENDBRANCH  16  19
ENDBRANCH   9  15
ENDBRANCH   6   8
ENDBRANCH   5   6
ENDBRANCH   4   5
ENDBRANCH   3   4
ENDBRANCH   2   3
ENDBRANCH   1   2
BRANCH   1  24
ATOM     24  C   UNL A   1      35.563  31.762  29.848  1.00  0.00     0.188 C 
BRANCH  24  25
ATOM     25  O   UNL A   1      34.423  32.549  29.541  1.00  0.00    -0.377 OA
BRANCH  25  26
ATOM     26  C   UNL A   1      34.460  33.959  29.773  1.00  0.00     0.188 C 
BRANCH  26  27
ATOM     27  C   UNL A   1      34.555  34.588  31.189  1.00  0.00     0.188 C 
BRANCH  27  28
ATOM     28  O   UNL A   1      33.659  34.043  32.145  1.00  0.00    -0.376 OA
BRANCH  28  29
ATOM     29  C   UNL A   1      34.185  33.098  33.060  1.00  0.00     0.202 C 
BRANCH  29  30
ATOM     30  C   UNL A   1      35.684  33.248  33.346  1.00  0.00     0.261 C 
BRANCH  30  31
ATOM     31  O   UNL A   1      36.489  32.104  33.018  1.00  0.00    -0.460 OA
BRANCH  31  32
ATOM     32  C   UNL A   1      37.487  31.798  33.876  1.00  0.00     0.338 C 
ATOM     33  O   UNL A   1      37.391  31.554  35.064  1.00  0.00    -0.246 OA
BRANCH  32  34
ATOM     34  C   UNL A   1      38.724  31.626  33.088  1.00  0.00     0.060 A 
ATOM     35  C   UNL A   1      38.846  32.294  31.862  1.00  0.00     0.016 A 
ATOM     36  C   UNL A   1      39.747  30.797  33.552  1.00  0.00     0.016 A 
ATOM     37  C   UNL A   1      39.975  32.091  31.070  1.00  0.00     0.010 A 
ATOM     38  C   UNL A   1      40.869  30.580  32.749  1.00  0.00     0.010 A 
ATOM     39  C   UNL A   1      40.965  31.191  31.486  1.00  0.00    -0.014 A 
BRANCH  39  40
ATOM     40  C   UNL A   1      41.975  30.717  30.510  1.00  0.00     0.031 A 
ATOM     41  C   UNL A   1      41.706  29.425  29.784  1.00  0.00     0.074 A 
ATOM     42  C   UNL A   1      43.086  31.424  30.244  1.00  0.00     0.049 A 
ATOM     43  N   UNL A   1      42.441  28.799  28.900  1.00  0.00    -0.248 NA
ATOM     44  C   UNL A   1      40.437  28.749  30.099  1.00  0.00     0.031 C 
ATOM     45  C   UNL A   1      43.438  32.709  30.843  1.00  0.00     0.029 A 
ATOM     46  N   UNL A   1      44.127  31.149  29.392  1.00  0.00    -0.354 N 
ATOM     47  C   UNL A   1      41.728  27.655  28.564  1.00  0.00     0.074 A 
ATOM     48  C   UNL A   1      40.522  27.654  29.361  1.00  0.00     0.031 C 
ATOM     49  C   UNL A   1      44.620  33.112  30.341  1.00  0.00     0.029 A 
ATOM     50  C   UNL A   1      45.120  32.098  29.414  1.00  0.00     0.049 A 
ATOM     51  H   UNL A   1      44.159  30.349  28.821  1.00  0.00     0.167 HD
ATOM     52  C   UNL A   1      42.044  26.692  27.667  1.00  0.00     0.031 A 
ATOM     53  C   UNL A   1      46.303  32.132  28.771  1.00  0.00     0.031 A 
ATOM     54  C   UNL A   1      43.251  26.681  26.887  1.00  0.00     0.049 A 
ATOM     55  C   UNL A   1      46.669  31.007  27.837  1.00  0.00     0.074 A 
ATOM     56  C   UNL A   1      43.660  25.757  25.942  1.00  0.00     0.029 A 
ATOM     57  N   UNL A   1      44.249  27.639  26.968  1.00  0.00    -0.354 N 
ATOM     58  N   UNL A   1      45.977  29.943  27.507  1.00  0.00    -0.248 NA
ATOM     59  C   UNL A   1      47.980  31.097  27.177  1.00  0.00     0.031 C 
ATOM     60  C   UNL A   1      44.935  26.120  25.499  1.00  0.00     0.029 A 
ATOM     61  C   UNL A   1      45.287  27.313  26.112  1.00  0.00     0.049 A 
ATOM     62  H   UNL A   1      44.225  28.434  27.550  1.00  0.00     0.167 HD
ATOM     63  C   UNL A   1      46.749  29.260  26.574  1.00  0.00     0.074 A 
ATOM     64  C   UNL A   1      47.957  30.036  26.383  1.00  0.00     0.031 C 
ATOM     65  C   UNL A   1      46.482  28.096  25.931  1.00  0.00     0.031 A 
BRANCH  52  66
ATOM     66  C   UNL A   1      41.081  25.545  27.517  1.00  0.00    -0.014 A 
ATOM     67  C   UNL A   1      41.430  24.239  27.896  1.00  0.00     0.009 A 
ATOM     68  C   UNL A   1      39.795  25.783  27.007  1.00  0.00     0.009 A 
ATOM     69  C   UNL A   1      40.523  23.190  27.733  1.00  0.00     0.001 A 
ATOM     70  C   UNL A   1      38.879  24.738  26.877  1.00  0.00     0.001 A 
ATOM     71  C   UNL A   1      39.247  23.441  27.229  1.00  0.00     0.000 A 
ENDBRANCH  52  66
BRANCH  53  72
ATOM     72  C   UNL A   1      47.245  33.262  28.996  1.00  0.00    -0.014 A 
ATOM     73  C   UNL A   1      47.230  34.388  28.159  1.00  0.00     0.009 A 
ATOM     74  C   UNL A   1      48.187  33.203  30.035  1.00  0.00     0.009 A 
ATOM     75  C   UNL A   1      48.159  35.417  28.339  1.00  0.00     0.001 A 
ATOM     76  C   UNL A   1      49.093  34.249  30.233  1.00  0.00     0.001 A 
ATOM     77  C   UNL A   1      49.085  35.348  29.378  1.00  0.00     0.000 A 
ENDBRANCH  53  72
BRANCH  65  78
ATOM     78  C   UNL A   1      47.489  27.617  24.919  1.00  0.00    -0.014 A 
ATOM     79  C   UNL A   1      47.361  27.915  23.553  1.00  0.00     0.009 A 
ATOM     80  C   UNL A   1      48.605  26.883  25.351  1.00  0.00     0.009 A 
ATOM     81  C   UNL A   1      48.308  27.450  22.638  1.00  0.00     0.001 A 
ATOM     82  C   UNL A   1      49.569  26.451  24.439  1.00  0.00     0.001 A 
ATOM     83  C   UNL A   1      49.413  26.725  23.081  1.00  0.00     0.000 A 
ENDBRANCH  65  78
ENDBRANCH  39  40
ENDBRANCH  32  34
ENDBRANCH  31  32
ENDBRANCH  30  31
ENDBRANCH  29  30
ENDBRANCH  28  29
ENDBRANCH  27  28
ENDBRANCH  26  27
ENDBRANCH  25  26
ENDBRANCH  24  25
ENDBRANCH   1  24
TORSDOF 25
ENDMDL
MODEL 2
REMARK VINA RESULT:      -7.5      2.745      3.310
REMARK SMILES CCOCCC(=O)Nc1cc(C(=O)OCCOCCOCCOCCOC(=O)c2ccc(-c3c4nc(c(-c5ccccc5)c5ccc([nH]5)c(-c5ccccc5)c5nc(c(-c6ccccc6)c6ccc3[nH]6)C=C5)C=C4)cc2)ccc1Cl
REMARK SMILES IDX 18 1 17 2 16 3 15 4 14 5 12 6 13 7 11 8 9 9 10 10 79 11
REMARK SMILES IDX 78 12 80 13 77 14 8 15 6 16 7 17 5 19 4 20 3 21 2 22 1 23
REMARK SMILES IDX 19 24 20 25 21 26 22 27 23 28 24 29 25 30 26 31 27 32 28 33
REMARK SMILES IDX 29 34 30 35 76 36 31 37 75 38 32 39 33 40 34 41 69 42 35 43
REMARK SMILES IDX 74 44 68 45 70 46 36 47 73 48 67 49 66 50 37 52 59 53 44 54
REMARK SMILES IDX 58 55 45 56 48 57 57 58 71 59 46 60 47 61 56 63 72 64 49 65
REMARK SMILES IDX 38 66 39 67 43 68 40 69 42 70 41 71 60 72 61 73 65 74 62 75
REMARK SMILES IDX 64 76 63 77 50 78 51 79 55 80 52 81 54 82 53 83
REMARK H PARENT 8 18 70 51 48 62
REMARK Flexibility Score: inf
ROOT
ATOM      1  C   UNL A   1      36.070  30.962  28.870  1.00  0.00     0.188 C 
ENDROOT
BRANCH   1   2
ATOM      2  O   UNL A   1      35.140  30.970  27.803  1.00  0.00    -0.376 OA
BRANCH   2   3
ATOM      3  C   UNL A   1      34.455  29.787  27.444  1.00  0.00     0.202 C 
BRANCH   3   4
ATOM      4  C   UNL A   1      33.690  29.719  26.114  1.00  0.00     0.261 C 
BRANCH   4   5
ATOM      5  O   UNL A   1      32.687  28.712  26.016  1.00  0.00    -0.460 OA
BRANCH   5   6
ATOM      6  C   UNL A   1      31.650  28.945  25.188  1.00  0.00     0.338 C 
ATOM      7  O   UNL A   1      31.143  30.019  24.917  1.00  0.00    -0.246 OA
BRANCH   6   8
ATOM      8  C   UNL A   1      31.423  27.684  24.455  1.00  0.00     0.062 A 
ATOM      9  C   UNL A   1      32.430  25.699  23.475  1.00  0.00     0.060 A 
ATOM     10  C   UNL A   1      32.546  26.994  23.992  1.00  0.00     0.043 A 
ATOM     11  C   UNL A   1      31.157  25.097  23.463  1.00  0.00     0.064 A 
ATOM     12  C   UNL A   1      30.028  25.814  23.887  1.00  0.00     0.023 A 
ATOM     13  Cl  UNL A   1      30.864  23.428  23.178  1.00  0.00    -0.082 Cl
ATOM     14  C   UNL A   1      30.156  27.105  24.384  1.00  0.00     0.017 A 
BRANCH   9  15
ATOM     15  N   UNL A   1      33.667  25.128  23.121  1.00  0.00    -0.325 N 
ATOM     16  C   UNL A   1      34.436  24.187  23.737  1.00  0.00     0.226 C 
ATOM     17  O   UNL A   1      35.391  23.730  23.099  1.00  0.00    -0.275 OA
ATOM     18  H   UNL A   1      34.043  25.469  22.279  1.00  0.00     0.169 HD
BRANCH  16  19
ATOM     19  C   UNL A   1      34.109  23.659  25.102  1.00  0.00     0.129 C 
BRANCH  19  20
ATOM     20  C   UNL A   1      34.955  22.441  25.467  1.00  0.00     0.170 C 
BRANCH  20  21
ATOM     21  O   UNL A   1      34.265  21.293  25.953  1.00  0.00    -0.381 OA
BRANCH  21  22
ATOM     22  C   UNL A   1      34.063  20.252  24.997  1.00  0.00     0.156 C 
ATOM     23  C   UNL A   1      32.587  19.930  24.925  1.00  0.00     0.035 C 
ENDBRANCH  21  22
ENDBRANCH  20  21
ENDBRANCH  19  20
ENDBRANCH  16  19
ENDBRANCH   9  15
ENDBRANCH   6   8
ENDBRANCH   5   6
ENDBRANCH   4   5
ENDBRANCH   3   4
ENDBRANCH   2   3
ENDBRANCH   1   2
BRANCH   1  24
ATOM     24  C   UNL A   1      35.610  31.811  30.072  1.00  0.00     0.188 C 
BRANCH  24  25
ATOM     25  O   UNL A   1      34.432  32.581  29.887  1.00  0.00    -0.377 OA
BRANCH  25  26
ATOM     26  C   UNL A   1      34.471  33.991  30.122  1.00  0.00     0.188 C 
BRANCH  26  27
ATOM     27  C   UNL A   1      34.591  34.617  31.537  1.00  0.00     0.188 C 
BRANCH  27  28
ATOM     28  O   UNL A   1      33.635  34.153  32.477  1.00  0.00    -0.376 OA
BRANCH  28  29
ATOM     29  C   UNL A   1      34.095  33.278  33.491  1.00  0.00     0.202 C 
BRANCH  29  30
ATOM     30  C   UNL A   1      35.583  33.421  33.835  1.00  0.00     0.261 C 
BRANCH  30  31
ATOM     31  O   UNL A   1      36.383  32.251  33.598  1.00  0.00    -0.460 OA
BRANCH  31  32
ATOM     32  C   UNL A   1      37.413  32.039  34.447  1.00  0.00     0.338 C 
ATOM     33  O   UNL A   1      37.355  31.865  35.650  1.00  0.00    -0.246 OA
BRANCH  32  34
ATOM     34  C   UNL A   1      38.637  31.867  33.639  1.00  0.00     0.060 A 
ATOM     35  C   UNL A   1      38.577  31.095  32.471  1.00  0.00     0.016 A 
ATOM     36  C   UNL A   1      39.838  32.453  34.044  1.00  0.00     0.016 A 
ATOM     37  C   UNL A   1      39.736  30.862  31.732  1.00  0.00     0.010 A 
ATOM     38  C   UNL A   1      41.001  32.205  33.312  1.00  0.00     0.010 A 
ATOM     39  C   UNL A   1      40.962  31.372  32.180  1.00  0.00    -0.014 A 
BRANCH  39  40
ATOM     40  C   UNL A   1      42.222  30.849  31.603  1.00  0.00     0.031 A 
ATOM     41  C   UNL A   1      42.710  29.503  32.069  1.00  0.00     0.074 A 
ATOM     42  C   UNL A   1      42.904  31.528  30.664  1.00  0.00     0.049 A 
ATOM     43  N   UNL A   1      43.787  28.843  31.725  1.00  0.00    -0.248 NA
ATOM     44  C   UNL A   1      41.868  28.809  33.057  1.00  0.00     0.031 C 
ATOM     45  C   UNL A   1      42.513  32.817  30.096  1.00  0.00     0.029 A 
ATOM     46  N   UNL A   1      44.079  31.218  30.025  1.00  0.00    -0.354 N 
ATOM     47  C   UNL A   1      43.755  27.666  32.461  1.00  0.00     0.074 A 
ATOM     48  C   UNL A   1      42.575  27.714  33.293  1.00  0.00     0.031 C 
ATOM     49  C   UNL A   1      43.436  33.189  29.192  1.00  0.00     0.029 A 
ATOM     50  C   UNL A   1      44.497  32.184  29.144  1.00  0.00     0.049 A 
ATOM     51  H   UNL A   1      44.574  30.382  30.184  1.00  0.00     0.167 HD
ATOM     52  C   UNL A   1      44.628  26.630  32.442  1.00  0.00     0.031 A 
ATOM     53  C   UNL A   1      45.617  32.254  28.398  1.00  0.00     0.031 A 
ATOM     54  C   UNL A   1      45.811  26.588  31.629  1.00  0.00     0.049 A 
ATOM     55  C   UNL A   1      46.614  31.125  28.455  1.00  0.00     0.074 A 
ATOM     56  C   UNL A   1      46.754  25.580  31.529  1.00  0.00     0.029 A 
ATOM     57  N   UNL A   1      46.220  27.604  30.780  1.00  0.00    -0.354 N 
ATOM     58  N   UNL A   1      46.561  30.004  29.134  1.00  0.00    -0.248 NA
ATOM     59  C   UNL A   1      47.822  31.268  27.629  1.00  0.00     0.031 C 
ATOM     60  C   UNL A   1      47.767  26.014  30.670  1.00  0.00     0.029 A 
ATOM     61  C   UNL A   1      47.417  27.261  30.175  1.00  0.00     0.049 A 
ATOM     62  H   UNL A   1      45.733  28.447  30.630  1.00  0.00     0.167 HD
ATOM     63  C   UNL A   1      47.706  29.294  28.788  1.00  0.00     0.074 A 
ATOM     64  C   UNL A   1      48.427  30.106  27.830  1.00  0.00     0.031 C 
ATOM     65  C   UNL A   1      48.122  28.078  29.221  1.00  0.00     0.031 A 
BRANCH  52  66
ATOM     66  C   UNL A   1      44.348  25.476  33.366  1.00  0.00    -0.014 A 
ATOM     67  C   UNL A   1      44.406  25.622  34.762  1.00  0.00     0.009 A 
ATOM     68  C   UNL A   1      44.000  24.227  32.830  1.00  0.00     0.009 A 
ATOM     69  C   UNL A   1      44.157  24.532  35.597  1.00  0.00     0.001 A 
ATOM     70  C   UNL A   1      43.719  23.148  33.668  1.00  0.00     0.001 A 
ATOM     71  C   UNL A   1      43.807  23.297  35.050  1.00  0.00     0.000 A 
ENDBRANCH  52  66
BRANCH  53  72
ATOM     72  C   UNL A   1      45.873  33.443  27.542  1.00  0.00    -0.014 A 
ATOM     73  C   UNL A   1      45.424  33.482  26.213  1.00  0.00     0.009 A 
ATOM     74  C   UNL A   1      46.598  34.536  28.044  1.00  0.00     0.009 A 
ATOM     75  C   UNL A   1      45.722  34.577  25.396  1.00  0.00     0.001 A 
ATOM     76  C   UNL A   1      46.866  35.643  27.235  1.00  0.00     0.001 A 
ATOM     77  C   UNL A   1      46.438  35.657  25.909  1.00  0.00     0.000 A 
ENDBRANCH  53  72
BRANCH  65  78
ATOM     78  C   UNL A   1      49.388  27.526  28.624  1.00  0.00    -0.014 A 
ATOM     79  C   UNL A   1      49.388  26.844  27.397  1.00  0.00     0.009 A 
ATOM     80  C   UNL A   1      50.609  27.725  29.289  1.00  0.00     0.009 A 
ATOM     81  C   UNL A   1      50.580  26.337  26.871  1.00  0.00     0.001 A 
ATOM     82  C   UNL A   1      51.802  27.249  28.743  1.00  0.00     0.001 A 
ATOM     83  C   UNL A   1      51.785  26.545  27.541  1.00  0.00     0.000 A 
ENDBRANCH  65  78
ENDBRANCH  39  40
ENDBRANCH  32  34
ENDBRANCH  31  32
ENDBRANCH  30  31
ENDBRANCH  29  30
ENDBRANCH  28  29
ENDBRANCH  27  28
ENDBRANCH  26  27
ENDBRANCH  25  26
ENDBRANCH  24  25
ENDBRANCH   1  24
TORSDOF 25
ENDMDL
MODEL 3
REMARK VINA RESULT:      -7.4      4.225      9.998
REMARK SMILES CCOCCC(=O)Nc1cc(C(=O)OCCOCCOCCOCCOC(=O)c2ccc(-c3c4nc(c(-c5ccccc5)c5ccc([nH]5)c(-c5ccccc5)c5nc(c(-c6ccccc6)c6ccc3[nH]6)C=C5)C=C4)cc2)ccc1Cl
REMARK SMILES IDX 18 1 17 2 16 3 15 4 14 5 12 6 13 7 11 8 9 9 10 10 79 11
REMARK SMILES IDX 78 12 80 13 77 14 8 15 6 16 7 17 5 19 4 20 3 21 2 22 1 23
REMARK SMILES IDX 19 24 20 25 21 26 22 27 23 28 24 29 25 30 26 31 27 32 28 33
REMARK SMILES IDX 29 34 30 35 76 36 31 37 75 38 32 39 33 40 34 41 69 42 35 43
REMARK SMILES IDX 74 44 68 45 70 46 36 47 73 48 67 49 66 50 37 52 59 53 44 54
REMARK SMILES IDX 58 55 45 56 48 57 57 58 71 59 46 60 47 61 56 63 72 64 49 65
REMARK SMILES IDX 38 66 39 67 43 68 40 69 42 70 41 71 60 72 61 73 65 74 62 75
REMARK SMILES IDX 64 76 63 77 50 78 51 79 55 80 52 81 54 82 53 83
REMARK H PARENT 8 18 70 51 48 62
REMARK Flexibility Score: inf
ROOT
ATOM      1  C   UNL A   1      41.420  27.154  29.208  1.00  0.00     0.188 C 
ENDROOT
BRANCH   1   2
ATOM      2  O   UNL A   1      40.130  27.734  29.269  1.00  0.00    -0.376 OA
BRANCH   2   3
ATOM      3  C   UNL A   1      39.645  28.270  30.484  1.00  0.00     0.202 C 
BRANCH   3   4
ATOM      4  C   UNL A   1      38.133  28.418  30.706  1.00  0.00     0.261 C 
BRANCH   4   5
ATOM      5  O   UNL A   1      37.697  29.657  31.259  1.00  0.00    -0.460 OA
BRANCH   5   6
ATOM      6  C   UNL A   1      37.207  29.638  32.515  1.00  0.00     0.338 C 
ATOM      7  O   UNL A   1      37.251  28.721  33.316  1.00  0.00    -0.246 OA
BRANCH   6   8
ATOM      8  C   UNL A   1      36.854  31.035  32.834  1.00  0.00     0.062 A 
ATOM      9  C   UNL A   1      35.358  32.901  32.388  1.00  0.00     0.060 A 
ATOM     10  C   UNL A   1      35.897  31.660  32.030  1.00  0.00     0.043 A 
ATOM     11  C   UNL A   1      35.783  33.489  33.595  1.00  0.00     0.064 A 
ATOM     12  C   UNL A   1      36.777  32.878  34.373  1.00  0.00     0.023 A 
ATOM     13  Cl  UNL A   1      35.015  34.825  34.357  1.00  0.00    -0.082 Cl
ATOM     14  C   UNL A   1      37.314  31.652  33.997  1.00  0.00     0.017 A 
BRANCH   9  15
ATOM     15  N   UNL A   1      34.358  33.349  31.504  1.00  0.00    -0.325 N 
ATOM     16  C   UNL A   1      34.414  33.732  30.199  1.00  0.00     0.226 C 
ATOM     17  O   UNL A   1      33.339  33.899  29.611  1.00  0.00    -0.275 OA
ATOM     18  H   UNL A   1      33.459  33.394  31.901  1.00  0.00     0.169 HD
BRANCH  16  19
ATOM     19  C   UNL A   1      35.713  33.877  29.464  1.00  0.00     0.129 C 
BRANCH  19  20
ATOM     20  C   UNL A   1      35.576  33.546  27.980  1.00  0.00     0.170 C 
BRANCH  20  21
ATOM     21  O   UNL A   1      35.652  32.171  27.611  1.00  0.00    -0.381 OA
BRANCH  21  22
ATOM     22  C   UNL A   1      36.464  31.356  28.456  1.00  0.00     0.156 C 
ATOM     23  C   UNL A   1      36.990  30.187  27.653  1.00  0.00     0.035 C 
ENDBRANCH  21  22
ENDBRANCH  20  21
ENDBRANCH  19  20
ENDBRANCH  16  19
ENDBRANCH   9  15
ENDBRANCH   6   8
ENDBRANCH   5   6
ENDBRANCH   4   5
ENDBRANCH   3   4
ENDBRANCH   2   3
ENDBRANCH   1   2
BRANCH   1  24
ATOM     24  C   UNL A   1      41.415  25.750  28.570  1.00  0.00     0.188 C 
BRANCH  24  25
ATOM     25  O   UNL A   1      40.789  25.635  27.302  1.00  0.00    -0.377 OA
BRANCH  25  26
ATOM     26  C   UNL A   1      40.760  24.366  26.645  1.00  0.00     0.188 C 
BRANCH  26  27
ATOM     27  C   UNL A   1      39.787  23.223  27.039  1.00  0.00     0.188 C 
BRANCH  27  28
ATOM     28  O   UNL A   1      39.795  22.105  26.166  1.00  0.00    -0.376 OA
BRANCH  28  29
ATOM     29  C   UNL A   1      40.428  20.925  26.629  1.00  0.00     0.202 C 
BRANCH  29  30
ATOM     30  C   UNL A   1      41.861  20.724  26.121  1.00  0.00     0.261 C 
BRANCH  30  31
ATOM     31  O   UNL A   1      42.443  21.860  25.461  1.00  0.00    -0.460 OA
BRANCH  31  32
ATOM     32  C   UNL A   1      43.791  21.876  25.359  1.00  0.00     0.338 C 
ATOM     33  O   UNL A   1      44.505  21.020  24.873  1.00  0.00    -0.246 OA
BRANCH  32  34
ATOM     34  C   UNL A   1      44.260  23.212  25.778  1.00  0.00     0.060 A 
ATOM     35  C   UNL A   1      44.326  24.238  24.826  1.00  0.00     0.016 A 
ATOM     36  C   UNL A   1      44.646  23.442  27.100  1.00  0.00     0.016 A 
ATOM     37  C   UNL A   1      44.832  25.486  25.184  1.00  0.00     0.010 A 
ATOM     38  C   UNL A   1      45.169  24.687  27.454  1.00  0.00     0.010 A 
ATOM     39  C   UNL A   1      45.305  25.699  26.486  1.00  0.00    -0.014 A 
BRANCH  39  40
ATOM     40  C   UNL A   1      46.145  26.886  26.771  1.00  0.00     0.031 A 
ATOM     41  C   UNL A   1      47.627  26.781  26.523  1.00  0.00     0.074 A 
ATOM     42  C   UNL A   1      45.612  28.041  27.205  1.00  0.00     0.049 A 
ATOM     43  N   UNL A   1      48.567  27.672  26.710  1.00  0.00    -0.248 NA
ATOM     44  C   UNL A   1      48.112  25.496  25.994  1.00  0.00     0.031 C 
ATOM     45  C   UNL A   1      44.190  28.284  27.438  1.00  0.00     0.029 A 
ATOM     46  N   UNL A   1      46.218  29.229  27.528  1.00  0.00    -0.354 N 
ATOM     47  C   UNL A   1      49.751  27.052  26.331  1.00  0.00     0.074 A 
ATOM     48  C   UNL A   1      49.419  25.702  25.938  1.00  0.00     0.031 C 
ATOM     49  C   UNL A   1      44.033  29.548  27.872  1.00  0.00     0.029 A 
ATOM     50  C   UNL A   1      45.343  30.187  27.978  1.00  0.00     0.049 A 
ATOM     51  H   UNL A   1      47.187  29.380  27.445  1.00  0.00     0.167 HD
ATOM     52  C   UNL A   1      51.005  27.562  26.306  1.00  0.00     0.031 A 
ATOM     53  C   UNL A   1      45.579  31.431  28.439  1.00  0.00     0.031 A 
ATOM     54  C   UNL A   1      51.340  28.899  26.713  1.00  0.00     0.049 A 
ATOM     55  C   UNL A   1      46.994  31.949  28.477  1.00  0.00     0.074 A 
ATOM     56  C   UNL A   1      52.579  29.515  26.716  1.00  0.00     0.029 A 
ATOM     57  N   UNL A   1      50.431  29.824  27.201  1.00  0.00    -0.354 N 
ATOM     58  N   UNL A   1      48.103  31.364  28.092  1.00  0.00    -0.248 NA
ATOM     59  C   UNL A   1      47.186  33.309  29.004  1.00  0.00     0.031 C 
ATOM     60  C   UNL A   1      52.430  30.792  27.265  1.00  0.00     0.029 A 
ATOM     61  C   UNL A   1      51.086  30.997  27.535  1.00  0.00     0.049 A 
ATOM     62  H   UNL A   1      49.463  29.670  27.298  1.00  0.00     0.167 HD
ATOM     63  C   UNL A   1      49.116  32.296  28.294  1.00  0.00     0.074 A 
ATOM     64  C   UNL A   1      48.487  33.487  28.823  1.00  0.00     0.031 C 
ATOM     65  C   UNL A   1      50.446  32.177  28.059  1.00  0.00     0.031 A 
BRANCH  52  66
ATOM     66  C   UNL A   1      52.113  26.648  25.859  1.00  0.00    -0.014 A 
ATOM     67  C   UNL A   1      52.483  26.548  24.508  1.00  0.00     0.009 A 
ATOM     68  C   UNL A   1      52.812  25.890  26.811  1.00  0.00     0.009 A 
ATOM     69  C   UNL A   1      53.505  25.681  24.117  1.00  0.00     0.001 A 
ATOM     70  C   UNL A   1      53.856  25.049  26.421  1.00  0.00     0.001 A 
ATOM     71  C   UNL A   1      54.194  24.937  25.074  1.00  0.00     0.000 A 
ENDBRANCH  52  66
BRANCH  53  72
ATOM     72  C   UNL A   1      44.454  32.276  28.921  1.00  0.00    -0.014 A 
ATOM     73  C   UNL A   1      43.793  31.979  30.122  1.00  0.00     0.009 A 
ATOM     74  C   UNL A   1      44.014  33.372  28.160  1.00  0.00     0.009 A 
ATOM     75  C   UNL A   1      42.697  32.742  30.536  1.00  0.00     0.001 A 
ATOM     76  C   UNL A   1      42.939  34.152  28.593  1.00  0.00     0.001 A 
ATOM     77  C   UNL A   1      42.275  33.829  29.774  1.00  0.00     0.000 A 
ENDBRANCH  53  72
BRANCH  65  78
ATOM     78  C   UNL A   1      51.306  33.384  28.321  1.00  0.00    -0.014 A 
ATOM     79  C   UNL A   1      51.527  34.360  27.337  1.00  0.00     0.009 A 
ATOM     80  C   UNL A   1      51.876  33.562  29.592  1.00  0.00     0.009 A 
ATOM     81  C   UNL A   1      52.336  35.467  27.609  1.00  0.00     0.001 A 
ATOM     82  C   UNL A   1      52.654  34.687  29.872  1.00  0.00     0.001 A 
ATOM     83  C   UNL A   1      52.893  35.632  28.876  1.00  0.00     0.000 A 
ENDBRANCH  65  78
ENDBRANCH  39  40
ENDBRANCH  32  34
ENDBRANCH  31  32
ENDBRANCH  30  31
ENDBRANCH  29  30
ENDBRANCH  28  29
ENDBRANCH  27  28
ENDBRANCH  26  27
ENDBRANCH  25  26
ENDBRANCH  24  25
ENDBRANCH   1  24
TORSDOF 25
ENDMDL
