MODEL 1
REMARK VINA RESULT:      -9.6      0.000      0.000
REMARK SMILES Cc1cc(S(=O)(=O)Nc2ccc(Cl)cc2F)ccc1OCC(=O)OCCOCCOCCOCCOC(=O)c1ccc(-c2c3nc(c(-c4ccccc4)c4ccc([nH]4)c(-c4ccccc4)c4nc(c(-c5ccccc5)c5ccc2[nH]5)C=C4)C=C3)cc1
REMARK SMILES IDX 28 1 27 2 26 3 25 4 24 5 22 6 23 7 21 8 20 9 19 10 1 11 2 12
REMARK SMILES IDX 3 13 4 14 18 15 17 16 5 17 6 18 7 19 8 20 9 22 10 23 15 24
REMARK SMILES IDX 11 25 14 26 16 27 12 28 13 29 29 30 30 31 31 32 32 33 33 34
REMARK SMILES IDX 34 35 35 36 36 37 37 38 38 39 39 40 40 41 86 42 41 43 85 44
REMARK SMILES IDX 42 45 43 46 44 47 79 48 45 49 84 50 78 51 80 52 46 53 83 54
REMARK SMILES IDX 77 55 76 56 47 58 69 59 54 60 68 61 55 62 58 63 67 64 81 65
REMARK SMILES IDX 56 66 57 67 66 69 82 70 59 71 48 72 49 73 53 74 50 75 52 76
REMARK SMILES IDX 51 77 70 78 71 79 75 80 72 81 74 82 73 83 60 84 61 85 65 86
REMARK SMILES IDX 62 87 64 88 63 89
REMARK H PARENT 8 21 80 57 58 68
REMARK Flexibility Score: inf
ROOT
ATOM      1  C   UNL A   1      43.792  19.565  25.357  1.00  0.00     0.188 C 
ENDROOT
BRANCH   1   2
ATOM      2  O   UNL A   1      42.978  18.900  26.300  1.00  0.00    -0.376 OA
BRANCH   2   3
ATOM      3  C   UNL A   1      41.649  19.348  26.307  1.00  0.00     0.202 C 
BRANCH   3   4
ATOM      4  C   UNL A   1      41.154  20.245  27.423  1.00  0.00     0.261 C 
BRANCH   4   5
ATOM      5  O   UNL A   1      39.979  20.945  27.020  1.00  0.00    -0.461 OA
BRANCH   5   6
ATOM      6  C   UNL A   1      40.162  22.243  26.700  1.00  0.00     0.344 C 
ATOM      7  O   UNL A   1      41.191  22.881  26.879  1.00  0.00    -0.248 OA
BRANCH   6   8
ATOM      8  C   UNL A   1      38.899  22.841  26.093  1.00  0.00     0.351 C 
BRANCH   8   9
ATOM      9  O   UNL A   1      37.738  22.053  25.974  1.00  0.00    -0.482 OA
BRANCH   9  10
ATOM     10  C   UNL A   1      36.509  22.472  25.570  1.00  0.00     0.123 A 
ATOM     11  C   UNL A   1      35.186  20.300  24.999  1.00  0.00     0.048 C 
ATOM     12  C   UNL A   1      35.359  21.787  25.148  1.00  0.00    -0.008 A 
ATOM     13  C   UNL A   1      34.158  22.531  24.938  1.00  0.00     0.029 A 
ATOM     14  C   UNL A   1      34.074  23.903  25.201  1.00  0.00     0.088 A 
ATOM     15  C   UNL A   1      36.407  23.854  25.807  1.00  0.00     0.048 A 
ATOM     16  C   UNL A   1      35.194  24.537  25.713  1.00  0.00     0.026 A 
BRANCH  14  17
ATOM     17  S   UNL A   1      32.536  24.743  24.838  1.00  0.00     0.262 S 
ATOM     18  O   UNL A   1      31.672  23.803  24.137  1.00  0.00    -0.201 OA
ATOM     19  O   UNL A   1      32.101  25.348  26.069  1.00  0.00    -0.201 OA
BRANCH  17  20
ATOM     20  N   UNL A   1      32.846  26.051  23.831  1.00  0.00    -0.277 N 
ATOM     21  H   UNL A   1      33.771  26.148  23.507  1.00  0.00     0.180 HD
BRANCH  20  22
ATOM     22  C   UNL A   1      31.910  27.033  23.394  1.00  0.00     0.085 A 
ATOM     23  C   UNL A   1      30.607  26.577  23.160  1.00  0.00     0.031 A 
ATOM     24  C   UNL A   1      32.146  28.417  23.393  1.00  0.00     0.148 A 
ATOM     25  C   UNL A   1      29.544  27.485  23.096  1.00  0.00     0.023 A 
ATOM     26  C   UNL A   1      31.089  29.321  23.366  1.00  0.00     0.062 A 
ATOM     27  F   UNL A   1      33.370  28.912  23.602  1.00  0.00    -0.205 F 
ATOM     28  C   UNL A   1      29.787  28.849  23.251  1.00  0.00     0.044 A 
ATOM     29  Cl  UNL A   1      28.468  29.944  23.367  1.00  0.00    -0.084 Cl
ENDBRANCH  20  22
ENDBRANCH  17  20
ENDBRANCH  14  17
ENDBRANCH   9  10
ENDBRANCH   8   9
ENDBRANCH   6   8
ENDBRANCH   5   6
ENDBRANCH   4   5
ENDBRANCH   3   4
ENDBRANCH   2   3
ENDBRANCH   1   2
BRANCH   1  30
ATOM     30  C   UNL A   1      44.190  21.060  25.442  1.00  0.00     0.188 C 
BRANCH  30  31
ATOM     31  O   UNL A   1      43.592  22.039  24.601  1.00  0.00    -0.377 OA
BRANCH  31  32
ATOM     32  C   UNL A   1      44.581  22.863  23.968  1.00  0.00     0.188 C 
BRANCH  32  33
ATOM     33  C   UNL A   1      45.159  23.766  25.031  1.00  0.00     0.188 C 
BRANCH  33  34
ATOM     34  O   UNL A   1      44.807  25.114  24.756  1.00  0.00    -0.376 OA
BRANCH  34  35
ATOM     35  C   UNL A   1      44.428  25.947  25.831  1.00  0.00     0.202 C 
BRANCH  35  36
ATOM     36  C   UNL A   1      43.560  27.138  25.425  1.00  0.00     0.261 C 
BRANCH  36  37
ATOM     37  O   UNL A   1      42.631  27.442  26.485  1.00  0.00    -0.460 OA
BRANCH  37  38
ATOM     38  C   UNL A   1      41.419  26.825  26.390  1.00  0.00     0.338 C 
ATOM     39  O   UNL A   1      41.070  26.114  25.459  1.00  0.00    -0.246 OA
BRANCH  38  40
ATOM     40  C   UNL A   1      40.461  27.400  27.392  1.00  0.00     0.060 A 
ATOM     41  C   UNL A   1      39.805  28.610  27.098  1.00  0.00     0.016 A 
ATOM     42  C   UNL A   1      40.576  26.996  28.720  1.00  0.00     0.016 A 
ATOM     43  C   UNL A   1      39.430  29.488  28.135  1.00  0.00     0.010 A 
ATOM     44  C   UNL A   1      40.322  27.921  29.721  1.00  0.00     0.010 A 
ATOM     45  C   UNL A   1      39.756  29.180  29.458  1.00  0.00    -0.014 A 
BRANCH  45  46
ATOM     46  C   UNL A   1      39.671  30.116  30.610  1.00  0.00     0.031 A 
ATOM     47  C   UNL A   1      38.949  31.420  30.440  1.00  0.00     0.074 A 
ATOM     48  C   UNL A   1      39.892  29.631  31.861  1.00  0.00     0.049 A 
ATOM     49  N   UNL A   1      38.759  32.301  31.368  1.00  0.00    -0.248 NA
ATOM     50  C   UNL A   1      38.296  31.815  29.193  1.00  0.00     0.031 C 
ATOM     51  C   UNL A   1      39.333  30.105  33.135  1.00  0.00     0.029 A 
ATOM     52  N   UNL A   1      40.555  28.464  32.248  1.00  0.00    -0.354 N 
ATOM     53  C   UNL A   1      37.691  33.106  30.995  1.00  0.00     0.074 A 
ATOM     54  C   UNL A   1      37.511  32.822  29.592  1.00  0.00     0.031 C 
ATOM     55  C   UNL A   1      39.689  29.300  34.151  1.00  0.00     0.029 A 
ATOM     56  C   UNL A   1      40.781  28.508  33.646  1.00  0.00     0.049 A 
ATOM     57  H   UNL A   1      40.820  27.730  31.648  1.00  0.00     0.167 HD
ATOM     58  C   UNL A   1      36.979  33.779  31.958  1.00  0.00     0.031 A 
ATOM     59  C   UNL A   1      42.059  28.676  34.111  1.00  0.00     0.031 A 
ATOM     60  C   UNL A   1      37.579  33.612  33.308  1.00  0.00     0.049 A 
ATOM     61  C   UNL A   1      42.257  30.117  34.598  1.00  0.00     0.074 A 
ATOM     62  C   UNL A   1      37.115  33.281  34.572  1.00  0.00     0.029 A 
ATOM     63  N   UNL A   1      38.972  33.647  33.436  1.00  0.00    -0.354 N 
ATOM     64  N   UNL A   1      41.489  31.110  34.205  1.00  0.00    -0.248 NA
ATOM     65  C   UNL A   1      43.154  30.548  35.669  1.00  0.00     0.031 C 
ATOM     66  C   UNL A   1      38.239  32.946  35.390  1.00  0.00     0.029 A 
ATOM     67  C   UNL A   1      39.396  33.164  34.657  1.00  0.00     0.049 A 
ATOM     68  H   UNL A   1      39.580  33.978  32.736  1.00  0.00     0.167 HD
ATOM     69  C   UNL A   1      41.630  32.186  35.025  1.00  0.00     0.074 A 
ATOM     70  C   UNL A   1      42.755  31.824  35.871  1.00  0.00     0.031 C 
ATOM     71  C   UNL A   1      40.803  33.276  35.029  1.00  0.00     0.031 A 
BRANCH  58  72
ATOM     72  C   UNL A   1      35.615  34.458  31.731  1.00  0.00    -0.014 A 
ATOM     73  C   UNL A   1      35.187  35.504  32.578  1.00  0.00     0.009 A 
ATOM     74  C   UNL A   1      34.693  34.127  30.720  1.00  0.00     0.009 A 
ATOM     75  C   UNL A   1      33.934  36.137  32.451  1.00  0.00     0.001 A 
ATOM     76  C   UNL A   1      33.442  34.761  30.573  1.00  0.00     0.001 A 
ATOM     77  C   UNL A   1      33.058  35.767  31.444  1.00  0.00     0.000 A 
ENDBRANCH  58  72
BRANCH  59  78
ATOM     78  C   UNL A   1      42.956  27.668  33.450  1.00  0.00    -0.014 A 
ATOM     79  C   UNL A   1      43.974  28.237  32.639  1.00  0.00     0.009 A 
ATOM     80  C   UNL A   1      43.253  26.458  34.101  1.00  0.00     0.009 A 
ATOM     81  C   UNL A   1      45.295  27.766  32.694  1.00  0.00     0.001 A 
ATOM     82  C   UNL A   1      44.579  25.985  34.141  1.00  0.00     0.001 A 
ATOM     83  C   UNL A   1      45.606  26.673  33.493  1.00  0.00     0.000 A 
ENDBRANCH  59  78
BRANCH  71  84
ATOM     84  C   UNL A   1      41.288  34.663  35.348  1.00  0.00    -0.014 A 
ATOM     85  C   UNL A   1      41.516  35.086  36.660  1.00  0.00     0.009 A 
ATOM     86  C   UNL A   1      41.809  35.471  34.309  1.00  0.00     0.009 A 
ATOM     87  C   UNL A   1      42.207  36.270  36.923  1.00  0.00     0.001 A 
ATOM     88  C   UNL A   1      42.545  36.623  34.568  1.00  0.00     0.001 A 
ATOM     89  C   UNL A   1      42.733  37.029  35.880  1.00  0.00     0.000 A 
ENDBRANCH  71  84
ENDBRANCH  45  46
ENDBRANCH  38  40
ENDBRANCH  37  38
ENDBRANCH  36  37
ENDBRANCH  35  36
ENDBRANCH  34  35
ENDBRANCH  33  34
ENDBRANCH  32  33
ENDBRANCH  31  32
ENDBRANCH  30  31
ENDBRANCH   1  30
TORSDOF 25
ENDMDL
MODEL 2
REMARK VINA RESULT:      -9.5      5.572      9.867
REMARK SMILES Cc1cc(S(=O)(=O)Nc2ccc(Cl)cc2F)ccc1OCC(=O)OCCOCCOCCOCCOC(=O)c1ccc(-c2c3nc(c(-c4ccccc4)c4ccc([nH]4)c(-c4ccccc4)c4nc(c(-c5ccccc5)c5ccc2[nH]5)C=C4)C=C3)cc1
REMARK SMILES IDX 28 1 27 2 26 3 25 4 24 5 22 6 23 7 21 8 20 9 19 10 1 11 2 12
REMARK SMILES IDX 3 13 4 14 18 15 17 16 5 17 6 18 7 19 8 20 9 22 10 23 15 24
REMARK SMILES IDX 11 25 14 26 16 27 12 28 13 29 29 30 30 31 31 32 32 33 33 34
REMARK SMILES IDX 34 35 35 36 36 37 37 38 38 39 39 40 40 41 86 42 41 43 85 44
REMARK SMILES IDX 42 45 43 46 44 47 79 48 45 49 84 50 78 51 80 52 46 53 83 54
REMARK SMILES IDX 77 55 76 56 47 58 69 59 54 60 68 61 55 62 58 63 67 64 81 65
REMARK SMILES IDX 56 66 57 67 66 69 82 70 59 71 48 72 49 73 53 74 50 75 52 76
REMARK SMILES IDX 51 77 70 78 71 79 75 80 72 81 74 82 73 83 60 84 61 85 65 86
REMARK SMILES IDX 62 87 64 88 63 89
REMARK H PARENT 8 21 80 57 58 68
REMARK Flexibility Score: inf
ROOT
ATOM      1  C   UNL A   1      43.339  18.744  25.361  1.00  0.00     0.188 C 
ENDROOT
BRANCH   1   2
ATOM      2  O   UNL A   1      42.652  19.004  26.567  1.00  0.00    -0.376 OA
BRANCH   2   3
ATOM      3  C   UNL A   1      42.036  20.264  26.601  1.00  0.00     0.202 C 
BRANCH   3   4
ATOM      4  C   UNL A   1      42.226  21.173  27.797  1.00  0.00     0.261 C 
BRANCH   4   5
ATOM      5  O   UNL A   1      41.215  22.178  27.829  1.00  0.00    -0.461 OA
BRANCH   5   6
ATOM      6  C   UNL A   1      40.856  22.675  26.626  1.00  0.00     0.344 C 
ATOM      7  O   UNL A   1      41.384  23.626  26.064  1.00  0.00    -0.248 OA
BRANCH   6   8
ATOM      8  C   UNL A   1      39.676  21.907  26.046  1.00  0.00     0.351 C 
BRANCH   8   9
ATOM      9  O   UNL A   1      38.365  22.233  26.444  1.00  0.00    -0.482 OA
BRANCH   9  10
ATOM     10  C   UNL A   1      37.292  22.424  25.631  1.00  0.00     0.123 A 
ATOM     11  C   UNL A   1      36.535  20.039  24.903  1.00  0.00     0.048 C 
ATOM     12  C   UNL A   1      36.446  21.539  24.942  1.00  0.00    -0.008 A 
ATOM     13  C   UNL A   1      35.291  22.067  24.288  1.00  0.00     0.029 A 
ATOM     14  C   UNL A   1      34.942  23.420  24.367  1.00  0.00     0.088 A 
ATOM     15  C   UNL A   1      36.932  23.782  25.678  1.00  0.00     0.048 A 
ATOM     16  C   UNL A   1      35.736  24.254  25.135  1.00  0.00     0.026 A 
BRANCH  14  17
ATOM     17  S   UNL A   1      33.509  23.979  23.451  1.00  0.00     0.262 S 
ATOM     18  O   UNL A   1      33.984  24.619  22.232  1.00  0.00    -0.201 OA
ATOM     19  O   UNL A   1      32.610  22.859  23.377  1.00  0.00    -0.201 OA
BRANCH  17  20
ATOM     20  N   UNL A   1      32.675  25.110  24.369  1.00  0.00    -0.277 N 
ATOM     21  H   UNL A   1      32.591  24.922  25.332  1.00  0.00     0.180 HD
BRANCH  20  22
ATOM     22  C   UNL A   1      32.076  26.317  23.901  1.00  0.00     0.085 A 
ATOM     23  C   UNL A   1      30.688  26.279  23.712  1.00  0.00     0.031 A 
ATOM     24  C   UNL A   1      32.728  27.558  23.829  1.00  0.00     0.148 A 
ATOM     25  C   UNL A   1      29.957  27.469  23.622  1.00  0.00     0.023 A 
ATOM     26  C   UNL A   1      32.003  28.744  23.777  1.00  0.00     0.062 A 
ATOM     27  F   UNL A   1      34.051  27.656  23.993  1.00  0.00    -0.205 F 
ATOM     28  C   UNL A   1      30.616  28.695  23.706  1.00  0.00     0.044 A 
ATOM     29  Cl  UNL A   1      29.705  30.149  23.792  1.00  0.00    -0.084 Cl
ENDBRANCH  20  22
ENDBRANCH  17  20
ENDBRANCH  14  17
ENDBRANCH   9  10
ENDBRANCH   8   9
ENDBRANCH   6   8
ENDBRANCH   5   6
ENDBRANCH   4   5
ENDBRANCH   3   4
ENDBRANCH   2   3
ENDBRANCH   1   2
BRANCH   1  30
ATOM     30  C   UNL A   1      44.685  19.399  24.961  1.00  0.00     0.188 C 
BRANCH  30  31
ATOM     31  O   UNL A   1      44.731  20.621  24.234  1.00  0.00    -0.377 OA
BRANCH  31  32
ATOM     32  C   UNL A   1      45.544  21.598  24.900  1.00  0.00     0.188 C 
BRANCH  32  33
ATOM     33  C   UNL A   1      45.116  22.956  24.398  1.00  0.00     0.188 C 
BRANCH  33  34
ATOM     34  O   UNL A   1      45.530  23.957  25.316  1.00  0.00    -0.376 OA
BRANCH  34  35
ATOM     35  C   UNL A   1      46.377  24.989  24.855  1.00  0.00     0.202 C 
BRANCH  35  36
ATOM     36  C   UNL A   1      45.826  26.397  25.077  1.00  0.00     0.261 C 
BRANCH  36  37
ATOM     37  O   UNL A   1      44.401  26.329  25.290  1.00  0.00    -0.460 OA
BRANCH  37  38
ATOM     38  C   UNL A   1      43.876  27.342  26.036  1.00  0.00     0.338 C 
ATOM     39  O   UNL A   1      43.442  28.390  25.582  1.00  0.00    -0.246 OA
BRANCH  38  40
ATOM     40  C   UNL A   1      44.211  27.148  27.487  1.00  0.00     0.060 A 
ATOM     41  C   UNL A   1      44.846  28.190  28.189  1.00  0.00     0.016 A 
ATOM     42  C   UNL A   1      44.306  25.847  27.973  1.00  0.00     0.016 A 
ATOM     43  C   UNL A   1      45.712  27.902  29.263  1.00  0.00     0.010 A 
ATOM     44  C   UNL A   1      45.256  25.566  28.942  1.00  0.00     0.010 A 
ATOM     45  C   UNL A   1      45.982  26.574  29.600  1.00  0.00    -0.014 A 
BRANCH  45  46
ATOM     46  C   UNL A   1      47.062  26.116  30.513  1.00  0.00     0.031 A 
ATOM     47  C   UNL A   1      48.433  25.867  29.956  1.00  0.00     0.074 A 
ATOM     48  C   UNL A   1      46.907  26.301  31.851  1.00  0.00     0.049 A 
ATOM     49  N   UNL A   1      49.471  25.515  30.642  1.00  0.00    -0.248 NA
ATOM     50  C   UNL A   1      48.773  26.076  28.549  1.00  0.00     0.031 C 
ATOM     51  C   UNL A   1      47.946  26.507  32.871  1.00  0.00     0.029 A 
ATOM     52  N   UNL A   1      45.736  26.522  32.580  1.00  0.00    -0.354 N 
ATOM     53  C   UNL A   1      50.607  25.837  29.912  1.00  0.00     0.074 A 
ATOM     54  C   UNL A   1      50.110  26.087  28.581  1.00  0.00     0.031 C 
ATOM     55  C   UNL A   1      47.403  26.773  34.071  1.00  0.00     0.029 A 
ATOM     56  C   UNL A   1      46.021  26.383  33.960  1.00  0.00     0.049 A 
ATOM     57  H   UNL A   1      44.856  26.740  32.196  1.00  0.00     0.167 HD
ATOM     58  C   UNL A   1      51.802  26.023  30.564  1.00  0.00     0.031 A 
ATOM     59  C   UNL A   1      45.529  25.299  34.638  1.00  0.00     0.031 A 
ATOM     60  C   UNL A   1      51.695  25.720  32.015  1.00  0.00     0.049 A 
ATOM     61  C   UNL A   1      46.646  24.275  34.876  1.00  0.00     0.074 A 
ATOM     62  C   UNL A   1      52.062  26.348  33.196  1.00  0.00     0.029 A 
ATOM     63  N   UNL A   1      50.941  24.612  32.419  1.00  0.00    -0.354 N 
ATOM     64  N   UNL A   1      47.745  24.245  34.154  1.00  0.00    -0.248 NA
ATOM     65  C   UNL A   1      46.745  23.355  36.008  1.00  0.00     0.031 C 
ATOM     66  C   UNL A   1      51.374  25.712  34.276  1.00  0.00     0.029 A 
ATOM     67  C   UNL A   1      50.661  24.636  33.769  1.00  0.00     0.049 A 
ATOM     68  H   UNL A   1      50.646  23.897  31.809  1.00  0.00     0.167 HD
ATOM     69  C   UNL A   1      48.709  23.506  34.767  1.00  0.00     0.074 A 
ATOM     70  C   UNL A   1      48.007  22.888  35.879  1.00  0.00     0.031 C 
ATOM     71  C   UNL A   1      50.025  23.481  34.395  1.00  0.00     0.031 A 
BRANCH  58  72
ATOM     72  C   UNL A   1      53.056  26.663  29.937  1.00  0.00    -0.014 A 
ATOM     73  C   UNL A   1      53.033  28.005  29.500  1.00  0.00     0.009 A 
ATOM     74  C   UNL A   1      54.292  26.017  29.736  1.00  0.00     0.009 A 
ATOM     75  C   UNL A   1      54.131  28.635  28.881  1.00  0.00     0.001 A 
ATOM     76  C   UNL A   1      55.403  26.639  29.130  1.00  0.00     0.001 A 
ATOM     77  C   UNL A   1      55.322  27.951  28.697  1.00  0.00     0.000 A 
ENDBRANCH  58  72
BRANCH  59  78
ATOM     78  C   UNL A   1      44.054  25.188  34.379  1.00  0.00    -0.014 A 
ATOM     79  C   UNL A   1      43.562  23.855  34.367  1.00  0.00     0.009 A 
ATOM     80  C   UNL A   1      43.182  26.192  34.837  1.00  0.00     0.009 A 
ATOM     81  C   UNL A   1      42.372  23.514  35.028  1.00  0.00     0.001 A 
ATOM     82  C   UNL A   1      41.983  25.842  35.487  1.00  0.00     0.001 A 
ATOM     83  C   UNL A   1      41.612  24.505  35.638  1.00  0.00     0.000 A 
ENDBRANCH  59  78
BRANCH  71  84
ATOM     84  C   UNL A   1      50.887  22.257  34.541  1.00  0.00    -0.014 A 
ATOM     85  C   UNL A   1      51.725  22.067  35.643  1.00  0.00     0.009 A 
ATOM     86  C   UNL A   1      50.643  21.135  33.712  1.00  0.00     0.009 A 
ATOM     87  C   UNL A   1      52.312  20.824  35.891  1.00  0.00     0.001 A 
ATOM     88  C   UNL A   1      51.183  19.883  33.988  1.00  0.00     0.001 A 
ATOM     89  C   UNL A   1      52.029  19.732  35.075  1.00  0.00     0.000 A 
ENDBRANCH  71  84
ENDBRANCH  45  46
ENDBRANCH  38  40
ENDBRANCH  37  38
ENDBRANCH  36  37
ENDBRANCH  35  36
ENDBRANCH  34  35
ENDBRANCH  33  34
ENDBRANCH  32  33
ENDBRANCH  31  32
ENDBRANCH  30  31
ENDBRANCH   1  30
TORSDOF 25
ENDMDL
MODEL 3
REMARK VINA RESULT:      -9.3      5.187     10.712
REMARK SMILES Cc1cc(S(=O)(=O)Nc2ccc(Cl)cc2F)ccc1OCC(=O)OCCOCCOCCOCCOC(=O)c1ccc(-c2c3nc(c(-c4ccccc4)c4ccc([nH]4)c(-c4ccccc4)c4nc(c(-c5ccccc5)c5ccc2[nH]5)C=C4)C=C3)cc1
REMARK SMILES IDX 28 1 27 2 26 3 25 4 24 5 22 6 23 7 21 8 20 9 19 10 1 11 2 12
REMARK SMILES IDX 3 13 4 14 18 15 17 16 5 17 6 18 7 19 8 20 9 22 10 23 15 24
REMARK SMILES IDX 11 25 14 26 16 27 12 28 13 29 29 30 30 31 31 32 32 33 33 34
REMARK SMILES IDX 34 35 35 36 36 37 37 38 38 39 39 40 40 41 86 42 41 43 85 44
REMARK SMILES IDX 42 45 43 46 44 47 79 48 45 49 84 50 78 51 80 52 46 53 83 54
REMARK SMILES IDX 77 55 76 56 47 58 69 59 54 60 68 61 55 62 58 63 67 64 81 65
REMARK SMILES IDX 56 66 57 67 66 69 82 70 59 71 48 72 49 73 53 74 50 75 52 76
REMARK SMILES IDX 51 77 70 78 71 79 75 80 72 81 74 82 73 83 60 84 61 85 65 86
REMARK SMILES IDX 62 87 64 88 63 89
REMARK H PARENT 8 21 80 57 58 68
REMARK Flexibility Score: inf
ROOT
ATOM      1  C   UNL A   1      43.351  18.797  25.422  1.00  0.00     0.188 C 
ENDROOT
BRANCH   1   2
ATOM      2  O   UNL A   1      42.603  19.411  26.450  1.00  0.00    -0.376 OA
BRANCH   2   3
ATOM      3  C   UNL A   1      42.281  20.751  26.186  1.00  0.00     0.202 C 
BRANCH   3   4
ATOM      4  C   UNL A   1      42.723  21.842  27.138  1.00  0.00     0.261 C 
BRANCH   4   5
ATOM      5  O   UNL A   1      42.240  23.112  26.705  1.00  0.00    -0.461 OA
BRANCH   5   6
ATOM      6  C   UNL A   1      41.109  23.536  27.307  1.00  0.00     0.344 C 
ATOM      7  O   UNL A   1      39.975  23.169  27.027  1.00  0.00    -0.248 OA
BRANCH   6   8
ATOM      8  C   UNL A   1      41.415  24.564  28.387  1.00  0.00     0.351 C 
BRANCH   8   9
ATOM      9  O   UNL A   1      41.395  25.937  28.073  1.00  0.00    -0.482 OA
BRANCH   9  10
ATOM     10  C   UNL A   1      40.693  26.908  28.716  1.00  0.00     0.123 A 
ATOM     11  C   UNL A   1      42.294  27.828  30.554  1.00  0.00     0.048 C 
ATOM     12  C   UNL A   1      41.008  27.771  29.778  1.00  0.00    -0.008 A 
ATOM     13  C   UNL A   1      40.082  28.804  30.117  1.00  0.00     0.029 A 
ATOM     14  C   UNL A   1      38.908  29.023  29.388  1.00  0.00     0.088 A 
ATOM     15  C   UNL A   1      39.497  27.134  28.011  1.00  0.00     0.048 A 
ATOM     16  C   UNL A   1      38.668  28.224  28.284  1.00  0.00     0.026 A 
BRANCH  14  17
ATOM     17  S   UNL A   1      37.790  30.305  29.947  1.00  0.00     0.262 S 
ATOM     18  O   UNL A   1      36.771  29.674  30.774  1.00  0.00    -0.201 OA
ATOM     19  O   UNL A   1      38.612  31.356  30.487  1.00  0.00    -0.201 OA
BRANCH  17  20
ATOM     20  N   UNL A   1      37.050  31.012  28.616  1.00  0.00    -0.277 N 
ATOM     21  H   UNL A   1      37.630  31.221  27.849  1.00  0.00     0.180 HD
BRANCH  20  22
ATOM     22  C   UNL A   1      35.669  31.338  28.480  1.00  0.00     0.085 A 
ATOM     23  C   UNL A   1      35.336  32.686  28.670  1.00  0.00     0.031 A 
ATOM     24  C   UNL A   1      34.689  30.472  27.971  1.00  0.00     0.148 A 
ATOM     25  C   UNL A   1      34.113  33.181  28.206  1.00  0.00     0.023 A 
ATOM     26  C   UNL A   1      33.487  30.966  27.475  1.00  0.00     0.062 A 
ATOM     27  F   UNL A   1      34.945  29.174  27.776  1.00  0.00    -0.205 F 
ATOM     28  C   UNL A   1      33.217  32.326  27.565  1.00  0.00     0.044 A 
ATOM     29  Cl  UNL A   1      31.806  32.967  26.824  1.00  0.00    -0.084 Cl
ENDBRANCH  20  22
ENDBRANCH  17  20
ENDBRANCH  14  17
ENDBRANCH   9  10
ENDBRANCH   8   9
ENDBRANCH   6   8
ENDBRANCH   5   6
ENDBRANCH   4   5
ENDBRANCH   3   4
ENDBRANCH   2   3
ENDBRANCH   1   2
BRANCH   1  30
ATOM     30  C   UNL A   1      44.819  19.152  25.075  1.00  0.00     0.188 C 
BRANCH  30  31
ATOM     31  O   UNL A   1      45.138  20.232  24.206  1.00  0.00    -0.377 OA
BRANCH  31  32
ATOM     32  C   UNL A   1      45.983  21.195  24.851  1.00  0.00     0.188 C 
BRANCH  32  33
ATOM     33  C   UNL A   1      45.677  22.542  24.240  1.00  0.00     0.188 C 
BRANCH  33  34
ATOM     34  O   UNL A   1      46.069  23.572  25.135  1.00  0.00    -0.376 OA
BRANCH  34  35
ATOM     35  C   UNL A   1      46.907  24.602  24.655  1.00  0.00     0.202 C 
BRANCH  35  36
ATOM     36  C   UNL A   1      46.364  26.011  24.889  1.00  0.00     0.261 C 
BRANCH  36  37
ATOM     37  O   UNL A   1      44.935  25.953  25.077  1.00  0.00    -0.460 OA
BRANCH  37  38
ATOM     38  C   UNL A   1      44.403  26.971  25.810  1.00  0.00     0.338 C 
ATOM     39  O   UNL A   1      44.029  28.040  25.350  1.00  0.00    -0.246 OA
BRANCH  38  40
ATOM     40  C   UNL A   1      44.651  26.745  27.274  1.00  0.00     0.060 A 
ATOM     41  C   UNL A   1      45.101  27.817  28.066  1.00  0.00     0.016 A 
ATOM     42  C   UNL A   1      44.866  25.441  27.711  1.00  0.00     0.016 A 
ATOM     43  C   UNL A   1      45.913  27.578  29.193  1.00  0.00     0.010 A 
ATOM     44  C   UNL A   1      45.770  25.224  28.740  1.00  0.00     0.010 A 
ATOM     45  C   UNL A   1      46.317  26.276  29.496  1.00  0.00    -0.014 A 
BRANCH  45  46
ATOM     46  C   UNL A   1      47.374  25.903  30.471  1.00  0.00     0.031 A 
ATOM     47  C   UNL A   1      48.771  25.660  29.979  1.00  0.00     0.074 A 
ATOM     48  C   UNL A   1      47.164  26.161  31.790  1.00  0.00     0.049 A 
ATOM     49  N   UNL A   1      49.791  25.378  30.721  1.00  0.00    -0.248 NA
ATOM     50  C   UNL A   1      49.157  25.797  28.576  1.00  0.00     0.031 C 
ATOM     51  C   UNL A   1      48.159  26.454  32.832  1.00  0.00     0.029 A 
ATOM     52  N   UNL A   1      45.962  26.390  32.462  1.00  0.00    -0.354 N 
ATOM     53  C   UNL A   1      50.945  25.689  30.015  1.00  0.00     0.074 A 
ATOM     54  C   UNL A   1      50.491  25.848  28.654  1.00  0.00     0.031 C 
ATOM     55  C   UNL A   1      47.566  26.775  33.994  1.00  0.00     0.029 A 
ATOM     56  C   UNL A   1      46.199  26.340  33.858  1.00  0.00     0.049 A 
ATOM     57  H   UNL A   1      45.091  26.560  32.035  1.00  0.00     0.167 HD
ATOM     58  C   UNL A   1      52.110  25.947  30.696  1.00  0.00     0.031 A 
ATOM     59  C   UNL A   1      45.711  25.283  34.581  1.00  0.00     0.031 A 
ATOM     60  C   UNL A   1      51.957  25.726  32.158  1.00  0.00     0.049 A 
ATOM     61  C   UNL A   1      46.845  24.307  34.918  1.00  0.00     0.074 A 
ATOM     62  C   UNL A   1      52.263  26.431  33.311  1.00  0.00     0.029 A 
ATOM     63  N   UNL A   1      51.218  24.622  32.600  1.00  0.00    -0.354 N 
ATOM     64  N   UNL A   1      47.970  24.266  34.238  1.00  0.00    -0.248 NA
ATOM     65  C   UNL A   1      46.925  23.457  36.105  1.00  0.00     0.031 C 
ATOM     66  C   UNL A   1      51.552  25.840  34.402  1.00  0.00     0.029 A 
ATOM     67  C   UNL A   1      50.887  24.716  33.935  1.00  0.00     0.049 A 
ATOM     68  H   UNL A   1      50.964  23.865  32.023  1.00  0.00     0.167 HD
ATOM     69  C   UNL A   1      48.929  23.592  34.928  1.00  0.00     0.074 A 
ATOM     70  C   UNL A   1      48.203  23.020  36.050  1.00  0.00     0.031 C 
ATOM     71  C   UNL A   1      50.258  23.582  34.606  1.00  0.00     0.031 A 
BRANCH  58  72
ATOM     72  C   UNL A   1      53.369  26.584  30.078  1.00  0.00    -0.014 A 
ATOM     73  C   UNL A   1      53.333  27.906  29.583  1.00  0.00     0.009 A 
ATOM     74  C   UNL A   1      54.621  25.955  29.938  1.00  0.00     0.009 A 
ATOM     75  C   UNL A   1      54.436  28.531  28.969  1.00  0.00     0.001 A 
ATOM     76  C   UNL A   1      55.737  26.573  29.337  1.00  0.00     0.001 A 
ATOM     77  C   UNL A   1      55.644  27.864  28.846  1.00  0.00     0.000 A 
ENDBRANCH  58  72
BRANCH  59  78
ATOM     78  C   UNL A   1      44.250  25.116  34.276  1.00  0.00    -0.014 A 
ATOM     79  C   UNL A   1      43.795  23.771  34.318  1.00  0.00     0.009 A 
ATOM     80  C   UNL A   1      43.335  26.116  34.650  1.00  0.00     0.009 A 
ATOM     81  C   UNL A   1      42.592  23.429  34.954  1.00  0.00     0.001 A 
ATOM     82  C   UNL A   1      42.122  25.765  35.275  1.00  0.00     0.001 A 
ATOM     83  C   UNL A   1      41.783  24.427  35.483  1.00  0.00     0.000 A 
ENDBRANCH  59  78
BRANCH  71  84
ATOM     84  C   UNL A   1      51.146  22.394  34.854  1.00  0.00    -0.014 A 
ATOM     85  C   UNL A   1      51.911  22.268  36.017  1.00  0.00     0.009 A 
ATOM     86  C   UNL A   1      50.996  21.237  34.051  1.00  0.00     0.009 A 
ATOM     87  C   UNL A   1      52.517  21.056  36.349  1.00  0.00     0.001 A 
ATOM     88  C   UNL A   1      51.555  20.014  34.407  1.00  0.00     0.001 A 
ATOM     89  C   UNL A   1      52.327  19.928  35.555  1.00  0.00     0.000 A 
ENDBRANCH  71  84
ENDBRANCH  45  46
ENDBRANCH  38  40
ENDBRANCH  37  38
ENDBRANCH  36  37
ENDBRANCH  35  36
ENDBRANCH  34  35
ENDBRANCH  33  34
ENDBRANCH  32  33
ENDBRANCH  31  32
ENDBRANCH  30  31
ENDBRANCH   1  30
TORSDOF 25
ENDMDL
