MODEL 1
REMARK VINA RESULT:      -9.4      0.000      0.000
REMARK SMILES O=C(OCCOCCOCCOCCOC(=O)[C@@H]1C=C[C@@H](NC(=O)[C@@H]2CCS(=O)(=O)C2)C1)c1ccc(-c2c3nc(c(-c4ccccc4)c4ccc([nH]4)c(-c4ccccc4)c4nc(c(-c5ccccc5)c5ccc2[nH]5)C=C4)C=C3)cc1
REMARK SMILES IDX 9 1 8 2 7 3 6 4 5 5 4 6 3 7 2 8 1 9 33 10 34 11 80 12 35 13
REMARK SMILES IDX 79 14 36 15 37 16 38 17 73 18 39 19 78 20 72 21 74 22 40 23
REMARK SMILES IDX 77 24 71 25 70 26 41 28 63 29 48 30 62 31 49 32 52 33 61 34
REMARK SMILES IDX 75 35 50 36 51 37 60 39 76 40 53 41 42 42 43 43 47 44 44 45
REMARK SMILES IDX 46 46 45 47 64 48 65 49 69 50 66 51 68 52 67 53 54 54 55 55
REMARK SMILES IDX 59 56 56 57 58 58 57 59 10 60 11 61 12 62 13 63 14 64 15 65
REMARK SMILES IDX 16 66 17 67 18 68 19 69 32 70 20 71 21 72 22 73 23 74 24 76
REMARK SMILES IDX 25 77 26 78 31 79 27 80 28 81 29 82 30 83
REMARK H PARENT 74 27 52 38 22 75
REMARK Flexibility Score: inf
ROOT
ATOM      1  O   UNL A   1      41.616  19.812  27.061  1.00  0.00    -0.377 OA
ENDROOT
BRANCH   1   2
ATOM      2  C   UNL A   1      42.730  20.087  26.217  1.00  0.00     0.188 C 
BRANCH   2   3
ATOM      3  C   UNL A   1      43.358  18.842  25.605  1.00  0.00     0.188 C 
BRANCH   3   4
ATOM      4  O   UNL A   1      44.650  19.157  25.116  1.00  0.00    -0.376 OA
BRANCH   4   5
ATOM      5  C   UNL A   1      44.936  20.383  24.474  1.00  0.00     0.202 C 
BRANCH   5   6
ATOM      6  C   UNL A   1      45.975  21.297  25.098  1.00  0.00     0.261 C 
BRANCH   6   7
ATOM      7  O   UNL A   1      45.507  22.488  25.778  1.00  0.00    -0.460 OA
BRANCH   7   8
ATOM      8  C   UNL A   1      44.880  23.612  25.361  1.00  0.00     0.338 C 
ATOM      9  O   UNL A   1      44.952  23.953  24.185  1.00  0.00    -0.246 OA
BRANCH   8  10
ATOM     10  C   UNL A   1      44.067  24.434  26.280  1.00  0.00     0.060 A 
ATOM     11  C   UNL A   1      44.102  25.813  26.256  1.00  0.00     0.016 A 
ATOM     12  C   UNL A   1      43.133  23.831  27.120  1.00  0.00     0.016 A 
ATOM     13  C   UNL A   1      43.569  26.571  27.261  1.00  0.00     0.010 A 
ATOM     14  C   UNL A   1      42.382  24.617  28.001  1.00  0.00     0.010 A 
ATOM     15  C   UNL A   1      42.664  25.986  28.125  1.00  0.00    -0.014 A 
BRANCH  15  16
ATOM     16  C   UNL A   1      42.148  26.847  29.199  1.00  0.00     0.031 A 
ATOM     17  C   UNL A   1      43.008  27.032  30.408  1.00  0.00     0.074 A 
ATOM     18  C   UNL A   1      41.054  27.604  28.978  1.00  0.00     0.049 A 
ATOM     19  N   UNL A   1      42.761  27.700  31.500  1.00  0.00    -0.248 NA
ATOM     20  C   UNL A   1      44.336  26.389  30.382  1.00  0.00     0.031 C 
ATOM     21  C   UNL A   1      40.261  27.619  27.737  1.00  0.00     0.029 A 
ATOM     22  N   UNL A   1      40.454  28.554  29.755  1.00  0.00    -0.354 N 
ATOM     23  C   UNL A   1      43.879  27.520  32.301  1.00  0.00     0.074 A 
ATOM     24  C   UNL A   1      44.801  26.673  31.586  1.00  0.00     0.031 C 
ATOM     25  C   UNL A   1      39.319  28.571  27.824  1.00  0.00     0.029 A 
ATOM     26  C   UNL A   1      39.360  29.138  29.161  1.00  0.00     0.049 A 
ATOM     27  H   UNL A   1      40.774  28.797  30.654  1.00  0.00     0.167 HD
ATOM     28  C   UNL A   1      44.101  28.022  33.535  1.00  0.00     0.031 A 
ATOM     29  C   UNL A   1      38.457  29.991  29.674  1.00  0.00     0.031 A 
ATOM     30  C   UNL A   1      43.153  28.860  34.212  1.00  0.00     0.049 A 
ATOM     31  C   UNL A   1      38.654  30.412  31.103  1.00  0.00     0.074 A 
ATOM     32  C   UNL A   1      43.194  29.352  35.501  1.00  0.00     0.029 A 
ATOM     33  N   UNL A   1      41.984  29.334  33.631  1.00  0.00    -0.354 N 
ATOM     34  N   UNL A   1      39.651  30.141  31.912  1.00  0.00    -0.248 NA
ATOM     35  C   UNL A   1      37.598  31.237  31.696  1.00  0.00     0.031 C 
ATOM     36  C   UNL A   1      42.021  30.082  35.717  1.00  0.00     0.029 A 
ATOM     37  C   UNL A   1      41.284  30.103  34.541  1.00  0.00     0.049 A 
ATOM     38  H   UNL A   1      41.697  29.149  32.708  1.00  0.00     0.167 HD
ATOM     39  C   UNL A   1      39.353  30.775  33.108  1.00  0.00     0.074 A 
ATOM     40  C   UNL A   1      38.098  31.474  32.899  1.00  0.00     0.031 C 
ATOM     41  C   UNL A   1      40.037  30.777  34.278  1.00  0.00     0.031 A 
BRANCH  28  42
ATOM     42  C   UNL A   1      45.361  27.592  34.227  1.00  0.00    -0.014 A 
ATOM     43  C   UNL A   1      45.358  26.603  35.223  1.00  0.00     0.009 A 
ATOM     44  C   UNL A   1      46.568  28.230  33.908  1.00  0.00     0.009 A 
ATOM     45  C   UNL A   1      46.534  26.288  35.909  1.00  0.00     0.001 A 
ATOM     46  C   UNL A   1      47.747  27.893  34.573  1.00  0.00     0.001 A 
ATOM     47  C   UNL A   1      47.727  26.929  35.580  1.00  0.00     0.000 A 
ENDBRANCH  28  42
BRANCH  29  48
ATOM     48  C   UNL A   1      37.252  30.393  28.896  1.00  0.00    -0.014 A 
ATOM     49  C   UNL A   1      37.042  31.725  28.508  1.00  0.00     0.009 A 
ATOM     50  C   UNL A   1      36.267  29.441  28.580  1.00  0.00     0.009 A 
ATOM     51  C   UNL A   1      35.857  32.099  27.866  1.00  0.00     0.001 A 
ATOM     52  C   UNL A   1      35.102  29.808  27.903  1.00  0.00     0.001 A 
ATOM     53  C   UNL A   1      34.890  31.140  27.562  1.00  0.00     0.000 A 
ENDBRANCH  29  48
BRANCH  41  54
ATOM     54  C   UNL A   1      39.453  31.598  35.389  1.00  0.00    -0.014 A 
ATOM     55  C   UNL A   1      38.479  31.071  36.251  1.00  0.00     0.009 A 
ATOM     56  C   UNL A   1      39.908  32.910  35.585  1.00  0.00     0.009 A 
ATOM     57  C   UNL A   1      37.936  31.864  37.261  1.00  0.00     0.001 A 
ATOM     58  C   UNL A   1      39.393  33.686  36.622  1.00  0.00     0.001 A 
ATOM     59  C   UNL A   1      38.398  33.167  37.449  1.00  0.00     0.000 A 
ENDBRANCH  41  54
ENDBRANCH  15  16
ENDBRANCH   8  10
ENDBRANCH   7   8
ENDBRANCH   6   7
ENDBRANCH   5   6
ENDBRANCH   4   5
ENDBRANCH   3   4
ENDBRANCH   2   3
ENDBRANCH   1   2
BRANCH   1  60
ATOM     60  C   UNL A   1      40.865  20.916  27.563  1.00  0.00     0.188 C 
BRANCH  60  61
ATOM     61  C   UNL A   1      40.115  21.858  26.586  1.00  0.00     0.188 C 
BRANCH  61  62
ATOM     62  O   UNL A   1      39.259  22.801  27.212  1.00  0.00    -0.376 OA
BRANCH  62  63
ATOM     63  C   UNL A   1      38.987  24.019  26.522  1.00  0.00     0.202 C 
BRANCH  63  64
ATOM     64  C   UNL A   1      37.539  24.443  26.181  1.00  0.00     0.261 C 
BRANCH  64  65
ATOM     65  O   UNL A   1      36.653  23.347  25.920  1.00  0.00    -0.463 OA
BRANCH  65  66
ATOM     66  C   UNL A   1      35.320  23.467  26.111  1.00  0.00     0.312 C 
ATOM     67  O   UNL A   1      34.774  23.448  27.205  1.00  0.00    -0.252 OA
BRANCH  66  68
ATOM     68  C   UNL A   1      34.613  23.792  24.776  1.00  0.00     0.124 C 
ATOM     69  C   UNL A   1      33.157  24.129  24.968  1.00  0.00    -0.014 C 
ATOM     70  C   UNL A   1      34.478  22.614  23.794  1.00  0.00     0.048 C 
ATOM     71  C   UNL A   1      32.371  23.094  24.634  1.00  0.00    -0.006 C 
ATOM     72  C   UNL A   1      33.218  21.930  24.267  1.00  0.00     0.106 C 
BRANCH  72  73
ATOM     73  N   UNL A   1      32.609  21.054  23.323  1.00  0.00    -0.350 N 
ATOM     74  C   UNL A   1      32.503  19.704  23.352  1.00  0.00     0.224 C 
ATOM     75  H   UNL A   1      32.206  21.493  22.540  1.00  0.00     0.164 HD
ATOM     76  O   UNL A   1      32.022  19.166  22.349  1.00  0.00    -0.275 OA
BRANCH  74  77
ATOM     77  C   UNL A   1      32.977  18.809  24.508  1.00  0.00     0.094 C 
ATOM     78  C   UNL A   1      34.440  18.823  24.973  1.00  0.00     0.030 C 
ATOM     79  C   UNL A   1      32.495  17.370  24.384  1.00  0.00     0.150 C 
ATOM     80  C   UNL A   1      35.161  17.527  24.592  1.00  0.00     0.138 C 
ATOM     81  S   UNL A   1      33.920  16.366  24.066  1.00  0.00     0.151 S 
ATOM     82  O   UNL A   1      34.033  16.183  22.642  1.00  0.00    -0.229 OA
ATOM     83  O   UNL A   1      33.925  15.241  24.984  1.00  0.00    -0.229 OA
ENDBRANCH  74  77
ENDBRANCH  72  73
ENDBRANCH  66  68
ENDBRANCH  65  66
ENDBRANCH  64  65
ENDBRANCH  63  64
ENDBRANCH  62  63
ENDBRANCH  61  62
ENDBRANCH  60  61
ENDBRANCH   1  60
TORSDOF 22
ENDMDL
MODEL 2
REMARK VINA RESULT:      -9.2      4.816      8.664
REMARK SMILES O=C(OCCOCCOCCOCCOC(=O)[C@@H]1C=C[C@@H](NC(=O)[C@@H]2CCS(=O)(=O)C2)C1)c1ccc(-c2c3nc(c(-c4ccccc4)c4ccc([nH]4)c(-c4ccccc4)c4nc(c(-c5ccccc5)c5ccc2[nH]5)C=C4)C=C3)cc1
REMARK SMILES IDX 9 1 8 2 7 3 6 4 5 5 4 6 3 7 2 8 1 9 33 10 34 11 80 12 35 13
REMARK SMILES IDX 79 14 36 15 37 16 38 17 73 18 39 19 78 20 72 21 74 22 40 23
REMARK SMILES IDX 77 24 71 25 70 26 41 28 63 29 48 30 62 31 49 32 52 33 61 34
REMARK SMILES IDX 75 35 50 36 51 37 60 39 76 40 53 41 42 42 43 43 47 44 44 45
REMARK SMILES IDX 46 46 45 47 64 48 65 49 69 50 66 51 68 52 67 53 54 54 55 55
REMARK SMILES IDX 59 56 56 57 58 58 57 59 10 60 11 61 12 62 13 63 14 64 15 65
REMARK SMILES IDX 16 66 17 67 18 68 19 69 32 70 20 71 21 72 22 73 23 74 24 76
REMARK SMILES IDX 25 77 26 78 31 79 27 80 28 81 29 82 30 83
REMARK H PARENT 74 27 52 38 22 75
REMARK Flexibility Score: inf
ROOT
ATOM      1  O   UNL A   1      38.641  22.755  26.284  1.00  0.00    -0.377 OA
ENDROOT
BRANCH   1   2
ATOM      2  C   UNL A   1      39.852  23.102  26.950  1.00  0.00     0.188 C 
BRANCH   2   3
ATOM      3  C   UNL A   1      41.050  22.266  26.520  1.00  0.00     0.188 C 
BRANCH   3   4
ATOM      4  O   UNL A   1      41.462  21.441  27.596  1.00  0.00    -0.376 OA
BRANCH   4   5
ATOM      5  C   UNL A   1      41.949  20.131  27.398  1.00  0.00     0.202 C 
BRANCH   5   6
ATOM      6  C   UNL A   1      41.716  19.472  26.050  1.00  0.00     0.261 C 
BRANCH   6   7
ATOM      7  O   UNL A   1      42.727  19.649  25.027  1.00  0.00    -0.460 OA
BRANCH   7   8
ATOM      8  C   UNL A   1      44.042  19.963  25.063  1.00  0.00     0.338 C 
ATOM      9  O   UNL A   1      44.886  19.084  24.914  1.00  0.00    -0.246 OA
BRANCH   8  10
ATOM     10  C   UNL A   1      44.505  21.354  25.240  1.00  0.00     0.060 A 
ATOM     11  C   UNL A   1      45.409  21.708  26.220  1.00  0.00     0.016 A 
ATOM     12  C   UNL A   1      44.133  22.338  24.326  1.00  0.00     0.016 A 
ATOM     13  C   UNL A   1      45.637  23.012  26.563  1.00  0.00     0.010 A 
ATOM     14  C   UNL A   1      44.561  23.657  24.513  1.00  0.00     0.010 A 
ATOM     15  C   UNL A   1      45.250  24.005  25.685  1.00  0.00    -0.014 A 
BRANCH  15  16
ATOM     16  C   UNL A   1      45.499  25.386  26.123  1.00  0.00     0.031 A 
ATOM     17  C   UNL A   1      44.390  26.096  26.831  1.00  0.00     0.074 A 
ATOM     18  C   UNL A   1      46.753  25.882  26.081  1.00  0.00     0.049 A 
ATOM     19  N   UNL A   1      44.347  27.322  27.272  1.00  0.00    -0.248 NA
ATOM     20  C   UNL A   1      43.164  25.318  27.092  1.00  0.00     0.031 C 
ATOM     21  C   UNL A   1      47.938  25.170  25.574  1.00  0.00     0.029 A 
ATOM     22  N   UNL A   1      47.259  27.069  26.530  1.00  0.00    -0.354 N 
ATOM     23  C   UNL A   1      43.080  27.471  27.819  1.00  0.00     0.074 A 
ATOM     24  C   UNL A   1      42.378  26.223  27.647  1.00  0.00     0.031 C 
ATOM     25  C   UNL A   1      49.031  25.916  25.792  1.00  0.00     0.029 A 
ATOM     26  C   UNL A   1      48.613  27.198  26.332  1.00  0.00     0.049 A 
ATOM     27  H   UNL A   1      46.706  27.766  26.954  1.00  0.00     0.167 HD
ATOM     28  C   UNL A   1      42.558  28.568  28.409  1.00  0.00     0.031 A 
ATOM     29  C   UNL A   1      49.410  28.266  26.512  1.00  0.00     0.031 A 
ATOM     30  C   UNL A   1      43.293  29.791  28.557  1.00  0.00     0.049 A 
ATOM     31  C   UNL A   1      48.762  29.518  27.029  1.00  0.00     0.074 A 
ATOM     32  C   UNL A   1      42.860  31.012  29.035  1.00  0.00     0.029 A 
ATOM     33  N   UNL A   1      44.635  29.934  28.228  1.00  0.00    -0.354 N 
ATOM     34  N   UNL A   1      47.526  29.702  27.432  1.00  0.00    -0.248 NA
ATOM     35  C   UNL A   1      49.607  30.714  27.100  1.00  0.00     0.031 C 
ATOM     36  C   UNL A   1      43.929  31.909  28.944  1.00  0.00     0.029 A 
ATOM     37  C   UNL A   1      45.045  31.229  28.477  1.00  0.00     0.049 A 
ATOM     38  H   UNL A   1      45.208  29.218  27.869  1.00  0.00     0.167 HD
ATOM     39  C   UNL A   1      47.447  31.030  27.820  1.00  0.00     0.074 A 
ATOM     40  C   UNL A   1      48.773  31.591  27.639  1.00  0.00     0.031 C 
ATOM     41  C   UNL A   1      46.381  31.733  28.276  1.00  0.00     0.031 A 
BRANCH  28  42
ATOM     42  C   UNL A   1      41.121  28.492  28.833  1.00  0.00    -0.014 A 
ATOM     43  C   UNL A   1      40.746  28.010  30.097  1.00  0.00     0.009 A 
ATOM     44  C   UNL A   1      40.119  28.862  27.924  1.00  0.00     0.009 A 
ATOM     45  C   UNL A   1      39.396  27.869  30.428  1.00  0.00     0.001 A 
ATOM     46  C   UNL A   1      38.772  28.749  28.267  1.00  0.00     0.001 A 
ATOM     47  C   UNL A   1      38.411  28.244  29.515  1.00  0.00     0.000 A 
ENDBRANCH  28  42
BRANCH  29  48
ATOM     48  C   UNL A   1      50.839  28.236  26.094  1.00  0.00    -0.014 A 
ATOM     49  C   UNL A   1      51.222  28.514  24.774  1.00  0.00     0.009 A 
ATOM     50  C   UNL A   1      51.836  27.872  27.017  1.00  0.00     0.009 A 
ATOM     51  C   UNL A   1      52.557  28.383  24.379  1.00  0.00     0.001 A 
ATOM     52  C   UNL A   1      53.175  27.781  26.632  1.00  0.00     0.001 A 
ATOM     53  C   UNL A   1      53.532  28.020  25.308  1.00  0.00     0.000 A 
ENDBRANCH  29  48
BRANCH  41  54
ATOM     54  C   UNL A   1      46.637  33.165  28.643  1.00  0.00    -0.014 A 
ATOM     55  C   UNL A   1      46.479  34.198  27.706  1.00  0.00     0.009 A 
ATOM     56  C   UNL A   1      47.017  33.479  29.956  1.00  0.00     0.009 A 
ATOM     57  C   UNL A   1      46.746  35.518  28.069  1.00  0.00     0.001 A 
ATOM     58  C   UNL A   1      47.243  34.804  30.325  1.00  0.00     0.001 A 
ATOM     59  C   UNL A   1      47.122  35.819  29.378  1.00  0.00     0.000 A 
ENDBRANCH  41  54
ENDBRANCH  15  16
ENDBRANCH   8  10
ENDBRANCH   7   8
ENDBRANCH   6   7
ENDBRANCH   5   6
ENDBRANCH   4   5
ENDBRANCH   3   4
ENDBRANCH   2   3
ENDBRANCH   1   2
BRANCH   1  60
ATOM     60  C   UNL A   1      38.605  21.531  25.553  1.00  0.00     0.188 C 
BRANCH  60  61
ATOM     61  C   UNL A   1      37.367  21.174  24.688  1.00  0.00     0.188 C 
BRANCH  61  62
ATOM     62  O   UNL A   1      36.263  20.661  25.417  1.00  0.00    -0.376 OA
BRANCH  62  63
ATOM     63  C   UNL A   1      35.592  19.515  24.898  1.00  0.00     0.202 C 
BRANCH  63  64
ATOM     64  C   UNL A   1      34.051  19.471  24.780  1.00  0.00     0.261 C 
BRANCH  64  65
ATOM     65  O   UNL A   1      33.376  20.485  25.536  1.00  0.00    -0.463 OA
BRANCH  65  66
ATOM     66  C   UNL A   1      32.460  21.293  24.956  1.00  0.00     0.312 C 
ATOM     67  O   UNL A   1      31.505  21.786  25.539  1.00  0.00    -0.252 OA
BRANCH  66  68
ATOM     68  C   UNL A   1      32.882  21.632  23.509  1.00  0.00     0.124 C 
ATOM     69  C   UNL A   1      34.081  22.545  23.461  1.00  0.00    -0.014 C 
ATOM     70  C   UNL A   1      31.879  22.482  22.708  1.00  0.00     0.048 C 
ATOM     71  C   UNL A   1      33.718  23.808  23.192  1.00  0.00    -0.006 C 
ATOM     72  C   UNL A   1      32.237  23.891  23.116  1.00  0.00     0.106 C 
BRANCH  72  73
ATOM     73  N   UNL A   1      31.765  24.916  22.248  1.00  0.00    -0.350 N 
ATOM     74  C   UNL A   1      31.390  26.184  22.544  1.00  0.00     0.224 C 
ATOM     75  H   UNL A   1      31.703  24.668  21.297  1.00  0.00     0.164 HD
ATOM     76  O   UNL A   1      30.908  26.847  21.619  1.00  0.00    -0.275 OA
BRANCH  74  77
ATOM     77  C   UNL A   1      31.478  26.825  23.938  1.00  0.00     0.094 C 
ATOM     78  C   UNL A   1      30.547  27.977  24.341  1.00  0.00     0.030 C 
ATOM     79  C   UNL A   1      32.906  27.152  24.354  1.00  0.00     0.150 C 
ATOM     80  C   UNL A   1      31.309  29.301  24.445  1.00  0.00     0.138 C 
ATOM     81  S   UNL A   1      33.045  28.918  24.398  1.00  0.00     0.151 S 
ATOM     82  O   UNL A   1      33.581  29.359  23.137  1.00  0.00    -0.229 OA
ATOM     83  O   UNL A   1      33.638  29.317  25.662  1.00  0.00    -0.229 OA
ENDBRANCH  74  77
ENDBRANCH  72  73
ENDBRANCH  66  68
ENDBRANCH  65  66
ENDBRANCH  64  65
ENDBRANCH  63  64
ENDBRANCH  62  63
ENDBRANCH  61  62
ENDBRANCH  60  61
ENDBRANCH   1  60
TORSDOF 22
ENDMDL
MODEL 3
REMARK VINA RESULT:      -9.2      2.342      3.895
REMARK SMILES O=C(OCCOCCOCCOCCOC(=O)[C@@H]1C=C[C@@H](NC(=O)[C@@H]2CCS(=O)(=O)C2)C1)c1ccc(-c2c3nc(c(-c4ccccc4)c4ccc([nH]4)c(-c4ccccc4)c4nc(c(-c5ccccc5)c5ccc2[nH]5)C=C4)C=C3)cc1
REMARK SMILES IDX 9 1 8 2 7 3 6 4 5 5 4 6 3 7 2 8 1 9 33 10 34 11 80 12 35 13
REMARK SMILES IDX 79 14 36 15 37 16 38 17 73 18 39 19 78 20 72 21 74 22 40 23
REMARK SMILES IDX 77 24 71 25 70 26 41 28 63 29 48 30 62 31 49 32 52 33 61 34
REMARK SMILES IDX 75 35 50 36 51 37 60 39 76 40 53 41 42 42 43 43 47 44 44 45
REMARK SMILES IDX 46 46 45 47 64 48 65 49 69 50 66 51 68 52 67 53 54 54 55 55
REMARK SMILES IDX 59 56 56 57 58 58 57 59 10 60 11 61 12 62 13 63 14 64 15 65
REMARK SMILES IDX 16 66 17 67 18 68 19 69 32 70 20 71 21 72 22 73 23 74 24 76
REMARK SMILES IDX 25 77 26 78 31 79 27 80 28 81 29 82 30 83
REMARK H PARENT 74 27 52 38 22 75
REMARK Flexibility Score: inf
ROOT
ATOM      1  O   UNL A   1      41.086  20.473  26.891  1.00  0.00    -0.377 OA
ENDROOT
BRANCH   1   2
ATOM      2  C   UNL A   1      42.293  20.504  26.136  1.00  0.00     0.188 C 
BRANCH   2   3
ATOM      3  C   UNL A   1      42.977  19.148  26.016  1.00  0.00     0.188 C 
BRANCH   3   4
ATOM      4  O   UNL A   1      44.315  19.330  25.587  1.00  0.00    -0.376 OA
BRANCH   4   5
ATOM      5  C   UNL A   1      44.717  20.452  24.829  1.00  0.00     0.202 C 
BRANCH   5   6
ATOM      6  C   UNL A   1      45.678  21.442  25.463  1.00  0.00     0.261 C 
BRANCH   6   7
ATOM      7  O   UNL A   1      45.120  22.642  26.053  1.00  0.00    -0.460 OA
BRANCH   7   8
ATOM      8  C   UNL A   1      44.319  23.625  25.582  1.00  0.00     0.338 C 
ATOM      9  O   UNL A   1      44.199  23.790  24.372  1.00  0.00    -0.246 OA
BRANCH   8  10
ATOM     10  C   UNL A   1      43.541  24.495  26.487  1.00  0.00     0.060 A 
ATOM     11  C   UNL A   1      43.687  25.867  26.492  1.00  0.00     0.016 A 
ATOM     12  C   UNL A   1      42.531  23.955  27.282  1.00  0.00     0.016 A 
ATOM     13  C   UNL A   1      43.180  26.649  27.492  1.00  0.00     0.010 A 
ATOM     14  C   UNL A   1      41.813  24.784  28.151  1.00  0.00     0.010 A 
ATOM     15  C   UNL A   1      42.199  26.124  28.311  1.00  0.00    -0.014 A 
BRANCH  15  16
ATOM     16  C   UNL A   1      41.714  27.005  29.383  1.00  0.00     0.031 A 
ATOM     17  C   UNL A   1      42.561  27.131  30.609  1.00  0.00     0.074 A 
ATOM     18  C   UNL A   1      40.670  27.826  29.149  1.00  0.00     0.049 A 
ATOM     19  N   UNL A   1      42.333  27.805  31.701  1.00  0.00    -0.248 NA
ATOM     20  C   UNL A   1      43.850  26.413  30.601  1.00  0.00     0.031 C 
ATOM     21  C   UNL A   1      39.902  27.896  27.894  1.00  0.00     0.029 A 
ATOM     22  N   UNL A   1      40.112  28.804  29.923  1.00  0.00    -0.354 N 
ATOM     23  C   UNL A   1      43.424  27.554  32.522  1.00  0.00     0.074 A 
ATOM     24  C   UNL A   1      44.309  26.661  31.815  1.00  0.00     0.031 C 
ATOM     25  C   UNL A   1      39.015  28.900  27.973  1.00  0.00     0.029 A 
ATOM     26  C   UNL A   1      39.065  29.454  29.314  1.00  0.00     0.049 A 
ATOM     27  H   UNL A   1      40.429  29.022  30.830  1.00  0.00     0.167 HD
ATOM     28  C   UNL A   1      43.652  28.034  33.763  1.00  0.00     0.031 A 
ATOM     29  C   UNL A   1      38.203  30.355  29.819  1.00  0.00     0.031 A 
ATOM     30  C   UNL A   1      42.742  28.920  34.430  1.00  0.00     0.049 A 
ATOM     31  C   UNL A   1      38.398  30.753  31.254  1.00  0.00     0.074 A 
ATOM     32  C   UNL A   1      42.789  29.400  35.723  1.00  0.00     0.029 A 
ATOM     33  N   UNL A   1      41.613  29.466  33.832  1.00  0.00    -0.354 N 
ATOM     34  N   UNL A   1      39.363  30.419  32.079  1.00  0.00    -0.248 NA
ATOM     35  C   UNL A   1      37.381  31.633  31.835  1.00  0.00     0.031 C 
ATOM     36  C   UNL A   1      41.656  30.195  35.924  1.00  0.00     0.029 A 
ATOM     37  C   UNL A   1      40.943  30.268  34.736  1.00  0.00     0.049 A 
ATOM     38  H   UNL A   1      41.333  29.305  32.903  1.00  0.00     0.167 HD
ATOM     39  C   UNL A   1      39.080  31.060  33.275  1.00  0.00     0.074 A 
ATOM     40  C   UNL A   1      37.872  31.833  33.049  1.00  0.00     0.031 C 
ATOM     41  C   UNL A   1      39.742  31.015  34.456  1.00  0.00     0.031 A 
BRANCH  28  42
ATOM     42  C   UNL A   1      44.873  27.527  34.473  1.00  0.00    -0.014 A 
ATOM     43  C   UNL A   1      44.918  26.244  35.043  1.00  0.00     0.009 A 
ATOM     44  C   UNL A   1      45.981  28.374  34.619  1.00  0.00     0.009 A 
ATOM     45  C   UNL A   1      46.037  25.834  35.773  1.00  0.00     0.001 A 
ATOM     46  C   UNL A   1      47.109  27.952  35.324  1.00  0.00     0.001 A 
ATOM     47  C   UNL A   1      47.132  26.686  35.908  1.00  0.00     0.000 A 
ENDBRANCH  28  42
BRANCH  29  48
ATOM     48  C   UNL A   1      37.038  30.832  29.023  1.00  0.00    -0.014 A 
ATOM     49  C   UNL A   1      36.940  32.163  28.593  1.00  0.00     0.009 A 
ATOM     50  C   UNL A   1      35.977  29.955  28.732  1.00  0.00     0.009 A 
ATOM     51  C   UNL A   1      35.792  32.614  27.934  1.00  0.00     0.001 A 
ATOM     52  C   UNL A   1      34.848  30.397  28.039  1.00  0.00     0.001 A 
ATOM     53  C   UNL A   1      34.750  31.731  27.655  1.00  0.00     0.000 A 
ENDBRANCH  29  48
BRANCH  41  54
ATOM     54  C   UNL A   1      39.186  31.860  35.564  1.00  0.00    -0.014 A 
ATOM     55  C   UNL A   1      39.589  33.193  35.737  1.00  0.00     0.009 A 
ATOM     56  C   UNL A   1      38.227  31.313  36.428  1.00  0.00     0.009 A 
ATOM     57  C   UNL A   1      39.072  33.948  36.789  1.00  0.00     0.001 A 
ATOM     58  C   UNL A   1      37.683  32.083  37.454  1.00  0.00     0.001 A 
ATOM     59  C   UNL A   1      38.117  33.395  37.642  1.00  0.00     0.000 A 
ENDBRANCH  41  54
ENDBRANCH  15  16
ENDBRANCH   8  10
ENDBRANCH   7   8
ENDBRANCH   6   7
ENDBRANCH   5   6
ENDBRANCH   4   5
ENDBRANCH   3   4
ENDBRANCH   2   3
ENDBRANCH   1   2
BRANCH   1  60
ATOM     60  C   UNL A   1      40.084  21.445  26.595  1.00  0.00     0.188 C 
BRANCH  60  61
ATOM     61  C   UNL A   1      38.869  21.069  25.708  1.00  0.00     0.188 C 
BRANCH  61  62
ATOM     62  O   UNL A   1      37.960  22.131  25.468  1.00  0.00    -0.376 OA
BRANCH  62  63
ATOM     63  C   UNL A   1      36.708  21.817  24.862  1.00  0.00     0.202 C 
BRANCH  63  64
ATOM     64  C   UNL A   1      35.371  22.085  25.592  1.00  0.00     0.261 C 
BRANCH  64  65
ATOM     65  O   UNL A   1      34.609  23.167  25.040  1.00  0.00    -0.463 OA
BRANCH  65  66
ATOM     66  C   UNL A   1      33.410  22.948  24.453  1.00  0.00     0.312 C 
ATOM     67  O   UNL A   1      33.259  22.680  23.270  1.00  0.00    -0.252 OA
BRANCH  66  68
ATOM     68  C   UNL A   1      32.289  22.922  25.516  1.00  0.00     0.124 C 
ATOM     69  C   UNL A   1      30.956  23.340  24.950  1.00  0.00    -0.014 C 
ATOM     70  C   UNL A   1      32.425  23.958  26.647  1.00  0.00     0.048 C 
ATOM     71  C   UNL A   1      30.658  24.603  25.291  1.00  0.00    -0.006 C 
ATOM     72  C   UNL A   1      31.795  25.191  26.046  1.00  0.00     0.106 C 
BRANCH  72  73
ATOM     73  N   UNL A   1      31.404  26.193  26.980  1.00  0.00    -0.350 N 
ATOM     74  C   UNL A   1      31.327  27.535  26.814  1.00  0.00     0.224 C 
ATOM     75  H   UNL A   1      31.152  25.863  27.872  1.00  0.00     0.164 HD
ATOM     76  O   UNL A   1      31.066  28.203  27.821  1.00  0.00    -0.275 OA
BRANCH  74  77
ATOM     77  C   UNL A   1      31.586  28.274  25.491  1.00  0.00     0.094 C 
ATOM     78  C   UNL A   1      30.979  27.775  24.172  1.00  0.00     0.030 C 
ATOM     79  C   UNL A   1      33.053  28.622  25.280  1.00  0.00     0.150 C 
ATOM     80  C   UNL A   1      32.051  27.187  23.252  1.00  0.00     0.138 C 
ATOM     81  S   UNL A   1      33.634  27.633  23.928  1.00  0.00     0.151 S 
ATOM     82  O   UNL A   1      34.254  26.452  24.470  1.00  0.00    -0.229 OA
ATOM     83  O   UNL A   1      34.319  28.486  22.974  1.00  0.00    -0.229 OA
ENDBRANCH  74  77
ENDBRANCH  72  73
ENDBRANCH  66  68
ENDBRANCH  65  66
ENDBRANCH  64  65
ENDBRANCH  63  64
ENDBRANCH  62  63
ENDBRANCH  61  62
ENDBRANCH  60  61
ENDBRANCH   1  60
TORSDOF 22
ENDMDL
