MODEL 1
REMARK VINA RESULT:     -10.0      0.000      0.000
REMARK SMILES O=C(OCCOCCOCCOCCOC(=O)[C@H]1C[NH2+]CCN1c1ncc(C(F)(F)F)cc1Cl)c1ccc(-c2c3nc(c(-c4ccccc4)c4ccc([nH]4)c(-c4ccccc4)c4nc(c(-c5ccccc5)c5ccc2[nH]5)C=C4)C=C3)cc1
REMARK SMILES IDX 9 1 8 2 7 3 6 4 5 5 4 6 3 7 2 8 1 9 35 10 36 11 82 12 37 13
REMARK SMILES IDX 81 14 38 15 39 16 40 17 75 18 41 19 80 20 74 21 76 22 42 23
REMARK SMILES IDX 79 24 73 25 72 26 43 28 65 29 50 30 64 31 51 32 54 33 63 34
REMARK SMILES IDX 77 35 52 36 53 37 62 39 78 40 55 41 44 42 45 43 49 44 46 45
REMARK SMILES IDX 48 46 47 47 66 48 67 49 71 50 68 51 70 52 69 53 56 54 57 55
REMARK SMILES IDX 61 56 58 57 60 58 59 59 10 60 11 61 12 62 13 63 14 64 15 65
REMARK SMILES IDX 16 66 17 67 18 68 19 69 23 70 20 71 22 72 21 73 24 76 25 77
REMARK SMILES IDX 33 78 26 79 32 80 34 81 27 82 28 83 29 84 30 85 31 86
REMARK H PARENT 76 27 54 38 20 74 20 75
REMARK Flexibility Score: inf
ROOT
ATOM      1  O   UNL A   1      42.088  20.117  26.952  1.00  0.00    -0.377 OA
ENDROOT
BRANCH   1   2
ATOM      2  C   UNL A   1      42.366  19.134  25.964  1.00  0.00     0.188 C 
BRANCH   2   3
ATOM      3  C   UNL A   1      43.810  19.074  25.507  1.00  0.00     0.188 C 
BRANCH   3   4
ATOM      4  O   UNL A   1      44.127  20.164  24.655  1.00  0.00    -0.376 OA
BRANCH   4   5
ATOM      5  C   UNL A   1      45.327  20.864  24.977  1.00  0.00     0.202 C 
BRANCH   5   6
ATOM      6  C   UNL A   1      45.480  22.203  24.261  1.00  0.00     0.261 C 
BRANCH   6   7
ATOM      7  O   UNL A   1      44.896  23.319  24.957  1.00  0.00    -0.460 OA
BRANCH   7   8
ATOM      8  C   UNL A   1      43.606  23.563  25.274  1.00  0.00     0.338 C 
ATOM      9  O   UNL A   1      42.734  22.988  24.608  1.00  0.00    -0.246 OA
BRANCH   8  10
ATOM     10  C   UNL A   1      43.133  24.514  26.328  1.00  0.00     0.060 A 
ATOM     11  C   UNL A   1      43.639  25.793  26.543  1.00  0.00     0.016 A 
ATOM     12  C   UNL A   1      42.015  24.130  27.090  1.00  0.00     0.016 A 
ATOM     13  C   UNL A   1      43.045  26.692  27.408  1.00  0.00     0.010 A 
ATOM     14  C   UNL A   1      41.431  25.008  28.011  1.00  0.00     0.010 A 
ATOM     15  C   UNL A   1      41.951  26.296  28.157  1.00  0.00    -0.014 A 
BRANCH  15  16
ATOM     16  C   UNL A   1      41.549  27.213  29.228  1.00  0.00     0.031 A 
ATOM     17  C   UNL A   1      42.412  27.248  30.449  1.00  0.00     0.074 A 
ATOM     18  C   UNL A   1      40.585  28.122  29.001  1.00  0.00     0.049 A 
ATOM     19  N   UNL A   1      42.257  27.926  31.550  1.00  0.00    -0.248 NA
ATOM     20  C   UNL A   1      43.639  26.427  30.411  1.00  0.00     0.031 C 
ATOM     21  C   UNL A   1      39.856  28.288  27.737  1.00  0.00     0.029 A 
ATOM     22  N   UNL A   1      40.081  29.102  29.808  1.00  0.00    -0.354 N 
ATOM     23  C   UNL A   1      43.335  27.576  32.351  1.00  0.00     0.074 A 
ATOM     24  C   UNL A   1      44.154  26.649  31.608  1.00  0.00     0.031 C 
ATOM     25  C   UNL A   1      38.991  29.308  27.863  1.00  0.00     0.029 A 
ATOM     26  C   UNL A   1      39.052  29.806  29.231  1.00  0.00     0.049 A 
ATOM     27  H   UNL A   1      40.421  29.286  30.713  1.00  0.00     0.167 HD
ATOM     28  C   UNL A   1      43.587  27.982  33.613  1.00  0.00     0.031 A 
ATOM     29  C   UNL A   1      38.221  30.705  29.788  1.00  0.00     0.031 A 
ATOM     30  C   UNL A   1      42.732  28.896  34.314  1.00  0.00     0.049 A 
ATOM     31  C   UNL A   1      38.433  31.021  31.246  1.00  0.00     0.074 A 
ATOM     32  C   UNL A   1      42.813  29.331  35.621  1.00  0.00     0.029 A 
ATOM     33  N   UNL A   1      41.625  29.511  33.745  1.00  0.00    -0.354 N 
ATOM     34  N   UNL A   1      39.397  30.624  32.044  1.00  0.00    -0.248 NA
ATOM     35  C   UNL A   1      37.436  31.887  31.885  1.00  0.00     0.031 C 
ATOM     36  C   UNL A   1      41.713  30.162  35.860  1.00  0.00     0.029 A 
ATOM     37  C   UNL A   1      40.990  30.298  34.683  1.00  0.00     0.049 A 
ATOM     38  H   UNL A   1      41.336  29.403  32.809  1.00  0.00     0.167 HD
ATOM     39  C   UNL A   1      39.133  31.202  33.277  1.00  0.00     0.074 A 
ATOM     40  C   UNL A   1      37.935  32.003  33.108  1.00  0.00     0.031 C 
ATOM     41  C   UNL A   1      39.803  31.081  34.450  1.00  0.00     0.031 A 
BRANCH  28  42
ATOM     42  C   UNL A   1      44.743  27.344  34.324  1.00  0.00    -0.014 A 
ATOM     43  C   UNL A   1      44.599  26.172  35.082  1.00  0.00     0.009 A 
ATOM     44  C   UNL A   1      46.004  27.956  34.249  1.00  0.00     0.009 A 
ATOM     45  C   UNL A   1      45.695  25.640  35.769  1.00  0.00     0.001 A 
ATOM     46  C   UNL A   1      47.100  27.410  34.916  1.00  0.00     0.001 A 
ATOM     47  C   UNL A   1      46.943  26.256  35.682  1.00  0.00     0.000 A 
ENDBRANCH  28  42
BRANCH  29  48
ATOM     48  C   UNL A   1      37.063  31.259  29.032  1.00  0.00    -0.014 A 
ATOM     49  C   UNL A   1      37.046  32.593  28.601  1.00  0.00     0.009 A 
ATOM     50  C   UNL A   1      35.928  30.464  28.797  1.00  0.00     0.009 A 
ATOM     51  C   UNL A   1      35.904  33.129  27.993  1.00  0.00     0.001 A 
ATOM     52  C   UNL A   1      34.802  30.989  28.157  1.00  0.00     0.001 A 
ATOM     53  C   UNL A   1      34.785  32.327  27.772  1.00  0.00     0.000 A 
ENDBRANCH  29  48
BRANCH  41  54
ATOM     54  C   UNL A   1      39.268  31.861  35.613  1.00  0.00    -0.014 A 
ATOM     55  C   UNL A   1      39.739  33.149  35.900  1.00  0.00     0.009 A 
ATOM     56  C   UNL A   1      38.231  31.316  36.386  1.00  0.00     0.009 A 
ATOM     57  C   UNL A   1      39.200  33.868  36.967  1.00  0.00     0.001 A 
ATOM     58  C   UNL A   1      37.671  32.051  37.427  1.00  0.00     0.001 A 
ATOM     59  C   UNL A   1      38.162  33.322  37.723  1.00  0.00     0.000 A 
ENDBRANCH  41  54
ENDBRANCH  15  16
ENDBRANCH   8  10
ENDBRANCH   7   8
ENDBRANCH   6   7
ENDBRANCH   5   6
ENDBRANCH   4   5
ENDBRANCH   3   4
ENDBRANCH   2   3
ENDBRANCH   1   2
BRANCH   1  60
ATOM     60  C   UNL A   1      40.858  20.843  26.930  1.00  0.00     0.188 C 
BRANCH  60  61
ATOM     61  C   UNL A   1      39.879  20.634  25.778  1.00  0.00     0.188 C 
BRANCH  61  62
ATOM     62  O   UNL A   1      38.708  21.411  25.903  1.00  0.00    -0.376 OA
BRANCH  62  63
ATOM     63  C   UNL A   1      37.663  21.087  25.004  1.00  0.00     0.202 C 
BRANCH  63  64
ATOM     64  C   UNL A   1      36.399  21.980  24.885  1.00  0.00     0.261 C 
BRANCH  64  65
ATOM     65  O   UNL A   1      36.084  22.650  23.647  1.00  0.00    -0.462 OA
BRANCH  65  66
ATOM     66  C   UNL A   1      34.801  23.057  23.444  1.00  0.00     0.334 C 
ATOM     67  O   UNL A   1      34.404  23.474  22.356  1.00  0.00    -0.250 OA
BRANCH  66  68
ATOM     68  C   UNL A   1      33.868  22.978  24.709  1.00  0.00     0.249 C 
ATOM     69  C   UNL A   1      33.343  24.238  25.450  1.00  0.00     0.298 C 
ATOM     70  N   UNL A   1      32.654  22.208  24.398  1.00  0.00    -0.331 N 
ATOM     71  N   UNL A   1      32.446  25.093  24.649  1.00  0.00    -0.343 N 
ATOM     72  C   UNL A   1      31.718  22.884  23.503  1.00  0.00     0.180 C 
ATOM     73  C   UNL A   1      31.341  24.274  24.108  1.00  0.00     0.282 C 
ATOM     74  H   UNL A   1      32.970  25.510  23.879  1.00  0.00     0.346 HD
ATOM     75  H   UNL A   1      32.065  25.834  25.238  1.00  0.00     0.346 HD
BRANCH  70  76
ATOM     76  C   UNL A   1      32.745  20.846  24.536  1.00  0.00     0.148 A 
ATOM     77  N   UNL A   1      32.389  20.088  23.477  1.00  0.00    -0.237 NA
ATOM     78  C   UNL A   1      33.272  20.261  25.707  1.00  0.00     0.084 A 
ATOM     79  C   UNL A   1      32.611  18.752  23.552  1.00  0.00     0.126 A 
ATOM     80  C   UNL A   1      33.472  18.887  25.763  1.00  0.00     0.039 A 
ATOM     81  Cl  UNL A   1      33.659  21.169  27.131  1.00  0.00    -0.080 Cl
ATOM     82  C   UNL A   1      33.141  18.106  24.660  1.00  0.00     0.075 A 
BRANCH  82  83
ATOM     83  C   UNL A   1      33.335  16.625  24.655  1.00  0.00     0.417 C 
ATOM     84  F   UNL A   1      32.157  15.947  24.697  1.00  0.00    -0.166 F 
ATOM     85  F   UNL A   1      33.986  16.186  23.545  1.00  0.00    -0.166 F 
ATOM     86  F   UNL A   1      34.061  16.175  25.716  1.00  0.00    -0.166 F 
ENDBRANCH  82  83
ENDBRANCH  70  76
ENDBRANCH  66  68
ENDBRANCH  65  66
ENDBRANCH  64  65
ENDBRANCH  63  64
ENDBRANCH  62  63
ENDBRANCH  61  62
ENDBRANCH  60  61
ENDBRANCH   1  60
TORSDOF 22
ENDMDL
MODEL 2
REMARK VINA RESULT:      -9.9      2.072      3.309
REMARK SMILES O=C(OCCOCCOCCOCCOC(=O)[C@H]1C[NH2+]CCN1c1ncc(C(F)(F)F)cc1Cl)c1ccc(-c2c3nc(c(-c4ccccc4)c4ccc([nH]4)c(-c4ccccc4)c4nc(c(-c5ccccc5)c5ccc2[nH]5)C=C4)C=C3)cc1
REMARK SMILES IDX 9 1 8 2 7 3 6 4 5 5 4 6 3 7 2 8 1 9 35 10 36 11 82 12 37 13
REMARK SMILES IDX 81 14 38 15 39 16 40 17 75 18 41 19 80 20 74 21 76 22 42 23
REMARK SMILES IDX 79 24 73 25 72 26 43 28 65 29 50 30 64 31 51 32 54 33 63 34
REMARK SMILES IDX 77 35 52 36 53 37 62 39 78 40 55 41 44 42 45 43 49 44 46 45
REMARK SMILES IDX 48 46 47 47 66 48 67 49 71 50 68 51 70 52 69 53 56 54 57 55
REMARK SMILES IDX 61 56 58 57 60 58 59 59 10 60 11 61 12 62 13 63 14 64 15 65
REMARK SMILES IDX 16 66 17 67 18 68 19 69 23 70 20 71 22 72 21 73 24 76 25 77
REMARK SMILES IDX 33 78 26 79 32 80 34 81 27 82 28 83 29 84 30 85 31 86
REMARK H PARENT 76 27 54 38 20 74 20 75
REMARK Flexibility Score: inf
ROOT
ATOM      1  O   UNL A   1      37.848  22.726  25.867  1.00  0.00    -0.377 OA
ENDROOT
BRANCH   1   2
ATOM      2  C   UNL A   1      38.597  21.518  25.855  1.00  0.00     0.188 C 
BRANCH   2   3
ATOM      3  C   UNL A   1      40.021  21.641  26.356  1.00  0.00     0.188 C 
BRANCH   3   4
ATOM      4  O   UNL A   1      40.924  20.926  25.526  1.00  0.00    -0.376 OA
BRANCH   4   5
ATOM      5  C   UNL A   1      42.118  20.478  26.163  1.00  0.00     0.202 C 
BRANCH   5   6
ATOM      6  C   UNL A   1      43.346  21.333  25.861  1.00  0.00     0.261 C 
BRANCH   6   7
ATOM      7  O   UNL A   1      43.083  22.474  25.024  1.00  0.00    -0.460 OA
BRANCH   7   8
ATOM      8  C   UNL A   1      43.440  23.767  25.184  1.00  0.00     0.338 C 
ATOM      9  O   UNL A   1      44.268  24.235  24.390  1.00  0.00    -0.246 OA
BRANCH   8  10
ATOM     10  C   UNL A   1      42.961  24.674  26.273  1.00  0.00     0.060 A 
ATOM     11  C   UNL A   1      42.188  24.284  27.363  1.00  0.00     0.016 A 
ATOM     12  C   UNL A   1      43.419  26.004  26.255  1.00  0.00     0.016 A 
ATOM     13  C   UNL A   1      41.929  25.124  28.429  1.00  0.00     0.010 A 
ATOM     14  C   UNL A   1      43.122  26.887  27.300  1.00  0.00     0.010 A 
ATOM     15  C   UNL A   1      42.380  26.432  28.393  1.00  0.00    -0.014 A 
BRANCH  15  16
ATOM     16  C   UNL A   1      41.843  27.318  29.429  1.00  0.00     0.031 A 
ATOM     17  C   UNL A   1      42.683  27.519  30.650  1.00  0.00     0.074 A 
ATOM     18  C   UNL A   1      40.761  28.072  29.167  1.00  0.00     0.049 A 
ATOM     19  N   UNL A   1      42.424  28.207  31.725  1.00  0.00    -0.248 NA
ATOM     20  C   UNL A   1      44.014  26.881  30.645  1.00  0.00     0.031 C 
ATOM     21  C   UNL A   1      40.026  28.087  27.896  1.00  0.00     0.029 A 
ATOM     22  N   UNL A   1      40.116  28.998  29.937  1.00  0.00    -0.354 N 
ATOM     23  C   UNL A   1      43.534  28.044  32.542  1.00  0.00     0.074 A 
ATOM     24  C   UNL A   1      44.484  27.218  31.835  1.00  0.00     0.031 C 
ATOM     25  C   UNL A   1      39.023  28.977  27.983  1.00  0.00     0.029 A 
ATOM     26  C   UNL A   1      39.001  29.527  29.333  1.00  0.00     0.049 A 
ATOM     27  H   UNL A   1      40.419  29.260  30.836  1.00  0.00     0.167 HD
ATOM     28  C   UNL A   1      43.716  28.525  33.789  1.00  0.00     0.031 A 
ATOM     29  C   UNL A   1      38.046  30.317  29.855  1.00  0.00     0.031 A 
ATOM     30  C   UNL A   1      42.734  29.332  34.454  1.00  0.00     0.049 A 
ATOM     31  C   UNL A   1      38.199  30.711  31.300  1.00  0.00     0.074 A 
ATOM     32  C   UNL A   1      42.742  29.820  35.745  1.00  0.00     0.029 A 
ATOM     33  N   UNL A   1      41.555  29.762  33.860  1.00  0.00    -0.354 N 
ATOM     34  N   UNL A   1      39.204  30.484  32.115  1.00  0.00    -0.248 NA
ATOM     35  C   UNL A   1      37.085  31.447  31.906  1.00  0.00     0.031 C 
ATOM     36  C   UNL A   1      41.533  30.492  35.952  1.00  0.00     0.029 A 
ATOM     37  C   UNL A   1      40.807  30.482  34.768  1.00  0.00     0.049 A 
ATOM     38  H   UNL A   1      41.292  29.580  32.928  1.00  0.00     0.167 HD
ATOM     39  C   UNL A   1      38.851  31.061  33.326  1.00  0.00     0.074 A 
ATOM     40  C   UNL A   1      37.552  31.676  33.125  1.00  0.00     0.031 C 
ATOM     41  C   UNL A   1      39.522  31.079  34.504  1.00  0.00     0.031 A 
BRANCH  28  42
ATOM     42  C   UNL A   1      44.946  28.084  34.525  1.00  0.00    -0.014 A 
ATOM     43  C   UNL A   1      46.128  28.839  34.525  1.00  0.00     0.009 A 
ATOM     44  C   UNL A   1      44.919  26.861  35.215  1.00  0.00     0.009 A 
ATOM     45  C   UNL A   1      47.266  28.365  35.184  1.00  0.00     0.001 A 
ATOM     46  C   UNL A   1      46.049  26.401  35.891  1.00  0.00     0.001 A 
ATOM     47  C   UNL A   1      47.224  27.150  35.869  1.00  0.00     0.000 A 
ENDBRANCH  28  42
BRANCH  29  48
ATOM     48  C   UNL A   1      36.827  30.673  29.077  1.00  0.00    -0.014 A 
ATOM     49  C   UNL A   1      35.851  29.714  28.771  1.00  0.00     0.009 A 
ATOM     50  C   UNL A   1      36.668  31.976  28.571  1.00  0.00     0.009 A 
ATOM     51  C   UNL A   1      34.770  30.038  27.943  1.00  0.00     0.001 A 
ATOM     52  C   UNL A   1      35.569  32.308  27.774  1.00  0.00     0.001 A 
ATOM     53  C   UNL A   1      34.630  31.334  27.447  1.00  0.00     0.000 A 
ENDBRANCH  29  48
BRANCH  41  54
ATOM     54  C   UNL A   1      38.872  31.815  35.637  1.00  0.00    -0.014 A 
ATOM     55  C   UNL A   1      38.206  31.127  36.660  1.00  0.00     0.009 A 
ATOM     56  C   UNL A   1      38.989  33.211  35.705  1.00  0.00     0.009 A 
ATOM     57  C   UNL A   1      37.638  31.833  37.721  1.00  0.00     0.001 A 
ATOM     58  C   UNL A   1      38.453  33.909  36.784  1.00  0.00     0.001 A 
ATOM     59  C   UNL A   1      37.770  33.220  37.786  1.00  0.00     0.000 A 
ENDBRANCH  41  54
ENDBRANCH  15  16
ENDBRANCH   8  10
ENDBRANCH   7   8
ENDBRANCH   6   7
ENDBRANCH   5   6
ENDBRANCH   4   5
ENDBRANCH   3   4
ENDBRANCH   2   3
ENDBRANCH   1   2
BRANCH   1  60
ATOM     60  C   UNL A   1      36.477  22.735  25.467  1.00  0.00     0.188 C 
BRANCH  60  61
ATOM     61  C   UNL A   1      36.089  22.221  24.083  1.00  0.00     0.188 C 
BRANCH  61  62
ATOM     62  O   UNL A   1      34.790  22.612  23.695  1.00  0.00    -0.376 OA
BRANCH  62  63
ATOM     63  C   UNL A   1      34.729  23.651  22.734  1.00  0.00     0.202 C 
BRANCH  63  64
ATOM     64  C   UNL A   1      33.409  23.976  21.985  1.00  0.00     0.261 C 
BRANCH  64  65
ATOM     65  O   UNL A   1      33.320  25.123  21.114  1.00  0.00    -0.462 OA
BRANCH  65  66
ATOM     66  C   UNL A   1      32.431  26.104  21.430  1.00  0.00     0.334 C 
ATOM     67  O   UNL A   1      31.405  26.301  20.780  1.00  0.00    -0.250 OA
BRANCH  66  68
ATOM     68  C   UNL A   1      32.823  26.983  22.676  1.00  0.00     0.249 C 
ATOM     69  C   UNL A   1      33.045  28.517  22.588  1.00  0.00     0.298 C 
ATOM     70  N   UNL A   1      31.827  26.821  23.746  1.00  0.00    -0.331 N 
ATOM     71  N   UNL A   1      31.845  29.293  22.222  1.00  0.00    -0.343 N 
ATOM     72  C   UNL A   1      30.531  27.436  23.468  1.00  0.00     0.180 C 
ATOM     73  C   UNL A   1      30.740  28.951  23.142  1.00  0.00     0.282 C 
ATOM     74  H   UNL A   1      31.573  29.070  21.264  1.00  0.00     0.346 HD
ATOM     75  H   UNL A   1      32.049  30.291  22.291  1.00  0.00     0.346 HD
BRANCH  70  76
ATOM     76  C   UNL A   1      32.012  25.760  24.595  1.00  0.00     0.148 A 
ATOM     77  N   UNL A   1      31.210  24.686  24.434  1.00  0.00    -0.237 NA
ATOM     78  C   UNL A   1      33.057  25.753  25.544  1.00  0.00     0.084 A 
ATOM     79  C   UNL A   1      31.479  23.579  25.170  1.00  0.00     0.126 A 
ATOM     80  C   UNL A   1      33.298  24.612  26.298  1.00  0.00     0.039 A 
ATOM     81  Cl  UNL A   1      34.058  27.131  25.863  1.00  0.00    -0.080 Cl
ATOM     82  C   UNL A   1      32.497  23.489  26.108  1.00  0.00     0.075 A 
BRANCH  82  83
ATOM     83  C   UNL A   1      32.706  22.231  26.884  1.00  0.00     0.417 C 
ATOM     84  F   UNL A   1      33.947  21.705  26.698  1.00  0.00    -0.166 F 
ATOM     85  F   UNL A   1      32.568  22.413  28.224  1.00  0.00    -0.166 F 
ATOM     86  F   UNL A   1      31.831  21.242  26.549  1.00  0.00    -0.166 F 
ENDBRANCH  82  83
ENDBRANCH  70  76
ENDBRANCH  66  68
ENDBRANCH  65  66
ENDBRANCH  64  65
ENDBRANCH  63  64
ENDBRANCH  62  63
ENDBRANCH  61  62
ENDBRANCH  60  61
ENDBRANCH   1  60
TORSDOF 22
ENDMDL
MODEL 3
REMARK VINA RESULT:      -9.9      3.399      4.620
REMARK SMILES O=C(OCCOCCOCCOCCOC(=O)[C@H]1C[NH2+]CCN1c1ncc(C(F)(F)F)cc1Cl)c1ccc(-c2c3nc(c(-c4ccccc4)c4ccc([nH]4)c(-c4ccccc4)c4nc(c(-c5ccccc5)c5ccc2[nH]5)C=C4)C=C3)cc1
REMARK SMILES IDX 9 1 8 2 7 3 6 4 5 5 4 6 3 7 2 8 1 9 35 10 36 11 82 12 37 13
REMARK SMILES IDX 81 14 38 15 39 16 40 17 75 18 41 19 80 20 74 21 76 22 42 23
REMARK SMILES IDX 79 24 73 25 72 26 43 28 65 29 50 30 64 31 51 32 54 33 63 34
REMARK SMILES IDX 77 35 52 36 53 37 62 39 78 40 55 41 44 42 45 43 49 44 46 45
REMARK SMILES IDX 48 46 47 47 66 48 67 49 71 50 68 51 70 52 69 53 56 54 57 55
REMARK SMILES IDX 61 56 58 57 60 58 59 59 10 60 11 61 12 62 13 63 14 64 15 65
REMARK SMILES IDX 16 66 17 67 18 68 19 69 23 70 20 71 22 72 21 73 24 76 25 77
REMARK SMILES IDX 33 78 26 79 32 80 34 81 27 82 28 83 29 84 30 85 31 86
REMARK H PARENT 76 27 54 38 20 74 20 75
REMARK Flexibility Score: inf
ROOT
ATOM      1  O   UNL A   1      37.998  21.415  25.911  1.00  0.00    -0.377 OA
ENDROOT
BRANCH   1   2
ATOM      2  C   UNL A   1      39.400  21.178  25.909  1.00  0.00     0.188 C 
BRANCH   2   3
ATOM      3  C   UNL A   1      39.804  19.721  25.828  1.00  0.00     0.188 C 
BRANCH   3   4
ATOM      4  O   UNL A   1      41.214  19.580  25.734  1.00  0.00    -0.376 OA
BRANCH   4   5
ATOM      5  C   UNL A   1      41.974  20.659  26.274  1.00  0.00     0.202 C 
BRANCH   5   6
ATOM      6  C   UNL A   1      43.349  20.835  25.636  1.00  0.00     0.261 C 
BRANCH   6   7
ATOM      7  O   UNL A   1      44.002  22.074  25.964  1.00  0.00    -0.460 OA
BRANCH   7   8
ATOM      8  C   UNL A   1      43.644  23.345  25.677  1.00  0.00     0.338 C 
ATOM      9  O   UNL A   1      43.753  23.719  24.500  1.00  0.00    -0.246 OA
BRANCH   8  10
ATOM     10  C   UNL A   1      43.177  24.364  26.667  1.00  0.00     0.060 A 
ATOM     11  C   UNL A   1      43.633  25.677  26.745  1.00  0.00     0.016 A 
ATOM     12  C   UNL A   1      42.117  24.002  27.517  1.00  0.00     0.016 A 
ATOM     13  C   UNL A   1      43.039  26.624  27.559  1.00  0.00     0.010 A 
ATOM     14  C   UNL A   1      41.536  24.932  28.387  1.00  0.00     0.010 A 
ATOM     15  C   UNL A   1      42.001  26.249  28.395  1.00  0.00    -0.014 A 
BRANCH  15  16
ATOM     16  C   UNL A   1      41.608  27.239  29.402  1.00  0.00     0.031 A 
ATOM     17  C   UNL A   1      42.498  27.380  30.596  1.00  0.00     0.074 A 
ATOM     18  C   UNL A   1      40.624  28.114  29.129  1.00  0.00     0.049 A 
ATOM     19  N   UNL A   1      42.356  28.139  31.645  1.00  0.00    -0.248 NA
ATOM     20  C   UNL A   1      43.737  26.577  30.591  1.00  0.00     0.031 C 
ATOM     21  C   UNL A   1      39.865  28.171  27.874  1.00  0.00     0.029 A 
ATOM     22  N   UNL A   1      40.123  29.145  29.871  1.00  0.00    -0.354 N 
ATOM     23  C   UNL A   1      43.457  27.867  32.445  1.00  0.00     0.074 A 
ATOM     24  C   UNL A   1      44.275  26.899  31.756  1.00  0.00     0.031 C 
ATOM     25  C   UNL A   1      38.986  29.185  27.942  1.00  0.00     0.029 A 
ATOM     26  C   UNL A   1      39.069  29.787  29.267  1.00  0.00     0.049 A 
ATOM     27  H   UNL A   1      40.479  29.402  30.751  1.00  0.00     0.167 HD
ATOM     28  C   UNL A   1      43.731  28.372  33.667  1.00  0.00     0.031 A 
ATOM     29  C   UNL A   1      38.235  30.714  29.773  1.00  0.00     0.031 A 
ATOM     30  C   UNL A   1      42.876  29.325  34.316  1.00  0.00     0.049 A 
ATOM     31  C   UNL A   1      38.474  31.143  31.197  1.00  0.00     0.074 A 
ATOM     32  C   UNL A   1      42.979  29.859  35.583  1.00  0.00     0.029 A 
ATOM     33  N   UNL A   1      41.747  29.877  33.727  1.00  0.00    -0.354 N 
ATOM     34  N   UNL A   1      39.463  30.823  32.000  1.00  0.00    -0.248 NA
ATOM     35  C   UNL A   1      37.478  32.041  31.792  1.00  0.00     0.031 C 
ATOM     36  C   UNL A   1      41.872  30.689  35.785  1.00  0.00     0.029 A 
ATOM     37  C   UNL A   1      41.119  30.724  34.618  1.00  0.00     0.049 A 
ATOM     38  H   UNL A   1      41.439  29.693  32.810  1.00  0.00     0.167 HD
ATOM     39  C   UNL A   1      39.217  31.489  33.191  1.00  0.00     0.074 A 
ATOM     40  C   UNL A   1      38.002  32.257  32.990  1.00  0.00     0.031 C 
ATOM     41  C   UNL A   1      39.915  31.469  34.354  1.00  0.00     0.031 A 
BRANCH  28  42
ATOM     42  C   UNL A   1      44.913  27.808  34.396  1.00  0.00    -0.014 A 
ATOM     43  C   UNL A   1      46.201  28.345  34.261  1.00  0.00     0.009 A 
ATOM     44  C   UNL A   1      44.726  26.687  35.221  1.00  0.00     0.009 A 
ATOM     45  C   UNL A   1      47.283  27.756  34.922  1.00  0.00     0.001 A 
ATOM     46  C   UNL A   1      45.803  26.115  35.898  1.00  0.00     0.001 A 
ATOM     47  C   UNL A   1      47.082  26.645  35.742  1.00  0.00     0.000 A 
ENDBRANCH  28  42
BRANCH  29  48
ATOM     48  C   UNL A   1      37.052  31.191  29.005  1.00  0.00    -0.014 A 
ATOM     49  C   UNL A   1      36.946  32.524  28.583  1.00  0.00     0.009 A 
ATOM     50  C   UNL A   1      35.979  30.319  28.746  1.00  0.00     0.009 A 
ATOM     51  C   UNL A   1      35.778  32.983  27.962  1.00  0.00     0.001 A 
ATOM     52  C   UNL A   1      34.828  30.769  28.094  1.00  0.00     0.001 A 
ATOM     53  C   UNL A   1      34.722  32.105  27.719  1.00  0.00     0.000 A 
ENDBRANCH  29  48
BRANCH  41  54
ATOM     54  C   UNL A   1      39.393  32.327  35.466  1.00  0.00    -0.014 A 
ATOM     55  C   UNL A   1      39.832  33.649  35.630  1.00  0.00     0.009 A 
ATOM     56  C   UNL A   1      38.400  31.819  36.317  1.00  0.00     0.009 A 
ATOM     57  C   UNL A   1      39.305  34.438  36.652  1.00  0.00     0.001 A 
ATOM     58  C   UNL A   1      37.850  32.622  37.313  1.00  0.00     0.001 A 
ATOM     59  C   UNL A   1      38.310  33.927  37.485  1.00  0.00     0.000 A 
ENDBRANCH  41  54
ENDBRANCH  15  16
ENDBRANCH   8  10
ENDBRANCH   7   8
ENDBRANCH   6   7
ENDBRANCH   5   6
ENDBRANCH   4   5
ENDBRANCH   3   4
ENDBRANCH   2   3
ENDBRANCH   1   2
BRANCH   1  60
ATOM     60  C   UNL A   1      37.179  20.939  24.843  1.00  0.00     0.188 C 
BRANCH  60  61
ATOM     61  C   UNL A   1      36.031  21.803  24.327  1.00  0.00     0.188 C 
BRANCH  61  62
ATOM     62  O   UNL A   1      34.823  21.584  25.022  1.00  0.00    -0.376 OA
BRANCH  62  63
ATOM     63  C   UNL A   1      33.744  21.117  24.232  1.00  0.00     0.202 C 
BRANCH  63  64
ATOM     64  C   UNL A   1      32.639  22.085  23.730  1.00  0.00     0.261 C 
BRANCH  64  65
ATOM     65  O   UNL A   1      31.680  22.649  24.648  1.00  0.00    -0.462 OA
BRANCH  65  66
ATOM     66  C   UNL A   1      31.224  23.909  24.409  1.00  0.00     0.334 C 
ATOM     67  O   UNL A   1      30.470  24.172  23.473  1.00  0.00    -0.250 OA
BRANCH  66  68
ATOM     68  C   UNL A   1      31.753  25.010  25.402  1.00  0.00     0.249 C 
ATOM     69  C   UNL A   1      32.665  24.683  26.615  1.00  0.00     0.298 C 
ATOM     70  N   UNL A   1      32.489  26.049  24.664  1.00  0.00    -0.331 N 
ATOM     71  N   UNL A   1      33.992  24.144  26.260  1.00  0.00    -0.343 N 
ATOM     72  C   UNL A   1      33.781  25.619  24.137  1.00  0.00     0.180 C 
ATOM     73  C   UNL A   1      34.653  25.060  25.308  1.00  0.00     0.282 C 
ATOM     74  H   UNL A   1      33.883  23.225  25.831  1.00  0.00     0.346 HD
ATOM     75  H   UNL A   1      34.562  24.059  27.103  1.00  0.00     0.346 HD
BRANCH  70  76
ATOM     76  C   UNL A   1      31.737  27.066  24.134  1.00  0.00     0.148 A 
ATOM     77  N   UNL A   1      31.271  26.907  22.877  1.00  0.00    -0.237 NA
ATOM     78  C   UNL A   1      31.391  28.199  24.900  1.00  0.00     0.084 A 
ATOM     79  C   UNL A   1      30.411  27.839  22.397  1.00  0.00     0.126 A 
ATOM     80  C   UNL A   1      30.523  29.149  24.377  1.00  0.00     0.039 A 
ATOM     81  Cl  UNL A   1      32.031  28.508  26.481  1.00  0.00    -0.080 Cl
ATOM     82  C   UNL A   1      30.010  28.969  23.096  1.00  0.00     0.075 A 
BRANCH  82  83
ATOM     83  C   UNL A   1      29.069  29.950  22.477  1.00  0.00     0.417 C 
ATOM     84  F   UNL A   1      28.269  30.553  23.396  1.00  0.00    -0.166 F 
ATOM     85  F   UNL A   1      29.715  30.950  21.820  1.00  0.00    -0.166 F 
ATOM     86  F   UNL A   1      28.229  29.386  21.565  1.00  0.00    -0.166 F 
ENDBRANCH  82  83
ENDBRANCH  70  76
ENDBRANCH  66  68
ENDBRANCH  65  66
ENDBRANCH  64  65
ENDBRANCH  63  64
ENDBRANCH  62  63
ENDBRANCH  61  62
ENDBRANCH  60  61
ENDBRANCH   1  60
TORSDOF 22
ENDMDL
