MODEL 1
REMARK VINA RESULT:     -10.0      0.000      0.000
REMARK SMILES O=C(OCCOCCOCCOCCOC(=O)c1cc(S(=O)(=O)NNC(=O)[C@H]2C=C(c3ccccc3)N=N2)ccc1F)c1ccc(-c2c3nc(c(-c4ccccc4)c4ccc([nH]4)c(-c4ccccc4)c4nc(c(-c5ccccc5)c5ccc2[nH]5)C=C4)C=C3)cc1
REMARK SMILES IDX 10 1 9 2 8 3 7 4 6 5 5 6 4 7 3 8 2 9 1 10 43 11 44 12 90 13
REMARK SMILES IDX 45 14 89 15 46 16 47 17 48 18 83 19 49 20 88 21 82 22 84 23
REMARK SMILES IDX 50 24 87 25 81 26 80 27 51 29 73 30 58 31 72 32 59 33 62 34
REMARK SMILES IDX 71 35 85 36 60 37 61 38 70 40 86 41 63 42 52 43 53 44 57 45
REMARK SMILES IDX 54 46 56 47 55 48 74 49 75 50 79 51 76 52 78 53 77 54 64 55
REMARK SMILES IDX 65 56 69 57 66 58 68 59 67 60 11 61 12 62 13 63 14 64 15 65
REMARK SMILES IDX 16 66 17 67 18 68 19 69 41 70 20 71 40 72 42 73 39 74 21 75
REMARK SMILES IDX 22 76 23 77 24 78 25 80 26 81 27 83 28 84 29 85 38 86 30 87
REMARK SMILES IDX 37 88 31 89 32 90 36 91 33 92 35 93 34 94
REMARK H PARENT 84 28 62 39 24 79 25 82
REMARK Flexibility Score: inf
ROOT
ATOM      1  C   UNL A   1      41.104  21.645  27.816  1.00  0.00     0.188 C 
ENDROOT
BRANCH   1   2
ATOM      2  O   UNL A   1      42.154  20.766  27.495  1.00  0.00    -0.377 OA
BRANCH   2   3
ATOM      3  C   UNL A   1      41.799  19.398  27.566  1.00  0.00     0.188 C 
BRANCH   3   4
ATOM      4  C   UNL A   1      42.429  18.431  26.543  1.00  0.00     0.188 C 
BRANCH   4   5
ATOM      5  O   UNL A   1      43.809  18.215  26.278  1.00  0.00    -0.376 OA
BRANCH   5   6
ATOM      6  C   UNL A   1      44.712  18.909  25.445  1.00  0.00     0.202 C 
BRANCH   6   7
ATOM      7  C   UNL A   1      44.290  19.767  24.255  1.00  0.00     0.261 C 
BRANCH   7   8
ATOM      8  O   UNL A   1      43.775  21.048  24.580  1.00  0.00    -0.460 OA
BRANCH   8   9
ATOM      9  C   UNL A   1      44.139  22.242  24.079  1.00  0.00     0.338 C 
ATOM     10  O   UNL A   1      44.532  22.283  22.914  1.00  0.00    -0.246 OA
BRANCH   9  11
ATOM     11  C   UNL A   1      44.166  23.512  24.857  1.00  0.00     0.060 A 
ATOM     12  C   UNL A   1      45.216  24.432  24.927  1.00  0.00     0.016 A 
ATOM     13  C   UNL A   1      43.012  23.743  25.628  1.00  0.00     0.016 A 
ATOM     14  C   UNL A   1      45.223  25.399  25.909  1.00  0.00     0.010 A 
ATOM     15  C   UNL A   1      42.993  24.731  26.589  1.00  0.00     0.010 A 
ATOM     16  C   UNL A   1      44.149  25.469  26.786  1.00  0.00    -0.014 A 
BRANCH  16  17
ATOM     17  C   UNL A   1      44.303  26.314  27.945  1.00  0.00     0.031 A 
ATOM     18  C   UNL A   1      44.158  27.761  27.684  1.00  0.00     0.074 A 
ATOM     19  C   UNL A   1      44.537  25.766  29.152  1.00  0.00     0.049 A 
ATOM     20  N   UNL A   1      45.061  28.676  27.791  1.00  0.00    -0.248 NA
ATOM     21  C   UNL A   1      42.891  28.223  27.098  1.00  0.00     0.031 C 
ATOM     22  C   UNL A   1      44.458  24.351  29.534  1.00  0.00     0.029 A 
ATOM     23  N   UNL A   1      44.777  26.388  30.332  1.00  0.00    -0.354 N 
ATOM     24  C   UNL A   1      44.427  29.870  27.468  1.00  0.00     0.074 A 
ATOM     25  C   UNL A   1      43.150  29.515  26.900  1.00  0.00     0.031 C 
ATOM     26  C   UNL A   1      44.375  24.264  30.880  1.00  0.00     0.029 A 
ATOM     27  C   UNL A   1      44.541  25.592  31.443  1.00  0.00     0.049 A 
ATOM     28  H   UNL A   1      45.089  27.319  30.394  1.00  0.00     0.167 HD
ATOM     29  C   UNL A   1      44.888  31.065  27.923  1.00  0.00     0.031 A 
ATOM     30  C   UNL A   1      44.401  26.025  32.719  1.00  0.00     0.031 A 
ATOM     31  C   UNL A   1      46.248  30.977  28.383  1.00  0.00     0.049 A 
ATOM     32  C   UNL A   1      44.987  27.385  32.797  1.00  0.00     0.074 A 
ATOM     33  C   UNL A   1      47.456  30.667  27.792  1.00  0.00     0.029 A 
ATOM     34  N   UNL A   1      46.446  30.864  29.739  1.00  0.00    -0.354 N 
ATOM     35  N   UNL A   1      46.262  27.621  32.676  1.00  0.00    -0.248 NA
ATOM     36  C   UNL A   1      44.118  28.523  32.536  1.00  0.00     0.031 C 
ATOM     37  C   UNL A   1      48.170  29.930  28.781  1.00  0.00     0.029 A 
ATOM     38  C   UNL A   1      47.388  29.888  29.938  1.00  0.00     0.049 A 
ATOM     39  H   UNL A   1      45.994  31.388  30.439  1.00  0.00     0.167 HD
ATOM     40  C   UNL A   1      46.337  28.773  31.904  1.00  0.00     0.074 A 
ATOM     41  C   UNL A   1      44.990  29.340  31.937  1.00  0.00     0.031 C 
ATOM     42  C   UNL A   1      47.402  29.000  31.078  1.00  0.00     0.031 A 
BRANCH  29  43
ATOM     43  C   UNL A   1      43.975  32.183  28.352  1.00  0.00    -0.014 A 
ATOM     44  C   UNL A   1      44.076  33.427  27.704  1.00  0.00     0.009 A 
ATOM     45  C   UNL A   1      43.238  32.151  29.552  1.00  0.00     0.009 A 
ATOM     46  C   UNL A   1      43.535  34.586  28.271  1.00  0.00     0.001 A 
ATOM     47  C   UNL A   1      42.662  33.298  30.099  1.00  0.00     0.001 A 
ATOM     48  C   UNL A   1      42.835  34.522  29.473  1.00  0.00     0.000 A 
ENDBRANCH  29  43
BRANCH  30  49
ATOM     49  C   UNL A   1      43.509  25.480  33.764  1.00  0.00    -0.014 A 
ATOM     50  C   UNL A   1      43.843  24.303  34.450  1.00  0.00     0.009 A 
ATOM     51  C   UNL A   1      42.451  26.257  34.274  1.00  0.00     0.009 A 
ATOM     52  C   UNL A   1      43.167  23.938  35.623  1.00  0.00     0.001 A 
ATOM     53  C   UNL A   1      41.774  25.891  35.441  1.00  0.00     0.001 A 
ATOM     54  C   UNL A   1      42.142  24.739  36.125  1.00  0.00     0.000 A 
ENDBRANCH  30  49
BRANCH  42  55
ATOM     55  C   UNL A   1      48.591  28.077  31.191  1.00  0.00    -0.014 A 
ATOM     56  C   UNL A   1      49.666  28.312  32.067  1.00  0.00     0.009 A 
ATOM     57  C   UNL A   1      48.546  26.853  30.508  1.00  0.00     0.009 A 
ATOM     58  C   UNL A   1      50.680  27.363  32.229  1.00  0.00     0.001 A 
ATOM     59  C   UNL A   1      49.547  25.896  30.686  1.00  0.00     0.001 A 
ATOM     60  C   UNL A   1      50.617  26.152  31.540  1.00  0.00     0.000 A 
ENDBRANCH  42  55
ENDBRANCH  16  17
ENDBRANCH   9  11
ENDBRANCH   8   9
ENDBRANCH   7   8
ENDBRANCH   6   7
ENDBRANCH   5   6
ENDBRANCH   4   5
ENDBRANCH   3   4
ENDBRANCH   2   3
ENDBRANCH   1   2
BRANCH   1  61
ATOM     61  C   UNL A   1      40.110  21.855  26.656  1.00  0.00     0.188 C 
BRANCH  61  62
ATOM     62  O   UNL A   1      39.236  22.972  26.651  1.00  0.00    -0.376 OA
BRANCH  62  63
ATOM     63  C   UNL A   1      38.039  22.934  25.890  1.00  0.00     0.202 C 
BRANCH  63  64
ATOM     64  C   UNL A   1      37.508  21.628  25.269  1.00  0.00     0.261 C 
BRANCH  64  65
ATOM     65  O   UNL A   1      36.286  21.701  24.517  1.00  0.00    -0.460 OA
BRANCH  65  66
ATOM     66  C   UNL A   1      35.131  21.567  25.213  1.00  0.00     0.341 C 
ATOM     67  O   UNL A   1      34.997  21.321  26.400  1.00  0.00    -0.246 OA
BRANCH  66  68
ATOM     68  C   UNL A   1      34.026  21.990  24.339  1.00  0.00     0.097 A 
ATOM     69  C   UNL A   1      33.932  23.327  23.932  1.00  0.00     0.040 A 
ATOM     70  C   UNL A   1      33.132  21.050  23.844  1.00  0.00     0.137 A 
ATOM     71  C   UNL A   1      33.007  23.681  22.943  1.00  0.00     0.085 A 
ATOM     72  C   UNL A   1      32.151  21.429  22.924  1.00  0.00     0.041 A 
ATOM     73  F   UNL A   1      33.198  19.771  24.236  1.00  0.00    -0.206 F 
ATOM     74  C   UNL A   1      32.097  22.744  22.450  1.00  0.00     0.025 A 
BRANCH  71  75
ATOM     75  S   UNL A   1      33.091  25.324  22.289  1.00  0.00     0.257 S 
ATOM     76  O   UNL A   1      33.998  26.083  23.123  1.00  0.00    -0.205 OA
ATOM     77  O   UNL A   1      33.308  25.195  20.865  1.00  0.00    -0.205 OA
BRANCH  75  78
ATOM     78  N   UNL A   1      31.547  25.986  22.514  1.00  0.00    -0.123 NA
ATOM     79  H   UNL A   1      31.402  26.076  23.520  1.00  0.00     0.167 HD
BRANCH  78  80
ATOM     80  N   UNL A   1      31.255  27.266  21.930  1.00  0.00    -0.275 N 
ATOM     81  C   UNL A   1      31.129  28.462  22.586  1.00  0.00     0.265 C 
ATOM     82  H   UNL A   1      31.133  27.286  20.953  1.00  0.00     0.186 HD
ATOM     83  O   UNL A   1      31.078  29.486  21.894  1.00  0.00    -0.271 OA
BRANCH  81  84
ATOM     84  C   UNL A   1      30.987  28.546  24.111  1.00  0.00     0.244 C 
ATOM     85  C   UNL A   1      32.209  28.373  24.936  1.00  0.00     0.042 C 
ATOM     86  N   UNL A   1      30.526  29.906  24.488  1.00  0.00    -0.171 NA
ATOM     87  C   UNL A   1      32.275  29.475  25.688  1.00  0.00     0.091 C 
ATOM     88  N   UNL A   1      31.255  30.354  25.418  1.00  0.00    -0.155 NA
BRANCH  87  89
ATOM     89  C   UNL A   1      33.358  29.827  26.607  1.00  0.00     0.002 A 
ATOM     90  C   UNL A   1      33.407  31.090  27.210  1.00  0.00     0.010 A 
ATOM     91  C   UNL A   1      34.415  28.935  26.823  1.00  0.00     0.010 A 
ATOM     92  C   UNL A   1      34.503  31.453  27.999  1.00  0.00     0.001 A 
ATOM     93  C   UNL A   1      35.521  29.306  27.587  1.00  0.00     0.001 A 
ATOM     94  C   UNL A   1      35.566  30.566  28.174  1.00  0.00     0.000 A 
ENDBRANCH  87  89
ENDBRANCH  81  84
ENDBRANCH  78  80
ENDBRANCH  75  78
ENDBRANCH  71  75
ENDBRANCH  66  68
ENDBRANCH  65  66
ENDBRANCH  64  65
ENDBRANCH  63  64
ENDBRANCH  62  63
ENDBRANCH  61  62
ENDBRANCH   1  61
TORSDOF 25
ENDMDL
MODEL 2
REMARK VINA RESULT:     -10.0      2.257      4.243
REMARK SMILES O=C(OCCOCCOCCOCCOC(=O)c1cc(S(=O)(=O)NNC(=O)[C@H]2C=C(c3ccccc3)N=N2)ccc1F)c1ccc(-c2c3nc(c(-c4ccccc4)c4ccc([nH]4)c(-c4ccccc4)c4nc(c(-c5ccccc5)c5ccc2[nH]5)C=C4)C=C3)cc1
REMARK SMILES IDX 10 1 9 2 8 3 7 4 6 5 5 6 4 7 3 8 2 9 1 10 43 11 44 12 90 13
REMARK SMILES IDX 45 14 89 15 46 16 47 17 48 18 83 19 49 20 88 21 82 22 84 23
REMARK SMILES IDX 50 24 87 25 81 26 80 27 51 29 73 30 58 31 72 32 59 33 62 34
REMARK SMILES IDX 71 35 85 36 60 37 61 38 70 40 86 41 63 42 52 43 53 44 57 45
REMARK SMILES IDX 54 46 56 47 55 48 74 49 75 50 79 51 76 52 78 53 77 54 64 55
REMARK SMILES IDX 65 56 69 57 66 58 68 59 67 60 11 61 12 62 13 63 14 64 15 65
REMARK SMILES IDX 16 66 17 67 18 68 19 69 41 70 20 71 40 72 42 73 39 74 21 75
REMARK SMILES IDX 22 76 23 77 24 78 25 80 26 81 27 83 28 84 29 85 38 86 30 87
REMARK SMILES IDX 37 88 31 89 32 90 36 91 33 92 35 93 34 94
REMARK H PARENT 84 28 62 39 24 79 25 82
REMARK Flexibility Score: inf
ROOT
ATOM      1  C   UNL A   1      41.667  21.413  27.567  1.00  0.00     0.188 C 
ENDROOT
BRANCH   1   2
ATOM      2  O   UNL A   1      42.639  20.640  26.905  1.00  0.00    -0.377 OA
BRANCH   2   3
ATOM      3  C   UNL A   1      42.239  19.304  26.660  1.00  0.00     0.188 C 
BRANCH   3   4
ATOM      4  C   UNL A   1      43.076  18.468  25.670  1.00  0.00     0.188 C 
BRANCH   4   5
ATOM      5  O   UNL A   1      44.484  18.494  25.474  1.00  0.00    -0.376 OA
BRANCH   5   6
ATOM      6  C   UNL A   1      45.366  19.570  25.237  1.00  0.00     0.202 C 
BRANCH   6   7
ATOM      7  C   UNL A   1      45.147  20.636  24.166  1.00  0.00     0.261 C 
BRANCH   7   8
ATOM      8  O   UNL A   1      44.918  21.948  24.651  1.00  0.00    -0.460 OA
BRANCH   8   9
ATOM      9  C   UNL A   1      45.754  23.002  24.625  1.00  0.00     0.338 C 
ATOM     10  O   UNL A   1      46.561  23.075  23.699  1.00  0.00    -0.246 OA
BRANCH   9  11
ATOM     11  C   UNL A   1      45.819  24.055  25.676  1.00  0.00     0.060 A 
ATOM     12  C   UNL A   1      46.373  23.933  26.954  1.00  0.00     0.016 A 
ATOM     13  C   UNL A   1      45.200  25.268  25.320  1.00  0.00     0.016 A 
ATOM     14  C   UNL A   1      46.099  24.879  27.918  1.00  0.00     0.010 A 
ATOM     15  C   UNL A   1      44.953  26.238  26.267  1.00  0.00     0.010 A 
ATOM     16  C   UNL A   1      45.312  25.972  27.579  1.00  0.00    -0.014 A 
BRANCH  16  17
ATOM     17  C   UNL A   1      44.838  26.799  28.662  1.00  0.00     0.031 A 
ATOM     18  C   UNL A   1      45.835  27.746  29.202  1.00  0.00     0.074 A 
ATOM     19  C   UNL A   1      43.567  26.688  29.089  1.00  0.00     0.049 A 
ATOM     20  N   UNL A   1      46.357  27.754  30.382  1.00  0.00    -0.248 NA
ATOM     21  C   UNL A   1      46.425  28.719  28.270  1.00  0.00     0.031 C 
ATOM     22  C   UNL A   1      42.462  25.956  28.459  1.00  0.00     0.029 A 
ATOM     23  N   UNL A   1      42.964  27.320  30.125  1.00  0.00    -0.354 N 
ATOM     24  C   UNL A   1      47.208  28.853  30.409  1.00  0.00     0.074 A 
ATOM     25  C   UNL A   1      47.332  29.310  29.048  1.00  0.00     0.031 C 
ATOM     26  C   UNL A   1      41.292  26.406  28.966  1.00  0.00     0.029 A 
ATOM     27  C   UNL A   1      41.579  27.339  30.041  1.00  0.00     0.049 A 
ATOM     28  H   UNL A   1      43.462  27.729  30.868  1.00  0.00     0.167 HD
ATOM     29  C   UNL A   1      47.545  29.462  31.578  1.00  0.00     0.031 A 
ATOM     30  C   UNL A   1      40.748  28.141  30.748  1.00  0.00     0.031 A 
ATOM     31  C   UNL A   1      47.276  28.626  32.717  1.00  0.00     0.049 A 
ATOM     32  C   UNL A   1      41.502  28.644  31.922  1.00  0.00     0.074 A 
ATOM     33  C   UNL A   1      47.735  27.399  33.152  1.00  0.00     0.029 A 
ATOM     34  N   UNL A   1      46.118  28.870  33.415  1.00  0.00    -0.354 N 
ATOM     35  N   UNL A   1      41.881  27.882  32.906  1.00  0.00    -0.248 NA
ATOM     36  C   UNL A   1      42.243  29.889  31.778  1.00  0.00     0.031 C 
ATOM     37  C   UNL A   1      46.595  26.764  33.725  1.00  0.00     0.029 A 
ATOM     38  C   UNL A   1      45.525  27.660  33.667  1.00  0.00     0.049 A 
ATOM     39  H   UNL A   1      45.775  29.753  33.684  1.00  0.00     0.167 HD
ATOM     40  C   UNL A   1      43.163  28.317  33.217  1.00  0.00     0.074 A 
ATOM     41  C   UNL A   1      43.291  29.619  32.564  1.00  0.00     0.031 C 
ATOM     42  C   UNL A   1      44.095  27.457  33.726  1.00  0.00     0.031 A 
BRANCH  29  43
ATOM     43  C   UNL A   1      47.701  30.954  31.706  1.00  0.00    -0.014 A 
ATOM     44  C   UNL A   1      48.771  31.461  32.462  1.00  0.00     0.009 A 
ATOM     45  C   UNL A   1      46.678  31.861  31.367  1.00  0.00     0.009 A 
ATOM     46  C   UNL A   1      48.775  32.784  32.919  1.00  0.00     0.001 A 
ATOM     47  C   UNL A   1      46.698  33.192  31.785  1.00  0.00     0.001 A 
ATOM     48  C   UNL A   1      47.734  33.646  32.587  1.00  0.00     0.000 A 
ENDBRANCH  29  43
BRANCH  30  49
ATOM     49  C   UNL A   1      39.479  28.750  30.294  1.00  0.00    -0.014 A 
ATOM     50  C   UNL A   1      38.307  28.614  31.052  1.00  0.00     0.009 A 
ATOM     51  C   UNL A   1      39.475  29.688  29.244  1.00  0.00     0.009 A 
ATOM     52  C   UNL A   1      37.186  29.415  30.790  1.00  0.00     0.001 A 
ATOM     53  C   UNL A   1      38.356  30.483  28.980  1.00  0.00     0.001 A 
ATOM     54  C   UNL A   1      37.215  30.357  29.764  1.00  0.00     0.000 A 
ENDBRANCH  30  49
BRANCH  42  55
ATOM     55  C   UNL A   1      43.632  26.082  34.145  1.00  0.00    -0.014 A 
ATOM     56  C   UNL A   1      43.861  24.927  33.375  1.00  0.00     0.009 A 
ATOM     57  C   UNL A   1      43.091  25.929  35.430  1.00  0.00     0.009 A 
ATOM     58  C   UNL A   1      43.527  23.661  33.866  1.00  0.00     0.001 A 
ATOM     59  C   UNL A   1      42.779  24.663  35.929  1.00  0.00     0.001 A 
ATOM     60  C   UNL A   1      42.990  23.530  35.146  1.00  0.00     0.000 A 
ENDBRANCH  42  55
ENDBRANCH  16  17
ENDBRANCH   9  11
ENDBRANCH   8   9
ENDBRANCH   7   8
ENDBRANCH   6   7
ENDBRANCH   5   6
ENDBRANCH   4   5
ENDBRANCH   3   4
ENDBRANCH   2   3
ENDBRANCH   1   2
BRANCH   1  61
ATOM     61  C   UNL A   1      40.649  22.061  26.607  1.00  0.00     0.188 C 
BRANCH  61  62
ATOM     62  O   UNL A   1      39.719  23.019  27.086  1.00  0.00    -0.376 OA
BRANCH  62  63
ATOM     63  C   UNL A   1      38.528  23.278  26.358  1.00  0.00     0.202 C 
BRANCH  63  64
ATOM     64  C   UNL A   1      37.966  22.279  25.329  1.00  0.00     0.261 C 
BRANCH  64  65
ATOM     65  O   UNL A   1      36.539  22.195  25.199  1.00  0.00    -0.460 OA
BRANCH  65  66
ATOM     66  C   UNL A   1      36.006  20.953  25.087  1.00  0.00     0.341 C 
ATOM     67  O   UNL A   1      36.597  19.887  25.050  1.00  0.00    -0.246 OA
BRANCH  66  68
ATOM     68  C   UNL A   1      34.548  21.073  25.236  1.00  0.00     0.097 A 
ATOM     69  C   UNL A   1      33.991  22.272  25.698  1.00  0.00     0.040 A 
ATOM     70  C   UNL A   1      33.720  20.034  24.834  1.00  0.00     0.137 A 
ATOM     71  C   UNL A   1      32.603  22.452  25.644  1.00  0.00     0.085 A 
ATOM     72  C   UNL A   1      32.332  20.187  24.868  1.00  0.00     0.041 A 
ATOM     73  F   UNL A   1      34.237  18.875  24.406  1.00  0.00    -0.206 F 
ATOM     74  C   UNL A   1      31.765  21.407  25.252  1.00  0.00     0.025 A 
BRANCH  71  75
ATOM     75  S   UNL A   1      31.968  24.064  26.006  1.00  0.00     0.257 S 
ATOM     76  O   UNL A   1      30.872  23.905  26.937  1.00  0.00    -0.205 OA
ATOM     77  O   UNL A   1      33.106  24.899  26.318  1.00  0.00    -0.205 OA
BRANCH  75  78
ATOM     78  N   UNL A   1      31.301  24.630  24.554  1.00  0.00    -0.123 NA
ATOM     79  H   UNL A   1      31.381  23.876  23.872  1.00  0.00     0.167 HD
BRANCH  78  80
ATOM     80  N   UNL A   1      29.930  25.062  24.549  1.00  0.00    -0.275 N 
ATOM     81  C   UNL A   1      29.438  26.234  24.038  1.00  0.00     0.265 C 
ATOM     82  H   UNL A   1      29.275  24.450  24.955  1.00  0.00     0.186 HD
ATOM     83  O   UNL A   1      28.209  26.339  23.943  1.00  0.00    -0.271 OA
BRANCH  81  84
ATOM     84  C   UNL A   1      30.350  27.407  23.659  1.00  0.00     0.244 C 
ATOM     85  C   UNL A   1      30.734  28.366  24.725  1.00  0.00     0.042 C 
ATOM     86  N   UNL A   1      31.662  26.881  23.201  1.00  0.00    -0.171 NA
ATOM     87  C   UNL A   1      32.069  28.373  24.717  1.00  0.00     0.091 C 
ATOM     88  N   UNL A   1      32.591  27.502  23.792  1.00  0.00    -0.155 NA
BRANCH  87  89
ATOM     89  C   UNL A   1      32.933  29.094  25.653  1.00  0.00     0.002 A 
ATOM     90  C   UNL A   1      34.171  28.568  26.040  1.00  0.00     0.010 A 
ATOM     91  C   UNL A   1      32.486  30.280  26.250  1.00  0.00     0.010 A 
ATOM     92  C   UNL A   1      34.936  29.211  27.017  1.00  0.00     0.001 A 
ATOM     93  C   UNL A   1      33.236  30.907  27.244  1.00  0.00     0.001 A 
ATOM     94  C   UNL A   1      34.461  30.372  27.629  1.00  0.00     0.000 A 
ENDBRANCH  87  89
ENDBRANCH  81  84
ENDBRANCH  78  80
ENDBRANCH  75  78
ENDBRANCH  71  75
ENDBRANCH  66  68
ENDBRANCH  65  66
ENDBRANCH  64  65
ENDBRANCH  63  64
ENDBRANCH  62  63
ENDBRANCH  61  62
ENDBRANCH   1  61
TORSDOF 25
ENDMDL
MODEL 3
REMARK VINA RESULT:      -9.9      2.091      4.395
REMARK SMILES O=C(OCCOCCOCCOCCOC(=O)c1cc(S(=O)(=O)NNC(=O)[C@H]2C=C(c3ccccc3)N=N2)ccc1F)c1ccc(-c2c3nc(c(-c4ccccc4)c4ccc([nH]4)c(-c4ccccc4)c4nc(c(-c5ccccc5)c5ccc2[nH]5)C=C4)C=C3)cc1
REMARK SMILES IDX 10 1 9 2 8 3 7 4 6 5 5 6 4 7 3 8 2 9 1 10 43 11 44 12 90 13
REMARK SMILES IDX 45 14 89 15 46 16 47 17 48 18 83 19 49 20 88 21 82 22 84 23
REMARK SMILES IDX 50 24 87 25 81 26 80 27 51 29 73 30 58 31 72 32 59 33 62 34
REMARK SMILES IDX 71 35 85 36 60 37 61 38 70 40 86 41 63 42 52 43 53 44 57 45
REMARK SMILES IDX 54 46 56 47 55 48 74 49 75 50 79 51 76 52 78 53 77 54 64 55
REMARK SMILES IDX 65 56 69 57 66 58 68 59 67 60 11 61 12 62 13 63 14 64 15 65
REMARK SMILES IDX 16 66 17 67 18 68 19 69 41 70 20 71 40 72 42 73 39 74 21 75
REMARK SMILES IDX 22 76 23 77 24 78 25 80 26 81 27 83 28 84 29 85 38 86 30 87
REMARK SMILES IDX 37 88 31 89 32 90 36 91 33 92 35 93 34 94
REMARK H PARENT 84 28 62 39 24 79 25 82
REMARK Flexibility Score: inf
ROOT
ATOM      1  C   UNL A   1      41.070  21.943  27.928  1.00  0.00     0.188 C 
ENDROOT
BRANCH   1   2
ATOM      2  O   UNL A   1      42.133  21.107  27.539  1.00  0.00    -0.377 OA
BRANCH   2   3
ATOM      3  C   UNL A   1      41.740  19.780  27.246  1.00  0.00     0.188 C 
BRANCH   3   4
ATOM      4  C   UNL A   1      42.283  19.131  25.957  1.00  0.00     0.188 C 
BRANCH   4   5
ATOM      5  O   UNL A   1      43.538  18.495  25.758  1.00  0.00    -0.376 OA
BRANCH   5   6
ATOM      6  C   UNL A   1      44.718  18.949  25.133  1.00  0.00     0.202 C 
BRANCH   6   7
ATOM      7  C   UNL A   1      44.803  20.216  24.283  1.00  0.00     0.261 C 
BRANCH   7   8
ATOM      8  O   UNL A   1      44.852  21.433  25.009  1.00  0.00    -0.460 OA
BRANCH   8   9
ATOM      9  C   UNL A   1      45.774  22.410  24.933  1.00  0.00     0.338 C 
ATOM     10  O   UNL A   1      46.672  22.291  24.100  1.00  0.00    -0.246 OA
BRANCH   9  11
ATOM     11  C   UNL A   1      45.826  23.595  25.833  1.00  0.00     0.060 A 
ATOM     12  C   UNL A   1      46.533  23.708  27.034  1.00  0.00     0.016 A 
ATOM     13  C   UNL A   1      45.022  24.673  25.418  1.00  0.00     0.016 A 
ATOM     14  C   UNL A   1      46.255  24.739  27.905  1.00  0.00     0.010 A 
ATOM     15  C   UNL A   1      44.765  25.728  26.266  1.00  0.00     0.010 A 
ATOM     16  C   UNL A   1      45.302  25.682  27.543  1.00  0.00    -0.014 A 
BRANCH  16  17
ATOM     17  C   UNL A   1      44.855  26.589  28.571  1.00  0.00     0.031 A 
ATOM     18  C   UNL A   1      45.873  27.554  29.034  1.00  0.00     0.074 A 
ATOM     19  C   UNL A   1      43.587  26.529  29.019  1.00  0.00     0.049 A 
ATOM     20  N   UNL A   1      46.410  27.634  30.205  1.00  0.00    -0.248 NA
ATOM     21  C   UNL A   1      46.468  28.450  28.031  1.00  0.00     0.031 C 
ATOM     22  C   UNL A   1      42.463  25.775  28.453  1.00  0.00     0.029 A 
ATOM     23  N   UNL A   1      43.007  27.241  30.015  1.00  0.00    -0.354 N 
ATOM     24  C   UNL A   1      47.278  28.718  30.147  1.00  0.00     0.074 A 
ATOM     25  C   UNL A   1      47.394  29.078  28.756  1.00  0.00     0.031 C 
ATOM     26  C   UNL A   1      41.307  26.278  28.940  1.00  0.00     0.029 A 
ATOM     27  C   UNL A   1      41.622  27.278  29.945  1.00  0.00     0.049 A 
ATOM     28  H   UNL A   1      43.521  27.691  30.723  1.00  0.00     0.167 HD
ATOM     29  C   UNL A   1      47.640  29.399  31.267  1.00  0.00     0.031 A 
ATOM     30  C   UNL A   1      40.812  28.141  30.605  1.00  0.00     0.031 A 
ATOM     31  C   UNL A   1      47.371  28.648  32.464  1.00  0.00     0.049 A 
ATOM     32  C   UNL A   1      41.588  28.710  31.732  1.00  0.00     0.074 A 
ATOM     33  C   UNL A   1      47.815  27.447  32.978  1.00  0.00     0.029 A 
ATOM     34  N   UNL A   1      46.225  28.959  33.156  1.00  0.00    -0.354 N 
ATOM     35  N   UNL A   1      41.967  28.011  32.763  1.00  0.00    -0.248 NA
ATOM     36  C   UNL A   1      42.348  29.930  31.496  1.00  0.00     0.031 C 
ATOM     37  C   UNL A   1      46.672  26.872  33.606  1.00  0.00     0.029 A 
ATOM     38  C   UNL A   1      45.616  27.780  33.498  1.00  0.00     0.049 A 
ATOM     39  H   UNL A   1      45.900  29.864  33.367  1.00  0.00     0.167 HD
ATOM     40  C   UNL A   1      43.259  28.444  33.029  1.00  0.00     0.074 A 
ATOM     41  C   UNL A   1      43.400  29.696  32.286  1.00  0.00     0.031 C 
ATOM     42  C   UNL A   1      44.184  27.606  33.586  1.00  0.00     0.031 A 
BRANCH  29  43
ATOM     43  C   UNL A   1      47.821  30.894  31.290  1.00  0.00    -0.014 A 
ATOM     44  C   UNL A   1      49.003  31.425  31.834  1.00  0.00     0.009 A 
ATOM     45  C   UNL A   1      46.760  31.796  31.077  1.00  0.00     0.009 A 
ATOM     46  C   UNL A   1      49.088  32.769  32.214  1.00  0.00     0.001 A 
ATOM     47  C   UNL A   1      46.855  33.146  31.417  1.00  0.00     0.001 A 
ATOM     48  C   UNL A   1      48.010  33.627  32.013  1.00  0.00     0.000 A 
ENDBRANCH  29  43
BRANCH  30  49
ATOM     49  C   UNL A   1      39.548  28.738  30.124  1.00  0.00    -0.014 A 
ATOM     50  C   UNL A   1      39.313  28.914  28.752  1.00  0.00     0.009 A 
ATOM     51  C   UNL A   1      38.457  28.898  31.001  1.00  0.00     0.009 A 
ATOM     52  C   UNL A   1      38.027  29.203  28.275  1.00  0.00     0.001 A 
ATOM     53  C   UNL A   1      37.176  29.191  30.525  1.00  0.00     0.001 A 
ATOM     54  C   UNL A   1      36.958  29.328  29.159  1.00  0.00     0.000 A 
ENDBRANCH  30  49
BRANCH  42  55
ATOM     55  C   UNL A   1      43.704  26.271  34.103  1.00  0.00    -0.014 A 
ATOM     56  C   UNL A   1      42.791  26.142  35.165  1.00  0.00     0.009 A 
ATOM     57  C   UNL A   1      44.062  25.117  33.391  1.00  0.00     0.009 A 
ATOM     58  C   UNL A   1      42.278  24.891  35.522  1.00  0.00     0.001 A 
ATOM     59  C   UNL A   1      43.534  23.872  33.733  1.00  0.00     0.001 A 
ATOM     60  C   UNL A   1      42.648  23.756  34.801  1.00  0.00     0.000 A 
ENDBRANCH  42  55
ENDBRANCH  16  17
ENDBRANCH   9  11
ENDBRANCH   8   9
ENDBRANCH   7   8
ENDBRANCH   6   7
ENDBRANCH   5   6
ENDBRANCH   4   5
ENDBRANCH   3   4
ENDBRANCH   2   3
ENDBRANCH   1   2
BRANCH   1  61
ATOM     61  C   UNL A   1      40.212  22.427  26.743  1.00  0.00     0.188 C 
BRANCH  61  62
ATOM     62  O   UNL A   1      39.282  23.485  26.912  1.00  0.00    -0.376 OA
BRANCH  62  63
ATOM     63  C   UNL A   1      38.164  23.594  26.044  1.00  0.00     0.202 C 
BRANCH  63  64
ATOM     64  C   UNL A   1      37.752  22.452  25.096  1.00  0.00     0.261 C 
BRANCH  64  65
ATOM     65  O   UNL A   1      36.486  22.569  24.429  1.00  0.00    -0.460 OA
BRANCH  65  66
ATOM     66  C   UNL A   1      35.432  21.938  25.001  1.00  0.00     0.341 C 
ATOM     67  O   UNL A   1      35.386  21.399  26.093  1.00  0.00    -0.246 OA
BRANCH  66  68
ATOM     68  C   UNL A   1      34.246  22.194  24.168  1.00  0.00     0.097 A 
ATOM     69  C   UNL A   1      34.099  23.432  23.529  1.00  0.00     0.040 A 
ATOM     70  C   UNL A   1      33.323  21.183  23.942  1.00  0.00     0.137 A 
ATOM     71  C   UNL A   1      33.082  23.599  22.581  1.00  0.00     0.085 A 
ATOM     72  C   UNL A   1      32.258  21.387  23.062  1.00  0.00     0.041 A 
ATOM     73  F   UNL A   1      33.441  19.999  24.558  1.00  0.00    -0.206 F 
ATOM     74  C   UNL A   1      32.144  22.591  22.358  1.00  0.00     0.025 A 
BRANCH  71  75
ATOM     75  S   UNL A   1      33.086  25.090  21.626  1.00  0.00     0.257 S 
ATOM     76  O   UNL A   1      34.016  26.008  22.249  1.00  0.00    -0.205 OA
ATOM     77  O   UNL A   1      33.227  24.698  20.242  1.00  0.00    -0.205 OA
BRANCH  75  78
ATOM     78  N   UNL A   1      31.539  25.758  21.814  1.00  0.00    -0.123 NA
ATOM     79  H   UNL A   1      31.240  25.559  22.769  1.00  0.00     0.167 HD
BRANCH  78  80
ATOM     80  N   UNL A   1      31.368  27.169  21.604  1.00  0.00    -0.275 N 
ATOM     81  C   UNL A   1      31.300  28.143  22.564  1.00  0.00     0.265 C 
ATOM     82  H   UNL A   1      31.292  27.468  20.669  1.00  0.00     0.186 HD
ATOM     83  O   UNL A   1      31.354  29.319  22.184  1.00  0.00    -0.271 OA
BRANCH  81  84
ATOM     84  C   UNL A   1      31.095  27.814  24.048  1.00  0.00     0.244 C 
ATOM     85  C   UNL A   1      30.654  26.441  24.404  1.00  0.00     0.042 C 
ATOM     86  N   UNL A   1      32.391  27.939  24.763  1.00  0.00    -0.171 NA
ATOM     87  C   UNL A   1      31.576  25.995  25.261  1.00  0.00     0.091 C 
ATOM     88  N   UNL A   1      32.580  26.910  25.472  1.00  0.00    -0.155 NA
BRANCH  87  89
ATOM     89  C   UNL A   1      31.642  24.650  25.833  1.00  0.00     0.002 A 
ATOM     90  C   UNL A   1      30.658  23.697  25.546  1.00  0.00     0.010 A 
ATOM     91  C   UNL A   1      32.646  24.327  26.755  1.00  0.00     0.010 A 
ATOM     92  C   UNL A   1      30.672  22.453  26.184  1.00  0.00     0.001 A 
ATOM     93  C   UNL A   1      32.645  23.098  27.412  1.00  0.00     0.001 A 
ATOM     94  C   UNL A   1      31.657  22.161  27.128  1.00  0.00     0.000 A 
ENDBRANCH  87  89
ENDBRANCH  81  84
ENDBRANCH  78  80
ENDBRANCH  75  78
ENDBRANCH  71  75
ENDBRANCH  66  68
ENDBRANCH  65  66
ENDBRANCH  64  65
ENDBRANCH  63  64
ENDBRANCH  62  63
ENDBRANCH  61  62
ENDBRANCH   1  61
TORSDOF 25
ENDMDL
