MODEL 1
REMARK VINA RESULT:     -10.6      0.000      0.000
REMARK SMILES Cc1cc(C(=O)N[C@@H]2C(=O)N3C(C(=O)OCCOCCOCCOCCOC(=O)c4ccc(-c5c6nc(c(-c7ccccc7)c7ccc([nH]7)c(-c7ccccc7)c7nc(c(-c8ccccc8)c8ccc5[nH]8)C=C7)C=C6)cc4)=C(CSc4nnc(C)s4)CS[C@H]23)n(C)n1
REMARK SMILES IDX 20 1 19 2 18 3 17 4 16 5 15 6 13 7 14 8 12 9 8 10 9 11 89 12
REMARK SMILES IDX 10 13 11 14 88 15 87 16 78 17 7 18 5 19 6 20 4 22 1 23 2 24
REMARK SMILES IDX 3 25 92 26 90 27 91 28 79 29 80 30 81 31 82 32 86 33 83 34
REMARK SMILES IDX 84 35 85 36 21 37 22 38 23 39 24 40 25 41 26 42 27 43 28 44
REMARK SMILES IDX 29 45 30 46 31 47 77 48 32 49 76 50 33 51 34 52 35 53 70 54
REMARK SMILES IDX 36 55 75 56 69 57 71 58 37 59 74 60 68 61 67 62 38 64 60 65
REMARK SMILES IDX 45 66 59 67 46 68 49 69 58 70 72 71 47 72 48 73 57 75 73 76
REMARK SMILES IDX 50 77 39 78 40 79 44 80 41 81 43 82 42 83 61 84 62 85 66 86
REMARK SMILES IDX 63 87 65 88 64 89 51 90 52 91 56 92 53 93 55 94 54 95
REMARK H PARENT 7 21 71 63 49 74
REMARK Flexibility Score: inf
ROOT
ATOM      1  C   UNL A   1      33.059  28.598  27.394  1.00  0.00     0.188 C 
ENDROOT
BRANCH   1   2
ATOM      2  C   UNL A   1      33.612  27.818  26.169  1.00  0.00     0.188 C 
BRANCH   2   3
ATOM      3  O   UNL A   1      33.152  28.283  24.913  1.00  0.00    -0.376 OA
BRANCH   3   4
ATOM      4  C   UNL A   1      34.039  28.390  23.823  1.00  0.00     0.202 C 
BRANCH   4   5
ATOM      5  C   UNL A   1      33.560  28.008  22.415  1.00  0.00     0.261 C 
BRANCH   5   6
ATOM      6  O   UNL A   1      33.522  26.609  22.116  1.00  0.00    -0.459 OA
BRANCH   6   7
ATOM      7  C   UNL A   1      32.309  26.082  21.848  1.00  0.00     0.355 C 
ATOM      8  O   UNL A   1      31.921  25.718  20.746  1.00  0.00    -0.244 OA
BRANCH   7   9
ATOM      9  C   UNL A   1      31.464  25.941  23.084  1.00  0.00     0.132 C 
ATOM     10  C   UNL A   1      32.037  23.310  25.191  1.00  0.00     0.206 C 
ATOM     11  C   UNL A   1      32.905  24.402  24.507  1.00  0.00     0.253 C 
ATOM     12  C   UNL A   1      30.845  24.190  24.703  1.00  0.00     0.181 C 
ATOM     13  O   UNL A   1      34.062  24.721  24.528  1.00  0.00    -0.272 OA
ATOM     14  N   UNL A   1      31.795  24.884  23.882  1.00  0.00    -0.289 N 
ATOM     15  S   UNL A   1      30.153  25.401  25.854  1.00  0.00    -0.129 SA
ATOM     16  C   UNL A   1      29.405  26.347  24.508  1.00  0.00     0.106 C 
ATOM     17  C   UNL A   1      30.369  26.698  23.374  1.00  0.00    -0.019 C 
BRANCH  10  18
ATOM     18  N   UNL A   1      32.147  23.025  26.641  1.00  0.00    -0.336 N 
ATOM     19  C   UNL A   1      33.153  22.312  27.276  1.00  0.00     0.270 C 
ATOM     20  O   UNL A   1      33.077  22.169  28.494  1.00  0.00    -0.268 OA
ATOM     21  H   UNL A   1      31.430  23.379  27.215  1.00  0.00     0.164 HD
BRANCH  19  22
ATOM     22  C   UNL A   1      34.187  21.707  26.459  1.00  0.00     0.126 A 
ATOM     23  C   UNL A   1      36.941  21.949  24.098  1.00  0.00     0.069 C 
ATOM     24  C   UNL A   1      35.845  21.521  25.000  1.00  0.00     0.060 A 
ATOM     25  C   UNL A   1      35.525  22.029  26.277  1.00  0.00     0.059 A 
ATOM     26  N   UNL A   1      34.938  20.626  24.607  1.00  0.00    -0.178 NA
ATOM     27  N   UNL A   1      34.012  20.649  25.594  1.00  0.00    -0.263 N 
ATOM     28  C   UNL A   1      33.008  19.612  25.603  1.00  0.00     0.174 C 
ENDBRANCH  19  22
ENDBRANCH  10  18
BRANCH  17  29
ATOM     29  C   UNL A   1      29.873  27.879  22.574  1.00  0.00     0.111 C 
BRANCH  29  30
ATOM     30  S   UNL A   1      28.131  28.340  22.705  1.00  0.00    -0.089 SA
BRANCH  30  31
ATOM     31  C   UNL A   1      27.993  30.070  22.902  1.00  0.00     0.174 A 
ATOM     32  N   UNL A   1      27.095  30.678  23.638  1.00  0.00    -0.132 NA
ATOM     33  S   UNL A   1      29.096  31.155  22.148  1.00  0.00    -0.091 S 
ATOM     34  N   UNL A   1      27.318  32.037  23.746  1.00  0.00    -0.143 NA
ATOM     35  C   UNL A   1      28.389  32.412  23.080  1.00  0.00     0.115 A 
ATOM     36  C   UNL A   1      28.969  33.780  23.103  1.00  0.00     0.081 C 
ENDBRANCH  30  31
ENDBRANCH  29  30
ENDBRANCH  17  29
ENDBRANCH   7   9
ENDBRANCH   6   7
ENDBRANCH   5   6
ENDBRANCH   4   5
ENDBRANCH   3   4
ENDBRANCH   2   3
ENDBRANCH   1   2
BRANCH   1  37
ATOM     37  O   UNL A   1      32.201  29.729  27.283  1.00  0.00    -0.377 OA
BRANCH  37  38
ATOM     38  C   UNL A   1      32.779  30.995  27.034  1.00  0.00     0.188 C 
BRANCH  38  39
ATOM     39  C   UNL A   1      34.164  31.166  27.682  1.00  0.00     0.188 C 
BRANCH  39  40
ATOM     40  O   UNL A   1      34.603  32.503  27.804  1.00  0.00    -0.376 OA
BRANCH  40  41
ATOM     41  C   UNL A   1      33.993  33.394  28.724  1.00  0.00     0.202 C 
BRANCH  41  42
ATOM     42  C   UNL A   1      34.290  33.485  30.237  1.00  0.00     0.261 C 
BRANCH  42  43
ATOM     43  O   UNL A   1      34.588  32.294  30.972  1.00  0.00    -0.460 OA
BRANCH  43  44
ATOM     44  C   UNL A   1      35.442  32.377  32.012  1.00  0.00     0.338 C 
ATOM     45  O   UNL A   1      35.172  32.595  33.176  1.00  0.00    -0.246 OA
BRANCH  44  46
ATOM     46  C   UNL A   1      36.774  31.982  31.502  1.00  0.00     0.060 A 
ATOM     47  C   UNL A   1      37.155  32.356  30.206  1.00  0.00     0.016 A 
ATOM     48  C   UNL A   1      37.655  31.267  32.315  1.00  0.00     0.016 A 
ATOM     49  C   UNL A   1      38.408  31.998  29.711  1.00  0.00     0.010 A 
ATOM     50  C   UNL A   1      38.904  30.890  31.812  1.00  0.00     0.010 A 
ATOM     51  C   UNL A   1      39.269  31.222  30.495  1.00  0.00    -0.014 A 
BRANCH  51  52
ATOM     52  C   UNL A   1      40.439  30.568  29.864  1.00  0.00     0.031 A 
ATOM     53  C   UNL A   1      41.720  31.352  29.769  1.00  0.00     0.074 A 
ATOM     54  C   UNL A   1      40.387  29.302  29.415  1.00  0.00     0.049 A 
ATOM     55  N   UNL A   1      42.861  31.019  29.224  1.00  0.00    -0.248 NA
ATOM     56  C   UNL A   1      41.707  32.698  30.368  1.00  0.00     0.031 C 
ATOM     57  C   UNL A   1      39.227  28.417  29.502  1.00  0.00     0.029 A 
ATOM     58  N   UNL A   1      41.346  28.545  28.790  1.00  0.00    -0.354 N 
ATOM     59  C   UNL A   1      43.693  32.118  29.401  1.00  0.00     0.074 A 
ATOM     60  C   UNL A   1      42.918  33.139  30.068  1.00  0.00     0.031 C 
ATOM     61  C   UNL A   1      39.544  27.234  28.944  1.00  0.00     0.029 A 
ATOM     62  C   UNL A   1      40.910  27.295  28.428  1.00  0.00     0.049 A 
ATOM     63  H   UNL A   1      42.260  28.867  28.618  1.00  0.00     0.167 HD
ATOM     64  C   UNL A   1      44.992  32.264  29.045  1.00  0.00     0.031 A 
ATOM     65  C   UNL A   1      41.536  26.322  27.736  1.00  0.00     0.031 A 
ATOM     66  C   UNL A   1      45.758  31.255  28.366  1.00  0.00     0.049 A 
ATOM     67  C   UNL A   1      42.951  26.543  27.264  1.00  0.00     0.074 A 
ATOM     68  C   UNL A   1      47.083  31.300  27.971  1.00  0.00     0.029 A 
ATOM     69  N   UNL A   1      45.263  30.021  27.971  1.00  0.00    -0.354 N 
ATOM     70  N   UNL A   1      43.737  27.577  27.453  1.00  0.00    -0.248 NA
ATOM     71  C   UNL A   1      43.565  25.459  26.484  1.00  0.00     0.031 C 
ATOM     72  C   UNL A   1      47.369  30.124  27.272  1.00  0.00     0.029 A 
ATOM     73  C   UNL A   1      46.247  29.311  27.304  1.00  0.00     0.049 A 
ATOM     74  H   UNL A   1      44.349  29.699  28.139  1.00  0.00     0.167 HD
ATOM     75  C   UNL A   1      44.947  27.251  26.849  1.00  0.00     0.074 A 
ATOM     76  C   UNL A   1      44.795  25.919  26.300  1.00  0.00     0.031 C 
ATOM     77  C   UNL A   1      46.082  27.986  26.760  1.00  0.00     0.031 A 
BRANCH  64  78
ATOM     78  C   UNL A   1      45.645  33.585  29.343  1.00  0.00    -0.014 A 
ATOM     79  C   UNL A   1      46.229  33.854  30.591  1.00  0.00     0.009 A 
ATOM     80  C   UNL A   1      45.688  34.576  28.348  1.00  0.00     0.009 A 
ATOM     81  C   UNL A   1      46.804  35.099  30.850  1.00  0.00     0.001 A 
ATOM     82  C   UNL A   1      46.297  35.807  28.598  1.00  0.00     0.001 A 
ATOM     83  C   UNL A   1      46.844  36.072  29.851  1.00  0.00     0.000 A 
ENDBRANCH  64  78
BRANCH  65  84
ATOM     84  C   UNL A   1      40.827  25.051  27.424  1.00  0.00    -0.014 A 
ATOM     85  C   UNL A   1      39.717  25.041  26.566  1.00  0.00     0.009 A 
ATOM     86  C   UNL A   1      41.241  23.842  28.007  1.00  0.00     0.009 A 
ATOM     87  C   UNL A   1      39.021  23.854  26.319  1.00  0.00     0.001 A 
ATOM     88  C   UNL A   1      40.566  22.652  27.732  1.00  0.00     0.001 A 
ATOM     89  C   UNL A   1      39.450  22.660  26.898  1.00  0.00     0.000 A 
ENDBRANCH  65  84
BRANCH  77  90
ATOM     90  C   UNL A   1      47.270  27.354  26.085  1.00  0.00    -0.014 A 
ATOM     91  C   UNL A   1      48.221  26.616  26.806  1.00  0.00     0.009 A 
ATOM     92  C   UNL A   1      47.410  27.459  24.690  1.00  0.00     0.009 A 
ATOM     93  C   UNL A   1      49.307  26.029  26.150  1.00  0.00     0.001 A 
ATOM     94  C   UNL A   1      48.475  26.842  24.033  1.00  0.00     0.001 A 
ATOM     95  C   UNL A   1      49.428  26.137  24.765  1.00  0.00     0.000 A 
ENDBRANCH  77  90
ENDBRANCH  51  52
ENDBRANCH  44  46
ENDBRANCH  43  44
ENDBRANCH  42  43
ENDBRANCH  41  42
ENDBRANCH  40  41
ENDBRANCH  39  40
ENDBRANCH  38  39
ENDBRANCH  37  38
ENDBRANCH   1  37
TORSDOF 25
ENDMDL
MODEL 2
REMARK VINA RESULT:     -10.4      3.246      4.193
REMARK SMILES Cc1cc(C(=O)N[C@@H]2C(=O)N3C(C(=O)OCCOCCOCCOCCOC(=O)c4ccc(-c5c6nc(c(-c7ccccc7)c7ccc([nH]7)c(-c7ccccc7)c7nc(c(-c8ccccc8)c8ccc5[nH]8)C=C7)C=C6)cc4)=C(CSc4nnc(C)s4)CS[C@H]23)n(C)n1
REMARK SMILES IDX 20 1 19 2 18 3 17 4 16 5 15 6 13 7 14 8 12 9 8 10 9 11 89 12
REMARK SMILES IDX 10 13 11 14 88 15 87 16 78 17 7 18 5 19 6 20 4 22 1 23 2 24
REMARK SMILES IDX 3 25 92 26 90 27 91 28 79 29 80 30 81 31 82 32 86 33 83 34
REMARK SMILES IDX 84 35 85 36 21 37 22 38 23 39 24 40 25 41 26 42 27 43 28 44
REMARK SMILES IDX 29 45 30 46 31 47 77 48 32 49 76 50 33 51 34 52 35 53 70 54
REMARK SMILES IDX 36 55 75 56 69 57 71 58 37 59 74 60 68 61 67 62 38 64 60 65
REMARK SMILES IDX 45 66 59 67 46 68 49 69 58 70 72 71 47 72 48 73 57 75 73 76
REMARK SMILES IDX 50 77 39 78 40 79 44 80 41 81 43 82 42 83 61 84 62 85 66 86
REMARK SMILES IDX 63 87 65 88 64 89 51 90 52 91 56 92 53 93 55 94 54 95
REMARK H PARENT 7 21 71 63 49 74
REMARK Flexibility Score: inf
ROOT
ATOM      1  C   UNL A   1      33.510  30.626  27.001  1.00  0.00     0.188 C 
ENDROOT
BRANCH   1   2
ATOM      2  C   UNL A   1      33.412  29.195  26.403  1.00  0.00     0.188 C 
BRANCH   2   3
ATOM      3  O   UNL A   1      33.109  29.149  25.021  1.00  0.00    -0.376 OA
BRANCH   3   4
ATOM      4  C   UNL A   1      34.024  28.588  24.107  1.00  0.00     0.202 C 
BRANCH   4   5
ATOM      5  C   UNL A   1      33.604  28.375  22.646  1.00  0.00     0.261 C 
BRANCH   5   6
ATOM      6  O   UNL A   1      33.931  27.107  22.070  1.00  0.00    -0.459 OA
BRANCH   6   7
ATOM      7  C   UNL A   1      32.896  26.313  21.730  1.00  0.00     0.355 C 
ATOM      8  O   UNL A   1      32.633  25.934  20.597  1.00  0.00    -0.244 OA
BRANCH   7   9
ATOM      9  C   UNL A   1      32.089  25.886  22.926  1.00  0.00     0.132 C 
ATOM     10  C   UNL A   1      33.046  23.102  24.663  1.00  0.00     0.206 C 
ATOM     11  C   UNL A   1      33.745  24.388  24.143  1.00  0.00     0.253 C 
ATOM     12  C   UNL A   1      31.738  23.863  24.286  1.00  0.00     0.181 C 
ATOM     13  O   UNL A   1      34.846  24.861  24.221  1.00  0.00    -0.272 OA
ATOM     14  N   UNL A   1      32.573  24.788  23.577  1.00  0.00    -0.289 N 
ATOM     15  S   UNL A   1      30.891  24.796  25.583  1.00  0.00    -0.129 SA
ATOM     16  C   UNL A   1      30.005  25.800  24.369  1.00  0.00     0.106 C 
ATOM     17  C   UNL A   1      30.901  26.434  23.304  1.00  0.00    -0.019 C 
BRANCH  10  18
ATOM     18  N   UNL A   1      33.208  22.641  26.063  1.00  0.00    -0.336 N 
ATOM     19  C   UNL A   1      33.705  21.417  26.485  1.00  0.00     0.270 C 
ATOM     20  O   UNL A   1      33.761  21.204  27.694  1.00  0.00    -0.268 OA
ATOM     21  H   UNL A   1      32.933  23.270  26.768  1.00  0.00     0.164 HD
BRANCH  19  22
ATOM     22  C   UNL A   1      34.050  20.431  25.478  1.00  0.00     0.126 A 
ATOM     23  C   UNL A   1      33.819  17.087  24.072  1.00  0.00     0.069 C 
ATOM     24  C   UNL A   1      34.155  18.489  24.416  1.00  0.00     0.060 A 
ATOM     25  C   UNL A   1      33.271  19.533  24.762  1.00  0.00     0.059 A 
ATOM     26  N   UNL A   1      35.423  18.884  24.539  1.00  0.00    -0.178 NA
ATOM     27  N   UNL A   1      35.324  20.134  25.048  1.00  0.00    -0.263 N 
ATOM     28  C   UNL A   1      36.516  20.948  25.075  1.00  0.00     0.174 C 
ENDBRANCH  19  22
ENDBRANCH  10  18
BRANCH  17  29
ATOM     29  C   UNL A   1      30.235  27.631  22.666  1.00  0.00     0.111 C 
BRANCH  29  30
ATOM     30  S   UNL A   1      28.514  27.988  23.085  1.00  0.00    -0.089 SA
BRANCH  30  31
ATOM     31  C   UNL A   1      28.245  29.713  23.049  1.00  0.00     0.174 A 
ATOM     32  N   UNL A   1      27.169  30.320  23.486  1.00  0.00    -0.132 NA
ATOM     33  S   UNL A   1      29.438  30.801  22.452  1.00  0.00    -0.091 S 
ATOM     34  N   UNL A   1      27.290  31.696  23.489  1.00  0.00    -0.143 NA
ATOM     35  C   UNL A   1      28.467  32.085  23.048  1.00  0.00     0.115 A 
ATOM     36  C   UNL A   1      28.954  33.489  23.050  1.00  0.00     0.081 C 
ENDBRANCH  30  31
ENDBRANCH  29  30
ENDBRANCH  17  29
ENDBRANCH   7   9
ENDBRANCH   6   7
ENDBRANCH   5   6
ENDBRANCH   4   5
ENDBRANCH   3   4
ENDBRANCH   2   3
ENDBRANCH   1   2
BRANCH   1  37
ATOM     37  O   UNL A   1      34.577  31.056  27.840  1.00  0.00    -0.377 OA
BRANCH  37  38
ATOM     38  C   UNL A   1      34.360  32.157  28.699  1.00  0.00     0.188 C 
BRANCH  38  39
ATOM     39  C   UNL A   1      33.865  33.413  27.961  1.00  0.00     0.188 C 
BRANCH  39  40
ATOM     40  O   UNL A   1      32.868  34.149  28.640  1.00  0.00    -0.376 OA
BRANCH  40  41
ATOM     41  C   UNL A   1      33.066  35.511  28.980  1.00  0.00     0.202 C 
BRANCH  41  42
ATOM     42  C   UNL A   1      33.020  36.112  30.402  1.00  0.00     0.261 C 
BRANCH  42  43
ATOM     43  O   UNL A   1      34.036  35.768  31.349  1.00  0.00    -0.460 OA
BRANCH  43  44
ATOM     44  C   UNL A   1      33.821  34.723  32.172  1.00  0.00     0.338 C 
ATOM     45  O   UNL A   1      32.818  34.480  32.813  1.00  0.00    -0.246 OA
BRANCH  44  46
ATOM     46  C   UNL A   1      34.981  33.817  32.024  1.00  0.00     0.060 A 
ATOM     47  C   UNL A   1      35.026  32.628  32.765  1.00  0.00     0.016 A 
ATOM     48  C   UNL A   1      36.010  34.130  31.134  1.00  0.00     0.016 A 
ATOM     49  C   UNL A   1      36.108  31.759  32.634  1.00  0.00     0.010 A 
ATOM     50  C   UNL A   1      37.105  33.268  31.017  1.00  0.00     0.010 A 
ATOM     51  C   UNL A   1      37.175  32.099  31.795  1.00  0.00    -0.014 A 
BRANCH  51  52
ATOM     52  C   UNL A   1      38.454  31.359  31.905  1.00  0.00     0.031 A 
ATOM     53  C   UNL A   1      39.432  31.791  32.965  1.00  0.00     0.074 A 
ATOM     54  C   UNL A   1      38.734  30.308  31.115  1.00  0.00     0.049 A 
ATOM     55  N   UNL A   1      40.627  31.335  33.229  1.00  0.00    -0.248 NA
ATOM     56  C   UNL A   1      38.998  32.894  33.841  1.00  0.00     0.031 C 
ATOM     57  C   UNL A   1      37.850  29.753  30.093  1.00  0.00     0.029 A 
ATOM     58  N   UNL A   1      39.860  29.524  31.054  1.00  0.00    -0.354 N 
ATOM     59  C   UNL A   1      41.094  32.104  34.289  1.00  0.00     0.074 A 
ATOM     60  C   UNL A   1      40.070  33.077  34.594  1.00  0.00     0.031 C 
ATOM     61  C   UNL A   1      38.470  28.716  29.502  1.00  0.00     0.029 A 
ATOM     62  C   UNL A   1      39.806  28.562  30.075  1.00  0.00     0.049 A 
ATOM     63  H   UNL A   1      40.631  29.638  31.655  1.00  0.00     0.167 HD
ATOM     64  C   UNL A   1      42.269  32.005  34.956  1.00  0.00     0.031 A 
ATOM     65  C   UNL A   1      40.740  27.677  29.674  1.00  0.00     0.031 A 
ATOM     66  C   UNL A   1      43.294  31.048  34.641  1.00  0.00     0.049 A 
ATOM     67  C   UNL A   1      42.079  27.650  30.366  1.00  0.00     0.074 A 
ATOM     68  C   UNL A   1      44.516  30.858  35.262  1.00  0.00     0.029 A 
ATOM     69  N   UNL A   1      43.222  30.126  33.608  1.00  0.00    -0.354 N 
ATOM     70  N   UNL A   1      42.504  28.366  31.380  1.00  0.00    -0.248 NA
ATOM     71  C   UNL A   1      43.068  26.687  29.857  1.00  0.00     0.031 C 
ATOM     72  C   UNL A   1      45.214  29.872  34.560  1.00  0.00     0.029 A 
ATOM     73  C   UNL A   1      44.393  29.389  33.552  1.00  0.00     0.049 A 
ATOM     74  H   UNL A   1      42.453  30.011  33.004  1.00  0.00     0.167 HD
ATOM     75  C   UNL A   1      43.791  27.915  31.653  1.00  0.00     0.074 A 
ATOM     76  C   UNL A   1      44.072  26.855  30.707  1.00  0.00     0.031 C 
ATOM     77  C   UNL A   1      44.661  28.337  32.603  1.00  0.00     0.031 A 
BRANCH  64  78
ATOM     78  C   UNL A   1      42.521  32.994  36.059  1.00  0.00    -0.014 A 
ATOM     79  C   UNL A   1      42.130  32.738  37.383  1.00  0.00     0.009 A 
ATOM     80  C   UNL A   1      43.177  34.202  35.769  1.00  0.00     0.009 A 
ATOM     81  C   UNL A   1      42.353  33.686  38.383  1.00  0.00     0.001 A 
ATOM     82  C   UNL A   1      43.432  35.132  36.779  1.00  0.00     0.001 A 
ATOM     83  C   UNL A   1      43.009  34.879  38.081  1.00  0.00     0.000 A 
ENDBRANCH  64  78
BRANCH  65  84
ATOM     84  C   UNL A   1      40.457  26.753  28.542  1.00  0.00    -0.014 A 
ATOM     85  C   UNL A   1      40.967  27.010  27.261  1.00  0.00     0.009 A 
ATOM     86  C   UNL A   1      39.649  25.620  28.733  1.00  0.00     0.009 A 
ATOM     87  C   UNL A   1      40.654  26.168  26.190  1.00  0.00     0.001 A 
ATOM     88  C   UNL A   1      39.365  24.762  27.670  1.00  0.00     0.001 A 
ATOM     89  C   UNL A   1      39.858  25.042  26.396  1.00  0.00     0.000 A 
ENDBRANCH  65  84
BRANCH  77  90
ATOM     90  C   UNL A   1      45.983  27.624  32.704  1.00  0.00    -0.014 A 
ATOM     91  C   UNL A   1      47.121  28.083  32.022  1.00  0.00     0.009 A 
ATOM     92  C   UNL A   1      46.101  26.500  33.539  1.00  0.00     0.009 A 
ATOM     93  C   UNL A   1      48.339  27.407  32.146  1.00  0.00     0.001 A 
ATOM     94  C   UNL A   1      47.326  25.850  33.689  1.00  0.00     0.001 A 
ATOM     95  C   UNL A   1      48.441  26.298  32.983  1.00  0.00     0.000 A 
ENDBRANCH  77  90
ENDBRANCH  51  52
ENDBRANCH  44  46
ENDBRANCH  43  44
ENDBRANCH  42  43
ENDBRANCH  41  42
ENDBRANCH  40  41
ENDBRANCH  39  40
ENDBRANCH  38  39
ENDBRANCH  37  38
ENDBRANCH   1  37
TORSDOF 25
ENDMDL
MODEL 3
REMARK VINA RESULT:      -9.9      3.394      6.198
REMARK SMILES Cc1cc(C(=O)N[C@@H]2C(=O)N3C(C(=O)OCCOCCOCCOCCOC(=O)c4ccc(-c5c6nc(c(-c7ccccc7)c7ccc([nH]7)c(-c7ccccc7)c7nc(c(-c8ccccc8)c8ccc5[nH]8)C=C7)C=C6)cc4)=C(CSc4nnc(C)s4)CS[C@H]23)n(C)n1
REMARK SMILES IDX 20 1 19 2 18 3 17 4 16 5 15 6 13 7 14 8 12 9 8 10 9 11 89 12
REMARK SMILES IDX 10 13 11 14 88 15 87 16 78 17 7 18 5 19 6 20 4 22 1 23 2 24
REMARK SMILES IDX 3 25 92 26 90 27 91 28 79 29 80 30 81 31 82 32 86 33 83 34
REMARK SMILES IDX 84 35 85 36 21 37 22 38 23 39 24 40 25 41 26 42 27 43 28 44
REMARK SMILES IDX 29 45 30 46 31 47 77 48 32 49 76 50 33 51 34 52 35 53 70 54
REMARK SMILES IDX 36 55 75 56 69 57 71 58 37 59 74 60 68 61 67 62 38 64 60 65
REMARK SMILES IDX 45 66 59 67 46 68 49 69 58 70 72 71 47 72 48 73 57 75 73 76
REMARK SMILES IDX 50 77 39 78 40 79 44 80 41 81 43 82 42 83 61 84 62 85 66 86
REMARK SMILES IDX 63 87 65 88 64 89 51 90 52 91 56 92 53 93 55 94 54 95
REMARK H PARENT 7 21 71 63 49 74
REMARK Flexibility Score: inf
ROOT
ATOM      1  C   UNL A   1      33.376  31.075  27.360  1.00  0.00     0.188 C 
ENDROOT
BRANCH   1   2
ATOM      2  C   UNL A   1      33.403  29.555  27.042  1.00  0.00     0.188 C 
BRANCH   2   3
ATOM      3  O   UNL A   1      33.040  29.219  25.716  1.00  0.00    -0.376 OA
BRANCH   3   4
ATOM      4  C   UNL A   1      34.012  28.768  24.801  1.00  0.00     0.202 C 
BRANCH   4   5
ATOM      5  C   UNL A   1      33.681  28.718  23.303  1.00  0.00     0.261 C 
BRANCH   5   6
ATOM      6  O   UNL A   1      34.038  27.517  22.614  1.00  0.00    -0.459 OA
BRANCH   6   7
ATOM      7  C   UNL A   1      33.022  26.764  22.145  1.00  0.00     0.355 C 
ATOM      8  O   UNL A   1      32.850  26.454  20.974  1.00  0.00    -0.244 OA
BRANCH   7   9
ATOM      9  C   UNL A   1      32.110  26.290  23.243  1.00  0.00     0.132 C 
ATOM     10  C   UNL A   1      32.877  23.402  24.904  1.00  0.00     0.206 C 
ATOM     11  C   UNL A   1      33.636  24.701  24.514  1.00  0.00     0.253 C 
ATOM     12  C   UNL A   1      31.616  24.205  24.458  1.00  0.00     0.181 C 
ATOM     13  O   UNL A   1      34.732  25.150  24.711  1.00  0.00    -0.272 OA
ATOM     14  N   UNL A   1      32.522  25.151  23.873  1.00  0.00    -0.289 N 
ATOM     15  S   UNL A   1      30.674  25.084  25.726  1.00  0.00    -0.129 SA
ATOM     16  C   UNL A   1      29.909  26.166  24.497  1.00  0.00     0.106 C 
ATOM     17  C   UNL A   1      30.901  26.839  23.547  1.00  0.00    -0.019 C 
BRANCH  10  18
ATOM     18  N   UNL A   1      32.912  22.866  26.285  1.00  0.00    -0.336 N 
ATOM     19  C   UNL A   1      33.494  21.679  26.704  1.00  0.00     0.270 C 
ATOM     20  O   UNL A   1      33.420  21.391  27.896  1.00  0.00    -0.268 OA
ATOM     21  H   UNL A   1      32.475  23.410  26.979  1.00  0.00     0.164 HD
BRANCH  19  22
ATOM     22  C   UNL A   1      34.082  20.811  25.702  1.00  0.00     0.126 A 
ATOM     23  C   UNL A   1      34.589  17.531  24.218  1.00  0.00     0.069 C 
ATOM     24  C   UNL A   1      34.625  18.961  24.610  1.00  0.00     0.060 A 
ATOM     25  C   UNL A   1      33.536  19.802  24.921  1.00  0.00     0.059 A 
ATOM     26  N   UNL A   1      35.783  19.589  24.820  1.00  0.00    -0.178 NA
ATOM     27  N   UNL A   1      35.412  20.780  25.346  1.00  0.00    -0.263 N 
ATOM     28  C   UNL A   1      36.419  21.808  25.463  1.00  0.00     0.174 C 
ENDBRANCH  19  22
ENDBRANCH  10  18
BRANCH  17  29
ATOM     29  C   UNL A   1      30.309  28.079  22.920  1.00  0.00     0.111 C 
BRANCH  29  30
ATOM     30  S   UNL A   1      30.108  29.554  23.944  1.00  0.00    -0.089 SA
BRANCH  30  31
ATOM     31  C   UNL A   1      29.167  30.746  23.082  1.00  0.00     0.174 A 
ATOM     32  N   UNL A   1      28.820  31.919  23.552  1.00  0.00    -0.132 NA
ATOM     33  S   UNL A   1      28.635  30.480  21.467  1.00  0.00    -0.091 S 
ATOM     34  N   UNL A   1      28.223  32.725  22.601  1.00  0.00    -0.143 NA
ATOM     35  C   UNL A   1      28.138  32.124  21.434  1.00  0.00     0.115 A 
ATOM     36  C   UNL A   1      27.666  32.766  20.180  1.00  0.00     0.081 C 
ENDBRANCH  30  31
ENDBRANCH  29  30
ENDBRANCH  17  29
ENDBRANCH   7   9
ENDBRANCH   6   7
ENDBRANCH   5   6
ENDBRANCH   4   5
ENDBRANCH   3   4
ENDBRANCH   2   3
ENDBRANCH   1   2
BRANCH   1  37
ATOM     37  O   UNL A   1      34.543  31.838  27.653  1.00  0.00    -0.377 OA
BRANCH  37  38
ATOM     38  C   UNL A   1      34.420  32.963  28.498  1.00  0.00     0.188 C 
BRANCH  38  39
ATOM     39  C   UNL A   1      33.260  33.893  28.104  1.00  0.00     0.188 C 
BRANCH  39  40
ATOM     40  O   UNL A   1      32.583  34.494  29.190  1.00  0.00    -0.376 OA
BRANCH  40  41
ATOM     41  C   UNL A   1      33.011  35.737  29.722  1.00  0.00     0.202 C 
BRANCH  41  42
ATOM     42  C   UNL A   1      33.531  35.984  31.156  1.00  0.00     0.261 C 
BRANCH  42  43
ATOM     43  O   UNL A   1      34.637  35.222  31.648  1.00  0.00    -0.460 OA
BRANCH  43  44
ATOM     44  C   UNL A   1      34.386  34.061  32.285  1.00  0.00     0.338 C 
ATOM     45  O   UNL A   1      33.327  33.683  32.745  1.00  0.00    -0.246 OA
BRANCH  44  46
ATOM     46  C   UNL A   1      35.611  33.238  32.173  1.00  0.00     0.060 A 
ATOM     47  C   UNL A   1      35.672  32.000  32.827  1.00  0.00     0.016 A 
ATOM     48  C   UNL A   1      36.687  33.680  31.400  1.00  0.00     0.016 A 
ATOM     49  C   UNL A   1      36.816  31.210  32.728  1.00  0.00     0.010 A 
ATOM     50  C   UNL A   1      37.841  32.896  31.317  1.00  0.00     0.010 A 
ATOM     51  C   UNL A   1      37.923  31.676  32.012  1.00  0.00    -0.014 A 
BRANCH  51  52
ATOM     52  C   UNL A   1      39.235  31.006  32.178  1.00  0.00     0.031 A 
ATOM     53  C   UNL A   1      39.604  29.923  31.200  1.00  0.00     0.074 A 
ATOM     54  C   UNL A   1      40.095  31.364  33.147  1.00  0.00     0.049 A 
ATOM     55  N   UNL A   1      40.667  29.164  31.162  1.00  0.00    -0.248 NA
ATOM     56  C   UNL A   1      38.636  29.663  30.120  1.00  0.00     0.031 C 
ATOM     57  C   UNL A   1      39.884  32.433  34.119  1.00  0.00     0.029 A 
ATOM     58  N   UNL A   1      41.328  30.851  33.468  1.00  0.00    -0.354 N 
ATOM     59  C   UNL A   1      40.488  28.327  30.067  1.00  0.00     0.074 A 
ATOM     60  C   UNL A   1      39.202  28.646  29.490  1.00  0.00     0.031 C 
ATOM     61  C   UNL A   1      40.953  32.495  34.934  1.00  0.00     0.029 A 
ATOM     62  C   UNL A   1      41.900  31.444  34.566  1.00  0.00     0.049 A 
ATOM     63  H   UNL A   1      41.760  30.127  32.961  1.00  0.00     0.167 HD
ATOM     64  C   UNL A   1      41.324  27.380  29.578  1.00  0.00     0.031 A 
ATOM     65  C   UNL A   1      43.048  31.155  35.212  1.00  0.00     0.031 A 
ATOM     66  C   UNL A   1      42.596  27.050  30.161  1.00  0.00     0.049 A 
ATOM     67  C   UNL A   1      43.916  30.030  34.708  1.00  0.00     0.074 A 
ATOM     68  C   UNL A   1      43.521  26.115  29.737  1.00  0.00     0.029 A 
ATOM     69  N   UNL A   1      43.116  27.640  31.304  1.00  0.00    -0.354 N 
ATOM     70  N   UNL A   1      43.750  29.258  33.660  1.00  0.00    -0.248 NA
ATOM     71  C   UNL A   1      45.136  29.740  35.477  1.00  0.00     0.031 C 
ATOM     72  C   UNL A   1      44.568  26.086  30.663  1.00  0.00     0.029 A 
ATOM     73  C   UNL A   1      44.333  27.062  31.619  1.00  0.00     0.049 A 
ATOM     74  H   UNL A   1      42.684  28.362  31.814  1.00  0.00     0.167 HD
ATOM     75  C   UNL A   1      44.859  28.419  33.625  1.00  0.00     0.074 A 
ATOM     76  C   UNL A   1      45.697  28.786  34.747  1.00  0.00     0.031 C 
ATOM     77  C   UNL A   1      45.158  27.435  32.741  1.00  0.00     0.031 A 
BRANCH  64  78
ATOM     78  C   UNL A   1      40.857  26.600  28.380  1.00  0.00    -0.014 A 
ATOM     79  C   UNL A   1      39.902  25.578  28.492  1.00  0.00     0.009 A 
ATOM     80  C   UNL A   1      41.376  26.905  27.111  1.00  0.00     0.009 A 
ATOM     81  C   UNL A   1      39.506  24.851  27.367  1.00  0.00     0.001 A 
ATOM     82  C   UNL A   1      40.951  26.202  25.982  1.00  0.00     0.001 A 
ATOM     83  C   UNL A   1      40.026  25.168  26.113  1.00  0.00     0.000 A 
ENDBRANCH  64  78
BRANCH  65  84
ATOM     84  C   UNL A   1      43.438  31.925  36.424  1.00  0.00    -0.014 A 
ATOM     85  C   UNL A   1      43.015  31.520  37.699  1.00  0.00     0.009 A 
ATOM     86  C   UNL A   1      44.215  33.089  36.308  1.00  0.00     0.009 A 
ATOM     87  C   UNL A   1      43.340  32.276  38.828  1.00  0.00     0.001 A 
ATOM     88  C   UNL A   1      44.567  33.825  37.441  1.00  0.00     0.001 A 
ATOM     89  C   UNL A   1      44.120  33.425  38.699  1.00  0.00     0.000 A 
ENDBRANCH  65  84
BRANCH  77  90
ATOM     90  C   UNL A   1      46.467  26.714  32.918  1.00  0.00    -0.014 A 
ATOM     91  C   UNL A   1      46.567  25.547  33.691  1.00  0.00     0.009 A 
ATOM     92  C   UNL A   1      47.613  27.187  32.255  1.00  0.00     0.009 A 
ATOM     93  C   UNL A   1      47.794  24.891  33.826  1.00  0.00     0.001 A 
ATOM     94  C   UNL A   1      48.828  26.510  32.363  1.00  0.00     0.001 A 
ATOM     95  C   UNL A   1      48.919  25.369  33.158  1.00  0.00     0.000 A 
ENDBRANCH  77  90
ENDBRANCH  51  52
ENDBRANCH  44  46
ENDBRANCH  43  44
ENDBRANCH  42  43
ENDBRANCH  41  42
ENDBRANCH  40  41
ENDBRANCH  39  40
ENDBRANCH  38  39
ENDBRANCH  37  38
ENDBRANCH   1  37
TORSDOF 25
ENDMDL
