MODEL 1
REMARK VINA RESULT:      -8.7      0.000      0.000
REMARK SMILES CS(=O)(=O)c1ccc(/C=C(/C(=O)OCCOCCOCCOCCOC(=O)c2ccc(-c3c4nc(c(-c5ccccc5)c5ccc([nH]5)c(-c5ccccc5)c5nc(c(-c6ccccc6)c6ccc3[nH]6)C=C5)C=C4)cc2)c2ccc(O)cc2)cc1
REMARK SMILES IDX 19 1 18 2 17 3 16 4 15 5 14 6 13 7 11 8 12 9 10 10 9 11 8 12
REMARK SMILES IDX 5 13 6 14 84 15 7 16 83 17 2 18 1 19 3 20 4 21 76 22 77 23
REMARK SMILES IDX 82 24 78 25 81 26 79 27 80 28 20 30 21 31 22 32 23 33 24 34
REMARK SMILES IDX 25 35 26 36 27 37 28 38 29 39 75 40 30 41 74 42 31 43 32 44
REMARK SMILES IDX 33 45 68 46 34 47 73 48 67 49 69 50 35 51 72 52 66 53 65 54
REMARK SMILES IDX 36 56 58 57 43 58 57 59 44 60 47 61 56 62 70 63 45 64 46 65
REMARK SMILES IDX 55 67 71 68 48 69 37 70 38 71 42 72 39 73 41 74 40 75 59 76
REMARK SMILES IDX 60 77 64 78 61 79 63 80 62 81 49 82 50 83 54 84 51 85 53 86
REMARK SMILES IDX 52 87
REMARK H PARENT 80 29 69 55 47 66
REMARK Flexibility Score: inf
ROOT
ATOM      1  O   UNL A   1      35.905  23.031  24.753  1.00  0.00    -0.377 OA
ENDROOT
BRANCH   1   2
ATOM      2  C   UNL A   1      37.200  22.457  24.810  1.00  0.00     0.188 C 
BRANCH   2   3
ATOM      3  C   UNL A   1      37.339  20.921  24.928  1.00  0.00     0.188 C 
BRANCH   3   4
ATOM      4  O   UNL A   1      36.152  20.213  24.613  1.00  0.00    -0.376 OA
BRANCH   4   5
ATOM      5  C   UNL A   1      36.230  18.799  24.600  1.00  0.00     0.202 C 
BRANCH   5   6
ATOM      6  C   UNL A   1      34.905  18.020  24.603  1.00  0.00     0.261 C 
BRANCH   6   7
ATOM      7  O   UNL A   1      33.857  18.555  23.776  1.00  0.00    -0.460 OA
BRANCH   7   8
ATOM      8  C   UNL A   1      32.752  19.035  24.398  1.00  0.00     0.338 C 
ATOM      9  O   UNL A   1      31.974  18.366  25.058  1.00  0.00    -0.246 OA
BRANCH   8  10
ATOM     10  C   UNL A   1      32.692  20.534  24.285  1.00  0.00     0.067 C 
ATOM     11  C   UNL A   1      32.425  21.096  23.080  1.00  0.00     0.024 C 
BRANCH  11  12
ATOM     12  C   UNL A   1      32.134  22.515  22.755  1.00  0.00    -0.025 A 
ATOM     13  C   UNL A   1      31.673  25.285  22.650  1.00  0.00     0.067 A 
ATOM     14  C   UNL A   1      32.801  24.750  22.036  1.00  0.00     0.021 A 
ATOM     15  C   UNL A   1      30.705  24.442  23.194  1.00  0.00     0.021 A 
ATOM     16  C   UNL A   1      33.004  23.368  22.062  1.00  0.00     0.009 A 
ATOM     17  C   UNL A   1      30.936  23.062  23.241  1.00  0.00     0.009 A 
BRANCH  13  18
ATOM     18  S   UNL A   1      31.501  27.045  22.811  1.00  0.00     0.175 S 
ATOM     19  C   UNL A   1      33.121  27.699  22.480  1.00  0.00     0.163 C 
ATOM     20  O   UNL A   1      31.215  27.323  24.206  1.00  0.00    -0.224 OA
ATOM     21  O   UNL A   1      30.607  27.480  21.757  1.00  0.00    -0.224 OA
ENDBRANCH  13  18
ENDBRANCH  11  12
BRANCH  10  22
ATOM     22  C   UNL A   1      32.911  21.329  25.513  1.00  0.00    -0.011 A 
ATOM     23  C   UNL A   1      31.930  22.241  25.945  1.00  0.00     0.013 A 
ATOM     24  C   UNL A   1      34.019  21.092  26.332  1.00  0.00     0.013 A 
ATOM     25  C   UNL A   1      32.036  22.879  27.179  1.00  0.00     0.047 A 
ATOM     26  C   UNL A   1      34.121  21.722  27.577  1.00  0.00     0.047 A 
ATOM     27  C   UNL A   1      33.123  22.600  27.994  1.00  0.00     0.115 A 
BRANCH  27  28
ATOM     28  O   UNL A   1      33.155  23.194  29.219  1.00  0.00    -0.508 OA
ATOM     29  H   UNL A   1      32.482  23.014  29.845  1.00  0.00     0.293 HD
ENDBRANCH  27  28
ENDBRANCH  10  22
ENDBRANCH   8  10
ENDBRANCH   7   8
ENDBRANCH   6   7
ENDBRANCH   5   6
ENDBRANCH   4   5
ENDBRANCH   3   4
ENDBRANCH   2   3
ENDBRANCH   1   2
BRANCH   1  30
ATOM     30  C   UNL A   1      35.661  24.265  25.417  1.00  0.00     0.188 C 
BRANCH  30  31
ATOM     31  C   UNL A   1      34.334  25.032  25.200  1.00  0.00     0.188 C 
BRANCH  31  32
ATOM     32  O   UNL A   1      34.093  26.077  26.128  1.00  0.00    -0.376 OA
BRANCH  32  33
ATOM     33  C   UNL A   1      34.317  27.408  25.699  1.00  0.00     0.202 C 
BRANCH  33  34
ATOM     34  C   UNL A   1      33.543  28.512  26.431  1.00  0.00     0.261 C 
BRANCH  34  35
ATOM     35  O   UNL A   1      34.011  28.844  27.747  1.00  0.00    -0.460 OA
BRANCH  35  36
ATOM     36  C   UNL A   1      34.593  30.048  27.917  1.00  0.00     0.338 C 
ATOM     37  O   UNL A   1      34.047  31.140  27.939  1.00  0.00    -0.246 OA
BRANCH  36  38
ATOM     38  C   UNL A   1      36.007  29.809  28.269  1.00  0.00     0.060 A 
ATOM     39  C   UNL A   1      37.001  30.027  27.305  1.00  0.00     0.016 A 
ATOM     40  C   UNL A   1      36.348  29.401  29.560  1.00  0.00     0.016 A 
ATOM     41  C   UNL A   1      38.342  29.810  27.624  1.00  0.00     0.010 A 
ATOM     42  C   UNL A   1      37.687  29.157  29.870  1.00  0.00     0.010 A 
ATOM     43  C   UNL A   1      38.685  29.328  28.893  1.00  0.00    -0.014 A 
BRANCH  43  44
ATOM     44  C   UNL A   1      40.047  28.799  29.136  1.00  0.00     0.031 A 
ATOM     45  C   UNL A   1      41.045  29.701  29.808  1.00  0.00     0.074 A 
ATOM     46  C   UNL A   1      40.392  27.548  28.786  1.00  0.00     0.049 A 
ATOM     47  N   UNL A   1      42.307  29.490  30.080  1.00  0.00    -0.248 NA
ATOM     48  C   UNL A   1      40.551  31.025  30.225  1.00  0.00     0.031 C 
ATOM     49  C   UNL A   1      39.503  26.560  28.178  1.00  0.00     0.029 A 
ATOM     50  N   UNL A   1      41.598  26.900  28.892  1.00  0.00    -0.354 N 
ATOM     51  C   UNL A   1      42.758  30.654  30.689  1.00  0.00     0.074 A 
ATOM     52  C   UNL A   1      41.647  31.579  30.719  1.00  0.00     0.031 C 
ATOM     53  C   UNL A   1      40.200  25.431  27.954  1.00  0.00     0.029 A 
ATOM     54  C   UNL A   1      41.588  25.631  28.369  1.00  0.00     0.049 A 
ATOM     55  H   UNL A   1      42.394  27.308  29.304  1.00  0.00     0.167 HD
ATOM     56  C   UNL A   1      43.988  30.929  31.184  1.00  0.00     0.031 A 
ATOM     57  C   UNL A   1      42.592  24.744  28.221  1.00  0.00     0.031 A 
ATOM     58  C   UNL A   1      45.098  30.017  31.136  1.00  0.00     0.049 A 
ATOM     59  C   UNL A   1      43.976  25.109  28.696  1.00  0.00     0.074 A 
ATOM     60  C   UNL A   1      46.382  30.197  31.619  1.00  0.00     0.029 A 
ATOM     61  N   UNL A   1      45.057  28.757  30.558  1.00  0.00    -0.354 N 
ATOM     62  N   UNL A   1      44.386  26.201  29.294  1.00  0.00    -0.248 NA
ATOM     63  C   UNL A   1      45.034  24.110  28.479  1.00  0.00     0.031 C 
ATOM     64  C   UNL A   1      47.137  29.071  31.274  1.00  0.00     0.029 A 
ATOM     65  C   UNL A   1      46.304  28.161  30.644  1.00  0.00     0.049 A 
ATOM     66  H   UNL A   1      44.262  28.348  30.149  1.00  0.00     0.167 HD
ATOM     67  C   UNL A   1      45.738  26.007  29.555  1.00  0.00     0.074 A 
ATOM     68  C   UNL A   1      46.074  24.687  29.063  1.00  0.00     0.031 C 
ATOM     69  C   UNL A   1      46.622  26.845  30.151  1.00  0.00     0.031 A 
BRANCH  56  70
ATOM     70  C   UNL A   1      44.203  32.293  31.781  1.00  0.00    -0.014 A 
ATOM     71  C   UNL A   1      44.561  33.393  30.987  1.00  0.00     0.009 A 
ATOM     72  C   UNL A   1      44.020  32.481  33.159  1.00  0.00     0.009 A 
ATOM     73  C   UNL A   1      44.767  34.647  31.568  1.00  0.00     0.001 A 
ATOM     74  C   UNL A   1      44.194  33.742  33.732  1.00  0.00     0.001 A 
ATOM     75  C   UNL A   1      44.577  34.821  32.938  1.00  0.00     0.000 A 
ENDBRANCH  56  70
BRANCH  57  76
ATOM     76  C   UNL A   1      42.339  23.429  27.571  1.00  0.00    -0.014 A 
ATOM     77  C   UNL A   1      41.891  22.332  28.322  1.00  0.00     0.009 A 
ATOM     78  C   UNL A   1      42.579  23.256  26.199  1.00  0.00     0.009 A 
ATOM     79  C   UNL A   1      41.715  21.084  27.720  1.00  0.00     0.001 A 
ATOM     80  C   UNL A   1      42.371  22.015  25.592  1.00  0.00     0.001 A 
ATOM     81  C   UNL A   1      41.950  20.928  26.354  1.00  0.00     0.000 A 
ENDBRANCH  57  76
BRANCH  69  82
ATOM     82  C   UNL A   1      48.027  26.345  30.351  1.00  0.00    -0.014 A 
ATOM     83  C   UNL A   1      48.437  25.761  31.560  1.00  0.00     0.009 A 
ATOM     84  C   UNL A   1      48.944  26.417  29.289  1.00  0.00     0.009 A 
ATOM     85  C   UNL A   1      49.744  25.295  31.713  1.00  0.00     0.001 A 
ATOM     86  C   UNL A   1      50.240  25.918  29.433  1.00  0.00     0.001 A 
ATOM     87  C   UNL A   1      50.641  25.368  30.648  1.00  0.00     0.000 A 
ENDBRANCH  69  82
ENDBRANCH  43  44
ENDBRANCH  36  38
ENDBRANCH  35  36
ENDBRANCH  34  35
ENDBRANCH  33  34
ENDBRANCH  32  33
ENDBRANCH  31  32
ENDBRANCH  30  31
ENDBRANCH   1  30
TORSDOF 24
ENDMDL
MODEL 2
REMARK VINA RESULT:      -8.7      3.096      8.148
REMARK SMILES CS(=O)(=O)c1ccc(/C=C(/C(=O)OCCOCCOCCOCCOC(=O)c2ccc(-c3c4nc(c(-c5ccccc5)c5ccc([nH]5)c(-c5ccccc5)c5nc(c(-c6ccccc6)c6ccc3[nH]6)C=C5)C=C4)cc2)c2ccc(O)cc2)cc1
REMARK SMILES IDX 19 1 18 2 17 3 16 4 15 5 14 6 13 7 11 8 12 9 10 10 9 11 8 12
REMARK SMILES IDX 5 13 6 14 84 15 7 16 83 17 2 18 1 19 3 20 4 21 76 22 77 23
REMARK SMILES IDX 82 24 78 25 81 26 79 27 80 28 20 30 21 31 22 32 23 33 24 34
REMARK SMILES IDX 25 35 26 36 27 37 28 38 29 39 75 40 30 41 74 42 31 43 32 44
REMARK SMILES IDX 33 45 68 46 34 47 73 48 67 49 69 50 35 51 72 52 66 53 65 54
REMARK SMILES IDX 36 56 58 57 43 58 57 59 44 60 47 61 56 62 70 63 45 64 46 65
REMARK SMILES IDX 55 67 71 68 48 69 37 70 38 71 42 72 39 73 41 74 40 75 59 76
REMARK SMILES IDX 60 77 64 78 61 79 63 80 62 81 49 82 50 83 54 84 51 85 53 86
REMARK SMILES IDX 52 87
REMARK H PARENT 80 29 69 55 47 66
REMARK Flexibility Score: inf
ROOT
ATOM      1  O   UNL A   1      40.875  20.692  26.200  1.00  0.00    -0.377 OA
ENDROOT
BRANCH   1   2
ATOM      2  C   UNL A   1      41.899  21.624  25.894  1.00  0.00     0.188 C 
BRANCH   2   3
ATOM      3  C   UNL A   1      41.675  23.120  26.212  1.00  0.00     0.188 C 
BRANCH   3   4
ATOM      4  O   UNL A   1      40.778  23.350  27.286  1.00  0.00    -0.376 OA
BRANCH   4   5
ATOM      5  C   UNL A   1      39.438  22.931  27.107  1.00  0.00     0.202 C 
BRANCH   5   6
ATOM      6  C   UNL A   1      38.591  23.696  26.078  1.00  0.00     0.261 C 
BRANCH   6   7
ATOM      7  O   UNL A   1      37.177  23.741  26.335  1.00  0.00    -0.460 OA
BRANCH   7   8
ATOM      8  C   UNL A   1      36.390  22.865  25.662  1.00  0.00     0.338 C 
ATOM      9  O   UNL A   1      36.665  21.694  25.453  1.00  0.00    -0.246 OA
BRANCH   8  10
ATOM     10  C   UNL A   1      35.063  23.492  25.331  1.00  0.00     0.067 C 
ATOM     11  C   UNL A   1      34.700  24.639  25.957  1.00  0.00     0.024 C 
BRANCH  11  12
ATOM     12  C   UNL A   1      33.549  25.533  25.674  1.00  0.00    -0.025 A 
ATOM     13  C   UNL A   1      31.507  27.161  24.636  1.00  0.00     0.067 A 
ATOM     14  C   UNL A   1      31.186  25.938  25.216  1.00  0.00     0.021 A 
ATOM     15  C   UNL A   1      32.815  27.642  24.692  1.00  0.00     0.021 A 
ATOM     16  C   UNL A   1      32.203  25.151  25.762  1.00  0.00     0.009 A 
ATOM     17  C   UNL A   1      33.828  26.829  25.214  1.00  0.00     0.009 A 
BRANCH  13  18
ATOM     18  S   UNL A   1      30.267  28.077  23.754  1.00  0.00     0.175 S 
ATOM     19  C   UNL A   1      30.893  28.223  22.097  1.00  0.00     0.163 C 
ATOM     20  O   UNL A   1      30.245  29.417  24.313  1.00  0.00    -0.224 OA
ATOM     21  O   UNL A   1      29.076  27.253  23.724  1.00  0.00    -0.224 OA
ENDBRANCH  13  18
ENDBRANCH  11  12
BRANCH  10  22
ATOM     22  C   UNL A   1      34.220  22.828  24.313  1.00  0.00    -0.011 A 
ATOM     23  C   UNL A   1      33.408  21.737  24.674  1.00  0.00     0.013 A 
ATOM     24  C   UNL A   1      34.111  23.351  23.020  1.00  0.00     0.013 A 
ATOM     25  C   UNL A   1      32.485  21.201  23.779  1.00  0.00     0.047 A 
ATOM     26  C   UNL A   1      33.176  22.821  22.125  1.00  0.00     0.047 A 
ATOM     27  C   UNL A   1      32.364  21.759  22.516  1.00  0.00     0.115 A 
BRANCH  27  28
ATOM     28  O   UNL A   1      31.406  21.247  21.695  1.00  0.00    -0.508 OA
ATOM     29  H   UNL A   1      31.289  20.319  21.632  1.00  0.00     0.293 HD
ENDBRANCH  27  28
ENDBRANCH  10  22
ENDBRANCH   8  10
ENDBRANCH   7   8
ENDBRANCH   6   7
ENDBRANCH   5   6
ENDBRANCH   4   5
ENDBRANCH   3   4
ENDBRANCH   2   3
ENDBRANCH   1   2
BRANCH   1  30
ATOM     30  C   UNL A   1      41.074  19.316  25.901  1.00  0.00     0.188 C 
BRANCH  30  31
ATOM     31  C   UNL A   1      42.232  18.524  26.553  1.00  0.00     0.188 C 
BRANCH  31  32
ATOM     32  O   UNL A   1      43.176  17.989  25.639  1.00  0.00    -0.376 OA
BRANCH  32  33
ATOM     33  C   UNL A   1      44.328  18.760  25.350  1.00  0.00     0.202 C 
BRANCH  33  34
ATOM     34  C   UNL A   1      44.457  19.308  23.923  1.00  0.00     0.261 C 
BRANCH  34  35
ATOM     35  O   UNL A   1      44.974  20.642  23.805  1.00  0.00    -0.460 OA
BRANCH  35  36
ATOM     36  C   UNL A   1      46.109  20.932  24.474  1.00  0.00     0.338 C 
ATOM     37  O   UNL A   1      47.163  20.316  24.450  1.00  0.00    -0.246 OA
BRANCH  36  38
ATOM     38  C   UNL A   1      45.921  22.253  25.106  1.00  0.00     0.060 A 
ATOM     39  C   UNL A   1      46.122  23.413  24.345  1.00  0.00     0.016 A 
ATOM     40  C   UNL A   1      45.516  22.341  26.439  1.00  0.00     0.016 A 
ATOM     41  C   UNL A   1      45.945  24.669  24.926  1.00  0.00     0.010 A 
ATOM     42  C   UNL A   1      45.366  23.598  27.028  1.00  0.00     0.010 A 
ATOM     43  C   UNL A   1      45.612  24.766  26.283  1.00  0.00    -0.014 A 
BRANCH  43  44
ATOM     44  C   UNL A   1      45.731  26.068  26.979  1.00  0.00     0.031 A 
ATOM     45  C   UNL A   1      44.465  26.755  27.412  1.00  0.00     0.074 A 
ATOM     46  C   UNL A   1      46.927  26.625  27.236  1.00  0.00     0.049 A 
ATOM     47  N   UNL A   1      44.306  27.918  27.986  1.00  0.00    -0.248 NA
ATOM     48  C   UNL A   1      43.209  26.030  27.156  1.00  0.00     0.031 C 
ATOM     49  C   UNL A   1      48.225  26.035  26.916  1.00  0.00     0.029 A 
ATOM     50  N   UNL A   1      47.236  27.824  27.827  1.00  0.00    -0.354 N 
ATOM     51  C   UNL A   1      42.935  28.069  28.151  1.00  0.00     0.074 A 
ATOM     52  C   UNL A   1      42.305  26.895  27.588  1.00  0.00     0.031 C 
ATOM     53  C   UNL A   1      49.194  26.883  27.307  1.00  0.00     0.029 A 
ATOM     54  C   UNL A   1      48.582  28.087  27.868  1.00  0.00     0.049 A 
ATOM     55  H   UNL A   1      46.555  28.439  28.187  1.00  0.00     0.167 HD
ATOM     56  C   UNL A   1      42.257  29.092  28.723  1.00  0.00     0.031 A 
ATOM     57  C   UNL A   1      49.242  29.185  28.288  1.00  0.00     0.031 A 
ATOM     58  C   UNL A   1      42.881  30.268  29.263  1.00  0.00     0.049 A 
ATOM     59  C   UNL A   1      48.459  30.352  28.837  1.00  0.00     0.074 A 
ATOM     60  C   UNL A   1      42.284  31.358  29.874  1.00  0.00     0.029 A 
ATOM     61  N   UNL A   1      44.245  30.515  29.245  1.00  0.00    -0.354 N 
ATOM     62  N   UNL A   1      47.166  30.473  29.013  1.00  0.00    -0.248 NA
ATOM     63  C   UNL A   1      49.234  31.531  29.251  1.00  0.00     0.031 C 
ATOM     64  C   UNL A   1      43.281  32.293  30.166  1.00  0.00     0.029 A 
ATOM     65  C   UNL A   1      44.506  31.754  29.806  1.00  0.00     0.049 A 
ATOM     66  H   UNL A   1      44.926  29.902  28.889  1.00  0.00     0.167 HD
ATOM     67  C   UNL A   1      46.975  31.725  29.588  1.00  0.00     0.074 A 
ATOM     68  C   UNL A   1      48.288  32.317  29.744  1.00  0.00     0.031 C 
ATOM     69  C   UNL A   1      45.819  32.329  29.956  1.00  0.00     0.031 A 
BRANCH  56  70
ATOM     70  C   UNL A   1      40.756  28.997  28.750  1.00  0.00    -0.014 A 
ATOM     71  C   UNL A   1      40.072  28.516  29.877  1.00  0.00     0.009 A 
ATOM     72  C   UNL A   1      40.016  29.419  27.635  1.00  0.00     0.009 A 
ATOM     73  C   UNL A   1      38.677  28.426  29.872  1.00  0.00     0.001 A 
ATOM     74  C   UNL A   1      38.621  29.359  27.645  1.00  0.00     0.001 A 
ATOM     75  C   UNL A   1      37.954  28.853  28.759  1.00  0.00     0.000 A 
ENDBRANCH  56  70
BRANCH  57  76
ATOM     76  C   UNL A   1      50.725  29.252  28.188  1.00  0.00    -0.014 A 
ATOM     77  C   UNL A   1      51.536  28.886  29.273  1.00  0.00     0.009 A 
ATOM     78  C   UNL A   1      51.337  29.716  27.013  1.00  0.00     0.009 A 
ATOM     79  C   UNL A   1      52.925  29.011  29.194  1.00  0.00     0.001 A 
ATOM     80  C   UNL A   1      52.728  29.808  26.925  1.00  0.00     0.001 A 
ATOM     81  C   UNL A   1      53.521  29.467  28.019  1.00  0.00     0.000 A 
ENDBRANCH  57  76
BRANCH  69  82
ATOM     82  C   UNL A   1      45.919  33.680  30.611  1.00  0.00    -0.014 A 
ATOM     83  C   UNL A   1      46.082  33.817  31.998  1.00  0.00     0.009 A 
ATOM     84  C   UNL A   1      45.897  34.837  29.814  1.00  0.00     0.009 A 
ATOM     85  C   UNL A   1      46.184  35.084  32.576  1.00  0.00     0.001 A 
ATOM     86  C   UNL A   1      46.034  36.101  30.391  1.00  0.00     0.001 A 
ATOM     87  C   UNL A   1      46.167  36.223  31.773  1.00  0.00     0.000 A 
ENDBRANCH  69  82
ENDBRANCH  43  44
ENDBRANCH  36  38
ENDBRANCH  35  36
ENDBRANCH  34  35
ENDBRANCH  33  34
ENDBRANCH  32  33
ENDBRANCH  31  32
ENDBRANCH  30  31
ENDBRANCH   1  30
TORSDOF 24
ENDMDL
MODEL 3
REMARK VINA RESULT:      -8.5      2.957      7.989
REMARK SMILES CS(=O)(=O)c1ccc(/C=C(/C(=O)OCCOCCOCCOCCOC(=O)c2ccc(-c3c4nc(c(-c5ccccc5)c5ccc([nH]5)c(-c5ccccc5)c5nc(c(-c6ccccc6)c6ccc3[nH]6)C=C5)C=C4)cc2)c2ccc(O)cc2)cc1
REMARK SMILES IDX 19 1 18 2 17 3 16 4 15 5 14 6 13 7 11 8 12 9 10 10 9 11 8 12
REMARK SMILES IDX 5 13 6 14 84 15 7 16 83 17 2 18 1 19 3 20 4 21 76 22 77 23
REMARK SMILES IDX 82 24 78 25 81 26 79 27 80 28 20 30 21 31 22 32 23 33 24 34
REMARK SMILES IDX 25 35 26 36 27 37 28 38 29 39 75 40 30 41 74 42 31 43 32 44
REMARK SMILES IDX 33 45 68 46 34 47 73 48 67 49 69 50 35 51 72 52 66 53 65 54
REMARK SMILES IDX 36 56 58 57 43 58 57 59 44 60 47 61 56 62 70 63 45 64 46 65
REMARK SMILES IDX 55 67 71 68 48 69 37 70 38 71 42 72 39 73 41 74 40 75 59 76
REMARK SMILES IDX 60 77 64 78 61 79 63 80 62 81 49 82 50 83 54 84 51 85 53 86
REMARK SMILES IDX 52 87
REMARK H PARENT 80 29 69 55 47 66
REMARK Flexibility Score: inf
ROOT
ATOM      1  O   UNL A   1      40.278  21.163  26.567  1.00  0.00    -0.377 OA
ENDROOT
BRANCH   1   2
ATOM      2  C   UNL A   1      41.320  22.103  26.361  1.00  0.00     0.188 C 
BRANCH   2   3
ATOM      3  C   UNL A   1      41.011  23.612  26.504  1.00  0.00     0.188 C 
BRANCH   3   4
ATOM      4  O   UNL A   1      39.905  23.894  27.345  1.00  0.00    -0.376 OA
BRANCH   4   5
ATOM      5  C   UNL A   1      38.652  23.357  26.961  1.00  0.00     0.202 C 
BRANCH   5   6
ATOM      6  C   UNL A   1      38.148  23.684  25.547  1.00  0.00     0.261 C 
BRANCH   6   7
ATOM      7  O   UNL A   1      36.852  24.302  25.466  1.00  0.00    -0.460 OA
BRANCH   7   8
ATOM      8  C   UNL A   1      35.767  23.496  25.571  1.00  0.00     0.338 C 
ATOM      9  O   UNL A   1      35.801  22.305  25.838  1.00  0.00    -0.246 OA
BRANCH   8  10
ATOM     10  C   UNL A   1      34.499  24.298  25.455  1.00  0.00     0.067 C 
ATOM     11  C   UNL A   1      34.576  25.609  25.115  1.00  0.00     0.024 C 
BRANCH  11  12
ATOM     12  C   UNL A   1      33.481  26.547  24.762  1.00  0.00    -0.025 A 
ATOM     13  C   UNL A   1      31.246  27.938  23.778  1.00  0.00     0.067 A 
ATOM     14  C   UNL A   1      31.262  27.507  25.100  1.00  0.00     0.021 A 
ATOM     15  C   UNL A   1      32.385  27.806  22.983  1.00  0.00     0.021 A 
ATOM     16  C   UNL A   1      32.391  26.848  25.592  1.00  0.00     0.009 A 
ATOM     17  C   UNL A   1      33.497  27.116  23.479  1.00  0.00     0.009 A 
BRANCH  13  18
ATOM     18  S   UNL A   1      29.751  28.588  23.074  1.00  0.00     0.175 S 
ATOM     19  C   UNL A   1      29.589  30.221  23.759  1.00  0.00     0.163 C 
ATOM     20  O   UNL A   1      28.651  27.802  23.603  1.00  0.00    -0.224 OA
ATOM     21  O   UNL A   1      29.974  28.709  21.648  1.00  0.00    -0.224 OA
ENDBRANCH  13  18
ENDBRANCH  11  12
BRANCH  10  22
ATOM     22  C   UNL A   1      33.217  23.604  25.703  1.00  0.00    -0.011 A 
ATOM     23  C   UNL A   1      32.751  23.435  27.021  1.00  0.00     0.013 A 
ATOM     24  C   UNL A   1      32.387  23.229  24.642  1.00  0.00     0.013 A 
ATOM     25  C   UNL A   1      31.476  22.934  27.273  1.00  0.00     0.047 A 
ATOM     26  C   UNL A   1      31.102  22.737  24.894  1.00  0.00     0.047 A 
ATOM     27  C   UNL A   1      30.655  22.606  26.206  1.00  0.00     0.115 A 
BRANCH  27  28
ATOM     28  O   UNL A   1      29.393  22.181  26.495  1.00  0.00    -0.508 OA
ATOM     29  H   UNL A   1      29.239  21.651  27.253  1.00  0.00     0.293 HD
ENDBRANCH  27  28
ENDBRANCH  10  22
ENDBRANCH   8  10
ENDBRANCH   7   8
ENDBRANCH   6   7
ENDBRANCH   5   6
ENDBRANCH   4   5
ENDBRANCH   3   4
ENDBRANCH   2   3
ENDBRANCH   1   2
BRANCH   1  30
ATOM     30  C   UNL A   1      40.436  19.834  26.087  1.00  0.00     0.188 C 
BRANCH  30  31
ATOM     31  C   UNL A   1      41.525  18.904  26.674  1.00  0.00     0.188 C 
BRANCH  31  32
ATOM     32  O   UNL A   1      42.533  18.514  25.756  1.00  0.00    -0.376 OA
BRANCH  32  33
ATOM     33  C   UNL A   1      43.711  19.297  25.696  1.00  0.00     0.202 C 
BRANCH  33  34
ATOM     34  C   UNL A   1      43.941  20.110  24.415  1.00  0.00     0.261 C 
BRANCH  34  35
ATOM     35  O   UNL A   1      44.209  21.509  24.596  1.00  0.00    -0.460 OA
BRANCH  35  36
ATOM     36  C   UNL A   1      45.289  21.847  25.329  1.00  0.00     0.338 C 
ATOM     37  O   UNL A   1      46.367  21.275  25.370  1.00  0.00    -0.246 OA
BRANCH  36  38
ATOM     38  C   UNL A   1      45.011  23.161  25.943  1.00  0.00     0.060 A 
ATOM     39  C   UNL A   1      44.723  24.257  25.117  1.00  0.00     0.016 A 
ATOM     40  C   UNL A   1      45.003  23.297  27.332  1.00  0.00     0.016 A 
ATOM     41  C   UNL A   1      44.454  25.503  25.681  1.00  0.00     0.010 A 
ATOM     42  C   UNL A   1      44.761  24.552  27.895  1.00  0.00     0.010 A 
ATOM     43  C   UNL A   1      44.518  25.666  27.071  1.00  0.00    -0.014 A 
BRANCH  43  44
ATOM     44  C   UNL A   1      44.548  27.028  27.652  1.00  0.00     0.031 A 
ATOM     45  C   UNL A   1      43.244  27.641  28.081  1.00  0.00     0.074 A 
ATOM     46  C   UNL A   1      45.699  27.703  27.812  1.00  0.00     0.049 A 
ATOM     47  N   UNL A   1      43.004  28.832  28.565  1.00  0.00    -0.248 NA
ATOM     48  C   UNL A   1      42.047  26.794  27.939  1.00  0.00     0.031 C 
ATOM     49  C   UNL A   1      47.032  27.199  27.486  1.00  0.00     0.029 A 
ATOM     50  N   UNL A   1      45.923  28.970  28.289  1.00  0.00    -0.354 N 
ATOM     51  C   UNL A   1      41.631  28.880  28.775  1.00  0.00     0.074 A 
ATOM     52  C   UNL A   1      41.087  27.614  28.337  1.00  0.00     0.031 C 
ATOM     53  C   UNL A   1      47.937  28.155  27.764  1.00  0.00     0.029 A 
ATOM     54  C   UNL A   1      47.243  29.347  28.251  1.00  0.00     0.049 A 
ATOM     55  H   UNL A   1      45.205  29.554  28.626  1.00  0.00     0.167 HD
ATOM     56  C   UNL A   1      40.888  29.888  29.289  1.00  0.00     0.031 A 
ATOM     57  C   UNL A   1      47.818  30.528  28.551  1.00  0.00     0.031 A 
ATOM     58  C   UNL A   1      41.426  31.155  29.704  1.00  0.00     0.049 A 
ATOM     59  C   UNL A   1      46.958  31.668  29.035  1.00  0.00     0.074 A 
ATOM     60  C   UNL A   1      40.759  32.238  30.248  1.00  0.00     0.029 A 
ATOM     61  N   UNL A   1      42.762  31.512  29.608  1.00  0.00    -0.354 N 
ATOM     62  N   UNL A   1      45.665  31.695  29.255  1.00  0.00    -0.248 NA
ATOM     63  C   UNL A   1      47.641  32.939  29.318  1.00  0.00     0.031 C 
ATOM     64  C   UNL A   1      41.681  33.275  30.420  1.00  0.00     0.029 A 
ATOM     65  C   UNL A   1      42.934  32.812  30.054  1.00  0.00     0.049 A 
ATOM     66  H   UNL A   1      43.481  30.930  29.274  1.00  0.00     0.167 HD
ATOM     67  C   UNL A   1      45.387  32.971  29.734  1.00  0.00     0.074 A 
ATOM     68  C   UNL A   1      46.648  33.682  29.785  1.00  0.00     0.031 C 
ATOM     69  C   UNL A   1      44.196  33.505  30.101  1.00  0.00     0.031 A 
BRANCH  56  70
ATOM     70  C   UNL A   1      39.403  29.671  29.388  1.00  0.00    -0.014 A 
ATOM     71  C   UNL A   1      38.553  29.904  28.296  1.00  0.00     0.009 A 
ATOM     72  C   UNL A   1      38.851  29.201  30.590  1.00  0.00     0.009 A 
ATOM     73  C   UNL A   1      37.175  29.706  28.417  1.00  0.00     0.001 A 
ATOM     74  C   UNL A   1      37.479  28.972  30.698  1.00  0.00     0.001 A 
ATOM     75  C   UNL A   1      36.641  29.235  29.616  1.00  0.00     0.000 A 
ENDBRANCH  56  70
BRANCH  57  76
ATOM     76  C   UNL A   1      49.286  30.711  28.382  1.00  0.00    -0.014 A 
ATOM     77  C   UNL A   1      50.161  30.532  29.465  1.00  0.00     0.009 A 
ATOM     78  C   UNL A   1      49.816  31.098  27.142  1.00  0.00     0.009 A 
ATOM     79  C   UNL A   1      51.530  30.766  29.315  1.00  0.00     0.001 A 
ATOM     80  C   UNL A   1      51.189  31.298  26.987  1.00  0.00     0.001 A 
ATOM     81  C   UNL A   1      52.044  31.143  28.075  1.00  0.00     0.000 A 
ENDBRANCH  57  76
BRANCH  69  82
ATOM     82  C   UNL A   1      44.202  34.911  30.637  1.00  0.00    -0.014 A 
ATOM     83  C   UNL A   1      44.032  36.022  29.795  1.00  0.00     0.009 A 
ATOM     84  C   UNL A   1      44.332  35.123  32.020  1.00  0.00     0.009 A 
ATOM     85  C   UNL A   1      44.029  37.315  30.323  1.00  0.00     0.001 A 
ATOM     86  C   UNL A   1      44.294  36.415  32.548  1.00  0.00     0.001 A 
ATOM     87  C   UNL A   1      44.153  37.510  31.698  1.00  0.00     0.000 A 
ENDBRANCH  69  82
ENDBRANCH  43  44
ENDBRANCH  36  38
ENDBRANCH  35  36
ENDBRANCH  34  35
ENDBRANCH  33  34
ENDBRANCH  32  33
ENDBRANCH  31  32
ENDBRANCH  30  31
ENDBRANCH   1  30
TORSDOF 24
ENDMDL
