MODEL 1
REMARK VINA RESULT:      -8.0      0.000      0.000
REMARK SMILES CCN(CCC(=O)OCCOCCOCCOCCOC(=O)c1ccc(-c2c3nc(c(-c4ccccc4)c4ccc([nH]4)c(-c4ccccc4)c4nc(c(-c5ccccc5)c5ccc2[nH]5)C=C4)C=C3)cc1)C(=O)N(C)CCc1cccs1
REMARK SMILES IDX 12 1 11 2 10 3 9 4 8 5 6 6 7 7 5 8 4 9 3 10 2 11 1 12 71 13
REMARK SMILES IDX 72 14 73 15 74 16 75 17 76 18 77 19 78 20 81 21 79 22 80 23
REMARK SMILES IDX 13 24 14 25 15 26 16 27 17 28 18 29 19 30 20 31 21 32 22 33
REMARK SMILES IDX 23 34 24 35 70 36 25 37 69 38 26 39 27 40 28 41 63 42 29 43
REMARK SMILES IDX 68 44 62 45 64 46 30 47 67 48 61 49 60 50 31 52 53 53 38 54
REMARK SMILES IDX 52 55 39 56 42 57 51 58 65 59 40 60 41 61 50 63 66 64 43 65
REMARK SMILES IDX 32 66 33 67 37 68 34 69 36 70 35 71 54 72 55 73 59 74 56 75
REMARK SMILES IDX 58 76 57 77 44 78 45 79 49 80 46 81 48 82 47 83
REMARK H PARENT 64 51 42 62
REMARK Flexibility Score: inf
ROOT
ATOM      1  C   UNL A   1      37.559  20.308  24.941  1.00  0.00     0.188 C 
ENDROOT
BRANCH   1   2
ATOM      2  O   UNL A   1      36.230  19.810  24.890  1.00  0.00    -0.376 OA
BRANCH   2   3
ATOM      3  C   UNL A   1      36.033  18.391  24.895  1.00  0.00     0.202 C 
BRANCH   3   4
ATOM      4  C   UNL A   1      34.770  17.792  24.249  1.00  0.00     0.261 C 
BRANCH   4   5
ATOM      5  O   UNL A   1      33.535  18.308  24.801  1.00  0.00    -0.463 OA
BRANCH   5   6
ATOM      6  C   UNL A   1      32.665  18.922  23.955  1.00  0.00     0.307 C 
ATOM      7  O   UNL A   1      32.257  18.430  22.910  1.00  0.00    -0.252 OA
BRANCH   6   8
ATOM      8  C   UNL A   1      32.275  20.312  24.417  1.00  0.00     0.144 C 
BRANCH   8   9
ATOM      9  C   UNL A   1      33.255  21.445  24.108  1.00  0.00     0.133 C 
BRANCH   9  10
ATOM     10  N   UNL A   1      32.960  22.777  24.703  1.00  0.00    -0.324 N 
BRANCH  10  11
ATOM     11  C   UNL A   1      33.781  23.180  25.853  1.00  0.00     0.118 C 
ATOM     12  C   UNL A   1      34.212  21.978  26.692  1.00  0.00     0.027 C 
ENDBRANCH  10  11
BRANCH  10  13
ATOM     13  C   UNL A   1      32.090  23.778  24.265  1.00  0.00     0.319 C 
ATOM     14  O   UNL A   1      31.013  23.960  24.833  1.00  0.00    -0.248 OA
BRANCH  13  15
ATOM     15  N   UNL A   1      32.537  24.669  23.305  1.00  0.00    -0.327 N 
ATOM     16  C   UNL A   1      33.195  24.036  22.209  1.00  0.00     0.148 C 
BRANCH  15  17
ATOM     17  C   UNL A   1      33.211  25.924  23.707  1.00  0.00     0.126 C 
BRANCH  17  18
ATOM     18  C   UNL A   1      32.371  27.210  23.701  1.00  0.00     0.068 C 
BRANCH  18  19
ATOM     19  C   UNL A   1      32.232  27.775  25.071  1.00  0.00     0.006 A 
ATOM     20  C   UNL A   1      31.329  27.455  26.060  1.00  0.00     0.015 A 
ATOM     21  S   UNL A   1      33.391  28.886  25.632  1.00  0.00    -0.149 S 
ATOM     22  C   UNL A   1      31.783  27.899  27.340  1.00  0.00     0.012 A 
ATOM     23  C   UNL A   1      32.954  28.618  27.254  1.00  0.00     0.065 A 
ENDBRANCH  18  19
ENDBRANCH  17  18
ENDBRANCH  15  17
ENDBRANCH  13  15
ENDBRANCH  10  13
ENDBRANCH   9  10
ENDBRANCH   8   9
ENDBRANCH   6   8
ENDBRANCH   5   6
ENDBRANCH   4   5
ENDBRANCH   3   4
ENDBRANCH   2   3
ENDBRANCH   1   2
BRANCH   1  24
ATOM     24  C   UNL A   1      37.699  21.808  25.247  1.00  0.00     0.188 C 
BRANCH  24  25
ATOM     25  O   UNL A   1      38.694  22.208  26.184  1.00  0.00    -0.377 OA
BRANCH  25  26
ATOM     26  C   UNL A   1      39.885  21.434  26.290  1.00  0.00     0.188 C 
BRANCH  26  27
ATOM     27  C   UNL A   1      40.662  21.539  27.594  1.00  0.00     0.188 C 
BRANCH  27  28
ATOM     28  O   UNL A   1      42.020  21.171  27.457  1.00  0.00    -0.376 OA
BRANCH  28  29
ATOM     29  C   UNL A   1      42.491  21.050  26.120  1.00  0.00     0.202 C 
BRANCH  29  30
ATOM     30  C   UNL A   1      43.660  21.954  25.688  1.00  0.00     0.261 C 
BRANCH  30  31
ATOM     31  O   UNL A   1      43.877  23.181  26.421  1.00  0.00    -0.460 OA
BRANCH  31  32
ATOM     32  C   UNL A   1      43.771  24.347  25.750  1.00  0.00     0.338 C 
ATOM     33  O   UNL A   1      44.142  24.581  24.617  1.00  0.00    -0.246 OA
BRANCH  32  34
ATOM     34  C   UNL A   1      43.071  25.340  26.595  1.00  0.00     0.060 A 
ATOM     35  C   UNL A   1      43.598  26.630  26.726  1.00  0.00     0.016 A 
ATOM     36  C   UNL A   1      41.975  24.950  27.370  1.00  0.00     0.016 A 
ATOM     37  C   UNL A   1      43.064  27.513  27.675  1.00  0.00     0.010 A 
ATOM     38  C   UNL A   1      41.446  25.836  28.321  1.00  0.00     0.010 A 
ATOM     39  C   UNL A   1      42.015  27.109  28.514  1.00  0.00    -0.014 A 
BRANCH  39  40
ATOM     40  C   UNL A   1      41.630  27.924  29.704  1.00  0.00     0.031 A 
ATOM     41  C   UNL A   1      40.478  28.886  29.598  1.00  0.00     0.074 A 
ATOM     42  C   UNL A   1      42.256  27.824  30.890  1.00  0.00     0.049 A 
ATOM     43  N   UNL A   1      40.006  29.713  30.497  1.00  0.00    -0.248 NA
ATOM     44  C   UNL A   1      39.756  28.904  28.319  1.00  0.00     0.031 C 
ATOM     45  C   UNL A   1      43.324  26.884  31.199  1.00  0.00     0.029 A 
ATOM     46  N   UNL A   1      42.080  28.534  32.060  1.00  0.00    -0.354 N 
ATOM     47  C   UNL A   1      38.926  30.345  29.897  1.00  0.00     0.074 A 
ATOM     48  C   UNL A   1      38.843  29.837  28.543  1.00  0.00     0.031 C 
ATOM     49  C   UNL A   1      43.714  27.092  32.467  1.00  0.00     0.029 A 
ATOM     50  C   UNL A   1      42.989  28.214  33.035  1.00  0.00     0.049 A 
ATOM     51  H   UNL A   1      41.369  29.206  32.183  1.00  0.00     0.167 HD
ATOM     52  C   UNL A   1      38.071  31.253  30.426  1.00  0.00     0.031 A 
ATOM     53  C   UNL A   1      43.261  28.754  34.240  1.00  0.00     0.031 A 
ATOM     54  C   UNL A   1      38.155  31.792  31.758  1.00  0.00     0.049 A 
ATOM     55  C   UNL A   1      42.402  29.864  34.758  1.00  0.00     0.074 A 
ATOM     56  C   UNL A   1      37.313  32.705  32.371  1.00  0.00     0.029 A 
ATOM     57  N   UNL A   1      39.147  31.488  32.678  1.00  0.00    -0.354 N 
ATOM     58  N   UNL A   1      41.367  30.428  34.190  1.00  0.00    -0.248 NA
ATOM     59  C   UNL A   1      42.722  30.389  36.093  1.00  0.00     0.031 C 
ATOM     60  C   UNL A   1      37.832  33.003  33.636  1.00  0.00     0.029 A 
ATOM     61  C   UNL A   1      38.961  32.227  33.837  1.00  0.00     0.049 A 
ATOM     62  H   UNL A   1      39.875  30.843  32.529  1.00  0.00     0.167 HD
ATOM     63  C   UNL A   1      40.885  31.345  35.112  1.00  0.00     0.074 A 
ATOM     64  C   UNL A   1      41.740  31.260  36.278  1.00  0.00     0.031 C 
ATOM     65  C   UNL A   1      39.814  32.165  34.996  1.00  0.00     0.031 A 
BRANCH  52  66
ATOM     66  C   UNL A   1      36.985  31.757  29.516  1.00  0.00    -0.014 A 
ATOM     67  C   UNL A   1      37.137  32.946  28.785  1.00  0.00     0.009 A 
ATOM     68  C   UNL A   1      35.789  31.035  29.401  1.00  0.00     0.009 A 
ATOM     69  C   UNL A   1      36.091  33.428  27.997  1.00  0.00     0.001 A 
ATOM     70  C   UNL A   1      34.756  31.503  28.587  1.00  0.00     0.001 A 
ATOM     71  C   UNL A   1      34.902  32.706  27.899  1.00  0.00     0.000 A 
ENDBRANCH  52  66
BRANCH  53  72
ATOM     72  C   UNL A   1      44.432  28.272  35.026  1.00  0.00    -0.014 A 
ATOM     73  C   UNL A   1      45.739  28.671  34.707  1.00  0.00     0.009 A 
ATOM     74  C   UNL A   1      44.239  27.403  36.112  1.00  0.00     0.009 A 
ATOM     75  C   UNL A   1      46.825  28.200  35.451  1.00  0.00     0.001 A 
ATOM     76  C   UNL A   1      45.324  26.951  36.868  1.00  0.00     0.001 A 
ATOM     77  C   UNL A   1      46.617  27.347  36.533  1.00  0.00     0.000 A 
ENDBRANCH  53  72
BRANCH  65  78
ATOM     78  C   UNL A   1      39.479  33.024  36.182  1.00  0.00    -0.014 A 
ATOM     79  C   UNL A   1      38.638  32.564  37.206  1.00  0.00     0.009 A 
ATOM     80  C   UNL A   1      40.034  34.310  36.284  1.00  0.00     0.009 A 
ATOM     81  C   UNL A   1      38.336  33.386  38.294  1.00  0.00     0.001 A 
ATOM     82  C   UNL A   1      39.754  35.119  37.386  1.00  0.00     0.001 A 
ATOM     83  C   UNL A   1      38.897  34.660  38.386  1.00  0.00     0.000 A 
ENDBRANCH  65  78
ENDBRANCH  39  40
ENDBRANCH  32  34
ENDBRANCH  31  32
ENDBRANCH  30  31
ENDBRANCH  29  30
ENDBRANCH  28  29
ENDBRANCH  27  28
ENDBRANCH  26  27
ENDBRANCH  25  26
ENDBRANCH  24  25
ENDBRANCH   1  24
TORSDOF 28
ENDMDL
MODEL 2
REMARK VINA RESULT:      -7.8      3.952      7.262
REMARK SMILES CCN(CCC(=O)OCCOCCOCCOCCOC(=O)c1ccc(-c2c3nc(c(-c4ccccc4)c4ccc([nH]4)c(-c4ccccc4)c4nc(c(-c5ccccc5)c5ccc2[nH]5)C=C4)C=C3)cc1)C(=O)N(C)CCc1cccs1
REMARK SMILES IDX 12 1 11 2 10 3 9 4 8 5 6 6 7 7 5 8 4 9 3 10 2 11 1 12 71 13
REMARK SMILES IDX 72 14 73 15 74 16 75 17 76 18 77 19 78 20 81 21 79 22 80 23
REMARK SMILES IDX 13 24 14 25 15 26 16 27 17 28 18 29 19 30 20 31 21 32 22 33
REMARK SMILES IDX 23 34 24 35 70 36 25 37 69 38 26 39 27 40 28 41 63 42 29 43
REMARK SMILES IDX 68 44 62 45 64 46 30 47 67 48 61 49 60 50 31 52 53 53 38 54
REMARK SMILES IDX 52 55 39 56 42 57 51 58 65 59 40 60 41 61 50 63 66 64 43 65
REMARK SMILES IDX 32 66 33 67 37 68 34 69 36 70 35 71 54 72 55 73 59 74 56 75
REMARK SMILES IDX 58 76 57 77 44 78 45 79 49 80 46 81 48 82 47 83
REMARK H PARENT 64 51 42 62
REMARK Flexibility Score: inf
ROOT
ATOM      1  C   UNL A   1      35.366  21.443  25.131  1.00  0.00     0.188 C 
ENDROOT
BRANCH   1   2
ATOM      2  O   UNL A   1      34.469  20.451  25.605  1.00  0.00    -0.376 OA
BRANCH   2   3
ATOM      3  C   UNL A   1      33.827  19.598  24.649  1.00  0.00     0.202 C 
BRANCH   3   4
ATOM      4  C   UNL A   1      32.568  20.086  23.911  1.00  0.00     0.261 C 
BRANCH   4   5
ATOM      5  O   UNL A   1      32.109  21.390  24.346  1.00  0.00    -0.463 OA
BRANCH   5   6
ATOM      6  C   UNL A   1      32.142  22.410  23.448  1.00  0.00     0.307 C 
ATOM      7  O   UNL A   1      32.630  22.327  22.327  1.00  0.00    -0.252 OA
BRANCH   6   8
ATOM      8  C   UNL A   1      31.544  23.692  23.992  1.00  0.00     0.144 C 
BRANCH   8   9
ATOM      9  C   UNL A   1      30.497  24.391  23.123  1.00  0.00     0.133 C 
BRANCH   9  10
ATOM     10  N   UNL A   1      30.313  25.854  23.330  1.00  0.00    -0.324 N 
BRANCH  10  11
ATOM     11  C   UNL A   1      29.416  26.256  24.422  1.00  0.00     0.118 C 
ATOM     12  C   UNL A   1      29.874  25.697  25.768  1.00  0.00     0.027 C 
ENDBRANCH  10  11
BRANCH  10  13
ATOM     13  C   UNL A   1      30.956  26.931  22.716  1.00  0.00     0.319 C 
ATOM     14  O   UNL A   1      30.307  27.775  22.098  1.00  0.00    -0.248 OA
BRANCH  13  15
ATOM     15  N   UNL A   1      32.303  27.126  22.966  1.00  0.00    -0.327 N 
ATOM     16  C   UNL A   1      33.147  26.216  22.261  1.00  0.00     0.148 C 
BRANCH  15  17
ATOM     17  C   UNL A   1      32.779  27.367  24.347  1.00  0.00     0.126 C 
BRANCH  17  18
ATOM     18  C   UNL A   1      31.977  28.354  25.209  1.00  0.00     0.068 C 
BRANCH  18  19
ATOM     19  C   UNL A   1      32.832  28.989  26.247  1.00  0.00     0.006 A 
ATOM     20  C   UNL A   1      34.015  28.546  26.796  1.00  0.00     0.015 A 
ATOM     21  S   UNL A   1      32.444  30.549  26.802  1.00  0.00    -0.149 S 
ATOM     22  C   UNL A   1      34.726  29.613  27.426  1.00  0.00     0.012 A 
ATOM     23  C   UNL A   1      34.012  30.790  27.415  1.00  0.00     0.065 A 
ENDBRANCH  18  19
ENDBRANCH  17  18
ENDBRANCH  15  17
ENDBRANCH  13  15
ENDBRANCH  10  13
ENDBRANCH   9  10
ENDBRANCH   8   9
ENDBRANCH   6   8
ENDBRANCH   5   6
ENDBRANCH   4   5
ENDBRANCH   3   4
ENDBRANCH   2   3
ENDBRANCH   1   2
BRANCH   1  24
ATOM     24  C   UNL A   1      35.117  22.870  25.647  1.00  0.00     0.188 C 
BRANCH  24  25
ATOM     25  O   UNL A   1      36.199  23.550  26.275  1.00  0.00    -0.377 OA
BRANCH  25  26
ATOM     26  C   UNL A   1      37.425  23.693  25.564  1.00  0.00     0.188 C 
BRANCH  26  27
ATOM     27  C   UNL A   1      38.641  24.127  26.367  1.00  0.00     0.188 C 
BRANCH  27  28
ATOM     28  O   UNL A   1      39.716  23.213  26.276  1.00  0.00    -0.376 OA
BRANCH  28  29
ATOM     29  C   UNL A   1      39.487  21.936  26.860  1.00  0.00     0.202 C 
BRANCH  29  30
ATOM     30  C   UNL A   1      39.987  20.698  26.094  1.00  0.00     0.261 C 
BRANCH  30  31
ATOM     31  O   UNL A   1      41.170  20.027  26.584  1.00  0.00    -0.460 OA
BRANCH  31  32
ATOM     32  C   UNL A   1      42.318  20.180  25.891  1.00  0.00     0.338 C 
ATOM     33  O   UNL A   1      42.785  19.424  25.063  1.00  0.00    -0.246 OA
BRANCH  32  34
ATOM     34  C   UNL A   1      42.945  21.471  26.255  1.00  0.00     0.060 A 
ATOM     35  C   UNL A   1      43.188  21.767  27.600  1.00  0.00     0.016 A 
ATOM     36  C   UNL A   1      43.156  22.445  25.275  1.00  0.00     0.016 A 
ATOM     37  C   UNL A   1      43.589  23.057  27.974  1.00  0.00     0.010 A 
ATOM     38  C   UNL A   1      43.556  23.736  25.653  1.00  0.00     0.010 A 
ATOM     39  C   UNL A   1      43.731  24.067  27.010  1.00  0.00    -0.014 A 
BRANCH  39  40
ATOM     40  C   UNL A   1      43.879  25.495  27.415  1.00  0.00     0.031 A 
ATOM     41  C   UNL A   1      45.240  26.137  27.378  1.00  0.00     0.074 A 
ATOM     42  C   UNL A   1      42.838  26.257  27.796  1.00  0.00     0.049 A 
ATOM     43  N   UNL A   1      45.593  27.349  27.725  1.00  0.00    -0.248 NA
ATOM     44  C   UNL A   1      46.340  25.306  26.870  1.00  0.00     0.031 C 
ATOM     45  C   UNL A   1      41.446  25.833  27.802  1.00  0.00     0.029 A 
ATOM     46  N   UNL A   1      42.799  27.557  28.260  1.00  0.00    -0.354 N 
ATOM     47  C   UNL A   1      46.954  27.433  27.469  1.00  0.00     0.074 A 
ATOM     48  C   UNL A   1      47.369  26.133  26.981  1.00  0.00     0.031 C 
ATOM     49  C   UNL A   1      40.697  26.849  28.263  1.00  0.00     0.029 A 
ATOM     50  C   UNL A   1      41.548  27.958  28.653  1.00  0.00     0.049 A 
ATOM     51  H   UNL A   1      43.593  28.139  28.303  1.00  0.00     0.167 HD
ATOM     52  C   UNL A   1      47.783  28.495  27.610  1.00  0.00     0.031 A 
ATOM     53  C   UNL A   1      41.103  29.064  29.284  1.00  0.00     0.031 A 
ATOM     54  C   UNL A   1      47.396  29.784  28.121  1.00  0.00     0.049 A 
ATOM     55  C   UNL A   1      42.058  30.179  29.574  1.00  0.00     0.074 A 
ATOM     56  C   UNL A   1      48.178  30.917  28.278  1.00  0.00     0.029 A 
ATOM     57  N   UNL A   1      46.129  30.111  28.579  1.00  0.00    -0.354 N 
ATOM     58  N   UNL A   1      43.335  30.253  29.297  1.00  0.00    -0.248 NA
ATOM     59  C   UNL A   1      41.510  31.374  30.230  1.00  0.00     0.031 C 
ATOM     60  C   UNL A   1      47.401  31.906  28.892  1.00  0.00     0.029 A 
ATOM     61  C   UNL A   1      46.118  31.413  29.056  1.00  0.00     0.049 A 
ATOM     62  H   UNL A   1      45.351  29.507  28.567  1.00  0.00     0.167 HD
ATOM     63  C   UNL A   1      43.736  31.516  29.705  1.00  0.00     0.074 A 
ATOM     64  C   UNL A   1      42.566  32.176  30.247  1.00  0.00     0.031 C 
ATOM     65  C   UNL A   1      44.966  32.074  29.615  1.00  0.00     0.031 A 
BRANCH  52  66
ATOM     66  C   UNL A   1      49.223  28.273  27.242  1.00  0.00    -0.014 A 
ATOM     67  C   UNL A   1      50.207  28.078  28.224  1.00  0.00     0.009 A 
ATOM     68  C   UNL A   1      49.599  28.272  25.891  1.00  0.00     0.009 A 
ATOM     69  C   UNL A   1      51.548  27.939  27.861  1.00  0.00     0.001 A 
ATOM     70  C   UNL A   1      50.936  28.101  25.530  1.00  0.00     0.001 A 
ATOM     71  C   UNL A   1      51.910  27.949  26.515  1.00  0.00     0.000 A 
ENDBRANCH  52  66
BRANCH  53  72
ATOM     72  C   UNL A   1      39.681  29.151  29.720  1.00  0.00    -0.014 A 
ATOM     73  C   UNL A   1      38.728  29.853  28.966  1.00  0.00     0.009 A 
ATOM     74  C   UNL A   1      39.271  28.521  30.907  1.00  0.00     0.009 A 
ATOM     75  C   UNL A   1      37.401  29.931  29.398  1.00  0.00     0.001 A 
ATOM     76  C   UNL A   1      37.939  28.582  31.324  1.00  0.00     0.001 A 
ATOM     77  C   UNL A   1      37.006  29.291  30.572  1.00  0.00     0.000 A 
ENDBRANCH  53  72
BRANCH  65  78
ATOM     78  C   UNL A   1      45.109  33.494  30.086  1.00  0.00    -0.014 A 
ATOM     79  C   UNL A   1      45.481  33.794  31.405  1.00  0.00     0.009 A 
ATOM     80  C   UNL A   1      44.887  34.547  29.186  1.00  0.00     0.009 A 
ATOM     81  C   UNL A   1      45.598  35.122  31.820  1.00  0.00     0.001 A 
ATOM     82  C   UNL A   1      45.034  35.873  29.595  1.00  0.00     0.001 A 
ATOM     83  C   UNL A   1      45.380  36.160  30.915  1.00  0.00     0.000 A 
ENDBRANCH  65  78
ENDBRANCH  39  40
ENDBRANCH  32  34
ENDBRANCH  31  32
ENDBRANCH  30  31
ENDBRANCH  29  30
ENDBRANCH  28  29
ENDBRANCH  27  28
ENDBRANCH  26  27
ENDBRANCH  25  26
ENDBRANCH  24  25
ENDBRANCH   1  24
TORSDOF 28
ENDMDL
MODEL 3
REMARK VINA RESULT:      -7.7      3.985      7.184
REMARK SMILES CCN(CCC(=O)OCCOCCOCCOCCOC(=O)c1ccc(-c2c3nc(c(-c4ccccc4)c4ccc([nH]4)c(-c4ccccc4)c4nc(c(-c5ccccc5)c5ccc2[nH]5)C=C4)C=C3)cc1)C(=O)N(C)CCc1cccs1
REMARK SMILES IDX 12 1 11 2 10 3 9 4 8 5 6 6 7 7 5 8 4 9 3 10 2 11 1 12 71 13
REMARK SMILES IDX 72 14 73 15 74 16 75 17 76 18 77 19 78 20 81 21 79 22 80 23
REMARK SMILES IDX 13 24 14 25 15 26 16 27 17 28 18 29 19 30 20 31 21 32 22 33
REMARK SMILES IDX 23 34 24 35 70 36 25 37 69 38 26 39 27 40 28 41 63 42 29 43
REMARK SMILES IDX 68 44 62 45 64 46 30 47 67 48 61 49 60 50 31 52 53 53 38 54
REMARK SMILES IDX 52 55 39 56 42 57 51 58 65 59 40 60 41 61 50 63 66 64 43 65
REMARK SMILES IDX 32 66 33 67 37 68 34 69 36 70 35 71 54 72 55 73 59 74 56 75
REMARK SMILES IDX 58 76 57 77 44 78 45 79 49 80 46 81 48 82 47 83
REMARK H PARENT 64 51 42 62
REMARK Flexibility Score: inf
ROOT
ATOM      1  C   UNL A   1      34.974  20.261  24.989  1.00  0.00     0.188 C 
ENDROOT
BRANCH   1   2
ATOM      2  O   UNL A   1      33.954  19.278  25.062  1.00  0.00    -0.376 OA
BRANCH   2   3
ATOM      3  C   UNL A   1      33.827  18.345  23.982  1.00  0.00     0.202 C 
BRANCH   3   4
ATOM      4  C   UNL A   1      32.601  18.410  23.054  1.00  0.00     0.261 C 
BRANCH   4   5
ATOM      5  O   UNL A   1      31.758  19.565  23.286  1.00  0.00    -0.463 OA
BRANCH   5   6
ATOM      6  C   UNL A   1      31.989  20.682  22.547  1.00  0.00     0.307 C 
ATOM      7  O   UNL A   1      32.035  20.703  21.323  1.00  0.00    -0.252 OA
BRANCH   6   8
ATOM      8  C   UNL A   1      32.230  21.913  23.400  1.00  0.00     0.144 C 
BRANCH   8   9
ATOM      9  C   UNL A   1      33.109  23.011  22.799  1.00  0.00     0.133 C 
BRANCH   9  10
ATOM     10  N   UNL A   1      32.853  24.406  23.250  1.00  0.00    -0.324 N 
BRANCH  10  11
ATOM     11  C   UNL A   1      31.966  25.217  22.405  1.00  0.00     0.118 C 
ATOM     12  C   UNL A   1      32.565  25.461  21.020  1.00  0.00     0.027 C 
ENDBRANCH  10  11
BRANCH  10  13
ATOM     13  C   UNL A   1      33.233  25.048  24.431  1.00  0.00     0.319 C 
ATOM     14  O   UNL A   1      34.358  25.537  24.539  1.00  0.00    -0.248 OA
BRANCH  13  15
ATOM     15  N   UNL A   1      32.271  25.278  25.397  1.00  0.00    -0.327 N 
ATOM     16  C   UNL A   1      31.861  24.094  26.081  1.00  0.00     0.148 C 
BRANCH  15  17
ATOM     17  C   UNL A   1      31.130  26.179  25.116  1.00  0.00     0.126 C 
BRANCH  17  18
ATOM     18  C   UNL A   1      31.442  27.668  24.904  1.00  0.00     0.068 C 
BRANCH  18  19
ATOM     19  C   UNL A   1      30.454  28.306  23.992  1.00  0.00     0.006 A 
ATOM     20  C   UNL A   1      29.430  27.731  23.274  1.00  0.00     0.015 A 
ATOM     21  S   UNL A   1      30.423  30.001  23.857  1.00  0.00    -0.149 S 
ATOM     22  C   UNL A   1      28.467  28.706  22.871  1.00  0.00     0.012 A 
ATOM     23  C   UNL A   1      28.850  29.984  23.213  1.00  0.00     0.065 A 
ENDBRANCH  18  19
ENDBRANCH  17  18
ENDBRANCH  15  17
ENDBRANCH  13  15
ENDBRANCH  10  13
ENDBRANCH   9  10
ENDBRANCH   8   9
ENDBRANCH   6   8
ENDBRANCH   5   6
ENDBRANCH   4   5
ENDBRANCH   3   4
ENDBRANCH   2   3
ENDBRANCH   1   2
BRANCH   1  24
ATOM     24  C   UNL A   1      34.803  21.473  25.921  1.00  0.00     0.188 C 
BRANCH  24  25
ATOM     25  O   UNL A   1      35.977  22.136  26.376  1.00  0.00    -0.377 OA
BRANCH  25  26
ATOM     26  C   UNL A   1      36.717  22.931  25.454  1.00  0.00     0.188 C 
BRANCH  26  27
ATOM     27  C   UNL A   1      37.658  23.972  26.040  1.00  0.00     0.188 C 
BRANCH  27  28
ATOM     28  O   UNL A   1      39.013  23.570  26.009  1.00  0.00    -0.376 OA
BRANCH  28  29
ATOM     29  C   UNL A   1      39.328  22.414  26.775  1.00  0.00     0.202 C 
BRANCH  29  30
ATOM     30  C   UNL A   1      39.584  21.099  26.016  1.00  0.00     0.261 C 
BRANCH  30  31
ATOM     31  O   UNL A   1      40.565  20.184  26.553  1.00  0.00    -0.460 OA
BRANCH  31  32
ATOM     32  C   UNL A   1      41.816  20.229  26.049  1.00  0.00     0.338 C 
ATOM     33  O   UNL A   1      42.366  19.389  25.364  1.00  0.00    -0.246 OA
BRANCH  32  34
ATOM     34  C   UNL A   1      42.449  21.515  26.417  1.00  0.00     0.060 A 
ATOM     35  C   UNL A   1      42.639  21.830  27.767  1.00  0.00     0.016 A 
ATOM     36  C   UNL A   1      42.722  22.468  25.432  1.00  0.00     0.016 A 
ATOM     37  C   UNL A   1      43.047  23.120  28.137  1.00  0.00     0.010 A 
ATOM     38  C   UNL A   1      43.127  23.758  25.806  1.00  0.00     0.010 A 
ATOM     39  C   UNL A   1      43.249  24.110  27.163  1.00  0.00    -0.014 A 
BRANCH  39  40
ATOM     40  C   UNL A   1      43.405  25.542  27.551  1.00  0.00     0.031 A 
ATOM     41  C   UNL A   1      44.782  26.148  27.602  1.00  0.00     0.074 A 
ATOM     42  C   UNL A   1      42.360  26.339  27.838  1.00  0.00     0.049 A 
ATOM     43  N   UNL A   1      45.141  27.358  27.950  1.00  0.00    -0.248 NA
ATOM     44  C   UNL A   1      45.894  25.279  27.193  1.00  0.00     0.031 C 
ATOM     45  C   UNL A   1      40.960  25.950  27.748  1.00  0.00     0.029 A 
ATOM     46  N   UNL A   1      42.322  27.648  28.272  1.00  0.00    -0.354 N 
ATOM     47  C   UNL A   1      46.519  27.401  27.795  1.00  0.00     0.074 A 
ATOM     48  C   UNL A   1      46.934  26.081  27.364  1.00  0.00     0.031 C 
ATOM     49  C   UNL A   1      40.207  26.994  28.133  1.00  0.00     0.029 A 
ATOM     50  C   UNL A   1      41.057  28.090  28.563  1.00  0.00     0.049 A 
ATOM     51  H   UNL A   1      43.126  28.211  28.362  1.00  0.00     0.167 HD
ATOM     52  C   UNL A   1      47.364  28.445  27.977  1.00  0.00     0.031 A 
ATOM     53  C   UNL A   1      40.596  29.219  29.137  1.00  0.00     0.031 A 
ATOM     54  C   UNL A   1      46.975  29.754  28.432  1.00  0.00     0.049 A 
ATOM     55  C   UNL A   1      41.557  30.315  29.476  1.00  0.00     0.074 A 
ATOM     56  C   UNL A   1      47.773  30.870  28.625  1.00  0.00     0.029 A 
ATOM     57  N   UNL A   1      45.686  30.123  28.788  1.00  0.00    -0.354 N 
ATOM     58  N   UNL A   1      42.852  30.351  29.293  1.00  0.00    -0.248 NA
ATOM     59  C   UNL A   1      40.994  31.538  30.066  1.00  0.00     0.031 C 
ATOM     60  C   UNL A   1      46.980  31.892  29.160  1.00  0.00     0.029 A 
ATOM     61  C   UNL A   1      45.676  31.435  29.238  1.00  0.00     0.049 A 
ATOM     62  H   UNL A   1      44.896  29.539  28.730  1.00  0.00     0.167 HD
ATOM     63  C   UNL A   1      43.256  31.612  29.705  1.00  0.00     0.074 A 
ATOM     64  C   UNL A   1      42.067  32.313  30.147  1.00  0.00     0.031 C 
ATOM     65  C   UNL A   1      44.504  32.137  29.696  1.00  0.00     0.031 A 
BRANCH  52  66
ATOM     66  C   UNL A   1      48.821  28.178  27.721  1.00  0.00    -0.014 A 
ATOM     67  C   UNL A   1      49.381  28.345  26.445  1.00  0.00     0.009 A 
ATOM     68  C   UNL A   1      49.638  27.742  28.773  1.00  0.00     0.009 A 
ATOM     69  C   UNL A   1      50.721  28.028  26.216  1.00  0.00     0.001 A 
ATOM     70  C   UNL A   1      50.986  27.456  28.549  1.00  0.00     0.001 A 
ATOM     71  C   UNL A   1      51.522  27.585  27.268  1.00  0.00     0.000 A 
ENDBRANCH  52  66
BRANCH  53  72
ATOM     72  C   UNL A   1      39.149  29.352  29.465  1.00  0.00    -0.014 A 
ATOM     73  C   UNL A   1      38.238  29.890  28.543  1.00  0.00     0.009 A 
ATOM     74  C   UNL A   1      38.671  28.931  30.718  1.00  0.00     0.009 A 
ATOM     75  C   UNL A   1      36.886  30.016  28.874  1.00  0.00     0.001 A 
ATOM     76  C   UNL A   1      37.315  29.037  31.037  1.00  0.00     0.001 A 
ATOM     77  C   UNL A   1      36.424  29.583  30.117  1.00  0.00     0.000 A 
ENDBRANCH  53  72
BRANCH  65  78
ATOM     78  C   UNL A   1      44.650  33.562  30.149  1.00  0.00    -0.014 A 
ATOM     79  C   UNL A   1      44.432  34.635  29.273  1.00  0.00     0.009 A 
ATOM     80  C   UNL A   1      44.992  33.832  31.483  1.00  0.00     0.009 A 
ATOM     81  C   UNL A   1      44.583  35.951  29.717  1.00  0.00     0.001 A 
ATOM     82  C   UNL A   1      45.114  35.147  31.933  1.00  0.00     0.001 A 
ATOM     83  C   UNL A   1      44.918  36.206  31.047  1.00  0.00     0.000 A 
ENDBRANCH  65  78
ENDBRANCH  39  40
ENDBRANCH  32  34
ENDBRANCH  31  32
ENDBRANCH  30  31
ENDBRANCH  29  30
ENDBRANCH  28  29
ENDBRANCH  27  28
ENDBRANCH  26  27
ENDBRANCH  25  26
ENDBRANCH  24  25
ENDBRANCH   1  24
TORSDOF 28
ENDMDL
