MODEL 1
REMARK VINA RESULT:     -10.5      0.000      0.000
REMARK SMILES O=C(OCCOCCOCCOCCOC(=O)C1(C/C=C/c2ccccc2)Cc2ccccc2C1)c1ccc(-c2c3nc(c(-c4ccccc4)c4ccc([nH]4)c(-c4ccccc4)c4nc(c(-c5ccccc5)c5ccc2[nH]5)C=C4)C=C3)cc1
REMARK SMILES IDX 10 1 9 2 8 3 7 4 6 5 5 6 4 7 3 8 2 9 1 10 36 11 37 12 83 13
REMARK SMILES IDX 38 14 82 15 39 16 40 17 41 18 76 19 42 20 81 21 75 22 77 23
REMARK SMILES IDX 43 24 80 25 74 26 73 27 44 29 66 30 51 31 65 32 52 33 55 34
REMARK SMILES IDX 64 35 78 36 53 37 54 38 63 40 79 41 56 42 45 43 46 44 50 45
REMARK SMILES IDX 47 46 49 47 48 48 67 49 68 50 72 51 69 52 71 53 70 54 57 55
REMARK SMILES IDX 58 56 62 57 59 58 61 59 60 60 11 61 12 62 13 63 14 64 15 65
REMARK SMILES IDX 16 66 17 67 18 68 28 69 35 70 29 71 34 72 30 73 33 74 31 75
REMARK SMILES IDX 32 76 19 77 20 78 21 79 22 80 23 81 27 82 24 83 26 84 25 85
REMARK H PARENT 77 28 55 39
REMARK Flexibility Score: inf
ROOT
ATOM      1  C   UNL A   1      37.058  22.154  25.788  1.00  0.00     0.188 C 
ENDROOT
BRANCH   1   2
ATOM      2  O   UNL A   1      38.384  21.741  25.453  1.00  0.00    -0.377 OA
BRANCH   2   3
ATOM      3  C   UNL A   1      39.478  22.229  26.215  1.00  0.00     0.188 C 
BRANCH   3   4
ATOM      4  C   UNL A   1      40.688  21.321  26.155  1.00  0.00     0.188 C 
BRANCH   4   5
ATOM      5  O   UNL A   1      41.829  22.113  26.399  1.00  0.00    -0.376 OA
BRANCH   5   6
ATOM      6  C   UNL A   1      41.703  23.512  26.564  1.00  0.00     0.202 C 
BRANCH   6   7
ATOM      7  C   UNL A   1      42.665  24.364  25.761  1.00  0.00     0.261 C 
BRANCH   7   8
ATOM      8  O   UNL A   1      42.109  25.515  25.096  1.00  0.00    -0.460 OA
BRANCH   8   9
ATOM      9  C   UNL A   1      42.224  26.848  25.279  1.00  0.00     0.338 C 
ATOM     10  O   UNL A   1      42.691  27.521  24.362  1.00  0.00    -0.246 OA
BRANCH   9  11
ATOM     11  C   UNL A   1      41.805  27.579  26.504  1.00  0.00     0.060 A 
ATOM     12  C   UNL A   1      42.234  28.849  26.867  1.00  0.00     0.016 A 
ATOM     13  C   UNL A   1      40.788  27.000  27.275  1.00  0.00     0.016 A 
ATOM     14  C   UNL A   1      41.789  29.496  27.994  1.00  0.00     0.010 A 
ATOM     15  C   UNL A   1      40.273  27.665  28.390  1.00  0.00     0.010 A 
ATOM     16  C   UNL A   1      40.806  28.906  28.759  1.00  0.00    -0.014 A 
BRANCH  16  17
ATOM     17  C   UNL A   1      40.523  29.551  30.039  1.00  0.00     0.031 A 
ATOM     18  C   UNL A   1      39.327  30.440  30.088  1.00  0.00     0.074 A 
ATOM     19  C   UNL A   1      41.203  29.178  31.137  1.00  0.00     0.049 A 
ATOM     20  N   UNL A   1      38.926  31.226  31.042  1.00  0.00    -0.248 NA
ATOM     21  C   UNL A   1      38.455  30.435  28.896  1.00  0.00     0.031 C 
ATOM     22  C   UNL A   1      42.233  28.131  31.190  1.00  0.00     0.029 A 
ATOM     23  N   UNL A   1      41.106  29.614  32.426  1.00  0.00    -0.354 N 
ATOM     24  C   UNL A   1      37.801  31.863  30.539  1.00  0.00     0.074 A 
ATOM     25  C   UNL A   1      37.561  31.357  29.210  1.00  0.00     0.031 C 
ATOM     26  C   UNL A   1      42.673  28.013  32.452  1.00  0.00     0.029 A 
ATOM     27  C   UNL A   1      42.031  29.037  33.262  1.00  0.00     0.049 A 
ATOM     28  H   UNL A   1      40.441  30.273  32.727  1.00  0.00     0.167 HD
ATOM     29  C   UNL A   1      37.066  32.818  31.146  1.00  0.00     0.031 A 
ATOM     30  C   UNL A   1      42.361  29.374  34.521  1.00  0.00     0.031 A 
ATOM     31  C   UNL A   1      37.364  33.282  32.469  1.00  0.00     0.049 A 
ATOM     32  C   UNL A   1      41.620  30.537  35.124  1.00  0.00     0.074 A 
ATOM     33  C   UNL A   1      36.761  34.290  33.194  1.00  0.00     0.029 A 
ATOM     34  N   UNL A   1      38.371  32.749  33.267  1.00  0.00    -0.354 N 
ATOM     35  N   UNL A   1      40.617  31.223  34.625  1.00  0.00    -0.248 NA
ATOM     36  C   UNL A   1      42.068  30.992  36.444  1.00  0.00     0.031 C 
ATOM     37  C   UNL A   1      37.450  34.409  34.404  1.00  0.00     0.029 A 
ATOM     38  C   UNL A   1      38.434  33.430  34.464  1.00  0.00     0.049 A 
ATOM     39  H   UNL A   1      38.955  31.998  33.012  1.00  0.00     0.167 HD
ATOM     40  C   UNL A   1      40.301  32.182  35.574  1.00  0.00     0.074 A 
ATOM     41  C   UNL A   1      41.207  31.969  36.689  1.00  0.00     0.031 C 
ATOM     42  C   UNL A   1      39.358  33.157  35.537  1.00  0.00     0.031 A 
BRANCH  29  43
ATOM     43  C   UNL A   1      35.997  33.479  30.327  1.00  0.00    -0.014 A 
ATOM     44  C   UNL A   1      34.639  33.416  30.675  1.00  0.00     0.009 A 
ATOM     45  C   UNL A   1      36.363  34.131  29.139  1.00  0.00     0.009 A 
ATOM     46  C   UNL A   1      33.668  33.961  29.830  1.00  0.00     0.001 A 
ATOM     47  C   UNL A   1      35.395  34.699  28.311  1.00  0.00     0.001 A 
ATOM     48  C   UNL A   1      34.048  34.605  28.652  1.00  0.00     0.000 A 
ENDBRANCH  29  43
BRANCH  30  49
ATOM     49  C   UNL A   1      43.493  28.708  35.220  1.00  0.00    -0.014 A 
ATOM     50  C   UNL A   1      43.281  27.595  36.045  1.00  0.00     0.009 A 
ATOM     51  C   UNL A   1      44.802  29.204  35.085  1.00  0.00     0.009 A 
ATOM     52  C   UNL A   1      44.347  27.017  36.743  1.00  0.00     0.001 A 
ATOM     53  C   UNL A   1      45.870  28.604  35.756  1.00  0.00     0.001 A 
ATOM     54  C   UNL A   1      45.639  27.520  36.597  1.00  0.00     0.000 A 
ENDBRANCH  30  49
BRANCH  42  55
ATOM     55  C   UNL A   1      39.247  34.027  36.751  1.00  0.00    -0.014 A 
ATOM     56  C   UNL A   1      38.640  33.558  37.925  1.00  0.00     0.009 A 
ATOM     57  C   UNL A   1      39.832  35.301  36.735  1.00  0.00     0.009 A 
ATOM     58  C   UNL A   1      38.605  34.365  39.061  1.00  0.00     0.001 A 
ATOM     59  C   UNL A   1      39.825  36.090  37.883  1.00  0.00     0.001 A 
ATOM     60  C   UNL A   1      39.207  35.624  39.041  1.00  0.00     0.000 A 
ENDBRANCH  42  55
ENDBRANCH  16  17
ENDBRANCH   9  11
ENDBRANCH   8   9
ENDBRANCH   7   8
ENDBRANCH   6   7
ENDBRANCH   5   6
ENDBRANCH   4   5
ENDBRANCH   3   4
ENDBRANCH   2   3
ENDBRANCH   1   2
BRANCH   1  61
ATOM     61  C   UNL A   1      36.626  23.624  25.740  1.00  0.00     0.188 C 
BRANCH  61  62
ATOM     62  O   UNL A   1      35.313  23.835  25.284  1.00  0.00    -0.376 OA
BRANCH  62  63
ATOM     63  C   UNL A   1      34.286  23.024  25.842  1.00  0.00     0.202 C 
BRANCH  63  64
ATOM     64  C   UNL A   1      32.772  23.356  25.737  1.00  0.00     0.261 C 
BRANCH  64  65
ATOM     65  O   UNL A   1      32.424  24.597  25.095  1.00  0.00    -0.463 OA
BRANCH  65  66
ATOM     66  C   UNL A   1      31.766  25.523  25.825  1.00  0.00     0.313 C 
ATOM     67  O   UNL A   1      30.888  25.215  26.638  1.00  0.00    -0.252 OA
BRANCH  66  68
ATOM     68  C   UNL A   1      32.217  26.989  25.618  1.00  0.00     0.079 C 
ATOM     69  C   UNL A   1      31.513  28.090  26.472  1.00  0.00     0.055 C 
ATOM     70  C   UNL A   1      33.686  27.032  26.152  1.00  0.00     0.055 C 
ATOM     71  C   UNL A   1      32.608  29.051  26.795  1.00  0.00    -0.044 A 
ATOM     72  C   UNL A   1      33.842  28.431  26.662  1.00  0.00    -0.044 A 
ATOM     73  C   UNL A   1      32.485  30.363  27.224  1.00  0.00     0.004 A 
ATOM     74  C   UNL A   1      34.996  29.087  27.038  1.00  0.00     0.004 A 
ATOM     75  C   UNL A   1      33.648  31.049  27.567  1.00  0.00     0.000 A 
ATOM     76  C   UNL A   1      34.893  30.406  27.493  1.00  0.00     0.000 A 
BRANCH  68  77
ATOM     77  C   UNL A   1      32.118  27.392  24.102  1.00  0.00     0.047 C 
BRANCH  77  78
ATOM     78  C   UNL A   1      31.311  28.626  23.817  1.00  0.00    -0.025 C 
ATOM     79  C   UNL A   1      30.003  28.631  23.505  1.00  0.00     0.004 C 
BRANCH  79  80
ATOM     80  C   UNL A   1      29.343  29.842  23.004  1.00  0.00    -0.026 A 
ATOM     81  C   UNL A   1      29.326  31.023  23.753  1.00  0.00     0.008 A 
ATOM     82  C   UNL A   1      28.652  29.804  21.783  1.00  0.00     0.008 A 
ATOM     83  C   UNL A   1      28.660  32.153  23.267  1.00  0.00     0.001 A 
ATOM     84  C   UNL A   1      27.986  30.928  21.300  1.00  0.00     0.001 A 
ATOM     85  C   UNL A   1      27.994  32.106  22.040  1.00  0.00     0.000 A 
ENDBRANCH  79  80
ENDBRANCH  77  78
ENDBRANCH  68  77
ENDBRANCH  66  68
ENDBRANCH  65  66
ENDBRANCH  64  65
ENDBRANCH  63  64
ENDBRANCH  62  63
ENDBRANCH  61  62
ENDBRANCH   1  61
TORSDOF 23
ENDMDL
MODEL 2
REMARK VINA RESULT:      -9.6      4.523     10.804
REMARK SMILES O=C(OCCOCCOCCOCCOC(=O)C1(C/C=C/c2ccccc2)Cc2ccccc2C1)c1ccc(-c2c3nc(c(-c4ccccc4)c4ccc([nH]4)c(-c4ccccc4)c4nc(c(-c5ccccc5)c5ccc2[nH]5)C=C4)C=C3)cc1
REMARK SMILES IDX 10 1 9 2 8 3 7 4 6 5 5 6 4 7 3 8 2 9 1 10 36 11 37 12 83 13
REMARK SMILES IDX 38 14 82 15 39 16 40 17 41 18 76 19 42 20 81 21 75 22 77 23
REMARK SMILES IDX 43 24 80 25 74 26 73 27 44 29 66 30 51 31 65 32 52 33 55 34
REMARK SMILES IDX 64 35 78 36 53 37 54 38 63 40 79 41 56 42 45 43 46 44 50 45
REMARK SMILES IDX 47 46 49 47 48 48 67 49 68 50 72 51 69 52 71 53 70 54 57 55
REMARK SMILES IDX 58 56 62 57 59 58 61 59 60 60 11 61 12 62 13 63 14 64 15 65
REMARK SMILES IDX 16 66 17 67 18 68 28 69 35 70 29 71 34 72 30 73 33 74 31 75
REMARK SMILES IDX 32 76 19 77 20 78 21 79 22 80 23 81 27 82 24 83 26 84 25 85
REMARK H PARENT 77 28 55 39
REMARK Flexibility Score: inf
ROOT
ATOM      1  C   UNL A   1      33.801  30.832  27.112  1.00  0.00     0.188 C 
ENDROOT
BRANCH   1   2
ATOM      2  O   UNL A   1      34.999  30.972  27.879  1.00  0.00    -0.377 OA
BRANCH   2   3
ATOM      3  C   UNL A   1      35.559  32.264  28.063  1.00  0.00     0.188 C 
BRANCH   3   4
ATOM      4  C   UNL A   1      35.375  32.789  29.471  1.00  0.00     0.188 C 
BRANCH   4   5
ATOM      5  O   UNL A   1      36.517  32.424  30.215  1.00  0.00    -0.376 OA
BRANCH   5   6
ATOM      6  C   UNL A   1      36.609  32.755  31.586  1.00  0.00     0.202 C 
BRANCH   6   7
ATOM      7  C   UNL A   1      36.209  31.665  32.560  1.00  0.00     0.261 C 
BRANCH   7   8
ATOM      8  O   UNL A   1      37.268  30.829  33.066  1.00  0.00    -0.460 OA
BRANCH   8   9
ATOM      9  C   UNL A   1      37.684  29.575  32.790  1.00  0.00     0.338 C 
ATOM     10  O   UNL A   1      37.033  28.635  33.243  1.00  0.00    -0.246 OA
BRANCH   9  11
ATOM     11  C   UNL A   1      38.866  29.234  31.955  1.00  0.00     0.060 A 
ATOM     12  C   UNL A   1      39.982  28.531  32.391  1.00  0.00     0.016 A 
ATOM     13  C   UNL A   1      38.780  29.517  30.585  1.00  0.00     0.016 A 
ATOM     14  C   UNL A   1      41.033  28.211  31.568  1.00  0.00     0.010 A 
ATOM     15  C   UNL A   1      39.808  29.146  29.715  1.00  0.00     0.010 A 
ATOM     16  C   UNL A   1      40.949  28.517  30.226  1.00  0.00    -0.014 A 
BRANCH  16  17
ATOM     17  C   UNL A   1      42.174  28.327  29.453  1.00  0.00     0.031 A 
ATOM     18  C   UNL A   1      42.336  27.011  28.771  1.00  0.00     0.074 A 
ATOM     19  C   UNL A   1      42.986  29.374  29.224  1.00  0.00     0.049 A 
ATOM     20  N   UNL A   1      43.366  26.534  28.137  1.00  0.00    -0.248 NA
ATOM     21  C   UNL A   1      41.167  26.109  28.798  1.00  0.00     0.031 C 
ATOM     22  C   UNL A   1      42.751  30.752  29.675  1.00  0.00     0.029 A 
ATOM     23  N   UNL A   1      44.156  29.449  28.527  1.00  0.00    -0.354 N 
ATOM     24  C   UNL A   1      42.998  25.252  27.757  1.00  0.00     0.074 A 
ATOM     25  C   UNL A   1      41.644  25.029  28.201  1.00  0.00     0.031 C 
ATOM     26  C   UNL A   1      43.753  31.533  29.242  1.00  0.00     0.029 A 
ATOM     27  C   UNL A   1      44.737  30.692  28.579  1.00  0.00     0.049 A 
ATOM     28  H   UNL A   1      44.544  28.690  28.036  1.00  0.00     0.167 HD
ATOM     29  C   UNL A   1      43.761  24.340  27.120  1.00  0.00     0.031 A 
ATOM     30  C   UNL A   1      45.970  31.067  28.195  1.00  0.00     0.031 A 
ATOM     31  C   UNL A   1      45.106  24.625  26.712  1.00  0.00     0.049 A 
ATOM     32  C   UNL A   1      46.852  29.995  27.616  1.00  0.00     0.074 A 
ATOM     33  C   UNL A   1      46.031  23.788  26.122  1.00  0.00     0.029 A 
ATOM     34  N   UNL A   1      45.712  25.868  26.861  1.00  0.00    -0.354 N 
ATOM     35  N   UNL A   1      46.556  28.744  27.340  1.00  0.00    -0.248 NA
ATOM     36  C   UNL A   1      48.239  30.368  27.321  1.00  0.00     0.031 C 
ATOM     37  C   UNL A   1      47.220  24.510  25.977  1.00  0.00     0.029 A 
ATOM     38  C   UNL A   1      47.013  25.814  26.408  1.00  0.00     0.049 A 
ATOM     39  H   UNL A   1      45.276  26.667  27.236  1.00  0.00     0.167 HD
ATOM     40  C   UNL A   1      47.714  28.183  26.824  1.00  0.00     0.074 A 
ATOM     41  C   UNL A   1      48.708  29.241  26.804  1.00  0.00     0.031 C 
ATOM     42  C   UNL A   1      47.948  26.913  26.410  1.00  0.00     0.031 A 
BRANCH  29  43
ATOM     43  C   UNL A   1      43.194  22.960  26.973  1.00  0.00    -0.014 A 
ATOM     44  C   UNL A   1      42.644  22.256  28.056  1.00  0.00     0.009 A 
ATOM     45  C   UNL A   1      43.272  22.327  25.722  1.00  0.00     0.009 A 
ATOM     46  C   UNL A   1      42.217  20.934  27.894  1.00  0.00     0.001 A 
ATOM     47  C   UNL A   1      42.819  21.018  25.557  1.00  0.00     0.001 A 
ATOM     48  C   UNL A   1      42.302  20.320  26.645  1.00  0.00     0.000 A 
ENDBRANCH  29  43
BRANCH  30  49
ATOM     49  C   UNL A   1      46.467  32.445  28.458  1.00  0.00    -0.014 A 
ATOM     50  C   UNL A   1      46.314  33.465  27.509  1.00  0.00     0.009 A 
ATOM     51  C   UNL A   1      47.129  32.743  29.663  1.00  0.00     0.009 A 
ATOM     52  C   UNL A   1      46.840  34.739  27.745  1.00  0.00     0.001 A 
ATOM     53  C   UNL A   1      47.623  34.026  29.912  1.00  0.00     0.001 A 
ATOM     54  C   UNL A   1      47.492  35.019  28.946  1.00  0.00     0.000 A 
ENDBRANCH  30  49
BRANCH  42  55
ATOM     55  C   UNL A   1      49.314  26.626  25.870  1.00  0.00    -0.014 A 
ATOM     56  C   UNL A   1      49.660  26.966  24.554  1.00  0.00     0.009 A 
ATOM     57  C   UNL A   1      50.287  26.084  26.723  1.00  0.00     0.009 A 
ATOM     58  C   UNL A   1      50.958  26.746  24.096  1.00  0.00     0.001 A 
ATOM     59  C   UNL A   1      51.591  25.898  26.271  1.00  0.00     0.001 A 
ATOM     60  C   UNL A   1      51.923  26.223  24.957  1.00  0.00     0.000 A 
ENDBRANCH  42  55
ENDBRANCH  16  17
ENDBRANCH   9  11
ENDBRANCH   8   9
ENDBRANCH   7   8
ENDBRANCH   6   7
ENDBRANCH   5   6
ENDBRANCH   4   5
ENDBRANCH   3   4
ENDBRANCH   2   3
ENDBRANCH   1   2
BRANCH   1  61
ATOM     61  C   UNL A   1      33.426  29.516  26.421  1.00  0.00     0.188 C 
BRANCH  61  62
ATOM     62  O   UNL A   1      32.615  29.663  25.282  1.00  0.00    -0.376 OA
BRANCH  62  63
ATOM     63  C   UNL A   1      31.378  28.960  25.260  1.00  0.00     0.202 C 
BRANCH  63  64
ATOM     64  C   UNL A   1      31.142  27.608  25.987  1.00  0.00     0.261 C 
BRANCH  64  65
ATOM     65  O   UNL A   1      31.223  26.417  25.181  1.00  0.00    -0.463 OA
BRANCH  65  66
ATOM     66  C   UNL A   1      31.109  25.224  25.803  1.00  0.00     0.313 C 
ATOM     67  O   UNL A   1      30.173  24.969  26.568  1.00  0.00    -0.252 OA
BRANCH  66  68
ATOM     68  C   UNL A   1      32.196  24.177  25.455  1.00  0.00     0.079 C 
ATOM     69  C   UNL A   1      32.496  23.068  26.511  1.00  0.00     0.055 C 
ATOM     70  C   UNL A   1      31.594  23.360  24.266  1.00  0.00     0.055 C 
ATOM     71  C   UNL A   1      32.747  21.847  25.692  1.00  0.00    -0.044 A 
ATOM     72  C   UNL A   1      32.187  21.995  24.430  1.00  0.00    -0.044 A 
ATOM     73  C   UNL A   1      33.387  20.681  26.081  1.00  0.00     0.004 A 
ATOM     74  C   UNL A   1      32.179  20.939  23.542  1.00  0.00     0.004 A 
ATOM     75  C   UNL A   1      33.420  19.623  25.177  1.00  0.00     0.000 A 
ATOM     76  C   UNL A   1      32.801  19.746  23.923  1.00  0.00     0.000 A 
BRANCH  68  77
ATOM     77  C   UNL A   1      33.547  24.885  25.074  1.00  0.00     0.047 C 
BRANCH  77  78
ATOM     78  C   UNL A   1      34.790  24.206  25.573  1.00  0.00    -0.025 C 
ATOM     79  C   UNL A   1      35.963  24.175  24.915  1.00  0.00     0.004 C 
BRANCH  79  80
ATOM     80  C   UNL A   1      37.054  23.292  25.345  1.00  0.00    -0.026 A 
ATOM     81  C   UNL A   1      38.145  23.786  26.068  1.00  0.00     0.008 A 
ATOM     82  C   UNL A   1      37.047  21.942  24.966  1.00  0.00     0.008 A 
ATOM     83  C   UNL A   1      39.189  22.930  26.435  1.00  0.00     0.001 A 
ATOM     84  C   UNL A   1      38.088  21.090  25.330  1.00  0.00     0.001 A 
ATOM     85  C   UNL A   1      39.158  21.583  26.069  1.00  0.00     0.000 A 
ENDBRANCH  79  80
ENDBRANCH  77  78
ENDBRANCH  68  77
ENDBRANCH  66  68
ENDBRANCH  65  66
ENDBRANCH  64  65
ENDBRANCH  63  64
ENDBRANCH  62  63
ENDBRANCH  61  62
ENDBRANCH   1  61
TORSDOF 23
ENDMDL
MODEL 3
REMARK VINA RESULT:      -9.3      4.634     10.910
REMARK SMILES O=C(OCCOCCOCCOCCOC(=O)C1(C/C=C/c2ccccc2)Cc2ccccc2C1)c1ccc(-c2c3nc(c(-c4ccccc4)c4ccc([nH]4)c(-c4ccccc4)c4nc(c(-c5ccccc5)c5ccc2[nH]5)C=C4)C=C3)cc1
REMARK SMILES IDX 10 1 9 2 8 3 7 4 6 5 5 6 4 7 3 8 2 9 1 10 36 11 37 12 83 13
REMARK SMILES IDX 38 14 82 15 39 16 40 17 41 18 76 19 42 20 81 21 75 22 77 23
REMARK SMILES IDX 43 24 80 25 74 26 73 27 44 29 66 30 51 31 65 32 52 33 55 34
REMARK SMILES IDX 64 35 78 36 53 37 54 38 63 40 79 41 56 42 45 43 46 44 50 45
REMARK SMILES IDX 47 46 49 47 48 48 67 49 68 50 72 51 69 52 71 53 70 54 57 55
REMARK SMILES IDX 58 56 62 57 59 58 61 59 60 60 11 61 12 62 13 63 14 64 15 65
REMARK SMILES IDX 16 66 17 67 18 68 28 69 35 70 29 71 34 72 30 73 33 74 31 75
REMARK SMILES IDX 32 76 19 77 20 78 21 79 22 80 23 81 27 82 24 83 26 84 25 85
REMARK H PARENT 77 28 55 39
REMARK Flexibility Score: inf
ROOT
ATOM      1  C   UNL A   1      36.855  31.375  28.851  1.00  0.00     0.188 C 
ENDROOT
BRANCH   1   2
ATOM      2  O   UNL A   1      35.643  31.535  29.591  1.00  0.00    -0.377 OA
BRANCH   2   3
ATOM      3  C   UNL A   1      34.632  32.398  29.092  1.00  0.00     0.188 C 
BRANCH   3   4
ATOM      4  C   UNL A   1      34.606  33.739  29.793  1.00  0.00     0.188 C 
BRANCH   4   5
ATOM      5  O   UNL A   1      34.037  33.543  31.069  1.00  0.00    -0.376 OA
BRANCH   5   6
ATOM      6  C   UNL A   1      34.775  33.858  32.233  1.00  0.00     0.202 C 
BRANCH   6   7
ATOM      7  C   UNL A   1      35.486  32.699  32.902  1.00  0.00     0.261 C 
BRANCH   7   8
ATOM      8  O   UNL A   1      36.165  32.984  34.140  1.00  0.00    -0.460 OA
BRANCH   8   9
ATOM      9  C   UNL A   1      37.223  32.436  34.775  1.00  0.00     0.338 C 
ATOM     10  O   UNL A   1      37.179  32.342  36.001  1.00  0.00    -0.246 OA
BRANCH   9  11
ATOM     11  C   UNL A   1      38.442  31.912  34.105  1.00  0.00     0.060 A 
ATOM     12  C   UNL A   1      39.747  32.278  34.408  1.00  0.00     0.016 A 
ATOM     13  C   UNL A   1      38.266  30.858  33.197  1.00  0.00     0.016 A 
ATOM     14  C   UNL A   1      40.842  31.736  33.781  1.00  0.00     0.010 A 
ATOM     15  C   UNL A   1      39.367  30.247  32.593  1.00  0.00     0.010 A 
ATOM     16  C   UNL A   1      40.655  30.718  32.871  1.00  0.00    -0.014 A 
BRANCH  16  17
ATOM     17  C   UNL A   1      41.835  30.327  32.103  1.00  0.00     0.031 A 
ATOM     18  C   UNL A   1      42.367  31.333  31.140  1.00  0.00     0.074 A 
ATOM     19  C   UNL A   1      42.494  29.200  32.423  1.00  0.00     0.049 A 
ATOM     20  N   UNL A   1      43.307  31.203  30.252  1.00  0.00    -0.248 NA
ATOM     21  C   UNL A   1      41.761  32.678  31.192  1.00  0.00     0.031 C 
ATOM     22  C   UNL A   1      42.147  28.290  33.524  1.00  0.00     0.029 A 
ATOM     23  N   UNL A   1      43.612  28.645  31.874  1.00  0.00    -0.354 N 
ATOM     24  C   UNL A   1      43.354  32.422  29.591  1.00  0.00     0.074 A 
ATOM     25  C   UNL A   1      42.372  33.290  30.193  1.00  0.00     0.031 C 
ATOM     26  C   UNL A   1      43.039  27.288  33.561  1.00  0.00     0.029 A 
ATOM     27  C   UNL A   1      43.945  27.435  32.434  1.00  0.00     0.049 A 
ATOM     28  H   UNL A   1      44.128  29.067  31.151  1.00  0.00     0.167 HD
ATOM     29  C   UNL A   1      44.138  32.751  28.544  1.00  0.00     0.031 A 
ATOM     30  C   UNL A   1      44.840  26.525  32.012  1.00  0.00     0.031 A 
ATOM     31  C   UNL A   1      45.091  31.835  27.988  1.00  0.00     0.049 A 
ATOM     32  C   UNL A   1      45.603  26.859  30.758  1.00  0.00     0.074 A 
ATOM     33  C   UNL A   1      45.907  31.991  26.887  1.00  0.00     0.029 A 
ATOM     34  N   UNL A   1      45.346  30.573  28.513  1.00  0.00    -0.354 N 
ATOM     35  N   UNL A   1      45.588  27.969  30.056  1.00  0.00    -0.248 NA
ATOM     36  C   UNL A   1      46.480  25.814  30.221  1.00  0.00     0.031 C 
ATOM     37  C   UNL A   1      46.608  30.795  26.708  1.00  0.00     0.029 A 
ATOM     38  C   UNL A   1      46.282  29.921  27.739  1.00  0.00     0.049 A 
ATOM     39  H   UNL A   1      44.920  30.199  29.319  1.00  0.00     0.167 HD
ATOM     40  C   UNL A   1      46.464  27.765  29.001  1.00  0.00     0.074 A 
ATOM     41  C   UNL A   1      47.010  26.431  29.175  1.00  0.00     0.031 C 
ATOM     42  C   UNL A   1      46.789  28.592  27.976  1.00  0.00     0.031 A 
BRANCH  29  43
ATOM     43  C   UNL A   1      43.881  34.076  27.890  1.00  0.00    -0.014 A 
ATOM     44  C   UNL A   1      44.405  35.276  28.395  1.00  0.00     0.009 A 
ATOM     45  C   UNL A   1      43.036  34.124  26.770  1.00  0.00     0.009 A 
ATOM     46  C   UNL A   1      44.059  36.498  27.811  1.00  0.00     0.001 A 
ATOM     47  C   UNL A   1      42.714  35.342  26.172  1.00  0.00     0.001 A 
ATOM     48  C   UNL A   1      43.217  36.529  26.699  1.00  0.00     0.000 A 
ENDBRANCH  29  43
BRANCH  30  49
ATOM     49  C   UNL A   1      44.963  25.204  32.685  1.00  0.00    -0.014 A 
ATOM     50  C   UNL A   1      44.141  24.127  32.324  1.00  0.00     0.009 A 
ATOM     51  C   UNL A   1      45.895  25.019  33.722  1.00  0.00     0.009 A 
ATOM     52  C   UNL A   1      44.227  22.909  33.008  1.00  0.00     0.001 A 
ATOM     53  C   UNL A   1      46.003  23.791  34.380  1.00  0.00     0.001 A 
ATOM     54  C   UNL A   1      45.157  22.742  34.032  1.00  0.00     0.000 A 
ENDBRANCH  30  49
BRANCH  42  55
ATOM     55  C   UNL A   1      47.804  28.082  27.001  1.00  0.00    -0.014 A 
ATOM     56  C   UNL A   1      49.177  28.150  27.281  1.00  0.00     0.009 A 
ATOM     57  C   UNL A   1      47.368  27.451  25.827  1.00  0.00     0.009 A 
ATOM     58  C   UNL A   1      50.099  27.611  26.385  1.00  0.00     0.001 A 
ATOM     59  C   UNL A   1      48.290  26.883  24.952  1.00  0.00     0.001 A 
ATOM     60  C   UNL A   1      49.654  26.969  25.228  1.00  0.00     0.000 A 
ENDBRANCH  42  55
ENDBRANCH  16  17
ENDBRANCH   9  11
ENDBRANCH   8   9
ENDBRANCH   7   8
ENDBRANCH   6   7
ENDBRANCH   5   6
ENDBRANCH   4   5
ENDBRANCH   3   4
ENDBRANCH   2   3
ENDBRANCH   1   2
BRANCH   1  61
ATOM     61  C   UNL A   1      38.230  31.386  29.528  1.00  0.00     0.188 C 
BRANCH  61  62
ATOM     62  O   UNL A   1      39.109  30.382  29.085  1.00  0.00    -0.376 OA
BRANCH  62  63
ATOM     63  C   UNL A   1      38.683  29.031  29.215  1.00  0.00     0.202 C 
BRANCH  63  64
ATOM     64  C   UNL A   1      39.170  27.881  28.292  1.00  0.00     0.261 C 
BRANCH  64  65
ATOM     65  O   UNL A   1      39.837  26.776  28.931  1.00  0.00    -0.463 OA
BRANCH  65  66
ATOM     66  C   UNL A   1      41.186  26.747  28.894  1.00  0.00     0.313 C 
ATOM     67  O   UNL A   1      41.879  27.467  29.621  1.00  0.00    -0.252 OA
BRANCH  66  68
ATOM     68  C   UNL A   1      41.811  25.714  27.924  1.00  0.00     0.079 C 
ATOM     69  C   UNL A   1      42.493  26.258  26.630  1.00  0.00     0.055 C 
ATOM     70  C   UNL A   1      43.015  25.104  28.713  1.00  0.00     0.055 C 
ATOM     71  C   UNL A   1      43.677  25.369  26.446  1.00  0.00    -0.044 A 
ATOM     72  C   UNL A   1      44.004  24.753  27.646  1.00  0.00    -0.044 A 
ATOM     73  C   UNL A   1      44.424  25.179  25.293  1.00  0.00     0.004 A 
ATOM     74  C   UNL A   1      45.146  23.986  27.748  1.00  0.00     0.004 A 
ATOM     75  C   UNL A   1      45.556  24.374  25.375  1.00  0.00     0.000 A 
ATOM     76  C   UNL A   1      45.926  23.798  26.602  1.00  0.00     0.000 A 
BRANCH  68  77
ATOM     77  C   UNL A   1      40.752  24.628  27.512  1.00  0.00     0.047 C 
BRANCH  77  78
ATOM     78  C   UNL A   1      41.307  23.427  26.801  1.00  0.00    -0.025 C 
ATOM     79  C   UNL A   1      41.195  22.160  27.237  1.00  0.00     0.004 C 
BRANCH  79  80
ATOM     80  C   UNL A   1      41.966  21.072  26.623  1.00  0.00    -0.026 A 
ATOM     81  C   UNL A   1      43.111  21.333  25.862  1.00  0.00     0.008 A 
ATOM     82  C   UNL A   1      41.515  19.748  26.737  1.00  0.00     0.008 A 
ATOM     83  C   UNL A   1      43.807  20.280  25.260  1.00  0.00     0.001 A 
ATOM     84  C   UNL A   1      42.207  18.700  26.135  1.00  0.00     0.001 A 
ATOM     85  C   UNL A   1      43.358  18.965  25.399  1.00  0.00     0.000 A 
ENDBRANCH  79  80
ENDBRANCH  77  78
ENDBRANCH  68  77
ENDBRANCH  66  68
ENDBRANCH  65  66
ENDBRANCH  64  65
ENDBRANCH  63  64
ENDBRANCH  62  63
ENDBRANCH  61  62
ENDBRANCH   1  61
TORSDOF 23
ENDMDL
