MODEL 1
REMARK VINA RESULT:     -12.1      0.000      0.000
REMARK SMILES CCC(=O)N1CCc2cc(C(=O)NC3(C(=O)NCCCCCCNC(=O)c4ccc(-c5c6nc(c(-c7ccc(S(=O)(=O)[O-])cc7)c7ccc([nH]7)c(-c7ccc(S(=O)(=O)[O-])cc7)c7nc(c(-c8ccc(S(=O)(=O)[O-])cc8)c8ccc5[nH]8)C=C7)C=C6)cc4)CCCC3)ccc21
REMARK SMILES IDX 20 1 19 2 18 3 17 4 15 5 16 6 14 8 87 9 90 10 88 11 89 12
REMARK SMILES IDX 13 13 11 14 12 15 10 17 5 18 6 19 93 20 7 21 8 22 92 23 9 24
REMARK SMILES IDX 91 25 3 26 4 27 2 28 1 29 21 30 22 31 23 32 24 33 25 34
REMARK SMILES IDX 26 36 27 37 28 38 86 39 29 40 85 41 30 42 31 43 32 44 79 45
REMARK SMILES IDX 33 46 84 47 78 48 80 49 34 50 83 51 77 52 76 53 35 55 65 56
REMARK SMILES IDX 46 57 64 58 47 59 50 60 63 61 81 62 48 63 49 64 62 66 82 67
REMARK SMILES IDX 51 68 36 69 37 70 45 71 38 72 44 73 39 74 40 75 41 76 42 77
REMARK SMILES IDX 43 78 66 79 67 80 75 81 68 82 74 83 69 84 70 85 71 86 72 87
REMARK SMILES IDX 73 88 52 89 53 90 61 91 54 92 60 93 55 94 56 95 57 96 58 97
REMARK SMILES IDX 59 98
REMARK H PARENT 17 7 13 16 24 35 80 54 50 65
REMARK Flexibility Score: inf
ROOT
ATOM      1  C   UNL A   1      37.447  20.848  25.359  1.00  0.00     0.002 C 
ENDROOT
BRANCH   1   2
ATOM      2  C   UNL A   1      36.194  21.247  24.567  1.00  0.00     0.021 C 
BRANCH   2   3
ATOM      3  C   UNL A   1      34.927  20.518  25.006  1.00  0.00     0.116 C 
BRANCH   3   4
ATOM      4  N   UNL A   1      34.542  20.967  26.315  1.00  0.00    -0.354 N 
ATOM      5  C   UNL A   1      33.948  22.093  26.758  1.00  0.00     0.245 C 
ATOM      6  O   UNL A   1      34.118  22.281  27.975  1.00  0.00    -0.272 OA
ATOM      7  H   UNL A   1      34.753  20.325  27.030  1.00  0.00     0.163 HD
BRANCH   5   8
ATOM      8  C   UNL A   1      33.136  23.143  25.894  1.00  0.00     0.119 C 
ATOM      9  C   UNL A   1      32.816  23.185  24.381  1.00  0.00     0.038 C 
ATOM     10  C   UNL A   1      33.879  24.493  26.040  1.00  0.00     0.038 C 
ATOM     11  C   UNL A   1      33.919  23.932  23.658  1.00  0.00     0.003 C 
ATOM     12  C   UNL A   1      34.661  24.698  24.736  1.00  0.00     0.003 C 
BRANCH   8  13
ATOM     13  N   UNL A   1      31.825  23.129  26.615  1.00  0.00    -0.338 N 
ATOM     14  C   UNL A   1      30.757  24.015  26.645  1.00  0.00     0.252 C 
ATOM     15  O   UNL A   1      29.787  23.692  27.337  1.00  0.00    -0.269 OA
ATOM     16  H   UNL A   1      31.694  22.334  27.180  1.00  0.00     0.164 HD
BRANCH  14  17
ATOM     17  C   UNL A   1      30.682  25.320  25.890  1.00  0.00     0.040 A 
ATOM     18  N   UNL A   1      30.534  29.074  24.018  1.00  0.00    -0.312 N 
ATOM     19  C   UNL A   1      31.442  29.872  24.852  1.00  0.00     0.130 C 
ATOM     20  C   UNL A   1      30.533  27.776  24.516  1.00  0.00     0.047 A 
ATOM     21  C   UNL A   1      31.916  28.976  26.015  1.00  0.00     0.059 C 
ATOM     22  C   UNL A   1      31.247  27.672  25.706  1.00  0.00    -0.022 A 
ATOM     23  C   UNL A   1      30.027  26.655  23.938  1.00  0.00     0.027 A 
ATOM     24  C   UNL A   1      31.330  26.459  26.404  1.00  0.00     0.019 A 
ATOM     25  C   UNL A   1      30.036  25.474  24.664  1.00  0.00     0.016 A 
BRANCH  18  26
ATOM     26  C   UNL A   1      29.875  29.628  22.942  1.00  0.00     0.226 C 
ATOM     27  O   UNL A   1      30.113  29.221  21.798  1.00  0.00    -0.275 OA
BRANCH  26  28
ATOM     28  C   UNL A   1      29.103  30.951  23.098  1.00  0.00     0.097 C 
ATOM     29  C   UNL A   1      27.635  31.012  23.469  1.00  0.00     0.014 C 
ENDBRANCH  26  28
ENDBRANCH  18  26
ENDBRANCH  14  17
ENDBRANCH   8  13
ENDBRANCH   5   8
ENDBRANCH   3   4
ENDBRANCH   2   3
ENDBRANCH   1   2
BRANCH   1  30
ATOM     30  C   UNL A   1      38.444  21.985  25.608  1.00  0.00     0.002 C 
BRANCH  30  31
ATOM     31  C   UNL A   1      37.808  23.331  25.967  1.00  0.00     0.021 C 
BRANCH  31  32
ATOM     32  C   UNL A   1      38.766  24.326  26.614  1.00  0.00     0.116 C 
BRANCH  32  33
ATOM     33  N   UNL A   1      40.114  24.203  26.087  1.00  0.00    -0.352 N 
ATOM     34  C   UNL A   1      41.229  24.951  26.388  1.00  0.00     0.251 C 
ATOM     35  H   UNL A   1      40.248  23.487  25.424  1.00  0.00     0.163 HD
ATOM     36  O   UNL A   1      42.238  24.860  25.711  1.00  0.00    -0.269 OA
BRANCH  34  37
ATOM     37  C   UNL A   1      41.174  25.877  27.540  1.00  0.00     0.039 A 
ATOM     38  C   UNL A   1      42.123  26.896  27.641  1.00  0.00     0.014 A 
ATOM     39  C   UNL A   1      40.169  25.745  28.501  1.00  0.00     0.014 A 
ATOM     40  C   UNL A   1      42.027  27.826  28.679  1.00  0.00     0.010 A 
ATOM     41  C   UNL A   1      40.033  26.712  29.491  1.00  0.00     0.010 A 
ATOM     42  C   UNL A   1      40.962  27.759  29.592  1.00  0.00    -0.014 A 
BRANCH  42  43
ATOM     43  C   UNL A   1      40.794  28.763  30.672  1.00  0.00     0.031 A 
ATOM     44  C   UNL A   1      41.640  28.672  31.913  1.00  0.00     0.074 A 
ATOM     45  C   UNL A   1      39.826  29.695  30.576  1.00  0.00     0.049 A 
ATOM     46  N   UNL A   1      41.570  29.376  33.012  1.00  0.00    -0.248 NA
ATOM     47  C   UNL A   1      42.681  27.632  31.929  1.00  0.00     0.031 C 
ATOM     48  C   UNL A   1      38.928  29.873  29.432  1.00  0.00     0.029 A 
ATOM     49  N   UNL A   1      39.427  30.664  31.463  1.00  0.00    -0.354 N 
ATOM     50  C   UNL A   1      42.536  28.847  33.861  1.00  0.00     0.074 A 
ATOM     51  C   UNL A   1      43.146  27.734  33.166  1.00  0.00     0.031 C 
ATOM     52  C   UNL A   1      38.104  30.905  29.676  1.00  0.00     0.029 A 
ATOM     53  C   UNL A   1      38.378  31.429  31.011  1.00  0.00     0.049 A 
ATOM     54  H   UNL A   1      39.854  30.799  32.341  1.00  0.00     0.167 HD
ATOM     55  C   UNL A   1      42.891  29.257  35.101  1.00  0.00     0.031 A 
ATOM     56  C   UNL A   1      37.705  32.431  31.609  1.00  0.00     0.031 A 
ATOM     57  C   UNL A   1      42.289  30.373  35.780  1.00  0.00     0.049 A 
ATOM     58  C   UNL A   1      38.097  32.852  32.999  1.00  0.00     0.074 A 
ATOM     59  C   UNL A   1      42.619  30.910  37.010  1.00  0.00     0.029 A 
ATOM     60  N   UNL A   1      41.229  31.120  35.287  1.00  0.00    -0.354 N 
ATOM     61  N   UNL A   1      39.053  32.379  33.762  1.00  0.00    -0.248 NA
ATOM     62  C   UNL A   1      37.322  33.942  33.609  1.00  0.00     0.031 C 
ATOM     63  C   UNL A   1      41.720  31.944  37.290  1.00  0.00     0.029 A 
ATOM     64  C   UNL A   1      40.871  32.093  36.203  1.00  0.00     0.049 A 
ATOM     65  H   UNL A   1      40.794  30.977  34.415  1.00  0.00     0.167 HD
ATOM     66  C   UNL A   1      39.020  33.139  34.926  1.00  0.00     0.074 A 
ATOM     67  C   UNL A   1      37.950  34.103  34.766  1.00  0.00     0.031 C 
ATOM     68  C   UNL A   1      39.810  33.053  36.024  1.00  0.00     0.031 A 
BRANCH  55  69
ATOM     69  C   UNL A   1      43.968  28.477  35.811  1.00  0.00    -0.014 A 
ATOM     70  C   UNL A   1      45.330  28.780  35.632  1.00  0.00     0.010 A 
ATOM     71  C   UNL A   1      43.609  27.437  36.688  1.00  0.00     0.010 A 
ATOM     72  C   UNL A   1      46.314  28.020  36.268  1.00  0.00     0.020 A 
ATOM     73  C   UNL A   1      44.589  26.695  37.352  1.00  0.00     0.020 A 
ATOM     74  C   UNL A   1      45.936  26.977  37.120  1.00  0.00     0.054 A 
BRANCH  74  75
ATOM     75  S   UNL A   1      47.234  26.005  37.933  1.00  0.00     0.124 S 
ATOM     76  O   UNL A   1      47.052  24.691  37.320  1.00  0.00    -0.237 OA
ATOM     77  O   UNL A   1      48.453  26.712  37.548  1.00  0.00    -0.237 OA
ATOM     78  O   UNL A   1      46.891  26.084  39.351  1.00  0.00    -0.744 OA
ENDBRANCH  74  75
ENDBRANCH  55  69
BRANCH  56  79
ATOM     79  C   UNL A   1      36.605  33.124  30.883  1.00  0.00    -0.014 A 
ATOM     80  C   UNL A   1      35.263  32.840  31.195  1.00  0.00     0.010 A 
ATOM     81  C   UNL A   1      36.887  34.081  29.893  1.00  0.00     0.010 A 
ATOM     82  C   UNL A   1      34.225  33.489  30.521  1.00  0.00     0.020 A 
ATOM     83  C   UNL A   1      35.852  34.754  29.236  1.00  0.00     0.020 A 
ATOM     84  C   UNL A   1      34.526  34.445  29.548  1.00  0.00     0.054 A 
BRANCH  84  85
ATOM     85  S   UNL A   1      33.162  35.314  28.726  1.00  0.00     0.124 S 
ATOM     86  O   UNL A   1      33.875  36.247  27.858  1.00  0.00    -0.237 OA
ATOM     87  O   UNL A   1      32.460  34.227  28.048  1.00  0.00    -0.237 OA
ATOM     88  O   UNL A   1      32.430  35.924  29.834  1.00  0.00    -0.744 OA
ENDBRANCH  84  85
ENDBRANCH  56  79
BRANCH  68  89
ATOM     89  C   UNL A   1      39.589  34.051  37.129  1.00  0.00    -0.014 A 
ATOM     90  C   UNL A   1      38.770  33.753  38.231  1.00  0.00     0.010 A 
ATOM     91  C   UNL A   1      40.292  35.270  37.103  1.00  0.00     0.010 A 
ATOM     92  C   UNL A   1      38.653  34.663  39.286  1.00  0.00     0.020 A 
ATOM     93  C   UNL A   1      40.197  36.169  38.167  1.00  0.00     0.020 A 
ATOM     94  C   UNL A   1      39.373  35.861  39.251  1.00  0.00     0.054 A 
BRANCH  94  95
ATOM     95  S   UNL A   1      39.268  36.984  40.671  1.00  0.00     0.124 S 
ATOM     96  O   UNL A   1      38.379  38.029  40.169  1.00  0.00    -0.237 OA
ATOM     97  O   UNL A   1      38.705  36.129  41.713  1.00  0.00    -0.237 OA
ATOM     98  O   UNL A   1      40.652  37.396  40.891  1.00  0.00    -0.744 OA
ENDBRANCH  94  95
ENDBRANCH  68  89
ENDBRANCH  42  43
ENDBRANCH  34  37
ENDBRANCH  32  33
ENDBRANCH  31  32
ENDBRANCH  30  31
ENDBRANCH   1  30
TORSDOF 20
ENDMDL
MODEL 2
REMARK VINA RESULT:     -11.9      6.034     11.940
REMARK SMILES CCC(=O)N1CCc2cc(C(=O)NC3(C(=O)NCCCCCCNC(=O)c4ccc(-c5c6nc(c(-c7ccc(S(=O)(=O)[O-])cc7)c7ccc([nH]7)c(-c7ccc(S(=O)(=O)[O-])cc7)c7nc(c(-c8ccc(S(=O)(=O)[O-])cc8)c8ccc5[nH]8)C=C7)C=C6)cc4)CCCC3)ccc21
REMARK SMILES IDX 20 1 19 2 18 3 17 4 15 5 16 6 14 8 87 9 90 10 88 11 89 12
REMARK SMILES IDX 13 13 11 14 12 15 10 17 5 18 6 19 93 20 7 21 8 22 92 23 9 24
REMARK SMILES IDX 91 25 3 26 4 27 2 28 1 29 21 30 22 31 23 32 24 33 25 34
REMARK SMILES IDX 26 36 27 37 28 38 86 39 29 40 85 41 30 42 31 43 32 44 79 45
REMARK SMILES IDX 33 46 84 47 78 48 80 49 34 50 83 51 77 52 76 53 35 55 65 56
REMARK SMILES IDX 46 57 64 58 47 59 50 60 63 61 81 62 48 63 49 64 62 66 82 67
REMARK SMILES IDX 51 68 36 69 37 70 45 71 38 72 44 73 39 74 40 75 41 76 42 77
REMARK SMILES IDX 43 78 66 79 67 80 75 81 68 82 74 83 69 84 70 85 71 86 72 87
REMARK SMILES IDX 73 88 52 89 53 90 61 91 54 92 60 93 55 94 56 95 57 96 58 97
REMARK SMILES IDX 59 98
REMARK H PARENT 17 7 13 16 24 35 80 54 50 65
REMARK Flexibility Score: inf
ROOT
ATOM      1  C   UNL A   1      32.927  29.517  27.240  1.00  0.00     0.002 C 
ENDROOT
BRANCH   1   2
ATOM      2  C   UNL A   1      32.078  30.366  26.285  1.00  0.00     0.021 C 
BRANCH   2   3
ATOM      3  C   UNL A   1      31.391  29.559  25.187  1.00  0.00     0.116 C 
BRANCH   3   4
ATOM      4  N   UNL A   1      32.257  29.462  24.046  1.00  0.00    -0.354 N 
ATOM      5  C   UNL A   1      32.850  28.418  23.432  1.00  0.00     0.245 C 
ATOM      6  O   UNL A   1      33.810  28.759  22.720  1.00  0.00    -0.272 OA
ATOM      7  H   UNL A   1      32.458  30.331  23.629  1.00  0.00     0.163 HD
BRANCH   5   8
ATOM      8  C   UNL A   1      32.462  26.889  23.570  1.00  0.00     0.119 C 
ATOM      9  C   UNL A   1      31.157  26.210  24.049  1.00  0.00     0.038 C 
ATOM     10  C   UNL A   1      33.461  26.277  24.582  1.00  0.00     0.038 C 
ATOM     11  C   UNL A   1      31.231  25.990  25.548  1.00  0.00     0.003 C 
ATOM     12  C   UNL A   1      32.698  26.128  25.904  1.00  0.00     0.003 C 
BRANCH   8  13
ATOM     13  N   UNL A   1      32.705  26.421  22.169  1.00  0.00    -0.338 N 
ATOM     14  C   UNL A   1      33.031  25.184  21.633  1.00  0.00     0.252 C 
ATOM     15  O   UNL A   1      33.139  25.122  20.405  1.00  0.00    -0.269 OA
ATOM     16  H   UNL A   1      32.616  27.133  21.495  1.00  0.00     0.164 HD
BRANCH  14  17
ATOM     17  C   UNL A   1      33.243  23.916  22.424  1.00  0.00     0.040 A 
ATOM     18  N   UNL A   1      34.095  20.433  24.605  1.00  0.00    -0.312 N 
ATOM     19  C   UNL A   1      35.400  20.750  25.198  1.00  0.00     0.130 C 
ATOM     20  C   UNL A   1      33.676  21.545  23.883  1.00  0.00     0.047 A 
ATOM     21  C   UNL A   1      35.830  22.133  24.668  1.00  0.00     0.059 C 
ATOM     22  C   UNL A   1      34.661  22.526  23.818  1.00  0.00    -0.022 A 
ATOM     23  C   UNL A   1      32.446  21.794  23.363  1.00  0.00     0.027 A 
ATOM     24  C   UNL A   1      34.464  23.711  23.095  1.00  0.00     0.019 A 
ATOM     25  C   UNL A   1      32.275  22.925  22.579  1.00  0.00     0.016 A 
BRANCH  18  26
ATOM     26  C   UNL A   1      33.485  19.216  24.822  1.00  0.00     0.226 C 
ATOM     27  O   UNL A   1      32.512  19.141  25.583  1.00  0.00    -0.275 OA
BRANCH  26  28
ATOM     28  C   UNL A   1      34.182  17.909  24.401  1.00  0.00     0.097 C 
ATOM     29  C   UNL A   1      33.771  17.107  23.183  1.00  0.00     0.014 C 
ENDBRANCH  26  28
ENDBRANCH  18  26
ENDBRANCH  14  17
ENDBRANCH   8  13
ENDBRANCH   5   8
ENDBRANCH   3   4
ENDBRANCH   2   3
ENDBRANCH   1   2
BRANCH   1  30
ATOM     30  C   UNL A   1      34.354  29.233  26.758  1.00  0.00     0.002 C 
BRANCH  30  31
ATOM     31  C   UNL A   1      35.427  29.299  27.848  1.00  0.00     0.021 C 
BRANCH  31  32
ATOM     32  C   UNL A   1      35.708  30.704  28.370  1.00  0.00     0.116 C 
BRANCH  32  33
ATOM     33  N   UNL A   1      35.553  30.787  29.812  1.00  0.00    -0.352 N 
ATOM     34  C   UNL A   1      36.454  30.451  30.797  1.00  0.00     0.251 C 
ATOM     35  H   UNL A   1      34.686  31.131  30.128  1.00  0.00     0.163 HD
ATOM     36  O   UNL A   1      36.103  30.383  31.962  1.00  0.00    -0.269 OA
BRANCH  34  37
ATOM     37  C   UNL A   1      37.852  30.160  30.412  1.00  0.00     0.039 A 
ATOM     38  C   UNL A   1      38.685  29.499  31.317  1.00  0.00     0.014 A 
ATOM     39  C   UNL A   1      38.324  30.523  29.147  1.00  0.00     0.014 A 
ATOM     40  C   UNL A   1      39.980  29.146  30.930  1.00  0.00     0.010 A 
ATOM     41  C   UNL A   1      39.586  30.107  28.739  1.00  0.00     0.010 A 
ATOM     42  C   UNL A   1      40.427  29.418  29.627  1.00  0.00    -0.014 A 
BRANCH  42  43
ATOM     43  C   UNL A   1      41.775  29.005  29.161  1.00  0.00     0.031 A 
ATOM     44  C   UNL A   1      42.885  30.019  29.098  1.00  0.00     0.074 A 
ATOM     45  C   UNL A   1      41.974  27.750  28.714  1.00  0.00     0.049 A 
ATOM     46  N   UNL A   1      44.093  29.889  28.617  1.00  0.00    -0.248 NA
ATOM     47  C   UNL A   1      42.585  31.363  29.618  1.00  0.00     0.031 C 
ATOM     48  C   UNL A   1      40.971  26.682  28.704  1.00  0.00     0.029 A 
ATOM     49  N   UNL A   1      43.087  27.162  28.166  1.00  0.00    -0.354 N 
ATOM     50  C   UNL A   1      44.687  31.139  28.748  1.00  0.00     0.074 A 
ATOM     51  C   UNL A   1      43.691  32.024  29.313  1.00  0.00     0.031 C 
ATOM     52  C   UNL A   1      41.523  25.565  28.204  1.00  0.00     0.029 A 
ATOM     53  C   UNL A   1      42.900  25.848  27.809  1.00  0.00     0.049 A 
ATOM     54  H   UNL A   1      43.941  27.638  28.042  1.00  0.00     0.167 HD
ATOM     55  C   UNL A   1      45.951  31.514  28.439  1.00  0.00     0.031 A 
ATOM     56  C   UNL A   1      43.738  24.973  27.220  1.00  0.00     0.031 A 
ATOM     57  C   UNL A   1      46.940  30.625  27.890  1.00  0.00     0.049 A 
ATOM     58  C   UNL A   1      45.128  25.420  26.858  1.00  0.00     0.074 A 
ATOM     59  C   UNL A   1      48.266  30.888  27.601  1.00  0.00     0.029 A 
ATOM     60  N   UNL A   1      46.708  29.303  27.543  1.00  0.00    -0.354 N 
ATOM     61  N   UNL A   1      45.692  26.589  27.046  1.00  0.00    -0.248 NA
ATOM     62  C   UNL A   1      45.997  24.429  26.207  1.00  0.00     0.031 C 
ATOM     63  C   UNL A   1      48.821  29.743  27.024  1.00  0.00     0.029 A 
ATOM     64  C   UNL A   1      47.858  28.745  27.014  1.00  0.00     0.049 A 
ATOM     65  H   UNL A   1      45.851  28.830  27.656  1.00  0.00     0.167 HD
ATOM     66  C   UNL A   1      46.993  26.463  26.572  1.00  0.00     0.074 A 
ATOM     67  C   UNL A   1      47.133  25.104  26.089  1.00  0.00     0.031 C 
ATOM     68  C   UNL A   1      47.985  27.387  26.547  1.00  0.00     0.031 A 
BRANCH  55  69
ATOM     69  C   UNL A   1      46.326  32.956  28.668  1.00  0.00    -0.014 A 
ATOM     70  C   UNL A   1      46.240  33.907  27.634  1.00  0.00     0.010 A 
ATOM     71  C   UNL A   1      46.752  33.370  29.943  1.00  0.00     0.010 A 
ATOM     72  C   UNL A   1      46.629  35.230  27.856  1.00  0.00     0.020 A 
ATOM     73  C   UNL A   1      47.111  34.700  30.177  1.00  0.00     0.020 A 
ATOM     74  C   UNL A   1      47.069  35.617  29.125  1.00  0.00     0.054 A 
BRANCH  74  75
ATOM     75  S   UNL A   1      47.569  37.340  29.385  1.00  0.00     0.124 S 
ATOM     76  O   UNL A   1      47.412  37.902  28.046  1.00  0.00    -0.237 OA
ATOM     77  O   UNL A   1      46.606  37.808  30.378  1.00  0.00    -0.237 OA
ATOM     78  O   UNL A   1      48.947  37.235  29.858  1.00  0.00    -0.744 OA
ENDBRANCH  74  75
ENDBRANCH  55  69
BRANCH  56  79
ATOM     79  C   UNL A   1      43.291  23.577  26.958  1.00  0.00    -0.014 A 
ATOM     80  C   UNL A   1      43.235  23.088  25.641  1.00  0.00     0.010 A 
ATOM     81  C   UNL A   1      42.938  22.724  28.019  1.00  0.00     0.010 A 
ATOM     82  C   UNL A   1      42.821  21.777  25.388  1.00  0.00     0.020 A 
ATOM     83  C   UNL A   1      42.550  21.404  27.772  1.00  0.00     0.020 A 
ATOM     84  C   UNL A   1      42.484  20.942  26.456  1.00  0.00     0.054 A 
BRANCH  84  85
ATOM     85  S   UNL A   1      42.002  19.228  26.105  1.00  0.00     0.124 S 
ATOM     86  O   UNL A   1      42.740  18.952  24.876  1.00  0.00    -0.237 OA
ATOM     87  O   UNL A   1      42.467  18.522  27.297  1.00  0.00    -0.237 OA
ATOM     88  O   UNL A   1      40.550  19.305  25.961  1.00  0.00    -0.744 OA
ENDBRANCH  84  85
ENDBRANCH  56  79
BRANCH  68  89
ATOM     89  C   UNL A   1      49.330  26.959  26.025  1.00  0.00    -0.014 A 
ATOM     90  C   UNL A   1      49.716  27.218  24.698  1.00  0.00     0.010 A 
ATOM     91  C   UNL A   1      50.255  26.373  26.909  1.00  0.00     0.010 A 
ATOM     92  C   UNL A   1      51.003  26.890  24.263  1.00  0.00     0.020 A 
ATOM     93  C   UNL A   1      51.550  26.069  26.484  1.00  0.00     0.020 A 
ATOM     94  C   UNL A   1      51.914  26.325  25.161  1.00  0.00     0.054 A 
BRANCH  94  95
ATOM     95  S   UNL A   1      53.604  25.988  24.593  1.00  0.00     0.124 S 
ATOM     96  O   UNL A   1      53.659  24.530  24.650  1.00  0.00    -0.237 OA
ATOM     97  O   UNL A   1      53.611  26.565  23.251  1.00  0.00    -0.237 OA
ATOM     98  O   UNL A   1      54.442  26.681  25.568  1.00  0.00    -0.744 OA
ENDBRANCH  94  95
ENDBRANCH  68  89
ENDBRANCH  42  43
ENDBRANCH  34  37
ENDBRANCH  32  33
ENDBRANCH  31  32
ENDBRANCH  30  31
ENDBRANCH   1  30
TORSDOF 20
ENDMDL
MODEL 3
REMARK VINA RESULT:     -11.8      0.765      7.906
REMARK SMILES CCC(=O)N1CCc2cc(C(=O)NC3(C(=O)NCCCCCCNC(=O)c4ccc(-c5c6nc(c(-c7ccc(S(=O)(=O)[O-])cc7)c7ccc([nH]7)c(-c7ccc(S(=O)(=O)[O-])cc7)c7nc(c(-c8ccc(S(=O)(=O)[O-])cc8)c8ccc5[nH]8)C=C7)C=C6)cc4)CCCC3)ccc21
REMARK SMILES IDX 20 1 19 2 18 3 17 4 15 5 16 6 14 8 87 9 90 10 88 11 89 12
REMARK SMILES IDX 13 13 11 14 12 15 10 17 5 18 6 19 93 20 7 21 8 22 92 23 9 24
REMARK SMILES IDX 91 25 3 26 4 27 2 28 1 29 21 30 22 31 23 32 24 33 25 34
REMARK SMILES IDX 26 36 27 37 28 38 86 39 29 40 85 41 30 42 31 43 32 44 79 45
REMARK SMILES IDX 33 46 84 47 78 48 80 49 34 50 83 51 77 52 76 53 35 55 65 56
REMARK SMILES IDX 46 57 64 58 47 59 50 60 63 61 81 62 48 63 49 64 62 66 82 67
REMARK SMILES IDX 51 68 36 69 37 70 45 71 38 72 44 73 39 74 40 75 41 76 42 77
REMARK SMILES IDX 43 78 66 79 67 80 75 81 68 82 74 83 69 84 70 85 71 86 72 87
REMARK SMILES IDX 73 88 52 89 53 90 61 91 54 92 60 93 55 94 56 95 57 96 58 97
REMARK SMILES IDX 59 98
REMARK H PARENT 17 7 13 16 24 35 80 54 50 65
REMARK Flexibility Score: inf
ROOT
ATOM      1  C   UNL A   1      37.769  23.175  25.525  1.00  0.00     0.002 C 
ENDROOT
BRANCH   1   2
ATOM      2  C   UNL A   1      37.551  21.658  25.449  1.00  0.00     0.021 C 
BRANCH   2   3
ATOM      3  C   UNL A   1      36.144  21.257  25.015  1.00  0.00     0.116 C 
BRANCH   3   4
ATOM      4  N   UNL A   1      35.300  21.134  26.170  1.00  0.00    -0.354 N 
ATOM      5  C   UNL A   1      34.243  21.845  26.613  1.00  0.00     0.245 C 
ATOM      6  O   UNL A   1      34.015  21.669  27.822  1.00  0.00    -0.272 OA
ATOM      7  H   UNL A   1      35.540  20.380  26.756  1.00  0.00     0.163 HD
BRANCH   5   8
ATOM      8  C   UNL A   1      33.354  22.850  25.771  1.00  0.00     0.119 C 
ATOM      9  C   UNL A   1      32.956  22.849  24.276  1.00  0.00     0.038 C 
ATOM     10  C   UNL A   1      34.059  24.226  25.852  1.00  0.00     0.038 C 
ATOM     11  C   UNL A   1      33.996  23.616  23.483  1.00  0.00     0.003 C 
ATOM     12  C   UNL A   1      34.766  24.428  24.505  1.00  0.00     0.003 C 
BRANCH   8  13
ATOM     13  N   UNL A   1      32.083  22.810  26.558  1.00  0.00    -0.338 N 
ATOM     14  C   UNL A   1      30.982  23.653  26.614  1.00  0.00     0.252 C 
ATOM     15  O   UNL A   1      30.062  23.317  27.365  1.00  0.00    -0.269 OA
ATOM     16  H   UNL A   1      32.013  22.030  27.155  1.00  0.00     0.164 HD
BRANCH  14  17
ATOM     17  C   UNL A   1      30.815  24.926  25.821  1.00  0.00     0.040 A 
ATOM     18  N   UNL A   1      30.392  28.604  23.842  1.00  0.00    -0.312 N 
ATOM     19  C   UNL A   1      31.189  29.503  24.685  1.00  0.00     0.130 C 
ATOM     20  C   UNL A   1      30.491  27.323  24.375  1.00  0.00     0.047 A 
ATOM     21  C   UNL A   1      31.698  28.684  25.889  1.00  0.00     0.059 C 
ATOM     22  C   UNL A   1      31.165  27.316  25.593  1.00  0.00    -0.022 A 
ATOM     23  C   UNL A   1      30.115  26.146  23.810  1.00  0.00     0.027 A 
ATOM     24  C   UNL A   1      31.334  26.133  26.326  1.00  0.00     0.019 A 
ATOM     25  C   UNL A   1      30.206  24.989  24.568  1.00  0.00     0.016 A 
BRANCH  18  26
ATOM     26  C   UNL A   1      29.727  29.067  22.727  1.00  0.00     0.226 C 
ATOM     27  O   UNL A   1      30.360  29.343  21.701  1.00  0.00    -0.275 OA
BRANCH  26  28
ATOM     28  C   UNL A   1      28.270  29.555  22.836  1.00  0.00     0.097 C 
ATOM     29  C   UNL A   1      27.125  28.656  23.256  1.00  0.00     0.014 C 
ENDBRANCH  26  28
ENDBRANCH  18  26
ENDBRANCH  14  17
ENDBRANCH   8  13
ENDBRANCH   5   8
ENDBRANCH   3   4
ENDBRANCH   2   3
ENDBRANCH   1   2
BRANCH   1  30
ATOM     30  C   UNL A   1      38.825  23.626  26.541  1.00  0.00     0.002 C 
BRANCH  30  31
ATOM     31  C   UNL A   1      40.037  22.700  26.663  1.00  0.00     0.021 C 
BRANCH  31  32
ATOM     32  C   UNL A   1      41.338  23.409  27.024  1.00  0.00     0.116 C 
BRANCH  32  33
ATOM     33  N   UNL A   1      41.766  24.322  25.978  1.00  0.00    -0.352 N 
ATOM     34  C   UNL A   1      41.833  25.697  26.008  1.00  0.00     0.251 C 
ATOM     35  H   UNL A   1      42.046  23.901  25.134  1.00  0.00     0.163 HD
ATOM     36  O   UNL A   1      42.016  26.331  24.983  1.00  0.00    -0.269 OA
BRANCH  34  37
ATOM     37  C   UNL A   1      41.664  26.388  27.304  1.00  0.00     0.039 A 
ATOM     38  C   UNL A   1      42.697  27.195  27.785  1.00  0.00     0.014 A 
ATOM     39  C   UNL A   1      40.474  26.253  28.024  1.00  0.00     0.014 A 
ATOM     40  C   UNL A   1      42.512  27.918  28.966  1.00  0.00     0.010 A 
ATOM     41  C   UNL A   1      40.266  27.028  29.159  1.00  0.00     0.010 A 
ATOM     42  C   UNL A   1      41.283  27.865  29.643  1.00  0.00    -0.014 A 
BRANCH  42  43
ATOM     43  C   UNL A   1      41.030  28.665  30.868  1.00  0.00     0.031 A 
ATOM     44  C   UNL A   1      39.922  29.683  30.877  1.00  0.00     0.074 A 
ATOM     45  C   UNL A   1      41.847  28.539  31.932  1.00  0.00     0.049 A 
ATOM     46  N   UNL A   1      39.612  30.556  31.800  1.00  0.00    -0.248 NA
ATOM     47  C   UNL A   1      39.070  29.745  29.679  1.00  0.00     0.031 C 
ATOM     48  C   UNL A   1      42.968  27.602  32.037  1.00  0.00     0.029 A 
ATOM     49  N   UNL A   1      41.868  29.214  33.127  1.00  0.00    -0.354 N 
ATOM     50  C   UNL A   1      38.551  31.290  31.282  1.00  0.00     0.074 A 
ATOM     51  C   UNL A   1      38.300  30.789  29.948  1.00  0.00     0.031 C 
ATOM     52  C   UNL A   1      43.548  27.743  33.239  1.00  0.00     0.029 A 
ATOM     53  C   UNL A   1      42.876  28.813  33.971  1.00  0.00     0.049 A 
ATOM     54  H   UNL A   1      41.220  29.919  33.358  1.00  0.00     0.167 HD
ATOM     55  C   UNL A   1      37.841  32.282  31.869  1.00  0.00     0.031 A 
ATOM     56  C   UNL A   1      43.227  29.263  35.191  1.00  0.00     0.031 A 
ATOM     57  C   UNL A   1      38.087  32.765  33.201  1.00  0.00     0.049 A 
ATOM     58  C   UNL A   1      42.443  30.387  35.812  1.00  0.00     0.074 A 
ATOM     59  C   UNL A   1      37.386  33.722  33.912  1.00  0.00     0.029 A 
ATOM     60  N   UNL A   1      39.119  32.333  34.021  1.00  0.00    -0.354 N 
ATOM     61  N   UNL A   1      41.404  31.028  35.332  1.00  0.00    -0.248 NA
ATOM     62  C   UNL A   1      42.876  30.847  37.139  1.00  0.00     0.031 C 
ATOM     63  C   UNL A   1      38.028  33.911  35.138  1.00  0.00     0.029 A 
ATOM     64  C   UNL A   1      39.092  33.024  35.219  1.00  0.00     0.049 A 
ATOM     65  H   UNL A   1      39.774  31.636  33.785  1.00  0.00     0.167 HD
ATOM     66  C   UNL A   1      41.035  31.940  36.314  1.00  0.00     0.074 A 
ATOM     67  C   UNL A   1      41.962  31.768  37.415  1.00  0.00     0.031 C 
ATOM     68  C   UNL A   1      40.015  32.834  36.309  1.00  0.00     0.031 A 
BRANCH  55  69
ATOM     69  C   UNL A   1      36.743  32.925  31.060  1.00  0.00    -0.014 A 
ATOM     70  C   UNL A   1      37.017  33.965  30.152  1.00  0.00     0.010 A 
ATOM     71  C   UNL A   1      35.420  32.469  31.197  1.00  0.00     0.010 A 
ATOM     72  C   UNL A   1      35.981  34.574  29.441  1.00  0.00     0.020 A 
ATOM     73  C   UNL A   1      34.385  33.055  30.463  1.00  0.00     0.020 A 
ATOM     74  C   UNL A   1      34.669  34.119  29.607  1.00  0.00     0.054 A 
BRANCH  74  75
ATOM     75  S   UNL A   1      33.343  34.930  28.673  1.00  0.00     0.124 S 
ATOM     76  O   UNL A   1      32.491  35.441  29.744  1.00  0.00    -0.237 OA
ATOM     77  O   UNL A   1      34.063  35.944  27.907  1.00  0.00    -0.237 OA
ATOM     78  O   UNL A   1      32.764  33.848  27.880  1.00  0.00    -0.744 OA
ENDBRANCH  74  75
ENDBRANCH  55  69
BRANCH  56  79
ATOM     79  C   UNL A   1      44.363  28.632  35.918  1.00  0.00    -0.014 A 
ATOM     80  C   UNL A   1      45.678  29.083  35.703  1.00  0.00     0.010 A 
ATOM     81  C   UNL A   1      44.140  27.593  36.838  1.00  0.00     0.010 A 
ATOM     82  C   UNL A   1      46.749  28.499  36.385  1.00  0.00     0.020 A 
ATOM     83  C   UNL A   1      45.205  27.024  37.543  1.00  0.00     0.020 A 
ATOM     84  C   UNL A   1      46.505  27.475  37.304  1.00  0.00     0.054 A 
BRANCH  84  85
ATOM     85  S   UNL A   1      47.906  26.769  38.217  1.00  0.00     0.124 S 
ATOM     86  O   UNL A   1      47.501  25.374  38.362  1.00  0.00    -0.237 OA
ATOM     87  O   UNL A   1      49.026  27.014  37.311  1.00  0.00    -0.237 OA
ATOM     88  O   UNL A   1      47.931  27.547  39.454  1.00  0.00    -0.744 OA
ENDBRANCH  84  85
ENDBRANCH  56  79
BRANCH  68  89
ATOM     89  C   UNL A   1      39.807  33.669  37.544  1.00  0.00    -0.014 A 
ATOM     90  C   UNL A   1      39.043  33.197  38.625  1.00  0.00     0.010 A 
ATOM     91  C   UNL A   1      40.469  34.905  37.656  1.00  0.00     0.010 A 
ATOM     92  C   UNL A   1      38.938  33.954  39.796  1.00  0.00     0.020 A 
ATOM     93  C   UNL A   1      40.388  35.651  38.834  1.00  0.00     0.020 A 
ATOM     94  C   UNL A   1      39.618  35.172  39.896  1.00  0.00     0.054 A 
BRANCH  94  95
ATOM     95  S   UNL A   1      39.534  36.093  41.456  1.00  0.00     0.124 S 
ATOM     96  O   UNL A   1      38.970  37.370  41.026  1.00  0.00    -0.237 OA
ATOM     97  O   UNL A   1      38.653  35.260  42.271  1.00  0.00    -0.237 OA
ATOM     98  O   UNL A   1      40.923  36.145  41.904  1.00  0.00    -0.744 OA
ENDBRANCH  94  95
ENDBRANCH  68  89
ENDBRANCH  42  43
ENDBRANCH  34  37
ENDBRANCH  32  33
ENDBRANCH  31  32
ENDBRANCH  30  31
ENDBRANCH   1  30
TORSDOF 20
ENDMDL
