MODEL 1
REMARK VINA RESULT:     -10.1      0.000      0.000
REMARK SMILES CC(C)(CC(=O)NCCCCCCNC(=O)c1ccc(-c2c3nc(c(-c4ccc(S(=O)(=O)[O-])cc4)c4ccc([nH]4)c(-c4ccc(S(=O)(=O)[O-])cc4)c4nc(c(-c5ccc(S(=O)(=O)[O-])cc5)c5ccc2[nH]5)C=C4)C=C3)cc1)CC(=O)Nc1cccc(C(=O)NC2CC2)c1
REMARK SMILES IDX 9 1 8 2 7 3 5 4 6 5 4 7 2 8 1 9 3 10 77 11 78 12 79 13 80 14
REMARK SMILES IDX 81 16 82 17 92 18 83 19 85 20 84 21 86 22 87 23 88 24 89 26
REMARK SMILES IDX 90 27 91 28 10 29 11 30 12 31 13 32 14 33 15 34 16 36 17 37
REMARK SMILES IDX 18 38 76 39 19 40 75 41 20 42 21 43 22 44 69 45 23 46 74 47
REMARK SMILES IDX 68 48 70 49 24 50 73 51 67 52 66 53 25 55 55 56 36 57 54 58
REMARK SMILES IDX 37 59 40 60 53 61 71 62 38 63 39 64 52 66 72 67 41 68 26 69
REMARK SMILES IDX 27 70 35 71 28 72 34 73 29 74 30 75 31 76 32 77 33 78 56 79
REMARK SMILES IDX 57 80 65 81 58 82 64 83 59 84 60 85 61 86 62 87 63 88 42 89
REMARK SMILES IDX 43 90 51 91 44 92 50 93 45 94 46 95 47 96 48 97 49 98
REMARK H PARENT 7 6 80 15 88 25 14 35 70 54 40 65
REMARK Flexibility Score: inf
ROOT
ATOM      1  C   UNL A   1      33.798  30.779  26.887  1.00  0.00     0.021 C 
ENDROOT
BRANCH   1   2
ATOM      2  C   UNL A   1      32.837  29.592  27.015  1.00  0.00     0.116 C 
BRANCH   2   3
ATOM      3  N   UNL A   1      33.329  28.503  26.210  1.00  0.00    -0.356 N 
ATOM      4  C   UNL A   1      32.530  27.397  26.083  1.00  0.00     0.220 C 
ATOM      5  O   UNL A   1      32.967  26.340  26.513  1.00  0.00    -0.275 OA
ATOM      6  H   UNL A   1      34.206  28.552  25.768  1.00  0.00     0.163 HD
BRANCH   4   7
ATOM      7  C   UNL A   1      31.176  27.626  25.417  1.00  0.00     0.107 C 
BRANCH   7   8
ATOM      8  C   UNL A   1      31.008  27.374  23.928  1.00  0.00    -0.018 C 
ATOM      9  C   UNL A   1      29.564  26.869  23.744  1.00  0.00     0.012 C 
ATOM     10  C   UNL A   1      31.091  28.753  23.205  1.00  0.00     0.012 C 
BRANCH   8  11
ATOM     11  C   UNL A   1      32.104  26.507  23.257  1.00  0.00     0.107 C 
BRANCH  11  12
ATOM     12  C   UNL A   1      31.847  25.546  22.108  1.00  0.00     0.224 C 
ATOM     13  O   UNL A   1      31.907  25.986  20.948  1.00  0.00    -0.275 OA
ATOM     14  N   UNL A   1      31.713  24.187  22.231  1.00  0.00    -0.326 N 
ATOM     15  H   UNL A   1      31.489  23.758  21.374  1.00  0.00     0.169 HD
BRANCH  14  16
ATOM     16  C   UNL A   1      31.819  23.249  23.279  1.00  0.00     0.041 A 
ATOM     17  C   UNL A   1      31.032  23.533  24.397  1.00  0.00     0.026 A 
ATOM     18  C   UNL A   1      32.787  22.228  23.400  1.00  0.00     0.040 A 
ATOM     19  C   UNL A   1      31.107  22.745  25.540  1.00  0.00     0.003 A 
ATOM     20  C   UNL A   1      32.823  21.353  24.495  1.00  0.00     0.041 A 
ATOM     21  C   UNL A   1      31.966  21.648  25.570  1.00  0.00     0.014 A 
BRANCH  20  22
ATOM     22  C   UNL A   1      33.746  20.188  24.710  1.00  0.00     0.251 C 
ATOM     23  O   UNL A   1      33.288  19.058  24.492  1.00  0.00    -0.269 OA
ATOM     24  N   UNL A   1      35.072  20.202  25.073  1.00  0.00    -0.349 N 
ATOM     25  H   UNL A   1      35.461  19.298  25.045  1.00  0.00     0.164 HD
BRANCH  24  26
ATOM     26  C   UNL A   1      36.032  21.167  25.476  1.00  0.00     0.082 C 
ATOM     27  C   UNL A   1      37.358  21.144  24.725  1.00  0.00     0.027 C 
ATOM     28  C   UNL A   1      36.469  22.332  24.625  1.00  0.00     0.027 C 
ENDBRANCH  24  26
ENDBRANCH  20  22
ENDBRANCH  14  16
ENDBRANCH  11  12
ENDBRANCH   8  11
ENDBRANCH   7   8
ENDBRANCH   4   7
ENDBRANCH   2   3
ENDBRANCH   1   2
BRANCH   1  29
ATOM     29  C   UNL A   1      34.375  31.243  28.236  1.00  0.00     0.002 C 
BRANCH  29  30
ATOM     30  C   UNL A   1      34.885  32.684  28.233  1.00  0.00     0.002 C 
BRANCH  30  31
ATOM     31  C   UNL A   1      33.774  33.728  28.314  1.00  0.00     0.021 C 
BRANCH  31  32
ATOM     32  C   UNL A   1      34.163  34.977  29.090  1.00  0.00     0.116 C 
BRANCH  32  33
ATOM     33  N   UNL A   1      33.164  35.324  30.081  1.00  0.00    -0.352 N 
ATOM     34  C   UNL A   1      33.173  34.999  31.409  1.00  0.00     0.251 C 
ATOM     35  H   UNL A   1      32.397  35.854  29.764  1.00  0.00     0.163 HD
ATOM     36  O   UNL A   1      32.176  35.164  32.108  1.00  0.00    -0.269 OA
BRANCH  34  37
ATOM     37  C   UNL A   1      34.405  34.415  31.971  1.00  0.00     0.039 A 
ATOM     38  C   UNL A   1      34.449  33.045  32.219  1.00  0.00     0.014 A 
ATOM     39  C   UNL A   1      35.535  35.219  32.165  1.00  0.00     0.014 A 
ATOM     40  C   UNL A   1      35.647  32.469  32.637  1.00  0.00     0.010 A 
ATOM     41  C   UNL A   1      36.747  34.627  32.495  1.00  0.00     0.010 A 
ATOM     42  C   UNL A   1      36.810  33.249  32.753  1.00  0.00    -0.014 A 
BRANCH  42  43
ATOM     43  C   UNL A   1      38.098  32.637  33.160  1.00  0.00     0.031 A 
ATOM     44  C   UNL A   1      38.654  32.906  34.532  1.00  0.00     0.074 A 
ATOM     45  C   UNL A   1      38.780  31.873  32.285  1.00  0.00     0.049 A 
ATOM     46  N   UNL A   1      39.765  32.472  35.068  1.00  0.00    -0.248 NA
ATOM     47  C   UNL A   1      37.874  33.797  35.408  1.00  0.00     0.031 C 
ATOM     48  C   UNL A   1      38.360  31.579  30.911  1.00  0.00     0.029 A 
ATOM     49  N   UNL A   1      39.968  31.202  32.418  1.00  0.00    -0.354 N 
ATOM     50  C   UNL A   1      39.822  33.044  36.333  1.00  0.00     0.074 A 
ATOM     51  C   UNL A   1      38.666  33.902  36.463  1.00  0.00     0.031 C 
ATOM     52  C   UNL A   1      39.258  30.759  30.344  1.00  0.00     0.029 A 
ATOM     53  C   UNL A   1      40.339  30.506  31.292  1.00  0.00     0.049 A 
ATOM     54  H   UNL A   1      40.506  31.220  33.242  1.00  0.00     0.167 HD
ATOM     55  C   UNL A   1      40.743  32.856  37.307  1.00  0.00     0.031 A 
ATOM     56  C   UNL A   1      41.428  29.752  31.049  1.00  0.00     0.031 A 
ATOM     57  C   UNL A   1      41.888  31.996  37.170  1.00  0.00     0.049 A 
ATOM     58  C   UNL A   1      42.446  29.570  32.141  1.00  0.00     0.074 A 
ATOM     59  C   UNL A   1      42.851  31.690  38.115  1.00  0.00     0.029 A 
ATOM     60  N   UNL A   1      42.230  31.310  36.014  1.00  0.00    -0.354 N 
ATOM     61  N   UNL A   1      42.444  30.059  33.359  1.00  0.00    -0.248 NA
ATOM     62  C   UNL A   1      43.607  28.726  31.831  1.00  0.00     0.031 C 
ATOM     63  C   UNL A   1      43.811  30.873  37.510  1.00  0.00     0.029 A 
ATOM     64  C   UNL A   1      43.407  30.609  36.211  1.00  0.00     0.049 A 
ATOM     65  H   UNL A   1      41.711  31.320  35.177  1.00  0.00     0.167 HD
ATOM     66  C   UNL A   1      43.590  29.561  33.969  1.00  0.00     0.074 A 
ATOM     67  C   UNL A   1      44.249  28.717  32.991  1.00  0.00     0.031 C 
ATOM     68  C   UNL A   1      44.054  29.780  35.224  1.00  0.00     0.031 A 
BRANCH  55  69
ATOM     69  C   UNL A   1      40.557  33.607  38.601  1.00  0.00    -0.014 A 
ATOM     70  C   UNL A   1      39.829  33.051  39.670  1.00  0.00     0.010 A 
ATOM     71  C   UNL A   1      41.151  34.871  38.764  1.00  0.00     0.010 A 
ATOM     72  C   UNL A   1      39.665  33.763  40.860  1.00  0.00     0.020 A 
ATOM     73  C   UNL A   1      41.017  35.572  39.967  1.00  0.00     0.020 A 
ATOM     74  C   UNL A   1      40.260  35.020  41.001  1.00  0.00     0.054 A 
BRANCH  74  75
ATOM     75  S   UNL A   1      40.052  35.909  42.568  1.00  0.00     0.124 S 
ATOM     76  O   UNL A   1      40.710  35.010  43.513  1.00  0.00    -0.237 OA
ATOM     77  O   UNL A   1      40.745  37.169  42.314  1.00  0.00    -0.237 OA
ATOM     78  O   UNL A   1      38.603  36.015  42.718  1.00  0.00    -0.744 OA
ENDBRANCH  74  75
ENDBRANCH  55  69
BRANCH  56  79
ATOM     79  C   UNL A   1      41.604  29.109  29.717  1.00  0.00    -0.014 A 
ATOM     80  C   UNL A   1      42.133  29.834  28.634  1.00  0.00     0.010 A 
ATOM     81  C   UNL A   1      41.257  27.759  29.530  1.00  0.00     0.010 A 
ATOM     82  C   UNL A   1      42.296  29.224  27.385  1.00  0.00     0.020 A 
ATOM     83  C   UNL A   1      41.448  27.137  28.293  1.00  0.00     0.020 A 
ATOM     84  C   UNL A   1      41.957  27.877  27.225  1.00  0.00     0.054 A 
BRANCH  84  85
ATOM     85  S   UNL A   1      42.226  27.092  25.612  1.00  0.00     0.124 S 
ATOM     86  O   UNL A   1      42.326  28.247  24.725  1.00  0.00    -0.237 OA
ATOM     87  O   UNL A   1      43.465  26.348  25.828  1.00  0.00    -0.237 OA
ATOM     88  O   UNL A   1      41.035  26.264  25.432  1.00  0.00    -0.744 OA
ENDBRANCH  84  85
ENDBRANCH  56  79
BRANCH  68  89
ATOM     89  C   UNL A   1      45.323  29.075  35.626  1.00  0.00    -0.014 A 
ATOM     90  C   UNL A   1      45.298  27.785  36.184  1.00  0.00     0.010 A 
ATOM     91  C   UNL A   1      46.564  29.695  35.389  1.00  0.00     0.010 A 
ATOM     92  C   UNL A   1      46.489  27.141  36.528  1.00  0.00     0.020 A 
ATOM     93  C   UNL A   1      47.758  29.042  35.700  1.00  0.00     0.020 A 
ATOM     94  C   UNL A   1      47.712  27.774  36.282  1.00  0.00     0.054 A 
BRANCH  94  95
ATOM     95  S   UNL A   1      49.245  26.898  36.698  1.00  0.00     0.124 S 
ATOM     96  O   UNL A   1      49.809  26.632  35.377  1.00  0.00    -0.237 OA
ATOM     97  O   UNL A   1      49.965  27.880  37.503  1.00  0.00    -0.237 OA
ATOM     98  O   UNL A   1      48.784  25.718  37.427  1.00  0.00    -0.744 OA
ENDBRANCH  94  95
ENDBRANCH  68  89
ENDBRANCH  42  43
ENDBRANCH  34  37
ENDBRANCH  32  33
ENDBRANCH  31  32
ENDBRANCH  30  31
ENDBRANCH  29  30
ENDBRANCH   1  29
TORSDOF 22
ENDMDL
MODEL 2
REMARK VINA RESULT:      -9.2      6.445     10.684
REMARK SMILES CC(C)(CC(=O)NCCCCCCNC(=O)c1ccc(-c2c3nc(c(-c4ccc(S(=O)(=O)[O-])cc4)c4ccc([nH]4)c(-c4ccc(S(=O)(=O)[O-])cc4)c4nc(c(-c5ccc(S(=O)(=O)[O-])cc5)c5ccc2[nH]5)C=C4)C=C3)cc1)CC(=O)Nc1cccc(C(=O)NC2CC2)c1
REMARK SMILES IDX 9 1 8 2 7 3 5 4 6 5 4 7 2 8 1 9 3 10 77 11 78 12 79 13 80 14
REMARK SMILES IDX 81 16 82 17 92 18 83 19 85 20 84 21 86 22 87 23 88 24 89 26
REMARK SMILES IDX 90 27 91 28 10 29 11 30 12 31 13 32 14 33 15 34 16 36 17 37
REMARK SMILES IDX 18 38 76 39 19 40 75 41 20 42 21 43 22 44 69 45 23 46 74 47
REMARK SMILES IDX 68 48 70 49 24 50 73 51 67 52 66 53 25 55 55 56 36 57 54 58
REMARK SMILES IDX 37 59 40 60 53 61 71 62 38 63 39 64 52 66 72 67 41 68 26 69
REMARK SMILES IDX 27 70 35 71 28 72 34 73 29 74 30 75 31 76 32 77 33 78 56 79
REMARK SMILES IDX 57 80 65 81 58 82 64 83 59 84 60 85 61 86 62 87 63 88 42 89
REMARK SMILES IDX 43 90 51 91 44 92 50 93 45 94 46 95 47 96 48 97 49 98
REMARK H PARENT 7 6 80 15 88 25 14 35 70 54 40 65
REMARK Flexibility Score: inf
ROOT
ATOM      1  C   UNL A   1      35.954  23.080  24.493  1.00  0.00     0.021 C 
ENDROOT
BRANCH   1   2
ATOM      2  C   UNL A   1      35.073  22.038  23.794  1.00  0.00     0.116 C 
BRANCH   2   3
ATOM      3  N   UNL A   1      34.118  22.719  22.956  1.00  0.00    -0.356 N 
ATOM      4  C   UNL A   1      32.893  22.132  22.787  1.00  0.00     0.220 C 
ATOM      5  O   UNL A   1      32.583  21.802  21.652  1.00  0.00    -0.275 OA
ATOM      6  H   UNL A   1      34.340  23.573  22.522  1.00  0.00     0.163 HD
BRANCH   4   7
ATOM      7  C   UNL A   1      32.056  21.959  24.052  1.00  0.00     0.107 C 
BRANCH   7   8
ATOM      8  C   UNL A   1      31.406  23.166  24.706  1.00  0.00    -0.018 C 
ATOM      9  C   UNL A   1      30.584  23.857  23.600  1.00  0.00     0.012 C 
ATOM     10  C   UNL A   1      30.381  22.639  25.755  1.00  0.00     0.012 C 
BRANCH   8  11
ATOM     11  C   UNL A   1      32.351  24.098  25.507  1.00  0.00     0.107 C 
BRANCH  11  12
ATOM     12  C   UNL A   1      31.971  24.782  26.810  1.00  0.00     0.224 C 
ATOM     13  O   UNL A   1      32.144  24.162  27.872  1.00  0.00    -0.275 OA
ATOM     14  N   UNL A   1      31.603  26.097  26.933  1.00  0.00    -0.326 N 
ATOM     15  H   UNL A   1      31.337  26.323  27.854  1.00  0.00     0.169 HD
BRANCH  14  16
ATOM     16  C   UNL A   1      31.511  27.208  26.069  1.00  0.00     0.041 A 
ATOM     17  C   UNL A   1      31.995  28.404  26.605  1.00  0.00     0.026 A 
ATOM     18  C   UNL A   1      30.786  27.277  24.860  1.00  0.00     0.040 A 
ATOM     19  C   UNL A   1      31.882  29.597  25.900  1.00  0.00     0.003 A 
ATOM     20  C   UNL A   1      30.738  28.439  24.078  1.00  0.00     0.041 A 
ATOM     21  C   UNL A   1      31.294  29.602  24.637  1.00  0.00     0.014 A 
BRANCH  20  22
ATOM     22  C   UNL A   1      30.069  28.623  22.745  1.00  0.00     0.251 C 
ATOM     23  O   UNL A   1      30.555  28.016  21.781  1.00  0.00    -0.269 OA
ATOM     24  N   UNL A   1      28.936  29.343  22.449  1.00  0.00    -0.349 N 
ATOM     25  H   UNL A   1      28.662  29.212  21.513  1.00  0.00     0.164 HD
BRANCH  24  26
ATOM     26  C   UNL A   1      28.055  30.226  23.127  1.00  0.00     0.082 C 
ATOM     27  C   UNL A   1      28.681  31.499  23.683  1.00  0.00     0.027 C 
ATOM     28  C   UNL A   1      27.653  31.584  22.610  1.00  0.00     0.027 C 
ENDBRANCH  24  26
ENDBRANCH  20  22
ENDBRANCH  14  16
ENDBRANCH  11  12
ENDBRANCH   8  11
ENDBRANCH   7   8
ENDBRANCH   4   7
ENDBRANCH   2   3
ENDBRANCH   1   2
BRANCH   1  29
ATOM     29  C   UNL A   1      37.400  22.603  24.717  1.00  0.00     0.002 C 
BRANCH  29  30
ATOM     30  C   UNL A   1      37.587  21.755  25.976  1.00  0.00     0.002 C 
BRANCH  30  31
ATOM     31  C   UNL A   1      39.046  21.435  26.288  1.00  0.00     0.021 C 
BRANCH  31  32
ATOM     32  C   UNL A   1      39.649  20.376  25.377  1.00  0.00     0.116 C 
BRANCH  32  33
ATOM     33  N   UNL A   1      40.455  19.427  26.119  1.00  0.00    -0.352 N 
ATOM     34  C   UNL A   1      41.640  19.671  26.754  1.00  0.00     0.251 C 
ATOM     35  H   UNL A   1      40.109  18.507  26.172  1.00  0.00     0.163 HD
ATOM     36  O   UNL A   1      42.338  18.748  27.170  1.00  0.00    -0.269 OA
BRANCH  34  37
ATOM     37  C   UNL A   1      42.072  21.073  26.899  1.00  0.00     0.039 A 
ATOM     38  C   UNL A   1      42.154  21.625  28.176  1.00  0.00     0.014 A 
ATOM     39  C   UNL A   1      42.476  21.801  25.773  1.00  0.00     0.014 A 
ATOM     40  C   UNL A   1      42.673  22.908  28.328  1.00  0.00     0.010 A 
ATOM     41  C   UNL A   1      43.075  23.043  25.939  1.00  0.00     0.010 A 
ATOM     42  C   UNL A   1      43.162  23.616  27.217  1.00  0.00    -0.014 A 
BRANCH  42  43
ATOM     43  C   UNL A   1      43.751  24.967  27.376  1.00  0.00     0.031 A 
ATOM     44  C   UNL A   1      42.882  26.118  27.804  1.00  0.00     0.074 A 
ATOM     45  C   UNL A   1      45.056  25.163  27.101  1.00  0.00     0.049 A 
ATOM     46  N   UNL A   1      43.209  27.371  27.988  1.00  0.00    -0.248 NA
ATOM     47  C   UNL A   1      41.455  25.831  28.030  1.00  0.00     0.031 C 
ATOM     48  C   UNL A   1      45.987  24.131  26.637  1.00  0.00     0.029 A 
ATOM     49  N   UNL A   1      45.826  26.295  27.174  1.00  0.00    -0.354 N 
ATOM     50  C   UNL A   1      42.031  28.020  28.339  1.00  0.00     0.074 A 
ATOM     51  C   UNL A   1      40.972  27.038  28.284  1.00  0.00     0.031 C 
ATOM     52  C   UNL A   1      47.208  24.670  26.501  1.00  0.00     0.029 A 
ATOM     53  C   UNL A   1      47.140  26.092  26.824  1.00  0.00     0.049 A 
ATOM     54  H   UNL A   1      45.471  27.170  27.449  1.00  0.00     0.167 HD
ATOM     55  C   UNL A   1      41.850  29.313  28.695  1.00  0.00     0.031 A 
ATOM     56  C   UNL A   1      48.173  26.954  26.765  1.00  0.00     0.031 A 
ATOM     57  C   UNL A   1      42.911  30.283  28.751  1.00  0.00     0.049 A 
ATOM     58  C   UNL A   1      47.945  28.391  27.150  1.00  0.00     0.074 A 
ATOM     59  C   UNL A   1      42.846  31.605  29.155  1.00  0.00     0.029 A 
ATOM     60  N   UNL A   1      44.227  30.040  28.387  1.00  0.00    -0.354 N 
ATOM     61  N   UNL A   1      46.838  28.969  27.552  1.00  0.00    -0.248 NA
ATOM     62  C   UNL A   1      49.106  29.287  27.083  1.00  0.00     0.031 C 
ATOM     63  C   UNL A   1      44.108  32.179  28.970  1.00  0.00     0.029 A 
ATOM     64  C   UNL A   1      44.977  31.196  28.523  1.00  0.00     0.049 A 
ATOM     65  H   UNL A   1      44.577  29.173  28.077  1.00  0.00     0.167 HD
ATOM     66  C   UNL A   1      47.176  30.293  27.812  1.00  0.00     0.074 A 
ATOM     67  C   UNL A   1      48.594  30.422  27.539  1.00  0.00     0.031 C 
ATOM     68  C   UNL A   1      46.386  31.309  28.240  1.00  0.00     0.031 A 
BRANCH  55  69
ATOM     69  C   UNL A   1      40.450  29.757  29.037  1.00  0.00    -0.014 A 
ATOM     70  C   UNL A   1      39.440  29.805  28.058  1.00  0.00     0.010 A 
ATOM     71  C   UNL A   1      40.131  30.093  30.364  1.00  0.00     0.010 A 
ATOM     72  C   UNL A   1      38.149  30.220  28.393  1.00  0.00     0.020 A 
ATOM     73  C   UNL A   1      38.832  30.478  30.710  1.00  0.00     0.020 A 
ATOM     74  C   UNL A   1      37.853  30.555  29.717  1.00  0.00     0.054 A 
BRANCH  74  75
ATOM     75  S   UNL A   1      36.162  31.065  30.127  1.00  0.00     0.124 S 
ATOM     76  O   UNL A   1      35.886  30.264  31.317  1.00  0.00    -0.237 OA
ATOM     77  O   UNL A   1      36.309  32.500  30.357  1.00  0.00    -0.237 OA
ATOM     78  O   UNL A   1      35.392  30.702  28.940  1.00  0.00    -0.744 OA
ENDBRANCH  74  75
ENDBRANCH  55  69
BRANCH  56  79
ATOM     79  C   UNL A   1      49.515  26.477  26.329  1.00  0.00    -0.014 A 
ATOM     80  C   UNL A   1      49.913  26.582  24.984  1.00  0.00     0.010 A 
ATOM     81  C   UNL A   1      50.410  25.930  27.265  1.00  0.00     0.010 A 
ATOM     82  C   UNL A   1      51.175  26.132  24.582  1.00  0.00     0.020 A 
ATOM     83  C   UNL A   1      51.684  25.509  26.873  1.00  0.00     0.020 A 
ATOM     84  C   UNL A   1      52.054  25.603  25.531  1.00  0.00     0.054 A 
BRANCH  84  85
ATOM     85  S   UNL A   1      53.706  25.075  24.997  1.00  0.00     0.124 S 
ATOM     86  O   UNL A   1      53.577  23.621  25.005  1.00  0.00    -0.237 OA
ATOM     87  O   UNL A   1      53.822  25.695  23.679  1.00  0.00    -0.237 OA
ATOM     88  O   UNL A   1      54.590  25.632  26.018  1.00  0.00    -0.744 OA
ENDBRANCH  84  85
ENDBRANCH  56  79
BRANCH  68  89
ATOM     89  C   UNL A   1      47.040  32.647  28.467  1.00  0.00    -0.014 A 
ATOM     90  C   UNL A   1      47.040  33.639  27.471  1.00  0.00     0.010 A 
ATOM     91  C   UNL A   1      47.614  32.933  29.719  1.00  0.00     0.010 A 
ATOM     92  C   UNL A   1      47.632  34.881  27.711  1.00  0.00     0.020 A 
ATOM     93  C   UNL A   1      48.177  34.185  29.976  1.00  0.00     0.020 A 
ATOM     94  C   UNL A   1      48.196  35.147  28.964  1.00  0.00     0.054 A 
BRANCH  94  95
ATOM     95  S   UNL A   1      48.919  36.782  29.264  1.00  0.00     0.124 S 
ATOM     96  O   UNL A   1      48.417  37.548  28.127  1.00  0.00    -0.237 OA
ATOM     97  O   UNL A   1      48.359  37.145  30.563  1.00  0.00    -0.237 OA
ATOM     98  O   UNL A   1      50.359  36.532  29.260  1.00  0.00    -0.744 OA
ENDBRANCH  94  95
ENDBRANCH  68  89
ENDBRANCH  42  43
ENDBRANCH  34  37
ENDBRANCH  32  33
ENDBRANCH  31  32
ENDBRANCH  30  31
ENDBRANCH  29  30
ENDBRANCH   1  29
TORSDOF 22
ENDMDL
MODEL 3
REMARK VINA RESULT:      -9.1      2.322      2.841
REMARK SMILES CC(C)(CC(=O)NCCCCCCNC(=O)c1ccc(-c2c3nc(c(-c4ccc(S(=O)(=O)[O-])cc4)c4ccc([nH]4)c(-c4ccc(S(=O)(=O)[O-])cc4)c4nc(c(-c5ccc(S(=O)(=O)[O-])cc5)c5ccc2[nH]5)C=C4)C=C3)cc1)CC(=O)Nc1cccc(C(=O)NC2CC2)c1
REMARK SMILES IDX 9 1 8 2 7 3 5 4 6 5 4 7 2 8 1 9 3 10 77 11 78 12 79 13 80 14
REMARK SMILES IDX 81 16 82 17 92 18 83 19 85 20 84 21 86 22 87 23 88 24 89 26
REMARK SMILES IDX 90 27 91 28 10 29 11 30 12 31 13 32 14 33 15 34 16 36 17 37
REMARK SMILES IDX 18 38 76 39 19 40 75 41 20 42 21 43 22 44 69 45 23 46 74 47
REMARK SMILES IDX 68 48 70 49 24 50 73 51 67 52 66 53 25 55 55 56 36 57 54 58
REMARK SMILES IDX 37 59 40 60 53 61 71 62 38 63 39 64 52 66 72 67 41 68 26 69
REMARK SMILES IDX 27 70 35 71 28 72 34 73 29 74 30 75 31 76 32 77 33 78 56 79
REMARK SMILES IDX 57 80 65 81 58 82 64 83 59 84 60 85 61 86 62 87 63 88 42 89
REMARK SMILES IDX 43 90 51 91 44 92 50 93 45 94 46 95 47 96 48 97 49 98
REMARK H PARENT 7 6 80 15 88 25 14 35 70 54 40 65
REMARK Flexibility Score: inf
ROOT
ATOM      1  C   UNL A   1      33.658  31.264  27.087  1.00  0.00     0.021 C 
ENDROOT
BRANCH   1   2
ATOM      2  C   UNL A   1      32.800  29.994  27.048  1.00  0.00     0.116 C 
BRANCH   2   3
ATOM      3  N   UNL A   1      33.393  29.056  26.128  1.00  0.00    -0.356 N 
ATOM      4  C   UNL A   1      32.806  27.824  26.014  1.00  0.00     0.220 C 
ATOM      5  O   UNL A   1      33.480  26.854  26.326  1.00  0.00    -0.275 OA
ATOM      6  H   UNL A   1      34.189  29.293  25.601  1.00  0.00     0.163 HD
BRANCH   4   7
ATOM      7  C   UNL A   1      31.366  27.815  25.508  1.00  0.00     0.107 C 
BRANCH   7   8
ATOM      8  C   UNL A   1      31.057  27.337  24.100  1.00  0.00    -0.018 C 
ATOM      9  C   UNL A   1      29.647  26.718  24.161  1.00  0.00     0.012 C 
ATOM     10  C   UNL A   1      30.949  28.596  23.187  1.00  0.00     0.012 C 
BRANCH   8  11
ATOM     11  C   UNL A   1      32.140  26.452  23.428  1.00  0.00     0.107 C 
BRANCH  11  12
ATOM     12  C   UNL A   1      31.875  25.527  22.252  1.00  0.00     0.224 C 
ATOM     13  O   UNL A   1      31.913  26.006  21.107  1.00  0.00    -0.275 OA
ATOM     14  N   UNL A   1      31.760  24.163  22.331  1.00  0.00    -0.326 N 
ATOM     15  H   UNL A   1      31.527  23.760  21.463  1.00  0.00     0.169 HD
BRANCH  14  16
ATOM     16  C   UNL A   1      31.892  23.192  23.345  1.00  0.00     0.041 A 
ATOM     17  C   UNL A   1      31.069  23.393  24.456  1.00  0.00     0.026 A 
ATOM     18  C   UNL A   1      32.907  22.216  23.449  1.00  0.00     0.040 A 
ATOM     19  C   UNL A   1      31.162  22.566  25.570  1.00  0.00     0.003 A 
ATOM     20  C   UNL A   1      32.966  21.303  24.511  1.00  0.00     0.041 A 
ATOM     21  C   UNL A   1      32.074  21.513  25.577  1.00  0.00     0.014 A 
BRANCH  20  22
ATOM     22  C   UNL A   1      33.943  20.178  24.703  1.00  0.00     0.251 C 
ATOM     23  O   UNL A   1      33.544  19.034  24.443  1.00  0.00    -0.269 OA
ATOM     24  N   UNL A   1      35.262  20.245  25.083  1.00  0.00    -0.349 N 
ATOM     25  H   UNL A   1      35.695  19.363  25.033  1.00  0.00     0.164 HD
BRANCH  24  26
ATOM     26  C   UNL A   1      36.169  21.243  25.529  1.00  0.00     0.082 C 
ATOM     27  C   UNL A   1      37.381  21.490  24.639  1.00  0.00     0.027 C 
ATOM     28  C   UNL A   1      36.375  22.567  24.839  1.00  0.00     0.027 C 
ENDBRANCH  24  26
ENDBRANCH  20  22
ENDBRANCH  14  16
ENDBRANCH  11  12
ENDBRANCH   8  11
ENDBRANCH   7   8
ENDBRANCH   4   7
ENDBRANCH   2   3
ENDBRANCH   1   2
BRANCH   1  29
ATOM     29  C   UNL A   1      34.434  31.435  28.405  1.00  0.00     0.002 C 
BRANCH  29  30
ATOM     30  C   UNL A   1      34.818  32.881  28.717  1.00  0.00     0.002 C 
BRANCH  30  31
ATOM     31  C   UNL A   1      33.661  33.867  28.578  1.00  0.00     0.021 C 
BRANCH  31  32
ATOM     32  C   UNL A   1      33.838  35.138  29.395  1.00  0.00     0.116 C 
BRANCH  32  33
ATOM     33  N   UNL A   1      32.730  35.349  30.304  1.00  0.00    -0.352 N 
ATOM     34  C   UNL A   1      32.699  35.077  31.644  1.00  0.00     0.251 C 
ATOM     35  H   UNL A   1      31.910  35.731  29.916  1.00  0.00     0.163 HD
ATOM     36  O   UNL A   1      31.642  35.098  32.271  1.00  0.00    -0.269 OA
BRANCH  34  37
ATOM     37  C   UNL A   1      33.968  34.726  32.308  1.00  0.00     0.039 A 
ATOM     38  C   UNL A   1      34.382  33.396  32.312  1.00  0.00     0.014 A 
ATOM     39  C   UNL A   1      34.778  35.734  32.846  1.00  0.00     0.014 A 
ATOM     40  C   UNL A   1      35.634  33.077  32.832  1.00  0.00     0.010 A 
ATOM     41  C   UNL A   1      36.060  35.423  33.281  1.00  0.00     0.010 A 
ATOM     42  C   UNL A   1      36.493  34.089  33.296  1.00  0.00    -0.014 A 
BRANCH  42  43
ATOM     43  C   UNL A   1      37.842  33.761  33.816  1.00  0.00     0.031 A 
ATOM     44  C   UNL A   1      38.060  33.624  35.298  1.00  0.00     0.074 A 
ATOM     45  C   UNL A   1      38.872  33.624  32.959  1.00  0.00     0.049 A 
ATOM     46  N   UNL A   1      39.163  33.352  35.945  1.00  0.00    -0.248 NA
ATOM     47  C   UNL A   1      36.893  33.844  36.170  1.00  0.00     0.031 C 
ATOM     48  C   UNL A   1      38.789  33.778  31.504  1.00  0.00     0.029 A 
ATOM     49  N   UNL A   1      40.191  33.322  33.185  1.00  0.00    -0.354 N 
ATOM     50  C   UNL A   1      38.827  33.381  37.293  1.00  0.00     0.074 A 
ATOM     51  C   UNL A   1      37.433  33.753  37.376  1.00  0.00     0.031 C 
ATOM     52  C   UNL A   1      39.995  33.534  30.967  1.00  0.00     0.029 A 
ATOM     53  C   UNL A   1      40.945  33.253  32.038  1.00  0.00     0.049 A 
ATOM     54  H   UNL A   1      40.561  33.171  34.084  1.00  0.00     0.167 HD
ATOM     55  C   UNL A   1      39.604  33.101  38.366  1.00  0.00     0.031 A 
ATOM     56  C   UNL A   1      42.256  32.996  31.868  1.00  0.00     0.031 A 
ATOM     57  C   UNL A   1      40.990  32.726  38.274  1.00  0.00     0.049 A 
ATOM     58  C   UNL A   1      43.104  32.703  33.076  1.00  0.00     0.074 A 
ATOM     59  C   UNL A   1      41.852  32.365  39.295  1.00  0.00     0.029 A 
ATOM     60  N   UNL A   1      41.719  32.669  37.096  1.00  0.00    -0.354 N 
ATOM     61  N   UNL A   1      42.750  32.661  34.339  1.00  0.00    -0.248 NA
ATOM     62  C   UNL A   1      44.523  32.414  32.837  1.00  0.00     0.031 C 
ATOM     63  C   UNL A   1      43.119  32.156  38.741  1.00  0.00     0.029 A 
ATOM     64  C   UNL A   1      43.029  32.313  37.367  1.00  0.00     0.049 A 
ATOM     65  H   UNL A   1      41.358  32.854  36.198  1.00  0.00     0.167 HD
ATOM     66  C   UNL A   1      43.898  32.314  35.042  1.00  0.00     0.074 A 
ATOM     67  C   UNL A   1      44.951  32.140  34.061  1.00  0.00     0.031 C 
ATOM     68  C   UNL A   1      44.066  32.152  36.379  1.00  0.00     0.031 A 
BRANCH  55  69
ATOM     69  C   UNL A   1      38.975  33.205  39.732  1.00  0.00    -0.014 A 
ATOM     70  C   UNL A   1      38.034  32.259  40.177  1.00  0.00     0.010 A 
ATOM     71  C   UNL A   1      39.360  34.244  40.598  1.00  0.00     0.010 A 
ATOM     72  C   UNL A   1      37.459  32.373  41.445  1.00  0.00     0.020 A 
ATOM     73  C   UNL A   1      38.812  34.343  41.881  1.00  0.00     0.020 A 
ATOM     74  C   UNL A   1      37.852  33.416  42.289  1.00  0.00     0.054 A 
BRANCH  74  75
ATOM     75  S   UNL A   1      37.109  33.523  43.940  1.00  0.00     0.124 S 
ATOM     76  O   UNL A   1      35.983  34.423  43.705  1.00  0.00    -0.237 OA
ATOM     77  O   UNL A   1      36.755  32.135  44.221  1.00  0.00    -0.237 OA
ATOM     78  O   UNL A   1      38.180  34.071  44.768  1.00  0.00    -0.744 OA
ENDBRANCH  74  75
ENDBRANCH  55  69
BRANCH  56  79
ATOM     79  C   UNL A   1      42.842  32.998  30.499  1.00  0.00    -0.014 A 
ATOM     80  C   UNL A   1      43.179  34.207  29.863  1.00  0.00     0.010 A 
ATOM     81  C   UNL A   1      43.084  31.785  29.829  1.00  0.00     0.010 A 
ATOM     82  C   UNL A   1      43.729  34.202  28.577  1.00  0.00     0.020 A 
ATOM     83  C   UNL A   1      43.663  31.774  28.557  1.00  0.00     0.020 A 
ATOM     84  C   UNL A   1      43.972  32.984  27.935  1.00  0.00     0.054 A 
BRANCH  84  85
ATOM     85  S   UNL A   1      44.735  32.999  26.289  1.00  0.00     0.124 S 
ATOM     86  O   UNL A   1      46.132  33.276  26.605  1.00  0.00    -0.237 OA
ATOM     87  O   UNL A   1      44.449  31.653  25.799  1.00  0.00    -0.237 OA
ATOM     88  O   UNL A   1      44.025  34.070  25.593  1.00  0.00    -0.744 OA
ENDBRANCH  84  85
ENDBRANCH  56  79
BRANCH  68  89
ATOM     89  C   UNL A   1      45.433  31.740  36.860  1.00  0.00    -0.014 A 
ATOM     90  C   UNL A   1      45.838  30.393  36.848  1.00  0.00     0.010 A 
ATOM     91  C   UNL A   1      46.346  32.726  37.278  1.00  0.00     0.010 A 
ATOM     92  C   UNL A   1      47.118  30.037  37.278  1.00  0.00     0.020 A 
ATOM     93  C   UNL A   1      47.638  32.378  37.676  1.00  0.00     0.020 A 
ATOM     94  C   UNL A   1      48.011  31.032  37.688  1.00  0.00     0.054 A 
BRANCH  94  95
ATOM     95  S   UNL A   1      49.682  30.546  38.198  1.00  0.00     0.124 S 
ATOM     96  O   UNL A   1      49.956  29.422  37.307  1.00  0.00    -0.237 OA
ATOM     97  O   UNL A   1      50.458  31.756  37.942  1.00  0.00    -0.237 OA
ATOM     98  O   UNL A   1      49.527  30.199  39.609  1.00  0.00    -0.744 OA
ENDBRANCH  94  95
ENDBRANCH  68  89
ENDBRANCH  42  43
ENDBRANCH  34  37
ENDBRANCH  32  33
ENDBRANCH  31  32
ENDBRANCH  30  31
ENDBRANCH  29  30
ENDBRANCH   1  29
TORSDOF 22
ENDMDL
