MODEL 1
REMARK VINA RESULT:     -10.5      0.000      0.000
REMARK SMILES [NH3+][C@H]1COC[C@H]1C(=O)N[C@@H]1C=C[C@@H](C(=O)NCCCCCCNC(=O)c2ccc(-c3c4nc(c(-c5ccc(S(=O)(=O)[O-])cc5)c5ccc([nH]5)c(-c5ccc(S(=O)(=O)[O-])cc5)c5nc(c(-c6ccc(S(=O)(=O)[O-])cc6)c6ccc3[nH]6)C=C5)C=C4)cc2)C1
REMARK SMILES IDX 19 1 18 2 17 3 16 4 14 5 15 6 13 8 10 9 11 10 86 11 12 12
REMARK SMILES IDX 9 13 7 14 8 15 6 17 2 18 3 19 4 20 5 21 1 22 20 26 21 27
REMARK SMILES IDX 22 28 23 29 24 30 25 32 26 33 27 34 85 35 28 36 84 37 29 38
REMARK SMILES IDX 30 39 31 40 78 41 32 42 83 43 77 44 79 45 33 46 82 47 76 48
REMARK SMILES IDX 75 49 34 51 64 52 45 53 63 54 46 55 49 56 62 57 80 58 47 59
REMARK SMILES IDX 48 60 61 62 81 63 50 64 35 65 36 66 44 67 37 68 43 69 38 70
REMARK SMILES IDX 39 71 40 72 41 73 42 74 65 75 66 76 74 77 67 78 73 79 68 80
REMARK SMILES IDX 69 81 70 82 71 83 72 84 51 85 52 86 60 87 53 88 59 89 54 90
REMARK SMILES IDX 55 91 56 92 57 93 58 94
REMARK H PARENT 16 7 9 16 1 23 1 24 1 25 23 31 79 50 49 61
REMARK Flexibility Score: inf
ROOT
ATOM      1  C   UNL A   1      31.110  27.586  24.503  1.00  0.00     0.002 C 
ENDROOT
BRANCH   1   2
ATOM      2  C   UNL A   1      30.491  26.222  24.827  1.00  0.00     0.021 C 
BRANCH   2   3
ATOM      3  C   UNL A   1      30.681  25.176  23.730  1.00  0.00     0.116 C 
BRANCH   3   4
ATOM      4  N   UNL A   1      31.737  25.545  22.808  1.00  0.00    -0.356 N 
ATOM      5  C   UNL A   1      33.010  25.092  22.668  1.00  0.00     0.227 C 
ATOM      6  O   UNL A   1      33.668  25.553  21.728  1.00  0.00    -0.274 OA
ATOM      7  H   UNL A   1      31.485  26.249  22.168  1.00  0.00     0.163 HD
BRANCH   5   8
ATOM      8  C   UNL A   1      33.652  24.076  23.619  1.00  0.00     0.103 C 
ATOM      9  C   UNL A   1      36.054  23.550  23.870  1.00  0.00     0.106 C 
ATOM     10  C   UNL A   1      35.516  24.324  25.031  1.00  0.00    -0.006 C 
ATOM     11  C   UNL A   1      34.806  23.278  23.008  1.00  0.00     0.047 C 
ATOM     12  C   UNL A   1      34.225  24.643  24.878  1.00  0.00    -0.016 C 
BRANCH   9  13
ATOM     13  N   UNL A   1      36.651  22.330  24.355  1.00  0.00    -0.349 N 
ATOM     14  C   UNL A   1      36.101  21.209  24.886  1.00  0.00     0.232 C 
ATOM     15  O   UNL A   1      36.894  20.379  25.348  1.00  0.00    -0.274 OA
ATOM     16  H   UNL A   1      37.633  22.307  24.289  1.00  0.00     0.164 HD
BRANCH  14  17
ATOM     17  C   UNL A   1      34.607  20.923  24.941  1.00  0.00     0.164 C 
ATOM     18  C   UNL A   1      34.075  19.563  24.486  1.00  0.00     0.221 C 
ATOM     19  C   UNL A   1      32.806  19.439  25.337  1.00  0.00     0.225 C 
ATOM     20  O   UNL A   1      33.136  20.058  26.591  1.00  0.00    -0.374 OA
ATOM     21  C   UNL A   1      33.944  21.204  26.279  1.00  0.00     0.180 C 
BRANCH  18  22
ATOM     22  N   UNL A   1      34.912  18.380  24.687  1.00  0.00    -0.352 N 
ATOM     23  H   UNL A   1      34.408  17.550  24.376  1.00  0.00     0.344 HD
ATOM     24  H   UNL A   1      35.139  18.289  25.677  1.00  0.00     0.344 HD
ATOM     25  H   UNL A   1      35.773  18.477  24.148  1.00  0.00     0.344 HD
ENDBRANCH  18  22
ENDBRANCH  14  17
ENDBRANCH   9  13
ENDBRANCH   5   8
ENDBRANCH   3   4
ENDBRANCH   2   3
ENDBRANCH   1   2
BRANCH   1  26
ATOM     26  C   UNL A   1      31.420  28.462  25.722  1.00  0.00     0.002 C 
BRANCH  26  27
ATOM     27  C   UNL A   1      32.119  27.742  26.878  1.00  0.00     0.021 C 
BRANCH  27  28
ATOM     28  C   UNL A   1      33.478  28.322  27.256  1.00  0.00     0.116 C 
BRANCH  28  29
ATOM     29  N   UNL A   1      33.411  29.757  27.492  1.00  0.00    -0.352 N 
ATOM     30  C   UNL A   1      34.341  30.590  28.062  1.00  0.00     0.251 C 
ATOM     31  H   UNL A   1      32.577  30.193  27.200  1.00  0.00     0.163 HD
ATOM     32  O   UNL A   1      34.025  31.738  28.371  1.00  0.00    -0.269 OA
BRANCH  30  33
ATOM     33  C   UNL A   1      35.711  30.101  28.320  1.00  0.00     0.039 A 
ATOM     34  C   UNL A   1      36.632  30.084  27.271  1.00  0.00     0.014 A 
ATOM     35  C   UNL A   1      36.085  29.655  29.591  1.00  0.00     0.014 A 
ATOM     36  C   UNL A   1      37.946  29.677  27.513  1.00  0.00     0.010 A 
ATOM     37  C   UNL A   1      37.413  29.324  29.846  1.00  0.00     0.010 A 
ATOM     38  C   UNL A   1      38.358  29.328  28.809  1.00  0.00    -0.014 A 
BRANCH  38  39
ATOM     39  C   UNL A   1      39.772  28.978  29.100  1.00  0.00     0.031 A 
ATOM     40  C   UNL A   1      40.702  29.998  29.701  1.00  0.00     0.074 A 
ATOM     41  C   UNL A   1      40.235  27.756  28.769  1.00  0.00     0.049 A 
ATOM     42  N   UNL A   1      41.975  29.886  29.985  1.00  0.00    -0.248 NA
ATOM     43  C   UNL A   1      40.135  31.323  30.001  1.00  0.00     0.031 C 
ATOM     44  C   UNL A   1      39.445  26.693  28.142  1.00  0.00     0.029 A 
ATOM     45  N   UNL A   1      41.484  27.202  28.905  1.00  0.00    -0.354 N 
ATOM     46  C   UNL A   1      42.363  31.126  30.480  1.00  0.00     0.074 A 
ATOM     47  C   UNL A   1      41.205  31.989  30.411  1.00  0.00     0.031 C 
ATOM     48  C   UNL A   1      40.219  25.608  27.976  1.00  0.00     0.029 A 
ATOM     49  C   UNL A   1      41.570  25.911  28.440  1.00  0.00     0.049 A 
ATOM     50  H   UNL A   1      42.246  27.683  29.300  1.00  0.00     0.167 HD
ATOM     51  C   UNL A   1      43.569  31.506  30.965  1.00  0.00     0.031 A 
ATOM     52  C   UNL A   1      42.618  25.066  28.381  1.00  0.00     0.031 A 
ATOM     53  C   UNL A   1      44.719  30.641  31.035  1.00  0.00     0.049 A 
ATOM     54  C   UNL A   1      43.952  25.516  28.910  1.00  0.00     0.074 A 
ATOM     55  C   UNL A   1      45.968  30.915  31.563  1.00  0.00     0.029 A 
ATOM     56  N   UNL A   1      44.763  29.341  30.556  1.00  0.00    -0.354 N 
ATOM     57  N   UNL A   1      44.280  26.669  29.444  1.00  0.00    -0.248 NA
ATOM     58  C   UNL A   1      45.054  24.548  28.840  1.00  0.00     0.031 C 
ATOM     59  C   UNL A   1      46.787  29.802  31.345  1.00  0.00     0.029 A 
ATOM     60  C   UNL A   1      46.027  28.809  30.747  1.00  0.00     0.049 A 
ATOM     61  H   UNL A   1      44.006  28.865  30.142  1.00  0.00     0.167 HD
ATOM     62  C   UNL A   1      45.619  26.555  29.799  1.00  0.00     0.074 A 
ATOM     63  C   UNL A   1      46.034  25.215  29.435  1.00  0.00     0.031 C 
ATOM     64  C   UNL A   1      46.431  27.475  30.376  1.00  0.00     0.031 A 
BRANCH  51  65
ATOM     65  C   UNL A   1      43.712  32.927  31.449  1.00  0.00    -0.014 A 
ATOM     66  C   UNL A   1      43.503  33.264  32.798  1.00  0.00     0.010 A 
ATOM     67  C   UNL A   1      44.107  33.934  30.548  1.00  0.00     0.010 A 
ATOM     68  C   UNL A   1      43.642  34.587  33.229  1.00  0.00     0.020 A 
ATOM     69  C   UNL A   1      44.279  35.251  30.980  1.00  0.00     0.020 A 
ATOM     70  C   UNL A   1      44.028  35.573  32.316  1.00  0.00     0.054 A 
BRANCH  70  71
ATOM     71  S   UNL A   1      44.223  37.276  32.908  1.00  0.00     0.124 S 
ATOM     72  O   UNL A   1      44.217  38.032  31.658  1.00  0.00    -0.237 OA
ATOM     73  O   UNL A   1      43.047  37.456  33.755  1.00  0.00    -0.237 OA
ATOM     74  O   UNL A   1      45.501  37.255  33.615  1.00  0.00    -0.744 OA
ENDBRANCH  70  71
ENDBRANCH  51  65
BRANCH  52  75
ATOM     75  C   UNL A   1      42.442  23.703  27.805  1.00  0.00    -0.014 A 
ATOM     76  C   UNL A   1      42.554  23.489  26.420  1.00  0.00     0.010 A 
ATOM     77  C   UNL A   1      42.176  22.606  28.646  1.00  0.00     0.010 A 
ATOM     78  C   UNL A   1      42.385  22.207  25.885  1.00  0.00     0.020 A 
ATOM     79  C   UNL A   1      42.038  21.320  28.119  1.00  0.00     0.020 A 
ATOM     80  C   UNL A   1      42.132  21.131  26.739  1.00  0.00     0.054 A 
BRANCH  80  81
ATOM     81  S   UNL A   1      41.971  19.470  26.028  1.00  0.00     0.124 S 
ATOM     82  O   UNL A   1      42.364  18.620  27.148  1.00  0.00    -0.237 OA
ATOM     83  O   UNL A   1      40.559  19.421  25.659  1.00  0.00    -0.237 OA
ATOM     84  O   UNL A   1      42.901  19.489  24.901  1.00  0.00    -0.744 OA
ENDBRANCH  80  81
ENDBRANCH  52  75
BRANCH  64  85
ATOM     85  C   UNL A   1      47.845  27.058  30.685  1.00  0.00    -0.014 A 
ATOM     86  C   UNL A   1      48.889  27.269  29.766  1.00  0.00     0.010 A 
ATOM     87  C   UNL A   1      48.143  26.496  31.940  1.00  0.00     0.010 A 
ATOM     88  C   UNL A   1      50.197  26.894  30.084  1.00  0.00     0.020 A 
ATOM     89  C   UNL A   1      49.454  26.149  32.274  1.00  0.00     0.020 A 
ATOM     90  C   UNL A   1      50.471  26.337  31.337  1.00  0.00     0.054 A 
BRANCH  90  91
ATOM     91  S   UNL A   1      52.184  25.899  31.741  1.00  0.00     0.124 S 
ATOM     92  O   UNL A   1      52.874  26.177  30.484  1.00  0.00    -0.237 OA
ATOM     93  O   UNL A   1      52.495  26.808  32.842  1.00  0.00    -0.237 OA
ATOM     94  O   UNL A   1      52.104  24.488  32.110  1.00  0.00    -0.744 OA
ENDBRANCH  90  91
ENDBRANCH  64  85
ENDBRANCH  38  39
ENDBRANCH  30  33
ENDBRANCH  28  29
ENDBRANCH  27  28
ENDBRANCH  26  27
ENDBRANCH   1  26
TORSDOF 19
ENDMDL
MODEL 2
REMARK VINA RESULT:     -10.4      1.530      1.962
REMARK SMILES [NH3+][C@H]1COC[C@H]1C(=O)N[C@@H]1C=C[C@@H](C(=O)NCCCCCCNC(=O)c2ccc(-c3c4nc(c(-c5ccc(S(=O)(=O)[O-])cc5)c5ccc([nH]5)c(-c5ccc(S(=O)(=O)[O-])cc5)c5nc(c(-c6ccc(S(=O)(=O)[O-])cc6)c6ccc3[nH]6)C=C5)C=C4)cc2)C1
REMARK SMILES IDX 19 1 18 2 17 3 16 4 14 5 15 6 13 8 10 9 11 10 86 11 12 12
REMARK SMILES IDX 9 13 7 14 8 15 6 17 2 18 3 19 4 20 5 21 1 22 20 26 21 27
REMARK SMILES IDX 22 28 23 29 24 30 25 32 26 33 27 34 85 35 28 36 84 37 29 38
REMARK SMILES IDX 30 39 31 40 78 41 32 42 83 43 77 44 79 45 33 46 82 47 76 48
REMARK SMILES IDX 75 49 34 51 64 52 45 53 63 54 46 55 49 56 62 57 80 58 47 59
REMARK SMILES IDX 48 60 61 62 81 63 50 64 35 65 36 66 44 67 37 68 43 69 38 70
REMARK SMILES IDX 39 71 40 72 41 73 42 74 65 75 66 76 74 77 67 78 73 79 68 80
REMARK SMILES IDX 69 81 70 82 71 83 72 84 51 85 52 86 60 87 53 88 59 89 54 90
REMARK SMILES IDX 55 91 56 92 57 93 58 94
REMARK H PARENT 16 7 9 16 1 23 1 24 1 25 23 31 79 50 49 61
REMARK Flexibility Score: inf
ROOT
ATOM      1  C   UNL A   1      30.905  28.238  24.705  1.00  0.00     0.002 C 
ENDROOT
BRANCH   1   2
ATOM      2  C   UNL A   1      30.984  26.919  25.482  1.00  0.00     0.021 C 
BRANCH   2   3
ATOM      3  C   UNL A   1      29.906  25.907  25.101  1.00  0.00     0.116 C 
BRANCH   3   4
ATOM      4  N   UNL A   1      29.731  24.893  26.122  1.00  0.00    -0.356 N 
ATOM      5  C   UNL A   1      30.504  23.837  26.486  1.00  0.00     0.227 C 
ATOM      6  O   UNL A   1      30.126  23.173  27.457  1.00  0.00    -0.274 OA
ATOM      7  H   UNL A   1      28.903  24.987  26.645  1.00  0.00     0.163 HD
BRANCH   5   8
ATOM      8  C   UNL A   1      31.783  23.434  25.742  1.00  0.00     0.103 C 
ATOM      9  C   UNL A   1      32.677  21.156  25.399  1.00  0.00     0.106 C 
ATOM     10  C   UNL A   1      32.111  21.740  24.145  1.00  0.00    -0.006 C 
ATOM     11  C   UNL A   1      32.578  22.312  26.413  1.00  0.00     0.047 C 
ATOM     12  C   UNL A   1      31.591  22.958  24.339  1.00  0.00    -0.016 C 
BRANCH   9  13
ATOM     13  N   UNL A   1      34.044  20.764  25.159  1.00  0.00    -0.349 N 
ATOM     14  C   UNL A   1      34.596  19.561  24.857  1.00  0.00     0.232 C 
ATOM     15  O   UNL A   1      35.831  19.513  24.852  1.00  0.00    -0.274 OA
ATOM     16  H   UNL A   1      34.693  21.500  25.226  1.00  0.00     0.164 HD
BRANCH  14  17
ATOM     17  C   UNL A   1      33.800  18.305  24.531  1.00  0.00     0.164 C 
ATOM     18  C   UNL A   1      34.507  16.950  24.471  1.00  0.00     0.221 C 
ATOM     19  C   UNL A   1      33.365  16.000  24.850  1.00  0.00     0.225 C 
ATOM     20  O   UNL A   1      32.585  16.722  25.818  1.00  0.00    -0.374 OA
ATOM     21  C   UNL A   1      32.556  18.090  25.378  1.00  0.00     0.180 C 
BRANCH  18  22
ATOM     22  N   UNL A   1      35.648  16.715  25.356  1.00  0.00    -0.352 N 
ATOM     23  H   UNL A   1      36.443  16.388  24.807  1.00  0.00     0.344 HD
ATOM     24  H   UNL A   1      35.400  16.010  26.050  1.00  0.00     0.344 HD
ATOM     25  H   UNL A   1      35.896  17.585  25.829  1.00  0.00     0.344 HD
ENDBRANCH  18  22
ENDBRANCH  14  17
ENDBRANCH   9  13
ENDBRANCH   5   8
ENDBRANCH   3   4
ENDBRANCH   2   3
ENDBRANCH   1   2
BRANCH   1  26
ATOM     26  C   UNL A   1      32.100  29.177  24.901  1.00  0.00     0.002 C 
BRANCH  26  27
ATOM     27  C   UNL A   1      33.448  28.480  25.100  1.00  0.00     0.021 C 
BRANCH  27  28
ATOM     28  C   UNL A   1      34.006  28.571  26.516  1.00  0.00     0.116 C 
BRANCH  28  29
ATOM     29  N   UNL A   1      33.850  29.905  27.078  1.00  0.00    -0.352 N 
ATOM     30  C   UNL A   1      34.666  30.584  27.947  1.00  0.00     0.251 C 
ATOM     31  H   UNL A   1      33.041  30.389  26.794  1.00  0.00     0.163 HD
ATOM     32  O   UNL A   1      34.267  31.619  28.479  1.00  0.00    -0.269 OA
BRANCH  30  33
ATOM     33  C   UNL A   1      36.013  30.062  28.257  1.00  0.00     0.039 A 
ATOM     34  C   UNL A   1      37.006  30.125  27.276  1.00  0.00     0.014 A 
ATOM     35  C   UNL A   1      36.297  29.506  29.508  1.00  0.00     0.014 A 
ATOM     36  C   UNL A   1      38.298  29.686  27.573  1.00  0.00     0.010 A 
ATOM     37  C   UNL A   1      37.602  29.142  29.825  1.00  0.00     0.010 A 
ATOM     38  C   UNL A   1      38.617  29.225  28.861  1.00  0.00    -0.014 A 
BRANCH  38  39
ATOM     39  C   UNL A   1      40.006  28.838  29.218  1.00  0.00     0.031 A 
ATOM     40  C   UNL A   1      40.918  29.819  29.904  1.00  0.00     0.074 A 
ATOM     41  C   UNL A   1      40.465  27.619  28.870  1.00  0.00     0.049 A 
ATOM     42  N   UNL A   1      42.171  29.674  30.254  1.00  0.00    -0.248 NA
ATOM     43  C   UNL A   1      40.359  31.145  30.218  1.00  0.00     0.031 C 
ATOM     44  C   UNL A   1      39.694  26.593  28.165  1.00  0.00     0.029 A 
ATOM     45  N   UNL A   1      41.694  27.037  29.057  1.00  0.00    -0.354 N 
ATOM     46  C   UNL A   1      42.552  30.888  30.813  1.00  0.00     0.074 A 
ATOM     47  C   UNL A   1      41.415  31.776  30.709  1.00  0.00     0.031 C 
ATOM     48  C   UNL A   1      40.456  25.500  28.005  1.00  0.00     0.029 A 
ATOM     49  C   UNL A   1      41.784  25.761  28.554  1.00  0.00     0.049 A 
ATOM     50  H   UNL A   1      42.442  27.490  29.511  1.00  0.00     0.167 HD
ATOM     51  C   UNL A   1      43.736  31.229  31.377  1.00  0.00     0.031 A 
ATOM     52  C   UNL A   1      42.819  24.898  28.524  1.00  0.00     0.031 A 
ATOM     53  C   UNL A   1      44.864  30.340  31.482  1.00  0.00     0.049 A 
ATOM     54  C   UNL A   1      44.128  25.304  29.142  1.00  0.00     0.074 A 
ATOM     55  C   UNL A   1      46.086  30.571  32.088  1.00  0.00     0.029 A 
ATOM     56  N   UNL A   1      44.912  29.055  30.962  1.00  0.00    -0.354 N 
ATOM     57  N   UNL A   1      44.446  26.432  29.733  1.00  0.00    -0.248 NA
ATOM     58  C   UNL A   1      45.216  24.317  29.100  1.00  0.00     0.031 C 
ATOM     59  C   UNL A   1      46.897  29.451  31.877  1.00  0.00     0.029 A 
ATOM     60  C   UNL A   1      46.155  28.493  31.204  1.00  0.00     0.049 A 
ATOM     61  H   UNL A   1      44.172  28.608  30.490  1.00  0.00     0.167 HD
ATOM     62  C   UNL A   1      45.761  26.280  30.158  1.00  0.00     0.074 A 
ATOM     63  C   UNL A   1      46.173  24.945  29.772  1.00  0.00     0.031 C 
ATOM     64  C   UNL A   1      46.555  27.164  30.810  1.00  0.00     0.031 A 
BRANCH  51  65
ATOM     65  C   UNL A   1      43.876  32.630  31.917  1.00  0.00    -0.014 A 
ATOM     66  C   UNL A   1      44.375  33.673  31.117  1.00  0.00     0.010 A 
ATOM     67  C   UNL A   1      43.460  32.916  33.231  1.00  0.00     0.010 A 
ATOM     68  C   UNL A   1      44.497  34.967  31.633  1.00  0.00     0.020 A 
ATOM     69  C   UNL A   1      43.550  34.214  33.740  1.00  0.00     0.020 A 
ATOM     70  C   UNL A   1      44.084  35.228  32.943  1.00  0.00     0.054 A 
BRANCH  70  71
ATOM     71  S   UNL A   1      44.232  36.921  33.579  1.00  0.00     0.124 S 
ATOM     72  O   UNL A   1      44.933  37.592  32.486  1.00  0.00    -0.237 OA
ATOM     73  O   UNL A   1      42.838  37.316  33.765  1.00  0.00    -0.237 OA
ATOM     74  O   UNL A   1      45.004  36.765  34.809  1.00  0.00    -0.744 OA
ENDBRANCH  70  71
ENDBRANCH  51  65
BRANCH  52  75
ATOM     75  C   UNL A   1      42.652  23.559  27.893  1.00  0.00    -0.014 A 
ATOM     76  C   UNL A   1      43.138  23.310  26.598  1.00  0.00     0.010 A 
ATOM     77  C   UNL A   1      42.016  22.517  28.595  1.00  0.00     0.010 A 
ATOM     78  C   UNL A   1      42.976  22.051  26.009  1.00  0.00     0.020 A 
ATOM     79  C   UNL A   1      41.881  21.250  28.023  1.00  0.00     0.020 A 
ATOM     80  C   UNL A   1      42.352  21.028  26.728  1.00  0.00     0.054 A 
BRANCH  80  81
ATOM     81  S   UNL A   1      42.201  19.389  25.966  1.00  0.00     0.124 S 
ATOM     82  O   UNL A   1      40.760  19.279  25.763  1.00  0.00    -0.237 OA
ATOM     83  O   UNL A   1      43.004  19.531  24.753  1.00  0.00    -0.237 OA
ATOM     84  O   UNL A   1      42.763  18.491  26.973  1.00  0.00    -0.744 OA
ENDBRANCH  80  81
ENDBRANCH  52  75
BRANCH  64  85
ATOM     85  C   UNL A   1      47.942  26.710  31.183  1.00  0.00    -0.014 A 
ATOM     86  C   UNL A   1      48.184  25.988  32.365  1.00  0.00     0.010 A 
ATOM     87  C   UNL A   1      49.013  26.965  30.307  1.00  0.00     0.010 A 
ATOM     88  C   UNL A   1      49.476  25.558  32.679  1.00  0.00     0.020 A 
ATOM     89  C   UNL A   1      50.300  26.510  30.601  1.00  0.00     0.020 A 
ATOM     90  C   UNL A   1      50.526  25.821  31.794  1.00  0.00     0.054 A 
BRANCH  90  91
ATOM     91  S   UNL A   1      52.186  25.215  32.204  1.00  0.00     0.124 S 
ATOM     92  O   UNL A   1      52.952  25.604  31.023  1.00  0.00    -0.237 OA
ATOM     93  O   UNL A   1      52.501  25.951  33.427  1.00  0.00    -0.237 OA
ATOM     94  O   UNL A   1      51.998  23.777  32.381  1.00  0.00    -0.744 OA
ENDBRANCH  90  91
ENDBRANCH  64  85
ENDBRANCH  38  39
ENDBRANCH  30  33
ENDBRANCH  28  29
ENDBRANCH  27  28
ENDBRANCH  26  27
ENDBRANCH   1  26
TORSDOF 19
ENDMDL
MODEL 3
REMARK VINA RESULT:     -10.1      4.933     10.882
REMARK SMILES [NH3+][C@H]1COC[C@H]1C(=O)N[C@@H]1C=C[C@@H](C(=O)NCCCCCCNC(=O)c2ccc(-c3c4nc(c(-c5ccc(S(=O)(=O)[O-])cc5)c5ccc([nH]5)c(-c5ccc(S(=O)(=O)[O-])cc5)c5nc(c(-c6ccc(S(=O)(=O)[O-])cc6)c6ccc3[nH]6)C=C5)C=C4)cc2)C1
REMARK SMILES IDX 19 1 18 2 17 3 16 4 14 5 15 6 13 8 10 9 11 10 86 11 12 12
REMARK SMILES IDX 9 13 7 14 8 15 6 17 2 18 3 19 4 20 5 21 1 22 20 26 21 27
REMARK SMILES IDX 22 28 23 29 24 30 25 32 26 33 27 34 85 35 28 36 84 37 29 38
REMARK SMILES IDX 30 39 31 40 78 41 32 42 83 43 77 44 79 45 33 46 82 47 76 48
REMARK SMILES IDX 75 49 34 51 64 52 45 53 63 54 46 55 49 56 62 57 80 58 47 59
REMARK SMILES IDX 48 60 61 62 81 63 50 64 35 65 36 66 44 67 37 68 43 69 38 70
REMARK SMILES IDX 39 71 40 72 41 73 42 74 65 75 66 76 74 77 67 78 73 79 68 80
REMARK SMILES IDX 69 81 70 82 71 83 72 84 51 85 52 86 60 87 53 88 59 89 54 90
REMARK SMILES IDX 55 91 56 92 57 93 58 94
REMARK H PARENT 16 7 9 16 1 23 1 24 1 25 23 31 79 50 49 61
REMARK Flexibility Score: inf
ROOT
ATOM      1  C   UNL A   1      36.031  22.370  25.354  1.00  0.00     0.002 C 
ENDROOT
BRANCH   1   2
ATOM      2  C   UNL A   1      34.890  22.960  24.518  1.00  0.00     0.021 C 
BRANCH   2   3
ATOM      3  C   UNL A   1      33.899  23.798  25.322  1.00  0.00     0.116 C 
BRANCH   3   4
ATOM      4  N   UNL A   1      34.198  25.214  25.243  1.00  0.00    -0.356 N 
ATOM      5  C   UNL A   1      33.454  26.270  24.822  1.00  0.00     0.227 C 
ATOM      6  O   UNL A   1      33.959  27.393  24.938  1.00  0.00    -0.274 OA
ATOM      7  H   UNL A   1      35.102  25.453  25.550  1.00  0.00     0.163 HD
BRANCH   5   8
ATOM      8  C   UNL A   1      32.059  26.124  24.203  1.00  0.00     0.103 C 
ATOM      9  C   UNL A   1      30.661  27.896  23.196  1.00  0.00     0.106 C 
ATOM     10  C   UNL A   1      31.232  26.969  22.171  1.00  0.00    -0.006 C 
ATOM     11  C   UNL A   1      31.098  27.268  24.534  1.00  0.00     0.047 C 
ATOM     12  C   UNL A   1      32.021  26.033  22.712  1.00  0.00    -0.016 C 
BRANCH   9  13
ATOM     13  N   UNL A   1      29.226  27.924  23.056  1.00  0.00    -0.349 N 
ATOM     14  C   UNL A   1      28.350  28.957  22.969  1.00  0.00     0.232 C 
ATOM     15  O   UNL A   1      27.150  28.659  23.001  1.00  0.00    -0.274 OA
ATOM     16  H   UNL A   1      28.806  27.034  23.016  1.00  0.00     0.164 HD
BRANCH  14  17
ATOM     17  C   UNL A   1      28.752  30.419  22.836  1.00  0.00     0.164 C 
ATOM     18  C   UNL A   1      28.736  31.091  21.462  1.00  0.00     0.221 C 
ATOM     19  C   UNL A   1      28.472  32.551  21.846  1.00  0.00     0.225 C 
ATOM     20  O   UNL A   1      27.592  32.485  22.980  1.00  0.00    -0.374 OA
ATOM     21  C   UNL A   1      28.036  31.375  23.776  1.00  0.00     0.180 C 
BRANCH  18  22
ATOM     22  N   UNL A   1      27.738  30.659  20.483  1.00  0.00    -0.352 N 
ATOM     23  H   UNL A   1      27.610  31.390  19.782  1.00  0.00     0.344 HD
ATOM     24  H   UNL A   1      26.851  30.483  20.956  1.00  0.00     0.344 HD
ATOM     25  H   UNL A   1      28.056  29.803  20.028  1.00  0.00     0.344 HD
ENDBRANCH  18  22
ENDBRANCH  14  17
ENDBRANCH   9  13
ENDBRANCH   5   8
ENDBRANCH   3   4
ENDBRANCH   2   3
ENDBRANCH   1   2
BRANCH   1  26
ATOM     26  C   UNL A   1      37.085  23.382  25.817  1.00  0.00     0.002 C 
BRANCH  26  27
ATOM     27  C   UNL A   1      38.451  22.785  26.164  1.00  0.00     0.021 C 
BRANCH  27  28
ATOM     28  C   UNL A   1      39.396  23.741  26.884  1.00  0.00     0.116 C 
BRANCH  28  29
ATOM     29  N   UNL A   1      40.446  24.234  26.004  1.00  0.00    -0.352 N 
ATOM     30  C   UNL A   1      41.168  25.398  26.078  1.00  0.00     0.251 C 
ATOM     31  H   UNL A   1      40.668  23.648  25.245  1.00  0.00     0.163 HD
ATOM     32  O   UNL A   1      41.866  25.746  25.127  1.00  0.00    -0.269 OA
BRANCH  30  33
ATOM     33  C   UNL A   1      41.092  26.239  27.291  1.00  0.00     0.039 A 
ATOM     34  C   UNL A   1      42.002  27.286  27.448  1.00  0.00     0.014 A 
ATOM     35  C   UNL A   1      40.128  25.993  28.274  1.00  0.00     0.014 A 
ATOM     36  C   UNL A   1      41.907  28.123  28.562  1.00  0.00     0.010 A 
ATOM     37  C   UNL A   1      39.987  26.875  29.341  1.00  0.00     0.010 A 
ATOM     38  C   UNL A   1      40.876  27.948  29.499  1.00  0.00    -0.014 A 
BRANCH  38  39
ATOM     39  C   UNL A   1      40.708  28.883  30.642  1.00  0.00     0.031 A 
ATOM     40  C   UNL A   1      41.549  28.732  31.881  1.00  0.00     0.074 A 
ATOM     41  C   UNL A   1      39.754  29.834  30.585  1.00  0.00     0.049 A 
ATOM     42  N   UNL A   1      41.513  29.425  32.990  1.00  0.00    -0.248 NA
ATOM     43  C   UNL A   1      42.543  27.645  31.885  1.00  0.00     0.031 C 
ATOM     44  C   UNL A   1      38.846  30.056  29.458  1.00  0.00     0.029 A 
ATOM     45  N   UNL A   1      39.385  30.788  31.500  1.00  0.00    -0.354 N 
ATOM     46  C   UNL A   1      42.466  28.852  33.826  1.00  0.00     0.074 A 
ATOM     47  C   UNL A   1      43.026  27.724  33.116  1.00  0.00     0.031 C 
ATOM     48  C   UNL A   1      38.045  31.098  29.735  1.00  0.00     0.029 A 
ATOM     49  C   UNL A   1      38.350  31.589  31.076  1.00  0.00     0.049 A 
ATOM     50  H   UNL A   1      39.820  30.892  32.377  1.00  0.00     0.167 HD
ATOM     51  C   UNL A   1      42.851  29.241  35.065  1.00  0.00     0.031 A 
ATOM     52  C   UNL A   1      37.708  32.598  31.697  1.00  0.00     0.031 A 
ATOM     53  C   UNL A   1      42.292  30.369  35.766  1.00  0.00     0.049 A 
ATOM     54  C   UNL A   1      38.143  33.002  33.079  1.00  0.00     0.074 A 
ATOM     55  C   UNL A   1      42.656  30.878  37.000  1.00  0.00     0.029 A 
ATOM     56  N   UNL A   1      41.249  31.154  35.301  1.00  0.00    -0.354 N 
ATOM     57  N   UNL A   1      39.097  32.494  33.824  1.00  0.00    -0.248 NA
ATOM     58  C   UNL A   1      37.422  34.121  33.701  1.00  0.00     0.031 C 
ATOM     59  C   UNL A   1      41.789  31.931  37.310  1.00  0.00     0.029 A 
ATOM     60  C   UNL A   1      40.934  32.125  36.237  1.00  0.00     0.049 A 
ATOM     61  H   UNL A   1      40.799  31.039  34.432  1.00  0.00     0.167 HD
ATOM     62  C   UNL A   1      39.109  33.251  34.991  1.00  0.00     0.074 A 
ATOM     63  C   UNL A   1      38.080  34.260  34.845  1.00  0.00     0.031 C 
ATOM     64  C   UNL A   1      39.903  33.122  36.082  1.00  0.00     0.031 A 
BRANCH  51  65
ATOM     65  C   UNL A   1      43.923  28.432  35.750  1.00  0.00    -0.014 A 
ATOM     66  C   UNL A   1      43.608  27.274  36.483  1.00  0.00     0.010 A 
ATOM     67  C   UNL A   1      45.273  28.811  35.621  1.00  0.00     0.010 A 
ATOM     68  C   UNL A   1      44.615  26.535  37.110  1.00  0.00     0.020 A 
ATOM     69  C   UNL A   1      46.286  28.057  36.219  1.00  0.00     0.020 A 
ATOM     70  C   UNL A   1      45.948  26.933  36.975  1.00  0.00     0.054 A 
BRANCH  70  71
ATOM     71  S   UNL A   1      47.236  25.942  37.781  1.00  0.00     0.124 S 
ATOM     72  O   UNL A   1      47.802  25.208  36.651  1.00  0.00    -0.237 OA
ATOM     73  O   UNL A   1      48.105  26.961  38.365  1.00  0.00    -0.237 OA
ATOM     74  O   UNL A   1      46.498  25.128  38.744  1.00  0.00    -0.744 OA
ENDBRANCH  70  71
ENDBRANCH  51  65
BRANCH  52  75
ATOM     75  C   UNL A   1      36.591  33.303  31.009  1.00  0.00    -0.014 A 
ATOM     76  C   UNL A   1      36.842  34.163  29.926  1.00  0.00     0.010 A 
ATOM     77  C   UNL A   1      35.261  33.103  31.427  1.00  0.00     0.010 A 
ATOM     78  C   UNL A   1      35.789  34.824  29.285  1.00  0.00     0.020 A 
ATOM     79  C   UNL A   1      34.204  33.737  30.769  1.00  0.00     0.020 A 
ATOM     80  C   UNL A   1      34.476  34.603  29.709  1.00  0.00     0.054 A 
BRANCH  80  81
ATOM     81  S   UNL A   1      33.122  35.428  28.829  1.00  0.00     0.124 S 
ATOM     82  O   UNL A   1      33.844  36.348  27.954  1.00  0.00    -0.237 OA
ATOM     83  O   UNL A   1      32.453  34.313  28.163  1.00  0.00    -0.237 OA
ATOM     84  O   UNL A   1      32.351  36.058  29.899  1.00  0.00    -0.744 OA
ENDBRANCH  80  81
ENDBRANCH  52  75
BRANCH  64  85
ATOM     85  C   UNL A   1      39.718  34.118  37.198  1.00  0.00    -0.014 A 
ATOM     86  C   UNL A   1      39.045  33.773  38.384  1.00  0.00     0.010 A 
ATOM     87  C   UNL A   1      40.275  35.404  37.077  1.00  0.00     0.010 A 
ATOM     88  C   UNL A   1      38.905  34.708  39.413  1.00  0.00     0.020 A 
ATOM     89  C   UNL A   1      40.165  36.331  38.116  1.00  0.00     0.020 A 
ATOM     90  C   UNL A   1      39.467  35.980  39.274  1.00  0.00     0.054 A 
BRANCH  90  91
ATOM     91  S   UNL A   1      39.309  37.160  40.642  1.00  0.00     0.124 S 
ATOM     92  O   UNL A   1      40.671  37.673  40.761  1.00  0.00    -0.237 OA
ATOM     93  O   UNL A   1      38.322  38.110  40.131  1.00  0.00    -0.237 OA
ATOM     94  O   UNL A   1      38.852  36.338  41.760  1.00  0.00    -0.744 OA
ENDBRANCH  90  91
ENDBRANCH  64  85
ENDBRANCH  38  39
ENDBRANCH  30  33
ENDBRANCH  28  29
ENDBRANCH  27  28
ENDBRANCH  26  27
ENDBRANCH   1  26
TORSDOF 19
ENDMDL
