MODEL 1
REMARK VINA RESULT:     -10.5      0.000      0.000
REMARK SMILES CCN(C(=O)N[C@@H]1CCOC1)[C@H]1COC[C@H]1C(=O)NCCCCCCNC(=O)c1ccc(-c2c3nc(c(-c4ccc(S(=O)(=O)[O-])cc4)c4ccc([nH]4)c(-c4ccc(S(=O)(=O)[O-])cc4)c4nc(c(-c5ccc(S(=O)(=O)[O-])cc5)c5ccc2[nH]5)C=C4)C=C3)cc1
REMARK SMILES IDX 22 1 21 2 20 3 19 4 17 5 18 6 16 8 12 9 13 10 14 11 15 12
REMARK SMILES IDX 3 13 2 14 1 15 4 16 5 17 6 18 7 20 8 21 11 22 9 23 10 24
REMARK SMILES IDX 23 25 24 26 25 27 26 28 27 29 28 31 29 32 30 33 88 34 31 35
REMARK SMILES IDX 87 36 32 37 33 38 34 39 81 40 35 41 86 42 80 43 82 44 36 45
REMARK SMILES IDX 85 46 79 47 78 48 37 50 67 51 48 52 66 53 49 54 52 55 65 56
REMARK SMILES IDX 83 57 50 58 51 59 64 61 84 62 53 63 38 64 39 65 47 66 40 67
REMARK SMILES IDX 46 68 41 69 42 70 43 71 44 72 45 73 68 74 69 75 77 76 70 77
REMARK SMILES IDX 76 78 71 79 72 80 73 81 74 82 75 83 54 84 55 85 63 86 56 87
REMARK SMILES IDX 62 88 57 89 58 90 59 91 60 92 61 93
REMARK H PARENT 19 7 6 19 26 30 82 49 52 60
REMARK Flexibility Score: inf
ROOT
ATOM      1  C   UNL A   1      39.120  21.293  25.807  1.00  0.00     0.002 C 
ENDROOT
BRANCH   1   2
ATOM      2  C   UNL A   1      37.663  21.312  25.332  1.00  0.00     0.021 C 
BRANCH   2   3
ATOM      3  C   UNL A   1      37.302  22.368  24.284  1.00  0.00     0.116 C 
BRANCH   3   4
ATOM      4  N   UNL A   1      36.608  23.490  24.870  1.00  0.00    -0.356 N 
ATOM      5  C   UNL A   1      35.388  24.027  24.661  1.00  0.00     0.227 C 
ATOM      6  O   UNL A   1      35.131  25.014  25.370  1.00  0.00    -0.275 OA
ATOM      7  H   UNL A   1      37.130  23.958  25.562  1.00  0.00     0.163 HD
BRANCH   5   8
ATOM      8  C   UNL A   1      34.284  23.491  23.763  1.00  0.00     0.129 C 
ATOM      9  C   UNL A   1      33.654  22.099  23.735  1.00  0.00     0.127 C 
ATOM     10  C   UNL A   1      32.661  22.343  22.582  1.00  0.00     0.186 C 
ATOM     11  O   UNL A   1      32.126  23.662  22.792  1.00  0.00    -0.378 OA
ATOM     12  C   UNL A   1      33.123  24.428  23.504  1.00  0.00     0.176 C 
BRANCH   9  13
ATOM     13  N   UNL A   1      33.058  21.515  24.971  1.00  0.00    -0.319 N 
BRANCH  13  14
ATOM     14  C   UNL A   1      31.590  21.425  25.099  1.00  0.00     0.118 C 
ATOM     15  C   UNL A   1      30.929  22.521  25.928  1.00  0.00     0.027 C 
ENDBRANCH  13  14
BRANCH  13  16
ATOM     16  C   UNL A   1      33.944  20.791  25.754  1.00  0.00     0.318 C 
ATOM     17  O   UNL A   1      34.421  21.244  26.797  1.00  0.00    -0.249 OA
ATOM     18  N   UNL A   1      34.516  19.663  25.266  1.00  0.00    -0.333 N 
ATOM     19  H   UNL A   1      35.407  19.802  24.870  1.00  0.00     0.165 HD
BRANCH  18  20
ATOM     20  C   UNL A   1      34.046  18.264  25.220  1.00  0.00     0.112 C 
ATOM     21  C   UNL A   1      34.017  17.814  23.769  1.00  0.00     0.056 C 
ATOM     22  C   UNL A   1      32.613  17.934  25.620  1.00  0.00     0.185 C 
ATOM     23  C   UNL A   1      32.639  18.263  23.324  1.00  0.00     0.162 C 
ATOM     24  O   UNL A   1      31.781  18.136  24.467  1.00  0.00    -0.379 OA
ENDBRANCH  18  20
ENDBRANCH  13  16
ENDBRANCH   9  13
ENDBRANCH   5   8
ENDBRANCH   3   4
ENDBRANCH   2   3
ENDBRANCH   1   2
BRANCH   1  25
ATOM     25  C   UNL A   1      39.605  22.514  26.600  1.00  0.00     0.002 C 
BRANCH  25  26
ATOM     26  C   UNL A   1      40.702  22.292  27.646  1.00  0.00     0.021 C 
BRANCH  26  27
ATOM     27  C   UNL A   1      41.972  23.137  27.525  1.00  0.00     0.116 C 
BRANCH  27  28
ATOM     28  N   UNL A   1      42.055  23.916  26.309  1.00  0.00    -0.352 N 
ATOM     29  C   UNL A   1      41.937  25.270  26.097  1.00  0.00     0.251 C 
ATOM     30  H   UNL A   1      42.226  23.388  25.496  1.00  0.00     0.163 HD
ATOM     31  O   UNL A   1      41.979  25.690  24.943  1.00  0.00    -0.269 OA
BRANCH  29  32
ATOM     32  C   UNL A   1      41.725  26.233  27.211  1.00  0.00     0.039 A 
ATOM     33  C   UNL A   1      40.635  26.012  28.062  1.00  0.00     0.014 A 
ATOM     34  C   UNL A   1      42.514  27.373  27.397  1.00  0.00     0.014 A 
ATOM     35  C   UNL A   1      40.374  26.887  29.124  1.00  0.00     0.010 A 
ATOM     36  C   UNL A   1      42.279  28.224  28.489  1.00  0.00     0.010 A 
ATOM     37  C   UNL A   1      41.211  27.987  29.369  1.00  0.00    -0.014 A 
BRANCH  37  38
ATOM     38  C   UNL A   1      40.990  28.851  30.564  1.00  0.00     0.031 A 
ATOM     39  C   UNL A   1      41.835  28.707  31.803  1.00  0.00     0.074 A 
ATOM     40  C   UNL A   1      39.999  29.766  30.545  1.00  0.00     0.049 A 
ATOM     41  N   UNL A   1      41.771  29.381  32.926  1.00  0.00    -0.248 NA
ATOM     42  C   UNL A   1      42.877  27.670  31.785  1.00  0.00     0.031 C 
ATOM     43  C   UNL A   1      39.087  30.000  29.424  1.00  0.00     0.029 A 
ATOM     44  N   UNL A   1      39.591  30.671  31.497  1.00  0.00    -0.354 N 
ATOM     45  C   UNL A   1      42.757  28.849  33.750  1.00  0.00     0.074 A 
ATOM     46  C   UNL A   1      43.381  27.771  33.008  1.00  0.00     0.031 C 
ATOM     47  C   UNL A   1      38.242  30.994  29.742  1.00  0.00     0.029 A 
ATOM     48  C   UNL A   1      38.525  31.446  31.103  1.00  0.00     0.049 A 
ATOM     49  H   UNL A   1      40.023  30.757  32.378  1.00  0.00     0.167 HD
ATOM     50  C   UNL A   1      43.120  29.226  35.001  1.00  0.00     0.031 A 
ATOM     51  C   UNL A   1      37.842  32.407  31.755  1.00  0.00     0.031 A 
ATOM     52  C   UNL A   1      42.505  30.298  35.744  1.00  0.00     0.049 A 
ATOM     53  C   UNL A   1      38.246  32.789  33.153  1.00  0.00     0.074 A 
ATOM     54  C   UNL A   1      42.847  30.781  36.997  1.00  0.00     0.029 A 
ATOM     55  N   UNL A   1      41.422  31.046  35.313  1.00  0.00    -0.354 N 
ATOM     56  N   UNL A   1      39.223  32.314  33.886  1.00  0.00    -0.248 NA
ATOM     57  C   UNL A   1      37.459  33.845  33.807  1.00  0.00     0.031 C 
ATOM     58  C   UNL A   1      41.937  31.785  37.345  1.00  0.00     0.029 A 
ATOM     59  C   UNL A   1      41.063  31.966  36.286  1.00  0.00     0.049 A 
ATOM     60  H   UNL A   1      40.972  30.940  34.442  1.00  0.00     0.167 HD
ATOM     61  C   UNL A   1      39.181  33.028  35.080  1.00  0.00     0.074 A 
ATOM     62  C   UNL A   1      38.094  33.977  34.964  1.00  0.00     0.031 C 
ATOM     63  C   UNL A   1      39.974  32.904  36.172  1.00  0.00     0.031 A 
BRANCH  50  64
ATOM     64  C   UNL A   1      44.237  28.464  35.665  1.00  0.00    -0.014 A 
ATOM     65  C   UNL A   1      45.583  28.811  35.445  1.00  0.00     0.010 A 
ATOM     66  C   UNL A   1      43.938  27.429  36.570  1.00  0.00     0.010 A 
ATOM     67  C   UNL A   1      46.608  28.112  36.090  1.00  0.00     0.020 A 
ATOM     68  C   UNL A   1      44.959  26.744  37.235  1.00  0.00     0.020 A 
ATOM     69  C   UNL A   1      46.290  27.080  36.977  1.00  0.00     0.054 A 
BRANCH  69  70
ATOM     70  S   UNL A   1      47.640  26.203  37.814  1.00  0.00     0.124 S 
ATOM     71  O   UNL A   1      47.501  26.681  39.187  1.00  0.00    -0.237 OA
ATOM     72  O   UNL A   1      47.295  24.801  37.599  1.00  0.00    -0.237 OA
ATOM     73  O   UNL A   1      48.838  26.662  37.114  1.00  0.00    -0.744 OA
ENDBRANCH  69  70
ENDBRANCH  50  64
BRANCH  51  74
ATOM     74  C   UNL A   1      36.692  33.077  31.090  1.00  0.00    -0.014 A 
ATOM     75  C   UNL A   1      35.432  33.122  31.712  1.00  0.00     0.010 A 
ATOM     76  C   UNL A   1      36.856  33.681  29.830  1.00  0.00     0.010 A 
ATOM     77  C   UNL A   1      34.353  33.748  31.079  1.00  0.00     0.020 A 
ATOM     78  C   UNL A   1      35.788  34.330  29.207  1.00  0.00     0.020 A 
ATOM     79  C   UNL A   1      34.538  34.350  29.831  1.00  0.00     0.054 A 
BRANCH  79  80
ATOM     80  S   UNL A   1      33.141  35.205  29.053  1.00  0.00     0.124 S 
ATOM     81  O   UNL A   1      32.243  35.412  30.185  1.00  0.00    -0.237 OA
ATOM     82  O   UNL A   1      33.768  36.409  28.513  1.00  0.00    -0.237 OA
ATOM     83  O   UNL A   1      32.675  34.253  28.047  1.00  0.00    -0.744 OA
ENDBRANCH  79  80
ENDBRANCH  51  74
BRANCH  63  84
ATOM     84  C   UNL A   1      39.711  33.832  37.329  1.00  0.00    -0.014 A 
ATOM     85  C   UNL A   1      39.081  33.374  38.499  1.00  0.00     0.010 A 
ATOM     86  C   UNL A   1      40.140  35.170  37.261  1.00  0.00     0.010 A 
ATOM     87  C   UNL A   1      38.856  34.245  39.570  1.00  0.00     0.020 A 
ATOM     88  C   UNL A   1      39.940  36.038  38.338  1.00  0.00     0.020 A 
ATOM     89  C   UNL A   1      39.285  35.574  39.482  1.00  0.00     0.054 A 
BRANCH  89  90
ATOM     90  S   UNL A   1      39.019  36.675  40.898  1.00  0.00     0.124 S 
ATOM     91  O   UNL A   1      38.585  37.908  40.247  1.00  0.00    -0.237 OA
ATOM     92  O   UNL A   1      37.992  35.973  41.663  1.00  0.00    -0.237 OA
ATOM     93  O   UNL A   1      40.331  36.737  41.540  1.00  0.00    -0.744 OA
ENDBRANCH  89  90
ENDBRANCH  63  84
ENDBRANCH  37  38
ENDBRANCH  29  32
ENDBRANCH  27  28
ENDBRANCH  26  27
ENDBRANCH  25  26
ENDBRANCH   1  25
TORSDOF 20
ENDMDL
MODEL 2
REMARK VINA RESULT:     -10.4      2.041      4.013
REMARK SMILES CCN(C(=O)N[C@@H]1CCOC1)[C@H]1COC[C@H]1C(=O)NCCCCCCNC(=O)c1ccc(-c2c3nc(c(-c4ccc(S(=O)(=O)[O-])cc4)c4ccc([nH]4)c(-c4ccc(S(=O)(=O)[O-])cc4)c4nc(c(-c5ccc(S(=O)(=O)[O-])cc5)c5ccc2[nH]5)C=C4)C=C3)cc1
REMARK SMILES IDX 22 1 21 2 20 3 19 4 17 5 18 6 16 8 12 9 13 10 14 11 15 12
REMARK SMILES IDX 3 13 2 14 1 15 4 16 5 17 6 18 7 20 8 21 11 22 9 23 10 24
REMARK SMILES IDX 23 25 24 26 25 27 26 28 27 29 28 31 29 32 30 33 88 34 31 35
REMARK SMILES IDX 87 36 32 37 33 38 34 39 81 40 35 41 86 42 80 43 82 44 36 45
REMARK SMILES IDX 85 46 79 47 78 48 37 50 67 51 48 52 66 53 49 54 52 55 65 56
REMARK SMILES IDX 83 57 50 58 51 59 64 61 84 62 53 63 38 64 39 65 47 66 40 67
REMARK SMILES IDX 46 68 41 69 42 70 43 71 44 72 45 73 68 74 69 75 77 76 70 77
REMARK SMILES IDX 76 78 71 79 72 80 73 81 74 82 75 83 54 84 55 85 63 86 56 87
REMARK SMILES IDX 62 88 57 89 58 90 59 91 60 92 61 93
REMARK H PARENT 19 7 6 19 26 30 82 49 52 60
REMARK Flexibility Score: inf
ROOT
ATOM      1  C   UNL A   1      35.643  21.804  24.586  1.00  0.00     0.002 C 
ENDROOT
BRANCH   1   2
ATOM      2  C   UNL A   1      34.189  21.337  24.710  1.00  0.00     0.021 C 
BRANCH   2   3
ATOM      3  C   UNL A   1      33.225  21.816  23.621  1.00  0.00     0.116 C 
BRANCH   3   4
ATOM      4  N   UNL A   1      33.613  23.099  23.086  1.00  0.00    -0.356 N 
ATOM      5  C   UNL A   1      33.245  24.364  23.375  1.00  0.00     0.227 C 
ATOM      6  O   UNL A   1      33.806  25.233  22.687  1.00  0.00    -0.275 OA
ATOM      7  H   UNL A   1      34.282  23.039  22.366  1.00  0.00     0.163 HD
BRANCH   5   8
ATOM      8  C   UNL A   1      32.335  24.828  24.502  1.00  0.00     0.129 C 
ATOM      9  C   UNL A   1      32.291  26.182  25.209  1.00  0.00     0.127 C 
ATOM     10  C   UNL A   1      31.154  25.862  26.199  1.00  0.00     0.186 C 
ATOM     11  O   UNL A   1      30.181  25.107  25.455  1.00  0.00    -0.378 OA
ATOM     12  C   UNL A   1      30.882  24.418  24.396  1.00  0.00     0.176 C 
BRANCH   9  13
ATOM     13  N   UNL A   1      32.113  27.438  24.425  1.00  0.00    -0.319 N 
BRANCH  13  14
ATOM     14  C   UNL A   1      30.801  27.737  23.817  1.00  0.00     0.118 C 
ATOM     15  C   UNL A   1      30.690  27.473  22.320  1.00  0.00     0.027 C 
ENDBRANCH  13  14
BRANCH  13  16
ATOM     16  C   UNL A   1      33.104  28.388  24.621  1.00  0.00     0.318 C 
ATOM     17  O   UNL A   1      33.372  29.242  23.774  1.00  0.00    -0.249 OA
ATOM     18  N   UNL A   1      33.987  28.248  25.640  1.00  0.00    -0.333 N 
ATOM     19  H   UNL A   1      34.834  27.816  25.384  1.00  0.00     0.165 HD
BRANCH  18  20
ATOM     20  C   UNL A   1      33.909  28.626  27.066  1.00  0.00     0.112 C 
ATOM     21  C   UNL A   1      32.597  29.356  27.298  1.00  0.00     0.056 C 
ATOM     22  C   UNL A   1      34.880  29.655  27.631  1.00  0.00     0.185 C 
ATOM     23  C   UNL A   1      32.968  30.789  26.967  1.00  0.00     0.162 C 
ATOM     24  O   UNL A   1      34.335  30.958  27.369  1.00  0.00    -0.379 OA
ENDBRANCH  18  20
ENDBRANCH  13  16
ENDBRANCH   9  13
ENDBRANCH   5   8
ENDBRANCH   3   4
ENDBRANCH   2   3
ENDBRANCH   1   2
BRANCH   1  25
ATOM     25  C   UNL A   1      36.248  22.513  25.806  1.00  0.00     0.002 C 
BRANCH  25  26
ATOM     26  C   UNL A   1      37.021  23.813  25.562  1.00  0.00     0.021 C 
BRANCH  26  27
ATOM     27  C   UNL A   1      38.173  24.137  26.515  1.00  0.00     0.116 C 
BRANCH  27  28
ATOM     28  N   UNL A   1      39.424  24.441  25.855  1.00  0.00    -0.352 N 
ATOM     29  C   UNL A   1      40.412  25.344  26.171  1.00  0.00     0.251 C 
ATOM     30  H   UNL A   1      39.598  23.911  25.043  1.00  0.00     0.163 HD
ATOM     31  O   UNL A   1      41.363  25.467  25.402  1.00  0.00    -0.269 OA
BRANCH  29  32
ATOM     32  C   UNL A   1      40.347  26.200  27.386  1.00  0.00     0.039 A 
ATOM     33  C   UNL A   1      41.194  27.315  27.441  1.00  0.00     0.014 A 
ATOM     34  C   UNL A   1      39.542  25.902  28.489  1.00  0.00     0.014 A 
ATOM     35  C   UNL A   1      41.190  28.155  28.561  1.00  0.00     0.010 A 
ATOM     36  C   UNL A   1      39.505  26.770  29.592  1.00  0.00     0.010 A 
ATOM     37  C   UNL A   1      40.323  27.910  29.638  1.00  0.00    -0.014 A 
BRANCH  37  38
ATOM     38  C   UNL A   1      40.246  28.869  30.777  1.00  0.00     0.031 A 
ATOM     39  C   UNL A   1      41.132  28.723  31.987  1.00  0.00     0.074 A 
ATOM     40  C   UNL A   1      39.350  29.877  30.734  1.00  0.00     0.049 A 
ATOM     41  N   UNL A   1      41.189  29.473  33.061  1.00  0.00    -0.248 NA
ATOM     42  C   UNL A   1      42.064  27.587  31.999  1.00  0.00     0.031 C 
ATOM     43  C   UNL A   1      38.413  30.128  29.637  1.00  0.00     0.029 A 
ATOM     44  N   UNL A   1      39.080  30.881  31.635  1.00  0.00    -0.354 N 
ATOM     45  C   UNL A   1      42.157  28.900  33.878  1.00  0.00     0.074 A 
ATOM     46  C   UNL A   1      42.635  27.718  33.190  1.00  0.00     0.031 C 
ATOM     47  C   UNL A   1      37.687  31.221  29.919  1.00  0.00     0.029 A 
ATOM     48  C   UNL A   1      38.078  31.731  31.231  1.00  0.00     0.049 A 
ATOM     49  H   UNL A   1      39.560  30.981  32.489  1.00  0.00     0.167 HD
ATOM     50  C   UNL A   1      42.615  29.321  35.083  1.00  0.00     0.031 A 
ATOM     51  C   UNL A   1      37.525  32.798  31.842  1.00  0.00     0.031 A 
ATOM     52  C   UNL A   1      42.145  30.497  35.773  1.00  0.00     0.049 A 
ATOM     53  C   UNL A   1      38.032  33.230  33.190  1.00  0.00     0.074 A 
ATOM     54  C   UNL A   1      42.593  31.025  36.974  1.00  0.00     0.029 A 
ATOM     55  N   UNL A   1      41.122  31.321  35.336  1.00  0.00    -0.354 N 
ATOM     56  N   UNL A   1      38.992  32.708  33.915  1.00  0.00    -0.248 NA
ATOM     57  C   UNL A   1      37.385  34.401  33.800  1.00  0.00     0.031 C 
ATOM     58  C   UNL A   1      41.804  32.137  37.287  1.00  0.00     0.029 A 
ATOM     59  C   UNL A   1      40.902  32.335  36.255  1.00  0.00     0.049 A 
ATOM     60  H   UNL A   1      40.622  31.204  34.494  1.00  0.00     0.167 HD
ATOM     61  C   UNL A   1      39.078  33.500  35.055  1.00  0.00     0.074 A 
ATOM     62  C   UNL A   1      38.085  34.545  34.917  1.00  0.00     0.031 C 
ATOM     63  C   UNL A   1      39.907  33.369  36.119  1.00  0.00     0.031 A 
BRANCH  50  64
ATOM     64  C   UNL A   1      43.683  28.496  35.753  1.00  0.00    -0.014 A 
ATOM     65  C   UNL A   1      43.346  27.450  36.632  1.00  0.00     0.010 A 
ATOM     66  C   UNL A   1      45.038  28.725  35.452  1.00  0.00     0.010 A 
ATOM     67  C   UNL A   1      44.347  26.675  37.226  1.00  0.00     0.020 A 
ATOM     68  C   UNL A   1      46.040  27.937  36.025  1.00  0.00     0.020 A 
ATOM     69  C   UNL A   1      45.688  26.926  36.922  1.00  0.00     0.054 A 
BRANCH  69  70
ATOM     70  S   UNL A   1      46.965  25.892  37.692  1.00  0.00     0.124 S 
ATOM     71  O   UNL A   1      46.368  24.562  37.601  1.00  0.00    -0.237 OA
ATOM     72  O   UNL A   1      48.124  26.121  36.836  1.00  0.00    -0.237 OA
ATOM     73  O   UNL A   1      47.077  26.431  39.047  1.00  0.00    -0.744 OA
ENDBRANCH  69  70
ENDBRANCH  50  64
BRANCH  51  74
ATOM     74  C   UNL A   1      36.416  33.537  31.179  1.00  0.00    -0.014 A 
ATOM     75  C   UNL A   1      36.527  33.943  29.838  1.00  0.00     0.010 A 
ATOM     76  C   UNL A   1      35.237  33.832  31.889  1.00  0.00     0.010 A 
ATOM     77  C   UNL A   1      35.485  34.642  29.222  1.00  0.00     0.020 A 
ATOM     78  C   UNL A   1      34.184  34.507  31.268  1.00  0.00     0.020 A 
ATOM     79  C   UNL A   1      34.319  34.919  29.941  1.00  0.00     0.054 A 
BRANCH  79  80
ATOM     80  S   UNL A   1      32.956  35.778  29.107  1.00  0.00     0.124 S 
ATOM     81  O   UNL A   1      32.392  34.717  28.277  1.00  0.00    -0.237 OA
ATOM     82  O   UNL A   1      32.126  36.216  30.227  1.00  0.00    -0.237 OA
ATOM     83  O   UNL A   1      33.624  36.855  28.381  1.00  0.00    -0.744 OA
ENDBRANCH  79  80
ENDBRANCH  51  74
BRANCH  63  84
ATOM     84  C   UNL A   1      39.793  34.394  37.217  1.00  0.00    -0.014 A 
ATOM     85  C   UNL A   1      39.058  34.129  38.386  1.00  0.00     0.010 A 
ATOM     86  C   UNL A   1      40.468  35.623  37.098  1.00  0.00     0.010 A 
ATOM     87  C   UNL A   1      38.973  35.086  39.402  1.00  0.00     0.020 A 
ATOM     88  C   UNL A   1      40.407  36.572  38.121  1.00  0.00     0.020 A 
ATOM     89  C   UNL A   1      39.646  36.304  39.262  1.00  0.00     0.054 A 
BRANCH  89  90
ATOM     90  S   UNL A   1      39.555  37.514  40.609  1.00  0.00     0.124 S 
ATOM     91  O   UNL A   1      38.758  38.581  40.008  1.00  0.00    -0.237 OA
ATOM     92  O   UNL A   1      38.896  36.762  41.674  1.00  0.00    -0.237 OA
ATOM     93  O   UNL A   1      40.954  37.852  40.868  1.00  0.00    -0.744 OA
ENDBRANCH  89  90
ENDBRANCH  63  84
ENDBRANCH  37  38
ENDBRANCH  29  32
ENDBRANCH  27  28
ENDBRANCH  26  27
ENDBRANCH  25  26
ENDBRANCH   1  25
TORSDOF 20
ENDMDL
MODEL 3
REMARK VINA RESULT:     -10.2      2.834      4.483
REMARK SMILES CCN(C(=O)N[C@@H]1CCOC1)[C@H]1COC[C@H]1C(=O)NCCCCCCNC(=O)c1ccc(-c2c3nc(c(-c4ccc(S(=O)(=O)[O-])cc4)c4ccc([nH]4)c(-c4ccc(S(=O)(=O)[O-])cc4)c4nc(c(-c5ccc(S(=O)(=O)[O-])cc5)c5ccc2[nH]5)C=C4)C=C3)cc1
REMARK SMILES IDX 22 1 21 2 20 3 19 4 17 5 18 6 16 8 12 9 13 10 14 11 15 12
REMARK SMILES IDX 3 13 2 14 1 15 4 16 5 17 6 18 7 20 8 21 11 22 9 23 10 24
REMARK SMILES IDX 23 25 24 26 25 27 26 28 27 29 28 31 29 32 30 33 88 34 31 35
REMARK SMILES IDX 87 36 32 37 33 38 34 39 81 40 35 41 86 42 80 43 82 44 36 45
REMARK SMILES IDX 85 46 79 47 78 48 37 50 67 51 48 52 66 53 49 54 52 55 65 56
REMARK SMILES IDX 83 57 50 58 51 59 64 61 84 62 53 63 38 64 39 65 47 66 40 67
REMARK SMILES IDX 46 68 41 69 42 70 43 71 44 72 45 73 68 74 69 75 77 76 70 77
REMARK SMILES IDX 76 78 71 79 72 80 73 81 74 82 75 83 54 84 55 85 63 86 56 87
REMARK SMILES IDX 62 88 57 89 58 90 59 91 60 92 61 93
REMARK H PARENT 19 7 6 19 26 30 82 49 52 60
REMARK Flexibility Score: inf
ROOT
ATOM      1  C   UNL A   1      35.050  22.295  25.291  1.00  0.00     0.002 C 
ENDROOT
BRANCH   1   2
ATOM      2  C   UNL A   1      34.802  22.585  23.807  1.00  0.00     0.021 C 
BRANCH   2   3
ATOM      3  C   UNL A   1      33.698  23.596  23.486  1.00  0.00     0.116 C 
BRANCH   3   4
ATOM      4  N   UNL A   1      34.063  24.935  23.882  1.00  0.00    -0.356 N 
ATOM      5  C   UNL A   1      33.352  26.068  24.056  1.00  0.00     0.227 C 
ATOM      6  O   UNL A   1      34.027  27.050  24.410  1.00  0.00    -0.275 OA
ATOM      7  H   UNL A   1      35.026  25.043  24.062  1.00  0.00     0.163 HD
BRANCH   5   8
ATOM      8  C   UNL A   1      31.842  26.232  23.986  1.00  0.00     0.129 C 
ATOM      9  C   UNL A   1      30.922  27.078  24.865  1.00  0.00     0.127 C 
ATOM     10  C   UNL A   1      29.589  26.707  24.188  1.00  0.00     0.186 C 
ATOM     11  O   UNL A   1      29.854  26.686  22.774  1.00  0.00    -0.378 OA
ATOM     12  C   UNL A   1      31.251  26.362  22.598  1.00  0.00     0.176 C 
BRANCH   9  13
ATOM     13  N   UNL A   1      31.166  28.541  25.024  1.00  0.00    -0.319 N 
BRANCH  13  14
ATOM     14  C   UNL A   1      31.837  29.039  26.241  1.00  0.00     0.118 C 
ATOM     15  C   UNL A   1      32.998  30.000  26.011  1.00  0.00     0.027 C 
ENDBRANCH  13  14
BRANCH  13  16
ATOM     16  C   UNL A   1      31.048  29.278  23.855  1.00  0.00     0.318 C 
ATOM     17  O   UNL A   1      31.932  29.294  22.996  1.00  0.00    -0.249 OA
ATOM     18  N   UNL A   1      30.071  30.210  23.735  1.00  0.00    -0.333 N 
ATOM     19  H   UNL A   1      30.357  31.125  23.959  1.00  0.00     0.165 HD
BRANCH  18  20
ATOM     20  C   UNL A   1      28.654  30.101  23.330  1.00  0.00     0.112 C 
ATOM     21  C   UNL A   1      28.589  30.088  21.812  1.00  0.00     0.056 C 
ATOM     22  C   UNL A   1      27.694  31.248  23.619  1.00  0.00     0.185 C 
ATOM     23  C   UNL A   1      28.541  31.567  21.483  1.00  0.00     0.162 C 
ATOM     24  O   UNL A   1      27.814  32.197  22.548  1.00  0.00    -0.379 OA
ENDBRANCH  18  20
ENDBRANCH  13  16
ENDBRANCH   9  13
ENDBRANCH   5   8
ENDBRANCH   3   4
ENDBRANCH   2   3
ENDBRANCH   1   2
BRANCH   1  25
ATOM     25  C   UNL A   1      36.004  23.244  26.031  1.00  0.00     0.002 C 
BRANCH  25  26
ATOM     26  C   UNL A   1      37.499  23.138  25.714  1.00  0.00     0.021 C 
BRANCH  26  27
ATOM     27  C   UNL A   1      38.427  24.180  26.340  1.00  0.00     0.116 C 
BRANCH  27  28
ATOM     28  N   UNL A   1      39.833  23.960  26.080  1.00  0.00    -0.352 N 
ATOM     29  C   UNL A   1      40.950  24.582  26.586  1.00  0.00     0.251 C 
ATOM     30  H   UNL A   1      40.022  23.243  25.431  1.00  0.00     0.163 HD
ATOM     31  O   UNL A   1      42.052  24.256  26.149  1.00  0.00    -0.269 OA
BRANCH  29  32
ATOM     32  C   UNL A   1      40.866  25.655  27.612  1.00  0.00     0.039 A 
ATOM     33  C   UNL A   1      39.758  25.651  28.468  1.00  0.00     0.014 A 
ATOM     34  C   UNL A   1      41.797  26.695  27.708  1.00  0.00     0.014 A 
ATOM     35  C   UNL A   1      39.614  26.639  29.449  1.00  0.00     0.010 A 
ATOM     36  C   UNL A   1      41.676  27.660  28.722  1.00  0.00     0.010 A 
ATOM     37  C   UNL A   1      40.587  27.639  29.608  1.00  0.00    -0.014 A 
BRANCH  37  38
ATOM     38  C   UNL A   1      40.482  28.622  30.724  1.00  0.00     0.031 A 
ATOM     39  C   UNL A   1      41.356  28.519  31.947  1.00  0.00     0.074 A 
ATOM     40  C   UNL A   1      39.570  29.613  30.649  1.00  0.00     0.049 A 
ATOM     41  N   UNL A   1      41.389  29.294  33.004  1.00  0.00    -0.248 NA
ATOM     42  C   UNL A   1      42.307  27.399  31.995  1.00  0.00     0.031 C 
ATOM     43  C   UNL A   1      38.641  29.823  29.537  1.00  0.00     0.029 A 
ATOM     44  N   UNL A   1      39.273  30.632  31.523  1.00  0.00    -0.354 N 
ATOM     45  C   UNL A   1      42.357  28.756  33.845  1.00  0.00     0.074 A 
ATOM     46  C   UNL A   1      42.862  27.567  33.189  1.00  0.00     0.031 C 
ATOM     47  C   UNL A   1      37.893  30.910  29.786  1.00  0.00     0.029 A 
ATOM     48  C   UNL A   1      38.261  31.456  31.089  1.00  0.00     0.049 A 
ATOM     49  H   UNL A   1      39.742  30.760  32.380  1.00  0.00     0.167 HD
ATOM     50  C   UNL A   1      42.795  29.212  35.044  1.00  0.00     0.031 A 
ATOM     51  C   UNL A   1      37.683  32.527  31.669  1.00  0.00     0.031 A 
ATOM     52  C   UNL A   1      42.298  30.395  35.702  1.00  0.00     0.049 A 
ATOM     53  C   UNL A   1      38.168  32.998  33.013  1.00  0.00     0.074 A 
ATOM     54  C   UNL A   1      42.723  30.958  36.895  1.00  0.00     0.029 A 
ATOM     55  N   UNL A   1      41.265  31.192  35.234  1.00  0.00    -0.354 N 
ATOM     56  N   UNL A   1      39.129  32.509  33.759  1.00  0.00    -0.248 NA
ATOM     57  C   UNL A   1      37.495  34.172  33.589  1.00  0.00     0.031 C 
ATOM     58  C   UNL A   1      41.913  32.064  37.174  1.00  0.00     0.029 A 
ATOM     59  C   UNL A   1      41.019  32.222  36.128  1.00  0.00     0.049 A 
ATOM     60  H   UNL A   1      40.777  31.047  34.391  1.00  0.00     0.167 HD
ATOM     61  C   UNL A   1      39.189  33.328  34.882  1.00  0.00     0.074 A 
ATOM     62  C   UNL A   1      38.180  34.353  34.710  1.00  0.00     0.031 C 
ATOM     63  C   UNL A   1      40.008  33.236  35.958  1.00  0.00     0.031 A 
BRANCH  50  64
ATOM     64  C   UNL A   1      43.869  28.420  35.745  1.00  0.00    -0.014 A 
ATOM     65  C   UNL A   1      45.230  28.729  35.566  1.00  0.00     0.010 A 
ATOM     66  C   UNL A   1      43.512  27.397  36.642  1.00  0.00     0.010 A 
ATOM     67  C   UNL A   1      46.214  28.002  36.244  1.00  0.00     0.020 A 
ATOM     68  C   UNL A   1      44.491  26.684  37.339  1.00  0.00     0.020 A 
ATOM     69  C   UNL A   1      45.839  26.981  37.122  1.00  0.00     0.054 A 
BRANCH  69  70
ATOM     70  S   UNL A   1      47.136  26.068  38.002  1.00  0.00     0.124 S 
ATOM     71  O   UNL A   1      48.327  26.850  37.676  1.00  0.00    -0.237 OA
ATOM     72  O   UNL A   1      46.697  26.144  39.392  1.00  0.00    -0.237 OA
ATOM     73  O   UNL A   1      47.087  24.734  37.407  1.00  0.00    -0.744 OA
ENDBRANCH  69  70
ENDBRANCH  50  64
BRANCH  51  74
ATOM     74  C   UNL A   1      36.570  33.231  30.978  1.00  0.00    -0.014 A 
ATOM     75  C   UNL A   1      35.264  33.188  31.496  1.00  0.00     0.010 A 
ATOM     76  C   UNL A   1      36.814  33.956  29.797  1.00  0.00     0.010 A 
ATOM     77  C   UNL A   1      34.220  33.845  30.838  1.00  0.00     0.020 A 
ATOM     78  C   UNL A   1      35.779  34.636  29.152  1.00  0.00     0.020 A 
ATOM     79  C   UNL A   1      34.484  34.567  29.671  1.00  0.00     0.054 A 
BRANCH  79  80
ATOM     80  S   UNL A   1      33.127  35.460  28.864  1.00  0.00     0.124 S 
ATOM     81  O   UNL A   1      33.847  36.434  28.049  1.00  0.00    -0.237 OA
ATOM     82  O   UNL A   1      32.443  34.399  28.128  1.00  0.00    -0.237 OA
ATOM     83  O   UNL A   1      32.371  36.015  29.983  1.00  0.00    -0.744 OA
ENDBRANCH  79  80
ENDBRANCH  51  74
BRANCH  63  84
ATOM     84  C   UNL A   1      39.865  34.283  37.031  1.00  0.00    -0.014 A 
ATOM     85  C   UNL A   1      40.422  35.565  36.875  1.00  0.00     0.010 A 
ATOM     86  C   UNL A   1      39.125  33.995  38.193  1.00  0.00     0.010 A 
ATOM     87  C   UNL A   1      40.268  36.530  37.875  1.00  0.00     0.020 A 
ATOM     88  C   UNL A   1      38.948  34.965  39.184  1.00  0.00     0.020 A 
ATOM     89  C   UNL A   1      39.534  36.223  39.026  1.00  0.00     0.054 A 
BRANCH  89  90
ATOM     90  S   UNL A   1      39.315  37.503  40.291  1.00  0.00     0.124 S 
ATOM     91  O   UNL A   1      40.691  37.924  40.541  1.00  0.00    -0.237 OA
ATOM     92  O   UNL A   1      38.471  38.485  39.614  1.00  0.00    -0.237 OA
ATOM     93  O   UNL A   1      38.670  36.794  41.394  1.00  0.00    -0.744 OA
ENDBRANCH  89  90
ENDBRANCH  63  84
ENDBRANCH  37  38
ENDBRANCH  29  32
ENDBRANCH  27  28
ENDBRANCH  26  27
ENDBRANCH  25  26
ENDBRANCH   1  25
TORSDOF 20
ENDMDL
