MODEL 1
REMARK VINA RESULT:     -12.4      0.000      0.000
REMARK SMILES CC(C)Cc1ccc(-c2cc(Cl)cc3c2O[C@H](C(F)(F)F)C(C(=O)NCCCCCCNC(=O)c2ccc(-c4c5nc(c(-c6ccc(S(=O)(=O)[O-])cc6)c6ccc([nH]6)c(-c6ccc(S(=O)(=O)[O-])cc6)c6nc(c(-c7ccc(S(=O)(=O)[O-])cc7)c7ccc4[nH]7)C=C6)C=C5)cc2)=C3)cc1
REMARK SMILES IDX 28 1 27 2 26 3 25 4 23 5 24 6 22 8 9 9 10 10 15 11 11 12
REMARK SMILES IDX 14 13 16 14 12 15 13 16 95 17 17 18 8 19 5 20 6 21 97 22
REMARK SMILES IDX 7 23 96 24 4 25 2 26 1 27 3 28 18 29 19 30 20 31 21 32 29 33
REMARK SMILES IDX 30 34 31 35 32 36 33 37 34 39 35 40 36 41 94 42 37 43 93 44
REMARK SMILES IDX 38 45 39 46 40 47 87 48 41 49 92 50 86 51 88 52 42 53 91 54
REMARK SMILES IDX 85 55 84 56 43 58 73 59 54 60 72 61 55 62 58 63 71 64 89 65
REMARK SMILES IDX 56 66 57 67 70 69 90 70 59 71 44 72 45 73 53 74 46 75 52 76
REMARK SMILES IDX 47 77 48 78 49 79 50 80 51 81 74 82 75 83 83 84 76 85 82 86
REMARK SMILES IDX 77 87 78 88 79 89 80 90 81 91 60 92 61 93 69 94 62 95 68 96
REMARK SMILES IDX 63 97 64 98 65 99 66 100 67 101
REMARK H PARENT 25 7 32 38 88 57 58 68
REMARK Flexibility Score: inf
ROOT
ATOM      1  C   UNL A   1      37.430  22.359  24.707  1.00  0.00     0.002 C 
ENDROOT
BRANCH   1   2
ATOM      2  C   UNL A   1      36.095  21.626  24.921  1.00  0.00     0.021 C 
BRANCH   2   3
ATOM      3  C   UNL A   1      35.400  21.934  26.254  1.00  0.00     0.116 C 
BRANCH   3   4
ATOM      4  N   UNL A   1      34.984  23.322  26.281  1.00  0.00    -0.352 N 
ATOM      5  C   UNL A   1      34.331  23.953  25.273  1.00  0.00     0.251 C 
ATOM      6  O   UNL A   1      34.742  25.024  24.844  1.00  0.00    -0.270 OA
ATOM      7  H   UNL A   1      35.190  23.846  27.088  1.00  0.00     0.163 HD
BRANCH   5   8
ATOM      8  C   UNL A   1      33.024  23.359  24.866  1.00  0.00     0.067 C 
ATOM      9  C   UNL A   1      30.947  26.806  24.346  1.00  0.00     0.026 A 
ATOM     10  C   UNL A   1      31.256  27.621  25.471  1.00  0.00     0.033 A 
ATOM     11  C   UNL A   1      31.311  25.450  24.450  1.00  0.00     0.135 A 
ATOM     12  C   UNL A   1      31.730  27.107  26.674  1.00  0.00     0.042 A 
ATOM     13  C   UNL A   1      31.667  24.930  25.723  1.00  0.00     0.019 A 
ATOM     14  O   UNL A   1      31.415  24.593  23.359  1.00  0.00    -0.475 OA
ATOM     15  Cl  UNL A   1      32.126  28.174  27.961  1.00  0.00    -0.084 Cl
ATOM     16  C   UNL A   1      31.863  25.744  26.834  1.00  0.00     0.032 A 
ATOM     17  C   UNL A   1      32.067  23.509  25.803  1.00  0.00     0.025 C 
ATOM     18  C   UNL A   1      32.589  23.663  23.442  1.00  0.00     0.314 C 
BRANCH   9  19
ATOM     19  C   UNL A   1      30.109  27.482  23.312  1.00  0.00    -0.015 A 
ATOM     20  C   UNL A   1      28.573  29.618  22.147  1.00  0.00    -0.048 A 
ATOM     21  C   UNL A   1      29.950  29.520  21.942  1.00  0.00     0.004 A 
ATOM     22  C   UNL A   1      27.962  28.584  22.879  1.00  0.00     0.004 A 
ATOM     23  C   UNL A   1      30.690  28.445  22.461  1.00  0.00     0.009 A 
ATOM     24  C   UNL A   1      28.714  27.534  23.451  1.00  0.00     0.009 A 
BRANCH  20  25
ATOM     25  C   UNL A   1      27.741  30.812  21.705  1.00  0.00     0.038 C 
BRANCH  25  26
ATOM     26  C   UNL A   1      28.451  32.150  21.368  1.00  0.00    -0.013 C 
ATOM     27  C   UNL A   1      27.640  33.036  20.419  1.00  0.00     0.008 C 
ATOM     28  C   UNL A   1      28.723  32.950  22.652  1.00  0.00     0.008 C 
ENDBRANCH  25  26
ENDBRANCH  20  25
ENDBRANCH   9  19
BRANCH  18  29
ATOM     29  C   UNL A   1      32.327  22.310  22.739  1.00  0.00     0.429 C 
ATOM     30  F   UNL A   1      31.011  22.015  22.650  1.00  0.00    -0.167 F 
ATOM     31  F   UNL A   1      32.838  22.300  21.485  1.00  0.00    -0.167 F 
ATOM     32  F   UNL A   1      32.910  21.267  23.389  1.00  0.00    -0.167 F 
ENDBRANCH  18  29
ENDBRANCH   5   8
ENDBRANCH   3   4
ENDBRANCH   2   3
ENDBRANCH   1   2
BRANCH   1  33
ATOM     33  C   UNL A   1      38.528  22.000  25.711  1.00  0.00     0.002 C 
BRANCH  33  34
ATOM     34  C   UNL A   1      38.693  23.003  26.853  1.00  0.00     0.021 C 
BRANCH  34  35
ATOM     35  C   UNL A   1      38.798  24.457  26.407  1.00  0.00     0.116 C 
BRANCH  35  36
ATOM     36  N   UNL A   1      40.063  24.743  25.749  1.00  0.00    -0.352 N 
ATOM     37  C   UNL A   1      40.937  25.776  25.976  1.00  0.00     0.251 C 
ATOM     38  H   UNL A   1      40.329  24.109  25.045  1.00  0.00     0.163 HD
ATOM     39  O   UNL A   1      41.877  25.967  25.206  1.00  0.00    -0.269 OA
BRANCH  37  40
ATOM     40  C   UNL A   1      40.729  26.669  27.134  1.00  0.00     0.039 A 
ATOM     41  C   UNL A   1      40.013  26.193  28.233  1.00  0.00     0.014 A 
ATOM     42  C   UNL A   1      41.248  27.968  27.140  1.00  0.00     0.014 A 
ATOM     43  C   UNL A   1      39.862  27.001  29.360  1.00  0.00     0.010 A 
ATOM     44  C   UNL A   1      41.166  28.741  28.294  1.00  0.00     0.010 A 
ATOM     45  C   UNL A   1      40.464  28.271  29.413  1.00  0.00    -0.014 A 
BRANCH  45  46
ATOM     46  C   UNL A   1      40.365  29.111  30.634  1.00  0.00     0.031 A 
ATOM     47  C   UNL A   1      39.325  30.195  30.732  1.00  0.00     0.074 A 
ATOM     48  C   UNL A   1      41.243  28.924  31.641  1.00  0.00     0.049 A 
ATOM     49  N   UNL A   1      39.093  31.026  31.714  1.00  0.00    -0.248 NA
ATOM     50  C   UNL A   1      38.447  30.384  29.565  1.00  0.00     0.031 C 
ATOM     51  C   UNL A   1      42.329  27.939  31.646  1.00  0.00     0.029 A 
ATOM     52  N   UNL A   1      41.361  29.552  32.855  1.00  0.00    -0.354 N 
ATOM     53  C   UNL A   1      38.055  31.845  31.281  1.00  0.00     0.074 A 
ATOM     54  C   UNL A   1      37.740  31.445  29.927  1.00  0.00     0.031 C 
ATOM     55  C   UNL A   1      42.977  28.006  32.819  1.00  0.00     0.029 A 
ATOM     56  C   UNL A   1      42.383  29.062  33.633  1.00  0.00     0.049 A 
ATOM     57  H   UNL A   1      40.769  30.284  33.142  1.00  0.00     0.167 HD
ATOM     58  C   UNL A   1      37.407  32.824  31.956  1.00  0.00     0.031 A 
ATOM     59  C   UNL A   1      42.799  29.422  34.863  1.00  0.00     0.031 A 
ATOM     60  C   UNL A   1      37.723  33.215  33.306  1.00  0.00     0.049 A 
ATOM     61  C   UNL A   1      42.068  30.516  35.591  1.00  0.00     0.074 A 
ATOM     62  C   UNL A   1      37.088  34.156  34.099  1.00  0.00     0.029 A 
ATOM     63  N   UNL A   1      38.763  32.692  34.060  1.00  0.00    -0.354 N 
ATOM     64  N   UNL A   1      41.038  31.225  35.193  1.00  0.00    -0.248 NA
ATOM     65  C   UNL A   1      42.545  30.846  36.940  1.00  0.00     0.031 C 
ATOM     66  C   UNL A   1      37.784  34.247  35.308  1.00  0.00     0.029 A 
ATOM     67  C   UNL A   1      38.807  33.312  35.299  1.00  0.00     0.049 A 
ATOM     68  H   UNL A   1      39.378  31.985  33.760  1.00  0.00     0.167 HD
ATOM     69  C   UNL A   1      40.727  32.068  36.255  1.00  0.00     0.074 A 
ATOM     70  C   UNL A   1      41.665  31.763  37.317  1.00  0.00     0.031 C 
ATOM     71  C   UNL A   1      39.753  33.008  36.343  1.00  0.00     0.031 A 
BRANCH  58  72
ATOM     72  C   UNL A   1      36.298  33.551  31.239  1.00  0.00    -0.014 A 
ATOM     73  C   UNL A   1      35.120  33.931  31.909  1.00  0.00     0.010 A 
ATOM     74  C   UNL A   1      36.450  33.893  29.883  1.00  0.00     0.010 A 
ATOM     75  C   UNL A   1      34.100  34.600  31.227  1.00  0.00     0.020 A 
ATOM     76  C   UNL A   1      35.446  34.591  29.205  1.00  0.00     0.020 A 
ATOM     77  C   UNL A   1      34.269  34.924  29.878  1.00  0.00     0.054 A 
BRANCH  77  78
ATOM     78  S   UNL A   1      32.937  35.811  29.024  1.00  0.00     0.124 S 
ATOM     79  O   UNL A   1      32.367  34.761  28.182  1.00  0.00    -0.237 OA
ATOM     80  O   UNL A   1      32.092  36.256  30.128  1.00  0.00    -0.237 OA
ATOM     81  O   UNL A   1      33.633  36.876  28.305  1.00  0.00    -0.744 OA
ENDBRANCH  77  78
ENDBRANCH  58  72
BRANCH  59  82
ATOM     82  C   UNL A   1      43.959  28.726  35.487  1.00  0.00    -0.014 A 
ATOM     83  C   UNL A   1      43.766  27.588  36.291  1.00  0.00     0.010 A 
ATOM     84  C   UNL A   1      45.269  29.191  35.266  1.00  0.00     0.010 A 
ATOM     85  C   UNL A   1      44.857  26.940  36.877  1.00  0.00     0.020 A 
ATOM     86  C   UNL A   1      46.365  28.527  35.824  1.00  0.00     0.020 A 
ATOM     87  C   UNL A   1      46.152  27.412  36.636  1.00  0.00     0.054 A 
BRANCH  87  88
ATOM     88  S   UNL A   1      47.556  26.523  37.361  1.00  0.00     0.124 S 
ATOM     89  O   UNL A   1      47.987  25.677  36.251  1.00  0.00    -0.237 OA
ATOM     90  O   UNL A   1      48.465  27.609  37.719  1.00  0.00    -0.237 OA
ATOM     91  O   UNL A   1      46.965  25.816  38.495  1.00  0.00    -0.744 OA
ENDBRANCH  87  88
ENDBRANCH  59  82
BRANCH  71  92
ATOM     92  C   UNL A   1      39.629  33.754  37.646  1.00  0.00    -0.014 A 
ATOM     93  C   UNL A   1      40.302  34.971  37.862  1.00  0.00     0.010 A 
ATOM     94  C   UNL A   1      38.801  33.242  38.661  1.00  0.00     0.010 A 
ATOM     95  C   UNL A   1      40.185  35.636  39.084  1.00  0.00     0.020 A 
ATOM     96  C   UNL A   1      38.654  33.921  39.874  1.00  0.00     0.020 A 
ATOM     97  C   UNL A   1      39.363  35.105  40.084  1.00  0.00     0.054 A 
BRANCH  97  98
ATOM     98  S   UNL A   1      39.213  35.997  41.656  1.00  0.00     0.124 S 
ATOM     99  O   UNL A   1      40.362  35.494  42.402  1.00  0.00    -0.237 OA
ATOM    100  O   UNL A   1      39.295  37.395  41.239  1.00  0.00    -0.237 OA
ATOM    101  O   UNL A   1      37.909  35.582  42.167  1.00  0.00    -0.744 OA
ENDBRANCH  97  98
ENDBRANCH  71  92
ENDBRANCH  45  46
ENDBRANCH  37  40
ENDBRANCH  35  36
ENDBRANCH  34  35
ENDBRANCH  33  34
ENDBRANCH   1  33
TORSDOF 20
ENDMDL
MODEL 2
REMARK VINA RESULT:     -12.0      0.850      7.793
REMARK SMILES CC(C)Cc1ccc(-c2cc(Cl)cc3c2O[C@H](C(F)(F)F)C(C(=O)NCCCCCCNC(=O)c2ccc(-c4c5nc(c(-c6ccc(S(=O)(=O)[O-])cc6)c6ccc([nH]6)c(-c6ccc(S(=O)(=O)[O-])cc6)c6nc(c(-c7ccc(S(=O)(=O)[O-])cc7)c7ccc4[nH]7)C=C6)C=C5)cc2)=C3)cc1
REMARK SMILES IDX 28 1 27 2 26 3 25 4 23 5 24 6 22 8 9 9 10 10 15 11 11 12
REMARK SMILES IDX 14 13 16 14 12 15 13 16 95 17 17 18 8 19 5 20 6 21 97 22
REMARK SMILES IDX 7 23 96 24 4 25 2 26 1 27 3 28 18 29 19 30 20 31 21 32 29 33
REMARK SMILES IDX 30 34 31 35 32 36 33 37 34 39 35 40 36 41 94 42 37 43 93 44
REMARK SMILES IDX 38 45 39 46 40 47 87 48 41 49 92 50 86 51 88 52 42 53 91 54
REMARK SMILES IDX 85 55 84 56 43 58 73 59 54 60 72 61 55 62 58 63 71 64 89 65
REMARK SMILES IDX 56 66 57 67 70 69 90 70 59 71 44 72 45 73 53 74 46 75 52 76
REMARK SMILES IDX 47 77 48 78 49 79 50 80 51 81 74 82 75 83 83 84 76 85 82 86
REMARK SMILES IDX 77 87 78 88 79 89 80 90 81 91 60 92 61 93 69 94 62 95 68 96
REMARK SMILES IDX 63 97 64 98 65 99 66 100 67 101
REMARK H PARENT 25 7 32 38 88 57 58 68
REMARK Flexibility Score: inf
ROOT
ATOM      1  C   UNL A   1      37.240  22.179  24.548  1.00  0.00     0.002 C 
ENDROOT
BRANCH   1   2
ATOM      2  C   UNL A   1      35.924  21.500  24.966  1.00  0.00     0.021 C 
BRANCH   2   3
ATOM      3  C   UNL A   1      35.360  21.968  26.315  1.00  0.00     0.116 C 
BRANCH   3   4
ATOM      4  N   UNL A   1      34.984  23.365  26.230  1.00  0.00    -0.352 N 
ATOM      5  C   UNL A   1      34.383  23.941  25.159  1.00  0.00     0.251 C 
ATOM      6  O   UNL A   1      34.839  24.967  24.671  1.00  0.00    -0.270 OA
ATOM      7  H   UNL A   1      35.181  23.939  27.005  1.00  0.00     0.163 HD
BRANCH   5   8
ATOM      8  C   UNL A   1      33.072  23.356  24.751  1.00  0.00     0.067 C 
ATOM      9  C   UNL A   1      30.998  26.815  24.298  1.00  0.00     0.026 A 
ATOM     10  C   UNL A   1      31.317  27.611  25.433  1.00  0.00     0.033 A 
ATOM     11  C   UNL A   1      31.360  25.457  24.379  1.00  0.00     0.135 A 
ATOM     12  C   UNL A   1      31.797  27.077  26.626  1.00  0.00     0.042 A 
ATOM     13  C   UNL A   1      31.724  24.916  25.641  1.00  0.00     0.019 A 
ATOM     14  O   UNL A   1      31.457  24.617  23.273  1.00  0.00    -0.475 OA
ATOM     15  Cl  UNL A   1      32.203  28.123  27.926  1.00  0.00    -0.084 Cl
ATOM     16  C   UNL A   1      31.928  25.712  26.764  1.00  0.00     0.032 A 
ATOM     17  C   UNL A   1      32.121  23.493  25.696  1.00  0.00     0.025 C 
ATOM     18  C   UNL A   1      32.629  23.683  23.335  1.00  0.00     0.314 C 
BRANCH   9  19
ATOM     19  C   UNL A   1      30.155  27.508  23.280  1.00  0.00    -0.015 A 
ATOM     20  C   UNL A   1      28.595  29.654  22.170  1.00  0.00    -0.048 A 
ATOM     21  C   UNL A   1      29.973  29.582  21.969  1.00  0.00     0.004 A 
ATOM     22  C   UNL A   1      27.995  28.592  22.869  1.00  0.00     0.004 A 
ATOM     23  C   UNL A   1      30.726  28.503  22.460  1.00  0.00     0.009 A 
ATOM     24  C   UNL A   1      28.759  27.536  23.414  1.00  0.00     0.009 A 
BRANCH  20  25
ATOM     25  C   UNL A   1      27.748  30.850  21.758  1.00  0.00     0.038 C 
BRANCH  25  26
ATOM     26  C   UNL A   1      28.440  32.205  21.461  1.00  0.00    -0.013 C 
ATOM     27  C   UNL A   1      27.647  33.082  20.488  1.00  0.00     0.008 C 
ATOM     28  C   UNL A   1      28.644  32.999  22.761  1.00  0.00     0.008 C 
ENDBRANCH  25  26
ENDBRANCH  20  25
ENDBRANCH   9  19
BRANCH  18  29
ATOM     29  C   UNL A   1      32.360  22.341  22.612  1.00  0.00     0.429 C 
ATOM     30  F   UNL A   1      32.909  21.286  23.253  1.00  0.00    -0.167 F 
ATOM     31  F   UNL A   1      31.032  22.106  22.490  1.00  0.00    -0.167 F 
ATOM     32  F   UNL A   1      32.861  22.325  21.348  1.00  0.00    -0.167 F 
ENDBRANCH  18  29
ENDBRANCH   5   8
ENDBRANCH   3   4
ENDBRANCH   2   3
ENDBRANCH   1   2
BRANCH   1  33
ATOM     33  C   UNL A   1      38.429  21.895  25.468  1.00  0.00     0.002 C 
BRANCH  33  34
ATOM     34  C   UNL A   1      38.650  22.944  26.558  1.00  0.00     0.021 C 
BRANCH  34  35
ATOM     35  C   UNL A   1      39.368  24.204  26.087  1.00  0.00     0.116 C 
BRANCH  35  36
ATOM     36  N   UNL A   1      40.797  23.993  25.917  1.00  0.00    -0.352 N 
ATOM     37  C   UNL A   1      41.842  24.696  26.460  1.00  0.00     0.251 C 
ATOM     38  H   UNL A   1      41.050  23.244  25.330  1.00  0.00     0.163 HD
ATOM     39  O   UNL A   1      42.990  24.494  26.069  1.00  0.00    -0.269 OA
BRANCH  37  40
ATOM     40  C   UNL A   1      41.577  25.713  27.499  1.00  0.00     0.039 A 
ATOM     41  C   UNL A   1      40.540  25.495  28.408  1.00  0.00     0.014 A 
ATOM     42  C   UNL A   1      42.356  26.871  27.585  1.00  0.00     0.014 A 
ATOM     43  C   UNL A   1      40.318  26.414  29.433  1.00  0.00     0.010 A 
ATOM     44  C   UNL A   1      42.186  27.744  28.654  1.00  0.00     0.010 A 
ATOM     45  C   UNL A   1      41.158  27.531  29.585  1.00  0.00    -0.014 A 
BRANCH  45  46
ATOM     46  C   UNL A   1      40.971  28.478  30.714  1.00  0.00     0.031 A 
ATOM     47  C   UNL A   1      41.830  28.376  31.946  1.00  0.00     0.074 A 
ATOM     48  C   UNL A   1      39.997  29.408  30.644  1.00  0.00     0.049 A 
ATOM     49  N   UNL A   1      41.808  29.110  33.027  1.00  0.00    -0.248 NA
ATOM     50  C   UNL A   1      42.826  27.292  31.977  1.00  0.00     0.031 C 
ATOM     51  C   UNL A   1      39.066  29.578  29.524  1.00  0.00     0.029 A 
ATOM     52  N   UNL A   1      39.628  30.388  31.531  1.00  0.00    -0.354 N 
ATOM     53  C   UNL A   1      42.774  28.573  33.871  1.00  0.00     0.074 A 
ATOM     54  C   UNL A   1      43.325  27.417  33.199  1.00  0.00     0.031 C 
ATOM     55  C   UNL A   1      38.260  30.620  29.777  1.00  0.00     0.029 A 
ATOM     56  C   UNL A   1      38.585  31.167  31.091  1.00  0.00     0.049 A 
ATOM     57  H   UNL A   1      40.068  30.519  32.402  1.00  0.00     0.167 HD
ATOM     58  C   UNL A   1      43.182  29.014  35.085  1.00  0.00     0.031 A 
ATOM     59  C   UNL A   1      37.957  32.206  31.677  1.00  0.00     0.031 A 
ATOM     60  C   UNL A   1      42.632  30.168  35.748  1.00  0.00     0.049 A 
ATOM     61  C   UNL A   1      38.424  32.673  33.028  1.00  0.00     0.074 A 
ATOM     62  C   UNL A   1      43.016  30.731  36.954  1.00  0.00     0.029 A 
ATOM     63  N   UNL A   1      41.580  30.932  35.268  1.00  0.00    -0.354 N 
ATOM     64  N   UNL A   1      39.392  32.198  33.775  1.00  0.00    -0.248 NA
ATOM     65  C   UNL A   1      37.725  33.828  33.606  1.00  0.00     0.031 C 
ATOM     66  C   UNL A   1      42.154  31.796  37.232  1.00  0.00     0.029 A 
ATOM     67  C   UNL A   1      41.280  31.944  36.166  1.00  0.00     0.049 A 
ATOM     68  H   UNL A   1      41.114  30.779  34.414  1.00  0.00     0.167 HD
ATOM     69  C   UNL A   1      39.435  33.014  34.901  1.00  0.00     0.074 A 
ATOM     70  C   UNL A   1      38.410  34.023  34.724  1.00  0.00     0.031 C 
ATOM     71  C   UNL A   1      40.250  32.935  35.983  1.00  0.00     0.031 A 
BRANCH  58  72
ATOM     72  C   UNL A   1      44.269  28.235  35.782  1.00  0.00    -0.014 A 
ATOM     73  C   UNL A   1      45.629  28.549  35.592  1.00  0.00     0.010 A 
ATOM     74  C   UNL A   1      43.928  27.199  36.669  1.00  0.00     0.010 A 
ATOM     75  C   UNL A   1      46.624  27.813  36.241  1.00  0.00     0.020 A 
ATOM     76  C   UNL A   1      44.918  26.482  37.346  1.00  0.00     0.020 A 
ATOM     77  C   UNL A   1      46.261  26.783  37.113  1.00  0.00     0.054 A 
BRANCH  77  78
ATOM     78  S   UNL A   1      47.574  25.859  37.959  1.00  0.00     0.124 S 
ATOM     79  O   UNL A   1      47.470  26.369  39.325  1.00  0.00    -0.237 OA
ATOM     80  O   UNL A   1      47.158  24.472  37.775  1.00  0.00    -0.237 OA
ATOM     81  O   UNL A   1      48.788  26.244  37.243  1.00  0.00    -0.744 OA
ENDBRANCH  77  78
ENDBRANCH  58  72
BRANCH  59  82
ATOM     82  C   UNL A   1      36.829  32.881  30.977  1.00  0.00    -0.014 A 
ATOM     83  C   UNL A   1      37.068  33.945  30.090  1.00  0.00     0.010 A 
ATOM     84  C   UNL A   1      35.505  32.451  31.185  1.00  0.00     0.010 A 
ATOM     85  C   UNL A   1      36.006  34.579  29.439  1.00  0.00     0.020 A 
ATOM     86  C   UNL A   1      34.443  33.060  30.511  1.00  0.00     0.020 A 
ATOM     87  C   UNL A   1      34.699  34.128  29.650  1.00  0.00     0.054 A 
BRANCH  87  88
ATOM     88  S   UNL A   1      33.341  34.928  28.752  1.00  0.00     0.124 S 
ATOM     89  O   UNL A   1      32.723  33.797  28.066  1.00  0.00    -0.237 OA
ATOM     90  O   UNL A   1      32.556  35.520  29.832  1.00  0.00    -0.237 OA
ATOM     91  O   UNL A   1      34.022  35.889  27.888  1.00  0.00    -0.744 OA
ENDBRANCH  87  88
ENDBRANCH  59  82
BRANCH  71  92
ATOM     92  C   UNL A   1      40.089  33.990  37.047  1.00  0.00    -0.014 A 
ATOM     93  C   UNL A   1      39.490  33.698  38.286  1.00  0.00     0.010 A 
ATOM     94  C   UNL A   1      40.574  35.290  36.812  1.00  0.00     0.010 A 
ATOM     95  C   UNL A   1      39.337  34.697  39.250  1.00  0.00     0.020 A 
ATOM     96  C   UNL A   1      40.453  36.284  37.786  1.00  0.00     0.020 A 
ATOM     97  C   UNL A   1      39.818  35.985  38.993  1.00  0.00     0.054 A 
BRANCH  97  98
ATOM     98  S   UNL A   1      39.623  37.260  40.268  1.00  0.00     0.124 S 
ATOM     99  O   UNL A   1      39.559  38.480  39.471  1.00  0.00    -0.237 OA
ATOM    100  O   UNL A   1      38.378  36.869  40.924  1.00  0.00    -0.237 OA
ATOM    101  O   UNL A   1      40.824  37.114  41.089  1.00  0.00    -0.744 OA
ENDBRANCH  97  98
ENDBRANCH  71  92
ENDBRANCH  45  46
ENDBRANCH  37  40
ENDBRANCH  35  36
ENDBRANCH  34  35
ENDBRANCH  33  34
ENDBRANCH   1  33
TORSDOF 20
ENDMDL
MODEL 3
REMARK VINA RESULT:     -11.7      6.677     13.573
REMARK SMILES CC(C)Cc1ccc(-c2cc(Cl)cc3c2O[C@H](C(F)(F)F)C(C(=O)NCCCCCCNC(=O)c2ccc(-c4c5nc(c(-c6ccc(S(=O)(=O)[O-])cc6)c6ccc([nH]6)c(-c6ccc(S(=O)(=O)[O-])cc6)c6nc(c(-c7ccc(S(=O)(=O)[O-])cc7)c7ccc4[nH]7)C=C6)C=C5)cc2)=C3)cc1
REMARK SMILES IDX 28 1 27 2 26 3 25 4 23 5 24 6 22 8 9 9 10 10 15 11 11 12
REMARK SMILES IDX 14 13 16 14 12 15 13 16 95 17 17 18 8 19 5 20 6 21 97 22
REMARK SMILES IDX 7 23 96 24 4 25 2 26 1 27 3 28 18 29 19 30 20 31 21 32 29 33
REMARK SMILES IDX 30 34 31 35 32 36 33 37 34 39 35 40 36 41 94 42 37 43 93 44
REMARK SMILES IDX 38 45 39 46 40 47 87 48 41 49 92 50 86 51 88 52 42 53 91 54
REMARK SMILES IDX 85 55 84 56 43 58 73 59 54 60 72 61 55 62 58 63 71 64 89 65
REMARK SMILES IDX 56 66 57 67 70 69 90 70 59 71 44 72 45 73 53 74 46 75 52 76
REMARK SMILES IDX 47 77 48 78 49 79 50 80 51 81 74 82 75 83 83 84 76 85 82 86
REMARK SMILES IDX 77 87 78 88 79 89 80 90 81 91 60 92 61 93 69 94 62 95 68 96
REMARK SMILES IDX 63 97 64 98 65 99 66 100 67 101
REMARK H PARENT 25 7 32 38 88 57 58 68
REMARK Flexibility Score: inf
ROOT
ATOM      1  C   UNL A   1      39.262  35.649  35.262  1.00  0.00     0.002 C 
ENDROOT
BRANCH   1   2
ATOM      2  C   UNL A   1      39.174  34.366  34.416  1.00  0.00     0.021 C 
BRANCH   2   3
ATOM      3  C   UNL A   1      37.745  33.890  34.118  1.00  0.00     0.116 C 
BRANCH   3   4
ATOM      4  N   UNL A   1      37.765  32.494  33.732  1.00  0.00    -0.352 N 
ATOM      5  C   UNL A   1      37.465  32.028  32.493  1.00  0.00     0.251 C 
ATOM      6  O   UNL A   1      36.653  31.123  32.352  1.00  0.00    -0.270 OA
ATOM      7  H   UNL A   1      38.013  31.833  34.419  1.00  0.00     0.163 HD
BRANCH   5   8
ATOM      8  C   UNL A   1      38.301  32.557  31.376  1.00  0.00     0.067 C 
ATOM      9  C   UNL A   1      39.642  29.016  29.917  1.00  0.00     0.026 A 
ATOM     10  C   UNL A   1      40.032  28.251  31.051  1.00  0.00     0.033 A 
ATOM     11  C   UNL A   1      39.425  30.388  30.147  1.00  0.00     0.135 A 
ATOM     12  C   UNL A   1      40.353  28.821  32.279  1.00  0.00     0.042 A 
ATOM     13  C   UNL A   1      39.881  30.962  31.364  1.00  0.00     0.019 A 
ATOM     14  O   UNL A   1      38.718  31.213  29.278  1.00  0.00    -0.475 OA
ATOM     15  Cl  UNL A   1      40.763  27.812  33.608  1.00  0.00    -0.084 Cl
ATOM     16  C   UNL A   1      40.356  30.192  32.420  1.00  0.00     0.032 A 
ATOM     17  C   UNL A   1      39.621  32.399  31.591  1.00  0.00     0.025 C 
ATOM     18  C   UNL A   1      37.824  32.192  29.980  1.00  0.00     0.314 C 
BRANCH   9  19
ATOM     19  C   UNL A   1      39.714  28.276  28.623  1.00  0.00    -0.015 A 
ATOM     20  C   UNL A   1      40.925  26.654  26.578  1.00  0.00    -0.048 A 
ATOM     21  C   UNL A   1      40.240  26.079  27.648  1.00  0.00     0.004 A 
ATOM     22  C   UNL A   1      40.927  28.059  26.503  1.00  0.00     0.004 A 
ATOM     23  C   UNL A   1      39.599  26.870  28.615  1.00  0.00     0.009 A 
ATOM     24  C   UNL A   1      40.331  28.857  27.505  1.00  0.00     0.009 A 
BRANCH  20  25
ATOM     25  C   UNL A   1      41.729  25.852  25.566  1.00  0.00     0.038 C 
BRANCH  25  26
ATOM     26  C   UNL A   1      42.595  24.662  26.056  1.00  0.00    -0.013 C 
ATOM     27  C   UNL A   1      43.338  23.955  24.919  1.00  0.00     0.008 C 
ATOM     28  C   UNL A   1      43.636  25.143  27.080  1.00  0.00     0.008 C 
ENDBRANCH  25  26
ENDBRANCH  20  25
ENDBRANCH   9  19
BRANCH  18  29
ATOM     29  C   UNL A   1      37.647  33.511  29.190  1.00  0.00     0.429 C 
ATOM     30  F   UNL A   1      38.777  33.892  28.555  1.00  0.00    -0.167 F 
ATOM     31  F   UNL A   1      36.667  33.400  28.263  1.00  0.00    -0.167 F 
ATOM     32  F   UNL A   1      37.289  34.550  29.992  1.00  0.00    -0.167 F 
ENDBRANCH  18  29
ENDBRANCH   5   8
ENDBRANCH   3   4
ENDBRANCH   2   3
ENDBRANCH   1   2
BRANCH   1  33
ATOM     33  C   UNL A   1      40.593  35.848  35.989  1.00  0.00     0.002 C 
BRANCH  33  34
ATOM     34  C   UNL A   1      40.464  36.061  37.498  1.00  0.00     0.021 C 
BRANCH  34  35
ATOM     35  C   UNL A   1      39.243  35.400  38.126  1.00  0.00     0.116 C 
BRANCH  35  36
ATOM     36  N   UNL A   1      39.575  34.657  39.331  1.00  0.00    -0.352 N 
ATOM     37  C   UNL A   1      40.262  33.477  39.453  1.00  0.00     0.251 C 
ATOM     38  H   UNL A   1      39.264  35.056  40.176  1.00  0.00     0.163 HD
ATOM     39  O   UNL A   1      40.301  32.895  40.536  1.00  0.00    -0.269 OA
BRANCH  37  40
ATOM     40  C   UNL A   1      40.935  32.897  38.272  1.00  0.00     0.039 A 
ATOM     41  C   UNL A   1      40.160  32.268  37.296  1.00  0.00     0.014 A 
ATOM     42  C   UNL A   1      42.322  32.983  38.122  1.00  0.00     0.014 A 
ATOM     43  C   UNL A   1      40.772  31.771  36.145  1.00  0.00     0.010 A 
ATOM     44  C   UNL A   1      42.920  32.560  36.939  1.00  0.00     0.010 A 
ATOM     45  C   UNL A   1      42.153  31.940  35.941  1.00  0.00    -0.014 A 
BRANCH  45  46
ATOM     46  C   UNL A   1      42.802  31.475  34.689  1.00  0.00     0.031 A 
ATOM     47  C   UNL A   1      43.396  30.094  34.607  1.00  0.00     0.074 A 
ATOM     48  C   UNL A   1      42.892  32.314  33.637  1.00  0.00     0.049 A 
ATOM     49  N   UNL A   1      44.003  29.518  33.601  1.00  0.00    -0.248 NA
ATOM     50  C   UNL A   1      43.319  29.260  35.818  1.00  0.00     0.031 C 
ATOM     51  C   UNL A   1      42.398  33.693  33.609  1.00  0.00     0.029 A 
ATOM     52  N   UNL A   1      43.427  32.129  32.387  1.00  0.00    -0.354 N 
ATOM     53  C   UNL A   1      44.392  28.264  34.060  1.00  0.00     0.074 A 
ATOM     54  C   UNL A   1      44.001  28.185  35.451  1.00  0.00     0.031 C 
ATOM     55  C   UNL A   1      42.622  34.216  32.394  1.00  0.00     0.029 A 
ATOM     56  C   UNL A   1      43.310  33.228  31.569  1.00  0.00     0.049 A 
ATOM     57  H   UNL A   1      43.856  31.290  32.104  1.00  0.00     0.167 HD
ATOM     58  C   UNL A   1      44.999  27.262  33.381  1.00  0.00     0.031 A 
ATOM     59  C   UNL A   1      43.712  33.421  30.297  1.00  0.00     0.031 A 
ATOM     60  C   UNL A   1      45.382  27.346  31.996  1.00  0.00     0.049 A 
ATOM     61  C   UNL A   1      44.389  32.295  29.566  1.00  0.00     0.074 A 
ATOM     62  C   UNL A   1      45.950  26.365  31.200  1.00  0.00     0.029 A 
ATOM     63  N   UNL A   1      45.243  28.474  31.201  1.00  0.00    -0.354 N 
ATOM     64  N   UNL A   1      44.678  31.089  29.995  1.00  0.00    -0.248 NA
ATOM     65  C   UNL A   1      44.778  32.551  28.173  1.00  0.00     0.031 C 
ATOM     66  C   UNL A   1      46.213  26.921  29.944  1.00  0.00     0.029 A 
ATOM     67  C   UNL A   1      45.742  28.224  29.933  1.00  0.00     0.049 A 
ATOM     68  H   UNL A   1      44.848  29.326  31.495  1.00  0.00     0.167 HD
ATOM     69  C   UNL A   1      45.259  30.433  28.915  1.00  0.00     0.074 A 
ATOM     70  C   UNL A   1      45.260  31.370  27.810  1.00  0.00     0.031 C 
ATOM     71  C   UNL A   1      45.748  29.170  28.845  1.00  0.00     0.031 A 
BRANCH  58  72
ATOM     72  C   UNL A   1      45.297  25.989  34.133  1.00  0.00    -0.014 A 
ATOM     73  C   UNL A   1      46.495  25.831  34.855  1.00  0.00     0.010 A 
ATOM     74  C   UNL A   1      44.349  24.951  34.153  1.00  0.00     0.010 A 
ATOM     75  C   UNL A   1      46.758  24.643  35.542  1.00  0.00     0.020 A 
ATOM     76  C   UNL A   1      44.592  23.774  34.866  1.00  0.00     0.020 A 
ATOM     77  C   UNL A   1      45.804  23.621  35.542  1.00  0.00     0.054 A 
BRANCH  77  78
ATOM     78  S   UNL A   1      46.162  22.098  36.461  1.00  0.00     0.124 S 
ATOM     79  O   UNL A   1      45.337  21.119  35.756  1.00  0.00    -0.237 OA
ATOM     80  O   UNL A   1      47.604  21.949  36.281  1.00  0.00    -0.237 OA
ATOM     81  O   UNL A   1      45.735  22.405  37.824  1.00  0.00    -0.744 OA
ENDBRANCH  77  78
ENDBRANCH  58  72
BRANCH  59  82
ATOM     82  C   UNL A   1      43.469  34.733  29.634  1.00  0.00    -0.014 A 
ATOM     83  C   UNL A   1      42.244  34.997  28.995  1.00  0.00     0.010 A 
ATOM     84  C   UNL A   1      44.459  35.732  29.651  1.00  0.00     0.010 A 
ATOM     85  C   UNL A   1      42.021  36.228  28.370  1.00  0.00     0.020 A 
ATOM     86  C   UNL A   1      44.228  36.975  29.056  1.00  0.00     0.020 A 
ATOM     87  C   UNL A   1      43.014  37.211  28.409  1.00  0.00     0.054 A 
BRANCH  87  88
ATOM     88  S   UNL A   1      42.683  38.821  27.640  1.00  0.00     0.124 S 
ATOM     89  O   UNL A   1      44.026  39.277  27.298  1.00  0.00    -0.237 OA
ATOM     90  O   UNL A   1      41.830  38.460  26.511  1.00  0.00    -0.237 OA
ATOM     91  O   UNL A   1      42.015  39.574  28.699  1.00  0.00    -0.744 OA
ENDBRANCH  87  88
ENDBRANCH  59  82
BRANCH  71  92
ATOM     92  C   UNL A   1      46.294  28.714  27.516  1.00  0.00    -0.014 A 
ATOM     93  C   UNL A   1      45.445  28.258  26.491  1.00  0.00     0.010 A 
ATOM     94  C   UNL A   1      47.680  28.772  27.281  1.00  0.00     0.010 A 
ATOM     95  C   UNL A   1      45.976  27.825  25.274  1.00  0.00     0.020 A 
ATOM     96  C   UNL A   1      48.213  28.372  26.053  1.00  0.00     0.020 A 
ATOM     97  C   UNL A   1      47.358  27.882  25.063  1.00  0.00     0.054 A 
BRANCH  97  98
ATOM     98  S   UNL A   1      48.021  27.331  23.468  1.00  0.00     0.124 S 
ATOM     99  O   UNL A   1      47.111  27.969  22.523  1.00  0.00    -0.237 OA
ATOM    100  O   UNL A   1      49.382  27.861  23.487  1.00  0.00    -0.237 OA
ATOM    101  O   UNL A   1      47.926  25.875  23.538  1.00  0.00    -0.744 OA
ENDBRANCH  97  98
ENDBRANCH  71  92
ENDBRANCH  45  46
ENDBRANCH  37  40
ENDBRANCH  35  36
ENDBRANCH  34  35
ENDBRANCH  33  34
ENDBRANCH   1  33
TORSDOF 20
ENDMDL
