MODEL 1
REMARK VINA RESULT:     -12.2      0.000      0.000
REMARK SMILES O=C(NCCCCCCNC(=O)c1ccccc1-n1ccnn1)c1ccc(-c2c3nc(c(-c4ccc(S(=O)(=O)[O-])cc4)c4ccc([nH]4)c(-c4ccc(S(=O)(=O)[O-])cc4)c4nc(c(-c5ccc(S(=O)(=O)[O-])cc5)c5ccc2[nH]5)C=C4)C=C3)cc1
REMARK SMILES IDX 5 1 4 2 3 3 1 4 2 5 24 7 25 8 83 9 26 10 82 11 27 12 28 13
REMARK SMILES IDX 29 14 76 15 30 16 81 17 75 18 77 19 31 20 80 21 74 22 73 23
REMARK SMILES IDX 32 25 62 26 43 27 61 28 44 29 47 30 60 31 78 32 45 33 46 34
REMARK SMILES IDX 59 36 79 37 48 38 33 39 34 40 42 41 35 42 41 43 36 44 37 45
REMARK SMILES IDX 38 46 39 47 40 48 63 49 64 50 72 51 65 52 71 53 66 54 67 55
REMARK SMILES IDX 68 56 69 57 70 58 49 59 50 60 58 61 51 62 57 63 52 64 53 65
REMARK SMILES IDX 54 66 55 67 56 68 6 69 7 70 8 71 9 72 10 73 11 74 12 76
REMARK SMILES IDX 13 77 14 78 18 79 15 80 17 81 16 82 19 83 20 84 23 85 21 86
REMARK SMILES IDX 22 87
REMARK H PARENT 3 6 77 24 47 35 10 75
REMARK Flexibility Score: inf
ROOT
ATOM      1  C   UNL A   1      36.714  22.737  24.017  1.00  0.00     0.021 C 
ENDROOT
BRANCH   1   2
ATOM      2  C   UNL A   1      36.949  22.215  25.432  1.00  0.00     0.116 C 
BRANCH   2   3
ATOM      3  N   UNL A   1      38.228  21.567  25.627  1.00  0.00    -0.352 N 
ATOM      4  O   UNL A   1      40.250  21.013  26.320  1.00  0.00    -0.269 OA
ATOM      5  C   UNL A   1      39.386  21.895  26.275  1.00  0.00     0.251 C 
ATOM      6  H   UNL A   1      38.275  20.685  25.192  1.00  0.00     0.163 HD
BRANCH   5   7
ATOM      7  C   UNL A   1      39.695  23.231  26.852  1.00  0.00     0.039 A 
ATOM      8  C   UNL A   1      38.963  24.401  26.649  1.00  0.00     0.014 A 
ATOM      9  C   UNL A   1      40.829  23.283  27.685  1.00  0.00     0.014 A 
ATOM     10  C   UNL A   1      39.395  25.607  27.200  1.00  0.00     0.010 A 
ATOM     11  C   UNL A   1      41.257  24.480  28.248  1.00  0.00     0.010 A 
ATOM     12  C   UNL A   1      40.554  25.650  27.981  1.00  0.00    -0.014 A 
BRANCH  12  13
ATOM     13  C   UNL A   1      40.888  26.897  28.670  1.00  0.00     0.031 A 
ATOM     14  C   UNL A   1      42.092  27.596  28.128  1.00  0.00     0.074 A 
ATOM     15  C   UNL A   1      40.095  27.485  29.590  1.00  0.00     0.049 A 
ATOM     16  N   UNL A   1      43.190  27.898  28.741  1.00  0.00    -0.248 NA
ATOM     17  C   UNL A   1      42.116  27.897  26.684  1.00  0.00     0.031 C 
ATOM     18  C   UNL A   1      38.748  27.083  30.004  1.00  0.00     0.029 A 
ATOM     19  N   UNL A   1      40.286  28.650  30.274  1.00  0.00    -0.354 N 
ATOM     20  C   UNL A   1      43.970  28.595  27.819  1.00  0.00     0.074 A 
ATOM     21  C   UNL A   1      43.325  28.438  26.540  1.00  0.00     0.031 C 
ATOM     22  C   UNL A   1      38.162  28.106  30.670  1.00  0.00     0.029 A 
ATOM     23  C   UNL A   1      39.131  29.174  30.848  1.00  0.00     0.049 A 
ATOM     24  H   UNL A   1      41.167  29.085  30.353  1.00  0.00     0.167 HD
ATOM     25  C   UNL A   1      44.983  29.424  28.198  1.00  0.00     0.031 A 
ATOM     26  C   UNL A   1      38.966  30.418  31.372  1.00  0.00     0.031 A 
ATOM     27  C   UNL A   1      45.392  29.192  29.555  1.00  0.00     0.049 A 
ATOM     28  C   UNL A   1      40.315  30.956  31.668  1.00  0.00     0.074 A 
ATOM     29  C   UNL A   1      45.917  28.115  30.240  1.00  0.00     0.029 A 
ATOM     30  N   UNL A   1      44.921  30.057  30.513  1.00  0.00    -0.354 N 
ATOM     31  N   UNL A   1      41.101  30.464  32.583  1.00  0.00    -0.248 NA
ATOM     32  C   UNL A   1      40.969  31.760  30.648  1.00  0.00     0.031 C 
ATOM     33  C   UNL A   1      45.291  28.157  31.519  1.00  0.00     0.029 A 
ATOM     34  C   UNL A   1      44.481  29.293  31.563  1.00  0.00     0.049 A 
ATOM     35  H   UNL A   1      44.904  31.040  30.456  1.00  0.00     0.167 HD
ATOM     36  C   UNL A   1      42.369  30.520  32.026  1.00  0.00     0.074 A 
ATOM     37  C   UNL A   1      42.238  31.409  30.873  1.00  0.00     0.031 C 
ATOM     38  C   UNL A   1      43.341  29.630  32.387  1.00  0.00     0.031 A 
BRANCH  25  39
ATOM     39  C   UNL A   1      45.345  30.687  27.455  1.00  0.00    -0.014 A 
ATOM     40  C   UNL A   1      46.703  30.988  27.223  1.00  0.00     0.010 A 
ATOM     41  C   UNL A   1      44.414  31.721  27.223  1.00  0.00     0.010 A 
ATOM     42  C   UNL A   1      47.109  32.272  26.835  1.00  0.00     0.020 A 
ATOM     43  C   UNL A   1      44.804  32.991  26.795  1.00  0.00     0.020 A 
ATOM     44  C   UNL A   1      46.154  33.270  26.634  1.00  0.00     0.054 A 
BRANCH  44  45
ATOM     45  S   UNL A   1      46.693  34.948  26.224  1.00  0.00     0.124 S 
ATOM     46  O   UNL A   1      47.282  34.761  24.901  1.00  0.00    -0.237 OA
ATOM     47  O   UNL A   1      45.436  35.693  26.258  1.00  0.00    -0.237 OA
ATOM     48  O   UNL A   1      47.634  35.275  27.291  1.00  0.00    -0.744 OA
ENDBRANCH  44  45
ENDBRANCH  25  39
BRANCH  26  49
ATOM     49  C   UNL A   1      37.763  31.292  31.320  1.00  0.00    -0.014 A 
ATOM     50  C   UNL A   1      36.644  31.049  32.143  1.00  0.00     0.010 A 
ATOM     51  C   UNL A   1      37.833  32.541  30.671  1.00  0.00     0.010 A 
ATOM     52  C   UNL A   1      35.668  32.041  32.356  1.00  0.00     0.020 A 
ATOM     53  C   UNL A   1      36.862  33.531  30.874  1.00  0.00     0.020 A 
ATOM     54  C   UNL A   1      35.797  33.286  31.736  1.00  0.00     0.054 A 
BRANCH  54  55
ATOM     55  S   UNL A   1      34.641  34.626  32.157  1.00  0.00     0.124 S 
ATOM     56  O   UNL A   1      35.489  35.543  32.914  1.00  0.00    -0.237 OA
ATOM     57  O   UNL A   1      34.210  35.101  30.845  1.00  0.00    -0.237 OA
ATOM     58  O   UNL A   1      33.604  33.954  32.939  1.00  0.00    -0.744 OA
ENDBRANCH  54  55
ENDBRANCH  26  49
BRANCH  38  59
ATOM     59  C   UNL A   1      43.113  28.764  33.606  1.00  0.00    -0.014 A 
ATOM     60  C   UNL A   1      43.355  29.183  34.929  1.00  0.00     0.010 A 
ATOM     61  C   UNL A   1      42.484  27.524  33.401  1.00  0.00     0.010 A 
ATOM     62  C   UNL A   1      42.997  28.367  36.015  1.00  0.00     0.020 A 
ATOM     63  C   UNL A   1      42.108  26.717  34.477  1.00  0.00     0.020 A 
ATOM     64  C   UNL A   1      42.376  27.136  35.780  1.00  0.00     0.054 A 
BRANCH  64  65
ATOM     65  S   UNL A   1      41.878  26.099  37.184  1.00  0.00     0.124 S 
ATOM     66  O   UNL A   1      41.805  24.769  36.586  1.00  0.00    -0.237 OA
ATOM     67  O   UNL A   1      42.964  26.302  38.139  1.00  0.00    -0.237 OA
ATOM     68  O   UNL A   1      40.592  26.663  37.594  1.00  0.00    -0.744 OA
ENDBRANCH  64  65
ENDBRANCH  38  59
ENDBRANCH  12  13
ENDBRANCH   5   7
ENDBRANCH   2   3
ENDBRANCH   1   2
BRANCH   1  69
ATOM     69  C   UNL A   1      35.243  22.797  23.583  1.00  0.00     0.002 C 
BRANCH  69  70
ATOM     70  C   UNL A   1      34.591  24.185  23.570  1.00  0.00     0.002 C 
BRANCH  70  71
ATOM     71  C   UNL A   1      34.413  24.870  24.931  1.00  0.00     0.021 C 
BRANCH  71  72
ATOM     72  C   UNL A   1      33.948  26.320  24.877  1.00  0.00     0.116 C 
BRANCH  72  73
ATOM     73  N   UNL A   1      33.429  26.800  26.151  1.00  0.00    -0.352 N 
ATOM     74  C   UNL A   1      32.167  27.229  26.474  1.00  0.00     0.253 C 
ATOM     75  H   UNL A   1      34.081  26.819  26.889  1.00  0.00     0.163 HD
ATOM     76  O   UNL A   1      31.913  27.619  27.613  1.00  0.00    -0.269 OA
BRANCH  74  77
ATOM     77  C   UNL A   1      31.102  27.272  25.449  1.00  0.00     0.065 A 
ATOM     78  C   UNL A   1      30.963  28.496  24.773  1.00  0.00     0.016 A 
ATOM     79  C   UNL A   1      30.322  26.173  25.061  1.00  0.00     0.079 A 
ATOM     80  C   UNL A   1      30.093  28.611  23.688  1.00  0.00     0.001 A 
ATOM     81  C   UNL A   1      29.485  26.285  23.936  1.00  0.00     0.029 A 
ATOM     82  C   UNL A   1      29.369  27.501  23.260  1.00  0.00     0.002 A 
BRANCH  79  83
ATOM     83  N   UNL A   1      30.350  24.939  25.750  1.00  0.00    -0.220 N 
ATOM     84  C   UNL A   1      31.014  23.773  25.447  1.00  0.00     0.137 A 
ATOM     85  N   UNL A   1      29.603  24.754  26.864  1.00  0.00    -0.062 NA
ATOM     86  C   UNL A   1      30.537  22.858  26.353  1.00  0.00     0.157 A 
ATOM     87  N   UNL A   1      29.661  23.472  27.195  1.00  0.00    -0.139 NA
ENDBRANCH  79  83
ENDBRANCH  74  77
ENDBRANCH  72  73
ENDBRANCH  71  72
ENDBRANCH  70  71
ENDBRANCH  69  70
ENDBRANCH   1  69
TORSDOF 17
ENDMDL
MODEL 2
REMARK VINA RESULT:     -12.1      2.354      3.918
REMARK SMILES O=C(NCCCCCCNC(=O)c1ccccc1-n1ccnn1)c1ccc(-c2c3nc(c(-c4ccc(S(=O)(=O)[O-])cc4)c4ccc([nH]4)c(-c4ccc(S(=O)(=O)[O-])cc4)c4nc(c(-c5ccc(S(=O)(=O)[O-])cc5)c5ccc2[nH]5)C=C4)C=C3)cc1
REMARK SMILES IDX 5 1 4 2 3 3 1 4 2 5 24 7 25 8 83 9 26 10 82 11 27 12 28 13
REMARK SMILES IDX 29 14 76 15 30 16 81 17 75 18 77 19 31 20 80 21 74 22 73 23
REMARK SMILES IDX 32 25 62 26 43 27 61 28 44 29 47 30 60 31 78 32 45 33 46 34
REMARK SMILES IDX 59 36 79 37 48 38 33 39 34 40 42 41 35 42 41 43 36 44 37 45
REMARK SMILES IDX 38 46 39 47 40 48 63 49 64 50 72 51 65 52 71 53 66 54 67 55
REMARK SMILES IDX 68 56 69 57 70 58 49 59 50 60 58 61 51 62 57 63 52 64 53 65
REMARK SMILES IDX 54 66 55 67 56 68 6 69 7 70 8 71 9 72 10 73 11 74 12 76
REMARK SMILES IDX 13 77 14 78 18 79 15 80 17 81 16 82 19 83 20 84 23 85 21 86
REMARK SMILES IDX 22 87
REMARK H PARENT 3 6 77 24 47 35 10 75
REMARK Flexibility Score: inf
ROOT
ATOM      1  C   UNL A   1      40.901  19.553  26.116  1.00  0.00     0.021 C 
ENDROOT
BRANCH   1   2
ATOM      2  C   UNL A   1      42.390  19.273  26.302  1.00  0.00     0.116 C 
BRANCH   2   3
ATOM      3  N   UNL A   1      43.232  19.779  25.240  1.00  0.00    -0.352 N 
ATOM      4  O   UNL A   1      44.620  20.980  24.013  1.00  0.00    -0.269 OA
ATOM      5  C   UNL A   1      43.883  20.958  25.004  1.00  0.00     0.251 C 
ATOM      6  H   UNL A   1      43.367  19.121  24.519  1.00  0.00     0.163 HD
BRANCH   5   7
ATOM      7  C   UNL A   1      43.713  22.203  25.800  1.00  0.00     0.039 A 
ATOM      8  C   UNL A   1      44.365  22.507  26.995  1.00  0.00     0.014 A 
ATOM      9  C   UNL A   1      42.816  23.147  25.264  1.00  0.00     0.014 A 
ATOM     10  C   UNL A   1      44.070  23.687  27.678  1.00  0.00     0.010 A 
ATOM     11  C   UNL A   1      42.528  24.331  25.933  1.00  0.00     0.010 A 
ATOM     12  C   UNL A   1      43.136  24.588  27.158  1.00  0.00    -0.014 A 
BRANCH  12  13
ATOM     13  C   UNL A   1      42.970  25.883  27.818  1.00  0.00     0.031 A 
ATOM     14  C   UNL A   1      44.050  26.871  27.516  1.00  0.00     0.074 A 
ATOM     15  C   UNL A   1      41.861  26.246  28.495  1.00  0.00     0.049 A 
ATOM     16  N   UNL A   1      44.858  27.455  28.338  1.00  0.00    -0.248 NA
ATOM     17  C   UNL A   1      44.334  27.159  26.098  1.00  0.00     0.031 C 
ATOM     18  C   UNL A   1      40.602  25.507  28.621  1.00  0.00     0.029 A 
ATOM     19  N   UNL A   1      41.582  27.426  29.123  1.00  0.00    -0.354 N 
ATOM     20  C   UNL A   1      45.629  28.327  27.571  1.00  0.00     0.074 A 
ATOM     21  C   UNL A   1      45.365  27.999  26.193  1.00  0.00     0.031 C 
ATOM     22  C   UNL A   1      39.635  26.343  29.066  1.00  0.00     0.029 A 
ATOM     23  C   UNL A   1      40.231  27.630  29.385  1.00  0.00     0.049 A 
ATOM     24  H   UNL A   1      42.279  28.077  29.369  1.00  0.00     0.167 HD
ATOM     25  C   UNL A   1      46.280  29.396  28.111  1.00  0.00     0.031 A 
ATOM     26  C   UNL A   1      39.636  28.789  29.774  1.00  0.00     0.031 A 
ATOM     27  C   UNL A   1      46.403  29.289  29.538  1.00  0.00     0.049 A 
ATOM     28  C   UNL A   1      40.694  29.665  30.329  1.00  0.00     0.074 A 
ATOM     29  C   UNL A   1      47.009  28.392  30.395  1.00  0.00     0.029 A 
ATOM     30  N   UNL A   1      45.516  30.005  30.305  1.00  0.00    -0.354 N 
ATOM     31  N   UNL A   1      41.342  29.403  31.429  1.00  0.00    -0.248 NA
ATOM     32  C   UNL A   1      41.343  30.608  29.431  1.00  0.00     0.031 C 
ATOM     33  C   UNL A   1      46.110  28.276  31.494  1.00  0.00     0.029 A 
ATOM     34  C   UNL A   1      45.050  29.159  31.278  1.00  0.00     0.049 A 
ATOM     35  H   UNL A   1      45.263  30.948  30.179  1.00  0.00     0.167 HD
ATOM     36  C   UNL A   1      42.648  29.788  31.170  1.00  0.00     0.074 A 
ATOM     37  C   UNL A   1      42.570  30.604  29.959  1.00  0.00     0.031 C 
ATOM     38  C   UNL A   1      43.701  29.188  31.799  1.00  0.00     0.031 A 
BRANCH  25  39
ATOM     39  C   UNL A   1      46.472  30.706  27.385  1.00  0.00    -0.014 A 
ATOM     40  C   UNL A   1      47.778  31.194  27.174  1.00  0.00     0.010 A 
ATOM     41  C   UNL A   1      45.410  31.604  27.151  1.00  0.00     0.010 A 
ATOM     42  C   UNL A   1      48.007  32.526  26.803  1.00  0.00     0.020 A 
ATOM     43  C   UNL A   1      45.625  32.921  26.741  1.00  0.00     0.020 A 
ATOM     44  C   UNL A   1      46.925  33.384  26.600  1.00  0.00     0.054 A 
BRANCH  44  45
ATOM     45  S   UNL A   1      47.231  35.125  26.212  1.00  0.00     0.124 S 
ATOM     46  O   UNL A   1      45.986  35.512  25.557  1.00  0.00    -0.237 OA
ATOM     47  O   UNL A   1      47.457  35.701  27.536  1.00  0.00    -0.237 OA
ATOM     48  O   UNL A   1      48.408  35.082  25.349  1.00  0.00    -0.744 OA
ENDBRANCH  44  45
ENDBRANCH  25  39
BRANCH  26  49
ATOM     49  C   UNL A   1      38.296  29.315  29.393  1.00  0.00    -0.014 A 
ATOM     50  C   UNL A   1      37.393  29.791  30.365  1.00  0.00     0.010 A 
ATOM     51  C   UNL A   1      38.023  29.622  28.045  1.00  0.00     0.010 A 
ATOM     52  C   UNL A   1      36.294  30.594  30.005  1.00  0.00     0.020 A 
ATOM     53  C   UNL A   1      36.929  30.417  27.679  1.00  0.00     0.020 A 
ATOM     54  C   UNL A   1      36.082  30.921  28.663  1.00  0.00     0.054 A 
BRANCH  54  55
ATOM     55  S   UNL A   1      34.778  32.109  28.220  1.00  0.00     0.124 S 
ATOM     56  O   UNL A   1      34.263  32.509  29.527  1.00  0.00    -0.237 OA
ATOM     57  O   UNL A   1      35.516  33.137  27.490  1.00  0.00    -0.237 OA
ATOM     58  O   UNL A   1      33.855  31.320  27.406  1.00  0.00    -0.744 OA
ENDBRANCH  54  55
ENDBRANCH  26  49
BRANCH  38  59
ATOM     59  C   UNL A   1      43.422  28.300  32.991  1.00  0.00    -0.014 A 
ATOM     60  C   UNL A   1      43.022  28.776  34.255  1.00  0.00     0.010 A 
ATOM     61  C   UNL A   1      43.421  26.912  32.769  1.00  0.00     0.010 A 
ATOM     62  C   UNL A   1      42.657  27.883  35.275  1.00  0.00     0.020 A 
ATOM     63  C   UNL A   1      43.040  26.018  33.772  1.00  0.00     0.020 A 
ATOM     64  C   UNL A   1      42.670  26.507  35.025  1.00  0.00     0.054 A 
BRANCH  64  65
ATOM     65  S   UNL A   1      42.159  25.352  36.330  1.00  0.00     0.124 S 
ATOM     66  O   UNL A   1      40.977  26.005  36.885  1.00  0.00    -0.237 OA
ATOM     67  O   UNL A   1      41.909  24.117  35.592  1.00  0.00    -0.237 OA
ATOM     68  O   UNL A   1      43.316  25.305  37.224  1.00  0.00    -0.744 OA
ENDBRANCH  64  65
ENDBRANCH  38  59
ENDBRANCH  12  13
ENDBRANCH   5   7
ENDBRANCH   2   3
ENDBRANCH   1   2
BRANCH   1  69
ATOM     69  C   UNL A   1      40.403  20.862  26.742  1.00  0.00     0.002 C 
BRANCH  69  70
ATOM     70  C   UNL A   1      39.287  21.598  25.989  1.00  0.00     0.002 C 
BRANCH  70  71
ATOM     71  C   UNL A   1      38.899  22.983  26.522  1.00  0.00     0.021 C 
BRANCH  71  72
ATOM     72  C   UNL A   1      37.631  23.581  25.925  1.00  0.00     0.116 C 
BRANCH  72  73
ATOM     73  N   UNL A   1      37.589  23.493  24.471  1.00  0.00    -0.352 N 
ATOM     74  C   UNL A   1      36.574  23.069  23.650  1.00  0.00     0.253 C 
ATOM     75  H   UNL A   1      38.411  23.780  24.009  1.00  0.00     0.163 HD
ATOM     76  O   UNL A   1      36.727  23.048  22.430  1.00  0.00    -0.269 OA
BRANCH  74  77
ATOM     77  C   UNL A   1      35.297  22.591  24.221  1.00  0.00     0.065 A 
ATOM     78  C   UNL A   1      35.362  21.362  24.901  1.00  0.00     0.016 A 
ATOM     79  C   UNL A   1      34.095  23.312  24.206  1.00  0.00     0.079 A 
ATOM     80  C   UNL A   1      34.256  20.883  25.603  1.00  0.00     0.001 A 
ATOM     81  C   UNL A   1      33.002  22.845  24.957  1.00  0.00     0.029 A 
ATOM     82  C   UNL A   1      33.083  21.632  25.645  1.00  0.00     0.002 A 
BRANCH  79  83
ATOM     83  N   UNL A   1      33.936  24.510  23.472  1.00  0.00    -0.220 N 
ATOM     84  C   UNL A   1      33.885  25.813  23.910  1.00  0.00     0.137 A 
ATOM     85  N   UNL A   1      33.746  24.478  22.133  1.00  0.00    -0.062 NA
ATOM     86  C   UNL A   1      33.537  26.538  22.797  1.00  0.00     0.157 A 
ATOM     87  N   UNL A   1      33.436  25.702  21.728  1.00  0.00    -0.139 NA
ENDBRANCH  79  83
ENDBRANCH  74  77
ENDBRANCH  72  73
ENDBRANCH  71  72
ENDBRANCH  70  71
ENDBRANCH  69  70
ENDBRANCH   1  69
TORSDOF 17
ENDMDL
MODEL 3
REMARK VINA RESULT:     -11.7      2.588      3.583
REMARK SMILES O=C(NCCCCCCNC(=O)c1ccccc1-n1ccnn1)c1ccc(-c2c3nc(c(-c4ccc(S(=O)(=O)[O-])cc4)c4ccc([nH]4)c(-c4ccc(S(=O)(=O)[O-])cc4)c4nc(c(-c5ccc(S(=O)(=O)[O-])cc5)c5ccc2[nH]5)C=C4)C=C3)cc1
REMARK SMILES IDX 5 1 4 2 3 3 1 4 2 5 24 7 25 8 83 9 26 10 82 11 27 12 28 13
REMARK SMILES IDX 29 14 76 15 30 16 81 17 75 18 77 19 31 20 80 21 74 22 73 23
REMARK SMILES IDX 32 25 62 26 43 27 61 28 44 29 47 30 60 31 78 32 45 33 46 34
REMARK SMILES IDX 59 36 79 37 48 38 33 39 34 40 42 41 35 42 41 43 36 44 37 45
REMARK SMILES IDX 38 46 39 47 40 48 63 49 64 50 72 51 65 52 71 53 66 54 67 55
REMARK SMILES IDX 68 56 69 57 70 58 49 59 50 60 58 61 51 62 57 63 52 64 53 65
REMARK SMILES IDX 54 66 55 67 56 68 6 69 7 70 8 71 9 72 10 73 11 74 12 76
REMARK SMILES IDX 13 77 14 78 18 79 15 80 17 81 16 82 19 83 20 84 23 85 21 86
REMARK SMILES IDX 22 87
REMARK H PARENT 3 6 77 24 47 35 10 75
REMARK Flexibility Score: inf
ROOT
ATOM      1  C   UNL A   1      40.443  21.430  27.151  1.00  0.00     0.021 C 
ENDROOT
BRANCH   1   2
ATOM      2  C   UNL A   1      41.537  20.420  26.816  1.00  0.00     0.116 C 
BRANCH   2   3
ATOM      3  N   UNL A   1      42.438  20.838  25.764  1.00  0.00    -0.352 N 
ATOM      4  O   UNL A   1      43.891  21.940  24.520  1.00  0.00    -0.269 OA
ATOM      5  C   UNL A   1      43.098  21.997  25.464  1.00  0.00     0.251 C 
ATOM      6  H   UNL A   1      42.618  20.121  25.114  1.00  0.00     0.163 HD
BRANCH   5   7
ATOM      7  C   UNL A   1      42.877  23.306  26.136  1.00  0.00     0.039 A 
ATOM      8  C   UNL A   1      42.119  24.366  25.637  1.00  0.00     0.014 A 
ATOM      9  C   UNL A   1      43.492  23.453  27.394  1.00  0.00     0.014 A 
ATOM     10  C   UNL A   1      42.042  25.568  26.340  1.00  0.00     0.010 A 
ATOM     11  C   UNL A   1      43.407  24.644  28.106  1.00  0.00     0.010 A 
ATOM     12  C   UNL A   1      42.703  25.714  27.563  1.00  0.00    -0.014 A 
BRANCH  12  13
ATOM     13  C   UNL A   1      42.471  26.930  28.344  1.00  0.00     0.031 A 
ATOM     14  C   UNL A   1      43.564  27.943  28.245  1.00  0.00     0.074 A 
ATOM     15  C   UNL A   1      41.304  27.219  28.957  1.00  0.00     0.049 A 
ATOM     16  N   UNL A   1      44.295  28.432  29.194  1.00  0.00    -0.248 NA
ATOM     17  C   UNL A   1      43.968  28.384  26.897  1.00  0.00     0.031 C 
ATOM     18  C   UNL A   1      40.045  26.472  28.892  1.00  0.00     0.029 A 
ATOM     19  N   UNL A   1      40.964  28.322  29.685  1.00  0.00    -0.354 N 
ATOM     20  C   UNL A   1      45.122  29.382  28.595  1.00  0.00     0.074 A 
ATOM     21  C   UNL A   1      44.979  29.207  27.173  1.00  0.00     0.031 C 
ATOM     22  C   UNL A   1      39.037  27.256  29.342  1.00  0.00     0.029 A 
ATOM     23  C   UNL A   1      39.593  28.499  29.850  1.00  0.00     0.049 A 
ATOM     24  H   UNL A   1      41.632  28.942  30.060  1.00  0.00     0.167 HD
ATOM     25  C   UNL A   1      45.715  30.384  29.303  1.00  0.00     0.031 A 
ATOM     26  C   UNL A   1      38.958  29.610  30.310  1.00  0.00     0.031 A 
ATOM     27  C   UNL A   1      45.716  30.121  30.715  1.00  0.00     0.049 A 
ATOM     28  C   UNL A   1      39.958  30.418  31.047  1.00  0.00     0.074 A 
ATOM     29  C   UNL A   1      46.253  29.135  31.519  1.00  0.00     0.029 A 
ATOM     30  N   UNL A   1      44.761  30.749  31.476  1.00  0.00    -0.354 N 
ATOM     31  N   UNL A   1      40.511  30.036  32.163  1.00  0.00    -0.248 NA
ATOM     32  C   UNL A   1      40.674  31.452  30.317  1.00  0.00     0.031 C 
ATOM     33  C   UNL A   1      45.264  28.900  32.516  1.00  0.00     0.029 A 
ATOM     34  C   UNL A   1      44.220  29.803  32.307  1.00  0.00     0.049 A 
ATOM     35  H   UNL A   1      44.512  31.701  31.433  1.00  0.00     0.167 HD
ATOM     36  C   UNL A   1      41.831  30.444  32.061  1.00  0.00     0.074 A 
ATOM     37  C   UNL A   1      41.851  31.388  30.945  1.00  0.00     0.031 C 
ATOM     38  C   UNL A   1      42.831  29.778  32.710  1.00  0.00     0.031 A 
BRANCH  25  39
ATOM     39  C   UNL A   1      45.959  31.765  28.745  1.00  0.00    -0.014 A 
ATOM     40  C   UNL A   1      44.859  32.557  28.356  1.00  0.00     0.010 A 
ATOM     41  C   UNL A   1      47.236  32.200  28.333  1.00  0.00     0.010 A 
ATOM     42  C   UNL A   1      45.027  33.692  27.549  1.00  0.00     0.020 A 
ATOM     43  C   UNL A   1      47.419  33.352  27.566  1.00  0.00     0.020 A 
ATOM     44  C   UNL A   1      46.309  34.075  27.151  1.00  0.00     0.054 A 
BRANCH  44  45
ATOM     45  S   UNL A   1      46.510  35.485  26.035  1.00  0.00     0.124 S 
ATOM     46  O   UNL A   1      47.881  35.899  26.315  1.00  0.00    -0.237 OA
ATOM     47  O   UNL A   1      46.287  34.877  24.725  1.00  0.00    -0.237 OA
ATOM     48  O   UNL A   1      45.471  36.415  26.469  1.00  0.00    -0.744 OA
ENDBRANCH  44  45
ENDBRANCH  25  39
BRANCH  26  49
ATOM     49  C   UNL A   1      37.652  30.176  29.875  1.00  0.00    -0.014 A 
ATOM     50  C   UNL A   1      36.794  30.823  30.786  1.00  0.00     0.010 A 
ATOM     51  C   UNL A   1      37.384  30.340  28.500  1.00  0.00     0.010 A 
ATOM     52  C   UNL A   1      35.747  31.652  30.338  1.00  0.00     0.020 A 
ATOM     53  C   UNL A   1      36.341  31.158  28.047  1.00  0.00     0.020 A 
ATOM     54  C   UNL A   1      35.542  31.831  28.968  1.00  0.00     0.054 A 
BRANCH  54  55
ATOM     55  S   UNL A   1      34.314  33.044  28.392  1.00  0.00     0.124 S 
ATOM     56  O   UNL A   1      33.846  33.632  29.644  1.00  0.00    -0.237 OA
ATOM     57  O   UNL A   1      35.110  33.923  27.540  1.00  0.00    -0.237 OA
ATOM     58  O   UNL A   1      33.329  32.228  27.685  1.00  0.00    -0.744 OA
ENDBRANCH  54  55
ENDBRANCH  26  49
BRANCH  38  59
ATOM     59  C   UNL A   1      42.457  28.764  33.769  1.00  0.00    -0.014 A 
ATOM     60  C   UNL A   1      42.543  27.368  33.591  1.00  0.00     0.010 A 
ATOM     61  C   UNL A   1      42.151  29.257  35.049  1.00  0.00     0.010 A 
ATOM     62  C   UNL A   1      42.301  26.494  34.663  1.00  0.00     0.020 A 
ATOM     63  C   UNL A   1      41.929  28.394  36.123  1.00  0.00     0.020 A 
ATOM     64  C   UNL A   1      41.994  27.015  35.924  1.00  0.00     0.054 A 
BRANCH  64  65
ATOM     65  S   UNL A   1      41.720  25.886  37.319  1.00  0.00     0.124 S 
ATOM     66  O   UNL A   1      42.769  26.280  38.256  1.00  0.00    -0.237 OA
ATOM     67  O   UNL A   1      40.356  26.203  37.732  1.00  0.00    -0.237 OA
ATOM     68  O   UNL A   1      41.885  24.558  36.729  1.00  0.00    -0.744 OA
ENDBRANCH  64  65
ENDBRANCH  38  59
ENDBRANCH  12  13
ENDBRANCH   5   7
ENDBRANCH   2   3
ENDBRANCH   1   2
BRANCH   1  69
ATOM     69  C   UNL A   1      39.403  21.652  26.044  1.00  0.00     0.002 C 
BRANCH  69  70
ATOM     70  C   UNL A   1      38.614  22.966  26.102  1.00  0.00     0.002 C 
BRANCH  70  71
ATOM     71  C   UNL A   1      37.288  23.003  25.332  1.00  0.00     0.021 C 
BRANCH  71  72
ATOM     72  C   UNL A   1      36.522  21.686  25.288  1.00  0.00     0.116 C 
BRANCH  72  73
ATOM     73  N   UNL A   1      35.671  21.483  26.453  1.00  0.00    -0.352 N 
ATOM     74  C   UNL A   1      34.303  21.413  26.533  1.00  0.00     0.253 C 
ATOM     75  H   UNL A   1      36.147  21.382  27.309  1.00  0.00     0.163 HD
ATOM     76  O   UNL A   1      33.750  21.251  27.620  1.00  0.00    -0.269 OA
BRANCH  74  77
ATOM     77  C   UNL A   1      33.470  21.573  25.322  1.00  0.00     0.065 A 
ATOM     78  C   UNL A   1      33.168  22.899  24.968  1.00  0.00     0.016 A 
ATOM     79  C   UNL A   1      33.063  20.522  24.487  1.00  0.00     0.079 A 
ATOM     80  C   UNL A   1      32.514  23.180  23.767  1.00  0.00     0.001 A 
ATOM     81  C   UNL A   1      32.449  20.819  23.256  1.00  0.00     0.029 A 
ATOM     82  C   UNL A   1      32.171  22.142  22.905  1.00  0.00     0.002 A 
BRANCH  79  83
ATOM     83  N   UNL A   1      33.259  19.164  24.823  1.00  0.00    -0.220 N 
ATOM     84  C   UNL A   1      34.296  18.316  24.508  1.00  0.00     0.137 A 
ATOM     85  N   UNL A   1      32.317  18.483  25.517  1.00  0.00    -0.062 NA
ATOM     86  C   UNL A   1      33.875  17.081  24.936  1.00  0.00     0.157 A 
ATOM     87  N   UNL A   1      32.656  17.202  25.531  1.00  0.00    -0.139 NA
ENDBRANCH  79  83
ENDBRANCH  74  77
ENDBRANCH  72  73
ENDBRANCH  71  72
ENDBRANCH  70  71
ENDBRANCH  69  70
ENDBRANCH   1  69
TORSDOF 17
ENDMDL
