MODEL 1
REMARK VINA RESULT:      -7.8      0.000      0.000
REMARK SMILES O=C(COc1ccc(C(=O)/C=C/c2ccc(Cl)c([N+](=O)[O-])c2)cc1)NCCCCCCNC(=O)c1ccc(-c2c3nc(c(-c4ccc(S(=O)(=O)[O-])cc4)c4ccc([nH]4)c(-c4ccc(S(=O)(=O)[O-])cc4)c4nc(c(-c5ccc(S(=O)(=O)[O-])cc5)c5ccc2[nH]5)C=C4)C=C3)cc1
REMARK SMILES IDX 27 1 26 2 25 3 1 4 2 5 3 7 4 8 5 9 6 10 24 11 7 12 23 13
REMARK SMILES IDX 8 14 9 15 10 16 11 17 12 18 13 19 14 20 22 21 15 22 18 23
REMARK SMILES IDX 16 24 17 25 19 26 20 27 21 28 28 29 29 30 30 31 31 32 32 33
REMARK SMILES IDX 33 34 34 36 35 37 36 38 94 39 37 40 93 41 38 42 39 43 40 44
REMARK SMILES IDX 87 45 41 46 92 47 86 48 88 49 42 50 91 51 85 52 84 53 43 55
REMARK SMILES IDX 73 56 54 57 72 58 55 59 58 60 71 61 89 62 56 63 57 64 70 66
REMARK SMILES IDX 90 67 59 68 44 69 45 70 53 71 46 72 52 73 47 74 48 75 49 76
REMARK SMILES IDX 50 77 51 78 74 79 75 80 83 81 76 82 82 83 77 84 78 85 79 86
REMARK SMILES IDX 80 87 81 88 60 89 61 90 69 91 62 92 68 93 63 94 64 95 65 96
REMARK SMILES IDX 66 97 67 98
REMARK H PARENT 25 6 32 35 88 54 58 65
REMARK Flexibility Score: inf
ROOT
ATOM      1  C   UNL A   1      46.106  20.154  25.107  1.00  0.00     0.021 C 
ENDROOT
BRANCH   1   2
ATOM      2  C   UNL A   1      44.928  19.329  24.608  1.00  0.00     0.116 C 
BRANCH   2   3
ATOM      3  N   UNL A   1      43.648  19.906  24.978  1.00  0.00    -0.353 N 
ATOM      4  O   UNL A   1      42.737  17.988  25.863  1.00  0.00    -0.271 OA
ATOM      5  C   UNL A   1      42.691  19.200  25.680  1.00  0.00     0.257 C 
ATOM      6  H   UNL A   1      43.457  20.836  24.719  1.00  0.00     0.163 HD
BRANCH   5   7
ATOM      7  C   UNL A   1      41.544  20.068  26.220  1.00  0.00     0.329 C 
BRANCH   7   8
ATOM      8  O   UNL A   1      41.405  21.388  25.688  1.00  0.00    -0.484 OA
BRANCH   8   9
ATOM      9  C   UNL A   1      42.027  22.344  26.448  1.00  0.00     0.120 A 
ATOM     10  C   UNL A   1      42.208  22.130  27.812  1.00  0.00     0.047 A 
ATOM     11  C   UNL A   1      42.336  23.587  25.908  1.00  0.00     0.047 A 
ATOM     12  C   UNL A   1      42.793  23.132  28.606  1.00  0.00     0.016 A 
ATOM     13  C   UNL A   1      42.889  24.591  26.697  1.00  0.00     0.016 A 
ATOM     14  C   UNL A   1      43.179  24.357  28.041  1.00  0.00     0.022 A 
BRANCH  14  15
ATOM     15  C   UNL A   1      43.828  25.398  28.894  1.00  0.00     0.185 C 
ATOM     16  O   UNL A   1      45.050  25.413  29.015  1.00  0.00    -0.289 OA
BRANCH  15  17
ATOM     17  C   UNL A   1      43.015  26.415  29.635  1.00  0.00     0.053 C 
ATOM     18  C   UNL A   1      42.608  27.586  29.124  1.00  0.00     0.012 C 
BRANCH  18  19
ATOM     19  C   UNL A   1      41.776  28.554  29.841  1.00  0.00    -0.019 A 
ATOM     20  C   UNL A   1      41.639  29.855  29.355  1.00  0.00     0.010 A 
ATOM     21  C   UNL A   1      41.201  28.218  31.067  1.00  0.00     0.095 A 
ATOM     22  C   UNL A   1      40.952  30.817  30.102  1.00  0.00     0.028 A 
ATOM     23  C   UNL A   1      40.520  29.191  31.834  1.00  0.00     0.288 A 
ATOM     24  C   UNL A   1      40.396  30.500  31.351  1.00  0.00     0.118 A 
ATOM     25  Cl  UNL A   1      39.605  31.807  32.159  1.00  0.00    -0.077 Cl
BRANCH  23  26
ATOM     26  N   UNL A   1      40.005  28.760  33.143  1.00  0.00     0.064 N 
ATOM     27  O   UNL A   1      40.796  28.435  34.034  1.00  0.00    -0.258 OA
ATOM     28  O   UNL A   1      38.772  28.709  33.273  1.00  0.00    -0.258 OA
ENDBRANCH  23  26
ENDBRANCH  18  19
ENDBRANCH  15  17
ENDBRANCH  14  15
ENDBRANCH   8   9
ENDBRANCH   7   8
ENDBRANCH   5   7
ENDBRANCH   2   3
ENDBRANCH   1   2
BRANCH   1  29
ATOM     29  C   UNL A   1      46.153  21.585  24.564  1.00  0.00     0.002 C 
BRANCH  29  30
ATOM     30  C   UNL A   1      46.103  22.696  25.618  1.00  0.00     0.002 C 
BRANCH  30  31
ATOM     31  C   UNL A   1      46.305  24.117  25.088  1.00  0.00     0.021 C 
BRANCH  31  32
ATOM     32  C   UNL A   1      47.095  25.044  26.008  1.00  0.00     0.116 C 
BRANCH  32  33
ATOM     33  N   UNL A   1      47.951  25.961  25.272  1.00  0.00    -0.352 N 
ATOM     34  C   UNL A   1      48.081  27.324  25.398  1.00  0.00     0.251 C 
ATOM     35  H   UNL A   1      48.520  25.545  24.585  1.00  0.00     0.163 HD
ATOM     36  O   UNL A   1      48.731  27.954  24.571  1.00  0.00    -0.269 OA
BRANCH  34  37
ATOM     37  C   UNL A   1      47.414  28.030  26.515  1.00  0.00     0.039 A 
ATOM     38  C   UNL A   1      46.017  28.044  26.567  1.00  0.00     0.014 A 
ATOM     39  C   UNL A   1      48.158  28.674  27.507  1.00  0.00     0.014 A 
ATOM     40  C   UNL A   1      45.370  28.646  27.648  1.00  0.00     0.010 A 
ATOM     41  C   UNL A   1      47.514  29.208  28.622  1.00  0.00     0.010 A 
ATOM     42  C   UNL A   1      46.113  29.200  28.705  1.00  0.00    -0.014 A 
BRANCH  42  43
ATOM     43  C   UNL A   1      45.442  29.766  29.906  1.00  0.00     0.031 A 
ATOM     44  C   UNL A   1      44.871  31.158  29.871  1.00  0.00     0.074 A 
ATOM     45  C   UNL A   1      45.396  29.046  31.046  1.00  0.00     0.049 A 
ATOM     46  N   UNL A   1      44.303  31.840  30.834  1.00  0.00    -0.248 NA
ATOM     47  C   UNL A   1      44.968  31.890  28.597  1.00  0.00     0.031 C 
ATOM     48  C   UNL A   1      45.945  27.698  31.221  1.00  0.00     0.029 A 
ATOM     49  N   UNL A   1      44.867  29.349  32.277  1.00  0.00    -0.354 N 
ATOM     50  C   UNL A   1      43.984  33.077  30.286  1.00  0.00     0.074 A 
ATOM     51  C   UNL A   1      44.469  33.074  28.924  1.00  0.00     0.031 C 
ATOM     52  C   UNL A   1      45.700  27.282  32.475  1.00  0.00     0.029 A 
ATOM     53  C   UNL A   1      45.022  28.346  33.208  1.00  0.00     0.049 A 
ATOM     54  H   UNL A   1      44.420  30.202  32.475  1.00  0.00     0.167 HD
ATOM     55  C   UNL A   1      43.326  34.115  30.858  1.00  0.00     0.031 A 
ATOM     56  C   UNL A   1      44.671  28.293  34.508  1.00  0.00     0.031 A 
ATOM     57  C   UNL A   1      42.837  34.113  32.212  1.00  0.00     0.049 A 
ATOM     58  C   UNL A   1      43.969  29.472  35.126  1.00  0.00     0.074 A 
ATOM     59  C   UNL A   1      42.121  35.101  32.866  1.00  0.00     0.029 A 
ATOM     60  N   UNL A   1      43.014  33.080  33.119  1.00  0.00    -0.354 N 
ATOM     61  N   UNL A   1      43.621  30.609  34.571  1.00  0.00    -0.248 NA
ATOM     62  C   UNL A   1      43.600  29.356  36.544  1.00  0.00     0.031 C 
ATOM     63  C   UNL A   1      41.915  34.689  34.186  1.00  0.00     0.029 A 
ATOM     64  C   UNL A   1      42.442  33.415  34.334  1.00  0.00     0.049 A 
ATOM     65  H   UNL A   1      43.477  32.233  32.926  1.00  0.00     0.167 HD
ATOM     66  C   UNL A   1      42.965  31.329  35.564  1.00  0.00     0.074 A 
ATOM     67  C   UNL A   1      42.947  30.493  36.745  1.00  0.00     0.031 C 
ATOM     68  C   UNL A   1      42.426  32.572  35.501  1.00  0.00     0.031 A 
BRANCH  55  69
ATOM     69  C   UNL A   1      43.092  35.345  30.020  1.00  0.00    -0.014 A 
ATOM     70  C   UNL A   1      43.971  36.443  30.082  1.00  0.00     0.010 A 
ATOM     71  C   UNL A   1      42.021  35.379  29.108  1.00  0.00     0.010 A 
ATOM     72  C   UNL A   1      43.767  37.561  29.270  1.00  0.00     0.020 A 
ATOM     73  C   UNL A   1      41.831  36.484  28.272  1.00  0.00     0.020 A 
ATOM     74  C   UNL A   1      42.699  37.573  28.367  1.00  0.00     0.054 A 
BRANCH  74  75
ATOM     75  S   UNL A   1      42.489  39.019  27.294  1.00  0.00     0.124 S 
ATOM     76  O   UNL A   1      41.308  38.650  26.517  1.00  0.00    -0.237 OA
ATOM     77  O   UNL A   1      42.295  40.103  28.255  1.00  0.00    -0.237 OA
ATOM     78  O   UNL A   1      43.738  39.077  26.538  1.00  0.00    -0.744 OA
ENDBRANCH  74  75
ENDBRANCH  55  69
BRANCH  56  79
ATOM     79  C   UNL A   1      44.978  27.081  35.319  1.00  0.00    -0.014 A 
ATOM     80  C   UNL A   1      44.048  26.033  35.427  1.00  0.00     0.010 A 
ATOM     81  C   UNL A   1      46.202  26.980  36.006  1.00  0.00     0.010 A 
ATOM     82  C   UNL A   1      44.321  24.922  36.232  1.00  0.00     0.020 A 
ATOM     83  C   UNL A   1      46.493  25.857  36.784  1.00  0.00     0.020 A 
ATOM     84  C   UNL A   1      45.542  24.842  36.906  1.00  0.00     0.054 A 
BRANCH  84  85
ATOM     85  S   UNL A   1      45.888  23.379  37.922  1.00  0.00     0.124 S 
ATOM     86  O   UNL A   1      47.322  23.504  38.154  1.00  0.00    -0.237 OA
ATOM     87  O   UNL A   1      45.034  23.595  39.087  1.00  0.00    -0.237 OA
ATOM     88  O   UNL A   1      45.485  22.267  37.064  1.00  0.00    -0.744 OA
ENDBRANCH  84  85
ENDBRANCH  56  79
BRANCH  68  89
ATOM     89  C   UNL A   1      41.730  33.091  36.733  1.00  0.00    -0.014 A 
ATOM     90  C   UNL A   1      42.408  33.875  37.683  1.00  0.00     0.010 A 
ATOM     91  C   UNL A   1      40.359  32.833  36.913  1.00  0.00     0.010 A 
ATOM     92  C   UNL A   1      41.736  34.363  38.806  1.00  0.00     0.020 A 
ATOM     93  C   UNL A   1      39.674  33.346  38.017  1.00  0.00     0.020 A 
ATOM     94  C   UNL A   1      40.372  34.097  38.966  1.00  0.00     0.054 A 
BRANCH  94  95
ATOM     95  S   UNL A   1      39.513  34.780  40.409  1.00  0.00     0.124 S 
ATOM     96  O   UNL A   1      40.285  34.221  41.515  1.00  0.00    -0.237 OA
ATOM     97  O   UNL A   1      39.651  36.221  40.211  1.00  0.00    -0.237 OA
ATOM     98  O   UNL A   1      38.151  34.267  40.278  1.00  0.00    -0.744 OA
ENDBRANCH  94  95
ENDBRANCH  68  89
ENDBRANCH  42  43
ENDBRANCH  34  37
ENDBRANCH  32  33
ENDBRANCH  31  32
ENDBRANCH  30  31
ENDBRANCH  29  30
ENDBRANCH   1  29
TORSDOF 22
ENDMDL
MODEL 2
REMARK VINA RESULT:      -7.7      4.603      8.725
REMARK SMILES O=C(COc1ccc(C(=O)/C=C/c2ccc(Cl)c([N+](=O)[O-])c2)cc1)NCCCCCCNC(=O)c1ccc(-c2c3nc(c(-c4ccc(S(=O)(=O)[O-])cc4)c4ccc([nH]4)c(-c4ccc(S(=O)(=O)[O-])cc4)c4nc(c(-c5ccc(S(=O)(=O)[O-])cc5)c5ccc2[nH]5)C=C4)C=C3)cc1
REMARK SMILES IDX 27 1 26 2 25 3 1 4 2 5 3 7 4 8 5 9 6 10 24 11 7 12 23 13
REMARK SMILES IDX 8 14 9 15 10 16 11 17 12 18 13 19 14 20 22 21 15 22 18 23
REMARK SMILES IDX 16 24 17 25 19 26 20 27 21 28 28 29 29 30 30 31 31 32 32 33
REMARK SMILES IDX 33 34 34 36 35 37 36 38 94 39 37 40 93 41 38 42 39 43 40 44
REMARK SMILES IDX 87 45 41 46 92 47 86 48 88 49 42 50 91 51 85 52 84 53 43 55
REMARK SMILES IDX 73 56 54 57 72 58 55 59 58 60 71 61 89 62 56 63 57 64 70 66
REMARK SMILES IDX 90 67 59 68 44 69 45 70 53 71 46 72 52 73 47 74 48 75 49 76
REMARK SMILES IDX 50 77 51 78 74 79 75 80 83 81 76 82 82 83 77 84 78 85 79 86
REMARK SMILES IDX 80 87 81 88 60 89 61 90 69 91 62 92 68 93 63 94 64 95 65 96
REMARK SMILES IDX 66 97 67 98
REMARK H PARENT 25 6 32 35 88 54 58 65
REMARK Flexibility Score: inf
ROOT
ATOM      1  C   UNL A   1      45.544  21.579  24.410  1.00  0.00     0.021 C 
ENDROOT
BRANCH   1   2
ATOM      2  C   UNL A   1      44.955  20.241  23.985  1.00  0.00     0.116 C 
BRANCH   2   3
ATOM      3  N   UNL A   1      43.757  19.899  24.730  1.00  0.00    -0.353 N 
ATOM      4  O   UNL A   1      44.579  17.979  25.692  1.00  0.00    -0.271 OA
ATOM      5  C   UNL A   1      43.709  18.841  25.614  1.00  0.00     0.257 C 
ATOM      6  H   UNL A   1      42.948  20.444  24.599  1.00  0.00     0.163 HD
BRANCH   5   7
ATOM      7  C   UNL A   1      42.457  18.825  26.506  1.00  0.00     0.329 C 
BRANCH   7   8
ATOM      8  O   UNL A   1      41.187  18.700  25.862  1.00  0.00    -0.484 OA
BRANCH   8   9
ATOM      9  C   UNL A   1      40.452  19.856  25.888  1.00  0.00     0.120 A 
ATOM     10  C   UNL A   1      40.931  20.961  26.589  1.00  0.00     0.047 A 
ATOM     11  C   UNL A   1      39.166  19.890  25.362  1.00  0.00     0.047 A 
ATOM     12  C   UNL A   1      40.154  22.129  26.668  1.00  0.00     0.016 A 
ATOM     13  C   UNL A   1      38.383  21.036  25.463  1.00  0.00     0.016 A 
ATOM     14  C   UNL A   1      38.888  22.189  26.065  1.00  0.00     0.022 A 
BRANCH  14  15
ATOM     15  C   UNL A   1      38.090  23.449  26.132  1.00  0.00     0.185 C 
ATOM     16  O   UNL A   1      38.524  24.414  26.758  1.00  0.00    -0.289 OA
BRANCH  15  17
ATOM     17  C   UNL A   1      36.749  23.559  25.474  1.00  0.00     0.053 C 
ATOM     18  C   UNL A   1      35.647  24.047  26.063  1.00  0.00     0.012 C 
BRANCH  18  19
ATOM     19  C   UNL A   1      34.352  24.192  25.397  1.00  0.00    -0.019 A 
ATOM     20  C   UNL A   1      33.226  23.545  25.907  1.00  0.00     0.010 A 
ATOM     21  C   UNL A   1      34.253  24.889  24.191  1.00  0.00     0.095 A 
ATOM     22  C   UNL A   1      32.017  23.576  25.204  1.00  0.00     0.028 A 
ATOM     23  C   UNL A   1      33.038  24.909  23.469  1.00  0.00     0.288 A 
ATOM     24  C   UNL A   1      31.912  24.247  23.976  1.00  0.00     0.118 A 
ATOM     25  Cl  UNL A   1      30.359  24.167  23.222  1.00  0.00    -0.077 Cl
BRANCH  23  26
ATOM     26  N   UNL A   1      33.048  25.614  22.178  1.00  0.00     0.064 N 
ATOM     27  O   UNL A   1      34.048  26.252  21.838  1.00  0.00    -0.258 OA
ATOM     28  O   UNL A   1      32.010  25.558  21.499  1.00  0.00    -0.258 OA
ENDBRANCH  23  26
ENDBRANCH  18  19
ENDBRANCH  15  17
ENDBRANCH  14  15
ENDBRANCH   8   9
ENDBRANCH   7   8
ENDBRANCH   5   7
ENDBRANCH   2   3
ENDBRANCH   1   2
BRANCH   1  29
ATOM     29  C   UNL A   1      44.748  22.800  23.940  1.00  0.00     0.002 C 
BRANCH  29  30
ATOM     30  C   UNL A   1      43.419  23.042  24.663  1.00  0.00     0.002 C 
BRANCH  30  31
ATOM     31  C   UNL A   1      43.218  24.455  25.217  1.00  0.00     0.021 C 
BRANCH  31  32
ATOM     32  C   UNL A   1      43.633  24.642  26.674  1.00  0.00     0.116 C 
BRANCH  32  33
ATOM     33  N   UNL A   1      44.988  24.178  26.931  1.00  0.00    -0.352 N 
ATOM     34  C   UNL A   1      45.880  24.584  27.894  1.00  0.00     0.251 C 
ATOM     35  H   UNL A   1      45.311  23.470  26.327  1.00  0.00     0.163 HD
ATOM     36  O   UNL A   1      47.042  24.197  27.850  1.00  0.00    -0.269 OA
BRANCH  34  37
ATOM     37  C   UNL A   1      45.442  25.507  28.965  1.00  0.00     0.039 A 
ATOM     38  C   UNL A   1      45.775  26.861  28.867  1.00  0.00     0.014 A 
ATOM     39  C   UNL A   1      44.708  25.043  30.060  1.00  0.00     0.014 A 
ATOM     40  C   UNL A   1      45.314  27.759  29.833  1.00  0.00     0.010 A 
ATOM     41  C   UNL A   1      44.186  25.950  30.980  1.00  0.00     0.010 A 
ATOM     42  C   UNL A   1      44.483  27.318  30.878  1.00  0.00    -0.014 A 
BRANCH  42  43
ATOM     43  C   UNL A   1      43.911  28.274  31.863  1.00  0.00     0.031 A 
ATOM     44  C   UNL A   1      44.591  28.498  33.187  1.00  0.00     0.074 A 
ATOM     45  C   UNL A   1      42.747  28.900  31.588  1.00  0.00     0.049 A 
ATOM     46  N   UNL A   1      44.211  29.245  34.192  1.00  0.00    -0.248 NA
ATOM     47  C   UNL A   1      45.851  27.772  33.424  1.00  0.00     0.031 C 
ATOM     48  C   UNL A   1      41.970  28.741  30.355  1.00  0.00     0.029 A 
ATOM     49  N   UNL A   1      42.011  29.791  32.329  1.00  0.00    -0.354 N 
ATOM     50  C   UNL A   1      45.176  29.075  35.179  1.00  0.00     0.074 A 
ATOM     51  C   UNL A   1      46.130  28.112  34.674  1.00  0.00     0.031 C 
ATOM     52  C   UNL A   1      40.884  29.529  30.415  1.00  0.00     0.029 A 
ATOM     53  C   UNL A   1      40.859  30.211  31.705  1.00  0.00     0.049 A 
ATOM     54  H   UNL A   1      42.283  30.101  33.222  1.00  0.00     0.167 HD
ATOM     55  C   UNL A   1      45.272  29.681  36.386  1.00  0.00     0.031 A 
ATOM     56  C   UNL A   1      39.884  31.041  32.127  1.00  0.00     0.031 A 
ATOM     57  C   UNL A   1      44.326  30.645  36.884  1.00  0.00     0.049 A 
ATOM     58  C   UNL A   1      40.001  31.677  33.486  1.00  0.00     0.074 A 
ATOM     59  C   UNL A   1      44.362  31.347  38.076  1.00  0.00     0.029 A 
ATOM     60  N   UNL A   1      43.175  31.043  36.221  1.00  0.00    -0.354 N 
ATOM     61  N   UNL A   1      40.955  31.549  34.378  1.00  0.00    -0.248 NA
ATOM     62  C   UNL A   1      38.914  32.580  33.891  1.00  0.00     0.031 C 
ATOM     63  C   UNL A   1      43.204  32.124  38.161  1.00  0.00     0.029 A 
ATOM     64  C   UNL A   1      42.480  31.961  36.990  1.00  0.00     0.049 A 
ATOM     65  H   UNL A   1      42.894  30.720  35.334  1.00  0.00     0.167 HD
ATOM     66  C   UNL A   1      40.598  32.381  35.434  1.00  0.00     0.074 A 
ATOM     67  C   UNL A   1      39.354  33.019  35.063  1.00  0.00     0.031 C 
ATOM     68  C   UNL A   1      41.245  32.594  36.607  1.00  0.00     0.031 A 
BRANCH  55  69
ATOM     69  C   UNL A   1      46.447  29.324  37.260  1.00  0.00    -0.014 A 
ATOM     70  C   UNL A   1      47.651  30.048  37.188  1.00  0.00     0.010 A 
ATOM     71  C   UNL A   1      46.324  28.297  38.215  1.00  0.00     0.010 A 
ATOM     72  C   UNL A   1      48.718  29.735  38.033  1.00  0.00     0.020 A 
ATOM     73  C   UNL A   1      47.379  28.000  39.082  1.00  0.00     0.020 A 
ATOM     74  C   UNL A   1      48.575  28.714  38.978  1.00  0.00     0.054 A 
BRANCH  74  75
ATOM     75  S   UNL A   1      49.962  28.363  40.091  1.00  0.00     0.124 S 
ATOM     76  O   UNL A   1      49.918  29.506  40.999  1.00  0.00    -0.237 OA
ATOM     77  O   UNL A   1      49.583  27.080  40.677  1.00  0.00    -0.237 OA
ATOM     78  O   UNL A   1      51.120  28.320  39.201  1.00  0.00    -0.744 OA
ENDBRANCH  74  75
ENDBRANCH  55  69
BRANCH  56  79
ATOM     79  C   UNL A   1      38.707  31.319  31.257  1.00  0.00    -0.014 A 
ATOM     80  C   UNL A   1      38.713  32.402  30.361  1.00  0.00     0.010 A 
ATOM     81  C   UNL A   1      37.560  30.507  31.335  1.00  0.00     0.010 A 
ATOM     82  C   UNL A   1      37.586  32.689  29.585  1.00  0.00     0.020 A 
ATOM     83  C   UNL A   1      36.443  30.770  30.537  1.00  0.00     0.020 A 
ATOM     84  C   UNL A   1      36.458  31.870  29.680  1.00  0.00     0.054 A 
BRANCH  84  85
ATOM     85  S   UNL A   1      35.015  32.243  28.643  1.00  0.00     0.124 S 
ATOM     86  O   UNL A   1      34.115  32.881  29.596  1.00  0.00    -0.237 OA
ATOM     87  O   UNL A   1      35.582  33.118  27.619  1.00  0.00    -0.237 OA
ATOM     88  O   UNL A   1      34.594  30.929  28.163  1.00  0.00    -0.744 OA
ENDBRANCH  84  85
ENDBRANCH  56  79
BRANCH  68  89
ATOM     89  C   UNL A   1      40.643  33.594  37.561  1.00  0.00    -0.014 A 
ATOM     90  C   UNL A   1      39.831  33.186  38.634  1.00  0.00     0.010 A 
ATOM     91  C   UNL A   1      40.942  34.960  37.410  1.00  0.00     0.010 A 
ATOM     92  C   UNL A   1      39.302  34.130  39.518  1.00  0.00     0.020 A 
ATOM     93  C   UNL A   1      40.443  35.904  38.310  1.00  0.00     0.020 A 
ATOM     94  C   UNL A   1      39.613  35.484  39.352  1.00  0.00     0.054 A 
BRANCH  94  95
ATOM     95  S   UNL A   1      38.950  36.683  40.539  1.00  0.00     0.124 S 
ATOM     96  O   UNL A   1      38.453  37.738  39.661  1.00  0.00    -0.237 OA
ATOM     97  O   UNL A   1      37.925  35.909  41.236  1.00  0.00    -0.237 OA
ATOM     98  O   UNL A   1      40.109  37.044  41.352  1.00  0.00    -0.744 OA
ENDBRANCH  94  95
ENDBRANCH  68  89
ENDBRANCH  42  43
ENDBRANCH  34  37
ENDBRANCH  32  33
ENDBRANCH  31  32
ENDBRANCH  30  31
ENDBRANCH  29  30
ENDBRANCH   1  29
TORSDOF 22
ENDMDL
MODEL 3
REMARK VINA RESULT:      -7.7      2.139      8.434
REMARK SMILES O=C(COc1ccc(C(=O)/C=C/c2ccc(Cl)c([N+](=O)[O-])c2)cc1)NCCCCCCNC(=O)c1ccc(-c2c3nc(c(-c4ccc(S(=O)(=O)[O-])cc4)c4ccc([nH]4)c(-c4ccc(S(=O)(=O)[O-])cc4)c4nc(c(-c5ccc(S(=O)(=O)[O-])cc5)c5ccc2[nH]5)C=C4)C=C3)cc1
REMARK SMILES IDX 27 1 26 2 25 3 1 4 2 5 3 7 4 8 5 9 6 10 24 11 7 12 23 13
REMARK SMILES IDX 8 14 9 15 10 16 11 17 12 18 13 19 14 20 22 21 15 22 18 23
REMARK SMILES IDX 16 24 17 25 19 26 20 27 21 28 28 29 29 30 30 31 31 32 32 33
REMARK SMILES IDX 33 34 34 36 35 37 36 38 94 39 37 40 93 41 38 42 39 43 40 44
REMARK SMILES IDX 87 45 41 46 92 47 86 48 88 49 42 50 91 51 85 52 84 53 43 55
REMARK SMILES IDX 73 56 54 57 72 58 55 59 58 60 71 61 89 62 56 63 57 64 70 66
REMARK SMILES IDX 90 67 59 68 44 69 45 70 53 71 46 72 52 73 47 74 48 75 49 76
REMARK SMILES IDX 50 77 51 78 74 79 75 80 83 81 76 82 82 83 77 84 78 85 79 86
REMARK SMILES IDX 80 87 81 88 60 89 61 90 69 91 62 92 68 93 63 94 64 95 65 96
REMARK SMILES IDX 66 97 67 98
REMARK H PARENT 25 6 32 35 88 54 58 65
REMARK Flexibility Score: inf
ROOT
ATOM      1  C   UNL A   1      43.741  21.881  25.375  1.00  0.00     0.021 C 
ENDROOT
BRANCH   1   2
ATOM      2  C   UNL A   1      42.308  22.173  25.798  1.00  0.00     0.116 C 
BRANCH   2   3
ATOM      3  N   UNL A   1      42.187  23.425  26.523  1.00  0.00    -0.353 N 
ATOM      4  O   UNL A   1      40.116  23.007  27.433  1.00  0.00    -0.271 OA
ATOM      5  C   UNL A   1      41.134  23.691  27.375  1.00  0.00     0.257 C 
ATOM      6  H   UNL A   1      42.884  24.110  26.403  1.00  0.00     0.163 HD
BRANCH   5   7
ATOM      7  C   UNL A   1      41.338  24.933  28.256  1.00  0.00     0.329 C 
BRANCH   7   8
ATOM      8  O   UNL A   1      41.641  26.168  27.601  1.00  0.00    -0.484 OA
BRANCH   8   9
ATOM      9  C   UNL A   1      40.636  27.094  27.702  1.00  0.00     0.120 A 
ATOM     10  C   UNL A   1      40.722  28.284  26.984  1.00  0.00     0.047 A 
ATOM     11  C   UNL A   1      39.615  26.932  28.630  1.00  0.00     0.047 A 
ATOM     12  C   UNL A   1      39.723  29.262  27.129  1.00  0.00     0.016 A 
ATOM     13  C   UNL A   1      38.640  27.911  28.796  1.00  0.00     0.016 A 
ATOM     14  C   UNL A   1      38.648  29.061  28.008  1.00  0.00     0.022 A 
BRANCH  14  15
ATOM     15  C   UNL A   1      37.579  30.098  28.125  1.00  0.00     0.185 C 
ATOM     16  O   UNL A   1      36.637  30.096  27.336  1.00  0.00    -0.289 OA
BRANCH  15  17
ATOM     17  C   UNL A   1      37.642  31.166  29.173  1.00  0.00     0.053 C 
ATOM     18  C   UNL A   1      38.059  30.976  30.433  1.00  0.00     0.012 C 
BRANCH  18  19
ATOM     19  C   UNL A   1      38.160  32.036  31.437  1.00  0.00    -0.019 A 
ATOM     20  C   UNL A   1      38.914  33.181  31.173  1.00  0.00     0.010 A 
ATOM     21  C   UNL A   1      37.594  31.867  32.701  1.00  0.00     0.095 A 
ATOM     22  C   UNL A   1      39.118  34.136  32.175  1.00  0.00     0.028 A 
ATOM     23  C   UNL A   1      37.811  32.821  33.721  1.00  0.00     0.288 A 
ATOM     24  C   UNL A   1      38.580  33.962  33.459  1.00  0.00     0.118 A 
ATOM     25  Cl  UNL A   1      38.948  35.217  34.588  1.00  0.00    -0.077 Cl
BRANCH  23  26
ATOM     26  N   UNL A   1      37.229  32.524  35.039  1.00  0.00     0.064 N 
ATOM     27  O   UNL A   1      37.638  31.554  35.684  1.00  0.00    -0.258 OA
ATOM     28  O   UNL A   1      36.309  33.262  35.428  1.00  0.00    -0.258 OA
ENDBRANCH  23  26
ENDBRANCH  18  19
ENDBRANCH  15  17
ENDBRANCH  14  15
ENDBRANCH   8   9
ENDBRANCH   7   8
ENDBRANCH   5   7
ENDBRANCH   2   3
ENDBRANCH   1   2
BRANCH   1  29
ATOM     29  C   UNL A   1      44.284  22.812  24.287  1.00  0.00     0.002 C 
BRANCH  29  30
ATOM     30  C   UNL A   1      45.131  23.988  24.784  1.00  0.00     0.002 C 
BRANCH  30  31
ATOM     31  C   UNL A   1      46.644  23.755  24.782  1.00  0.00     0.021 C 
BRANCH  31  32
ATOM     32  C   UNL A   1      47.482  24.949  25.232  1.00  0.00     0.116 C 
BRANCH  32  33
ATOM     33  N   UNL A   1      47.747  25.884  24.149  1.00  0.00    -0.352 N 
ATOM     34  C   UNL A   1      47.437  27.219  24.054  1.00  0.00     0.251 C 
ATOM     35  H   UNL A   1      48.217  25.503  23.372  1.00  0.00     0.163 HD
ATOM     36  O   UNL A   1      47.589  27.806  22.989  1.00  0.00    -0.269 OA
BRANCH  34  37
ATOM     37  C   UNL A   1      46.895  27.937  25.231  1.00  0.00     0.039 A 
ATOM     38  C   UNL A   1      45.520  27.894  25.473  1.00  0.00     0.014 A 
ATOM     39  C   UNL A   1      47.736  28.649  26.090  1.00  0.00     0.014 A 
ATOM     40  C   UNL A   1      44.998  28.509  26.614  1.00  0.00     0.010 A 
ATOM     41  C   UNL A   1      47.226  29.196  27.265  1.00  0.00     0.010 A 
ATOM     42  C   UNL A   1      45.851  29.133  27.541  1.00  0.00    -0.014 A 
BRANCH  42  43
ATOM     43  C   UNL A   1      45.324  29.714  28.804  1.00  0.00     0.031 A 
ATOM     44  C   UNL A   1      45.217  28.866  30.043  1.00  0.00     0.074 A 
ATOM     45  C   UNL A   1      44.889  30.992  28.821  1.00  0.00     0.049 A 
ATOM     46  N   UNL A   1      44.730  29.181  31.217  1.00  0.00    -0.248 NA
ATOM     47  C   UNL A   1      45.698  27.478  29.948  1.00  0.00     0.031 C 
ATOM     48  C   UNL A   1      44.905  31.908  27.677  1.00  0.00     0.029 A 
ATOM     49  N   UNL A   1      44.343  31.740  29.835  1.00  0.00    -0.354 N 
ATOM     50  C   UNL A   1      44.839  28.033  31.994  1.00  0.00     0.074 A 
ATOM     51  C   UNL A   1      45.387  26.999  31.144  1.00  0.00     0.031 C 
ATOM     52  C   UNL A   1      44.419  33.100  28.061  1.00  0.00     0.029 A 
ATOM     53  C   UNL A   1      44.013  33.022  29.460  1.00  0.00     0.049 A 
ATOM     54  H   UNL A   1      44.203  31.392  30.744  1.00  0.00     0.167 HD
ATOM     55  C   UNL A   1      44.532  27.861  33.302  1.00  0.00     0.031 A 
ATOM     56  C   UNL A   1      43.435  34.020  30.158  1.00  0.00     0.031 A 
ATOM     57  C   UNL A   1      43.993  28.894  34.148  1.00  0.00     0.049 A 
ATOM     58  C   UNL A   1      43.076  33.791  31.602  1.00  0.00     0.074 A 
ATOM     59  C   UNL A   1      43.691  28.827  35.497  1.00  0.00     0.029 A 
ATOM     60  N   UNL A   1      43.674  30.176  33.730  1.00  0.00    -0.354 N 
ATOM     61  N   UNL A   1      43.246  32.716  32.334  1.00  0.00    -0.248 NA
ATOM     62  C   UNL A   1      42.457  34.916  32.318  1.00  0.00     0.031 C 
ATOM     63  C   UNL A   1      43.135  30.050  35.881  1.00  0.00     0.029 A 
ATOM     64  C   UNL A   1      43.156  30.903  34.789  1.00  0.00     0.049 A 
ATOM     65  H   UNL A   1      43.799  30.520  32.816  1.00  0.00     0.167 HD
ATOM     66  C   UNL A   1      42.785  33.047  33.604  1.00  0.00     0.074 A 
ATOM     67  C   UNL A   1      42.348  34.425  33.545  1.00  0.00     0.031 C 
ATOM     68  C   UNL A   1      42.729  32.276  34.718  1.00  0.00     0.031 A 
BRANCH  55  69
ATOM     69  C   UNL A   1      44.773  26.502  33.907  1.00  0.00    -0.014 A 
ATOM     70  C   UNL A   1      43.816  25.476  33.790  1.00  0.00     0.010 A 
ATOM     71  C   UNL A   1      45.998  26.223  34.540  1.00  0.00     0.010 A 
ATOM     72  C   UNL A   1      44.069  24.208  34.318  1.00  0.00     0.020 A 
ATOM     73  C   UNL A   1      46.266  24.947  35.045  1.00  0.00     0.020 A 
ATOM     74  C   UNL A   1      45.294  23.950  34.940  1.00  0.00     0.054 A 
BRANCH  74  75
ATOM     75  S   UNL A   1      45.609  22.281  35.575  1.00  0.00     0.124 S 
ATOM     76  O   UNL A   1      45.460  22.473  37.015  1.00  0.00    -0.237 OA
ATOM     77  O   UNL A   1      44.560  21.494  34.934  1.00  0.00    -0.237 OA
ATOM     78  O   UNL A   1      46.968  21.988  35.124  1.00  0.00    -0.744 OA
ENDBRANCH  74  75
ENDBRANCH  55  69
BRANCH  56  79
ATOM     79  C   UNL A   1      43.155  35.329  29.504  1.00  0.00    -0.014 A 
ATOM     80  C   UNL A   1      41.989  35.518  28.742  1.00  0.00     0.010 A 
ATOM     81  C   UNL A   1      44.069  36.392  29.625  1.00  0.00     0.010 A 
ATOM     82  C   UNL A   1      41.757  36.732  28.088  1.00  0.00     0.020 A 
ATOM     83  C   UNL A   1      43.825  37.618  29.000  1.00  0.00     0.020 A 
ATOM     84  C   UNL A   1      42.678  37.774  28.221  1.00  0.00     0.054 A 
BRANCH  84  85
ATOM     85  S   UNL A   1      42.344  39.351  27.386  1.00  0.00     0.124 S 
ATOM     86  O   UNL A   1      41.958  40.207  28.501  1.00  0.00    -0.237 OA
ATOM     87  O   UNL A   1      43.630  39.657  26.765  1.00  0.00    -0.237 OA
ATOM     88  O   UNL A   1      41.273  39.018  26.449  1.00  0.00    -0.744 OA
ENDBRANCH  84  85
ENDBRANCH  56  79
BRANCH  68  89
ATOM     89  C   UNL A   1      42.216  32.917  35.983  1.00  0.00    -0.014 A 
ATOM     90  C   UNL A   1      43.054  33.689  36.806  1.00  0.00     0.010 A 
ATOM     91  C   UNL A   1      40.856  32.787  36.321  1.00  0.00     0.010 A 
ATOM     92  C   UNL A   1      42.550  34.291  37.961  1.00  0.00     0.020 A 
ATOM     93  C   UNL A   1      40.340  33.413  37.458  1.00  0.00     0.020 A 
ATOM     94  C   UNL A   1      41.195  34.151  38.280  1.00  0.00     0.054 A 
BRANCH  94  95
ATOM     95  S   UNL A   1      40.557  34.979  39.761  1.00  0.00     0.124 S 
ATOM     96  O   UNL A   1      39.444  35.754  39.221  1.00  0.00    -0.237 OA
ATOM     97  O   UNL A   1      40.184  33.856  40.619  1.00  0.00    -0.237 OA
ATOM     98  O   UNL A   1      41.692  35.767  40.235  1.00  0.00    -0.744 OA
ENDBRANCH  94  95
ENDBRANCH  68  89
ENDBRANCH  42  43
ENDBRANCH  34  37
ENDBRANCH  32  33
ENDBRANCH  31  32
ENDBRANCH  30  31
ENDBRANCH  29  30
ENDBRANCH   1  29
TORSDOF 22
ENDMDL
