MODEL 1
REMARK VINA RESULT:     -10.2      0.000      0.000
REMARK SMILES O=C(CCN1C(=O)/C(=C/C=C/c2ccco2)SC1=S)Nc1ccc(C(=O)NCCCCCCNC(=O)c2ccc(-c3c4nc(c(-c5ccc(S(=O)(=O)[O-])cc5)c5ccc([nH]5)c(-c5ccc(S(=O)(=O)[O-])cc5)c5nc(c(-c6ccc(S(=O)(=O)[O-])cc6)c6ccc3[nH]6)C=C5)C=C4)cc2)c(O)c1
REMARK SMILES IDX 29 1 28 2 27 3 25 4 26 5 24 7 21 8 22 9 99 10 23 11 97 12
REMARK SMILES IDX 20 13 1 14 2 15 3 17 4 18 5 19 6 20 18 21 7 22 8 23 17 24
REMARK SMILES IDX 19 25 9 26 10 27 11 28 12 29 13 30 16 31 14 32 15 33 98 34
REMARK SMILES IDX 30 36 31 37 32 38 33 39 34 40 35 41 36 43 37 44 38 45 96 46
REMARK SMILES IDX 39 47 95 48 40 49 41 50 42 51 89 52 43 53 94 54 88 55 90 56
REMARK SMILES IDX 44 57 93 58 87 59 86 60 45 62 75 63 56 64 74 65 57 66 60 67
REMARK SMILES IDX 73 68 91 69 58 70 59 71 72 73 92 74 61 75 46 76 47 77 55 78
REMARK SMILES IDX 48 79 54 80 49 81 50 82 51 83 52 84 53 85 76 86 77 87 85 88
REMARK SMILES IDX 78 89 84 90 79 91 80 92 81 93 82 94 83 95 62 96 63 97 71 98
REMARK SMILES IDX 64 99 70 100 65 101 66 102 67 103 68 104 69 105
REMARK H PARENT 27 6 20 16 98 35 34 42 90 61 60 72
REMARK Flexibility Score: inf
ROOT
ATOM      1  C   UNL A   1      35.293  32.324  28.040  1.00  0.00     0.021 C 
ENDROOT
BRANCH   1   2
ATOM      2  C   UNL A   1      34.332  31.178  27.731  1.00  0.00     0.116 C 
BRANCH   2   3
ATOM      3  N   UNL A   1      33.037  31.610  27.228  1.00  0.00    -0.352 N 
ATOM      4  C   UNL A   1      32.049  30.908  26.583  1.00  0.00     0.255 C 
ATOM      5  O   UNL A   1      31.038  31.505  26.217  1.00  0.00    -0.269 OA
ATOM      6  H   UNL A   1      32.837  32.563  27.375  1.00  0.00     0.163 HD
BRANCH   4   7
ATOM      7  C   UNL A   1      32.180  29.463  26.277  1.00  0.00     0.081 A 
ATOM      8  C   UNL A   1      32.194  26.681  25.824  1.00  0.00     0.044 A 
ATOM      9  C   UNL A   1      31.710  27.189  27.025  1.00  0.00     0.027 A 
ATOM     10  C   UNL A   1      32.751  27.561  24.890  1.00  0.00     0.073 A 
ATOM     11  C   UNL A   1      31.712  28.570  27.255  1.00  0.00     0.020 A 
ATOM     12  C   UNL A   1      32.758  28.938  25.120  1.00  0.00     0.130 A 
BRANCH   8  13
ATOM     13  N   UNL A   1      32.166  25.316  25.486  1.00  0.00    -0.326 N 
ATOM     14  O   UNL A   1      30.286  25.199  24.119  1.00  0.00    -0.275 OA
ATOM     15  C   UNL A   1      31.260  24.683  24.658  1.00  0.00     0.226 C 
ATOM     16  H   UNL A   1      32.869  24.751  25.881  1.00  0.00     0.169 HD
BRANCH  15  17
ATOM     17  C   UNL A   1      31.553  23.205  24.468  1.00  0.00     0.122 C 
BRANCH  17  18
ATOM     18  C   UNL A   1      32.171  22.515  25.691  1.00  0.00     0.137 C 
BRANCH  18  19
ATOM     19  N   UNL A   1      33.489  21.907  25.443  1.00  0.00    -0.292 N 
ATOM     20  C   UNL A   1      34.628  22.696  25.563  1.00  0.00     0.266 C 
ATOM     21  C   UNL A   1      33.688  20.603  25.031  1.00  0.00     0.148 C 
ATOM     22  O   UNL A   1      34.650  23.881  25.846  1.00  0.00    -0.268 OA
ATOM     23  C   UNL A   1      35.848  21.864  25.384  1.00  0.00     0.080 C 
ATOM     24  S   UNL A   1      35.410  20.273  24.909  1.00  0.00    -0.054 SA
ATOM     25  S   UNL A   1      32.542  19.435  24.712  1.00  0.00    -0.052 S 
ATOM     26  C   UNL A   1      37.071  22.330  25.674  1.00  0.00     0.021 C 
BRANCH  26  27
ATOM     27  C   UNL A   1      38.308  21.575  25.600  1.00  0.00     0.005 C 
ATOM     28  C   UNL A   1      39.392  21.853  26.341  1.00  0.00     0.047 C 
BRANCH  28  29
ATOM     29  C   UNL A   1      40.588  21.093  26.214  1.00  0.00     0.126 A 
ATOM     30  C   UNL A   1      40.791  19.716  26.237  1.00  0.00     0.050 A 
ATOM     31  O   UNL A   1      41.817  21.684  26.008  1.00  0.00    -0.465 OA
ATOM     32  C   UNL A   1      42.171  19.472  26.050  1.00  0.00     0.042 A 
ATOM     33  C   UNL A   1      42.753  20.706  25.923  1.00  0.00     0.195 A 
ENDBRANCH  28  29
ENDBRANCH  26  27
ENDBRANCH  18  19
ENDBRANCH  17  18
ENDBRANCH  15  17
ENDBRANCH   8  13
BRANCH  12  34
ATOM     34  O   UNL A   1      33.385  29.686  24.163  1.00  0.00    -0.507 OA
ATOM     35  H   UNL A   1      34.212  30.084  24.347  1.00  0.00     0.293 HD
ENDBRANCH  12  34
ENDBRANCH   4   7
ENDBRANCH   2   3
ENDBRANCH   1   2
BRANCH   1  36
ATOM     36  C   UNL A   1      34.804  33.377  29.042  1.00  0.00     0.002 C 
BRANCH  36  37
ATOM     37  C   UNL A   1      34.535  32.899  30.471  1.00  0.00     0.002 C 
BRANCH  37  38
ATOM     38  C   UNL A   1      35.050  33.794  31.598  1.00  0.00     0.021 C 
BRANCH  38  39
ATOM     39  C   UNL A   1      35.875  33.101  32.676  1.00  0.00     0.116 C 
BRANCH  39  40
ATOM     40  N   UNL A   1      35.779  31.652  32.621  1.00  0.00    -0.352 N 
ATOM     41  C   UNL A   1      36.666  30.736  32.109  1.00  0.00     0.251 C 
ATOM     42  H   UNL A   1      34.959  31.271  33.010  1.00  0.00     0.163 HD
ATOM     43  O   UNL A   1      36.343  29.554  32.029  1.00  0.00    -0.269 OA
BRANCH  41  44
ATOM     44  C   UNL A   1      37.995  31.176  31.625  1.00  0.00     0.039 A 
ATOM     45  C   UNL A   1      39.094  31.055  32.479  1.00  0.00     0.014 A 
ATOM     46  C   UNL A   1      38.160  31.707  30.343  1.00  0.00     0.014 A 
ATOM     47  C   UNL A   1      40.368  31.406  32.022  1.00  0.00     0.010 A 
ATOM     48  C   UNL A   1      39.439  31.982  29.865  1.00  0.00     0.010 A 
ATOM     49  C   UNL A   1      40.558  31.837  30.699  1.00  0.00    -0.014 A 
BRANCH  49  50
ATOM     50  C   UNL A   1      41.918  32.130  30.172  1.00  0.00     0.031 A 
ATOM     51  C   UNL A   1      42.503  33.511  30.305  1.00  0.00     0.074 A 
ATOM     52  C   UNL A   1      42.604  31.166  29.526  1.00  0.00     0.049 A 
ATOM     53  N   UNL A   1      43.648  33.966  29.865  1.00  0.00    -0.248 NA
ATOM     54  C   UNL A   1      41.688  34.518  31.005  1.00  0.00     0.031 C 
ATOM     55  C   UNL A   1      42.134  29.797  29.298  1.00  0.00     0.029 A 
ATOM     56  N   UNL A   1      43.845  31.190  28.937  1.00  0.00    -0.354 N 
ATOM     57  C   UNL A   1      43.686  35.309  30.223  1.00  0.00     0.074 A 
ATOM     58  C   UNL A   1      42.426  35.609  30.868  1.00  0.00     0.031 C 
ATOM     59  C   UNL A   1      43.083  29.107  28.647  1.00  0.00     0.029 A 
ATOM     60  C   UNL A   1      44.209  29.992  28.365  1.00  0.00     0.049 A 
ATOM     61  H   UNL A   1      44.419  31.989  28.924  1.00  0.00     0.167 HD
ATOM     62  C   UNL A   1      44.684  36.207  30.047  1.00  0.00     0.031 A 
ATOM     63  C   UNL A   1      45.318  29.646  27.682  1.00  0.00     0.031 A 
ATOM     64  C   UNL A   1      45.938  35.904  29.407  1.00  0.00     0.049 A 
ATOM     65  C   UNL A   1      46.401  30.671  27.475  1.00  0.00     0.074 A 
ATOM     66  C   UNL A   1      47.032  36.733  29.225  1.00  0.00     0.029 A 
ATOM     67  N   UNL A   1      46.266  34.681  28.843  1.00  0.00    -0.354 N 
ATOM     68  N   UNL A   1      46.442  31.918  27.878  1.00  0.00    -0.248 NA
ATOM     69  C   UNL A   1      47.592  30.237  26.732  1.00  0.00     0.031 C 
ATOM     70  C   UNL A   1      47.995  36.031  28.495  1.00  0.00     0.029 A 
ATOM     71  C   UNL A   1      47.533  34.742  28.287  1.00  0.00     0.049 A 
ATOM     72  H   UNL A   1      45.685  33.887  28.838  1.00  0.00     0.167 HD
ATOM     73  C   UNL A   1      47.677  32.408  27.463  1.00  0.00     0.074 A 
ATOM     74  C   UNL A   1      48.357  31.318  26.795  1.00  0.00     0.031 C 
ATOM     75  C   UNL A   1      48.201  33.648  27.625  1.00  0.00     0.031 A 
BRANCH  62  76
ATOM     76  C   UNL A   1      44.462  37.611  30.550  1.00  0.00    -0.014 A 
ATOM     77  C   UNL A   1      44.885  38.000  31.834  1.00  0.00     0.010 A 
ATOM     78  C   UNL A   1      43.871  38.570  29.707  1.00  0.00     0.010 A 
ATOM     79  C   UNL A   1      44.689  39.310  32.280  1.00  0.00     0.020 A 
ATOM     80  C   UNL A   1      43.703  39.890  30.136  1.00  0.00     0.020 A 
ATOM     81  C   UNL A   1      44.099  40.248  31.427  1.00  0.00     0.054 A 
BRANCH  81  82
ATOM     82  S   UNL A   1      43.890  41.949  32.020  1.00  0.00     0.124 S 
ATOM     83  O   UNL A   1      45.226  42.260  32.519  1.00  0.00    -0.237 OA
ATOM     84  O   UNL A   1      43.490  42.661  30.808  1.00  0.00    -0.237 OA
ATOM     85  O   UNL A   1      42.854  41.835  33.043  1.00  0.00    -0.744 OA
ENDBRANCH  81  82
ENDBRANCH  62  76
BRANCH  63  86
ATOM     86  C   UNL A   1      45.460  28.265  27.142  1.00  0.00    -0.014 A 
ATOM     87  C   UNL A   1      45.286  28.008  25.770  1.00  0.00     0.010 A 
ATOM     88  C   UNL A   1      45.767  27.194  28.002  1.00  0.00     0.010 A 
ATOM     89  C   UNL A   1      45.392  26.705  25.273  1.00  0.00     0.020 A 
ATOM     90  C   UNL A   1      45.908  25.896  27.505  1.00  0.00     0.020 A 
ATOM     91  C   UNL A   1      45.705  25.658  26.145  1.00  0.00     0.054 A 
BRANCH  91  92
ATOM     92  S   UNL A   1      45.877  23.981  25.474  1.00  0.00     0.124 S 
ATOM     93  O   UNL A   1      46.617  24.222  24.239  1.00  0.00    -0.237 OA
ATOM     94  O   UNL A   1      46.612  23.293  26.530  1.00  0.00    -0.237 OA
ATOM     95  O   UNL A   1      44.493  23.542  25.298  1.00  0.00    -0.744 OA
ENDBRANCH  91  92
ENDBRANCH  63  86
BRANCH  75  96
ATOM     96  C   UNL A   1      49.594  33.889  27.106  1.00  0.00    -0.014 A 
ATOM     97  C   UNL A   1      50.715  33.822  27.953  1.00  0.00     0.010 A 
ATOM     98  C   UNL A   1      49.788  34.131  25.733  1.00  0.00     0.010 A 
ATOM     99  C   UNL A   1      52.000  34.025  27.440  1.00  0.00     0.020 A 
ATOM    100  C   UNL A   1      51.073  34.303  25.212  1.00  0.00     0.020 A 
ATOM    101  C   UNL A   1      52.170  34.263  26.073  1.00  0.00     0.054 A 
BRANCH 101 102
ATOM    102  S   UNL A   1      53.852  34.477  25.428  1.00  0.00     0.124 S 
ATOM    103  O   UNL A   1      54.363  35.559  26.265  1.00  0.00    -0.237 OA
ATOM    104  O   UNL A   1      54.452  33.165  25.660  1.00  0.00    -0.237 OA
ATOM    105  O   UNL A   1      53.645  34.822  24.023  1.00  0.00    -0.744 OA
ENDBRANCH 101 102
ENDBRANCH  75  96
ENDBRANCH  49  50
ENDBRANCH  41  44
ENDBRANCH  39  40
ENDBRANCH  38  39
ENDBRANCH  37  38
ENDBRANCH  36  37
ENDBRANCH   1  36
TORSDOF 23
ENDMDL
MODEL 2
REMARK VINA RESULT:     -10.1      1.062      7.661
REMARK SMILES O=C(CCN1C(=O)/C(=C/C=C/c2ccco2)SC1=S)Nc1ccc(C(=O)NCCCCCCNC(=O)c2ccc(-c3c4nc(c(-c5ccc(S(=O)(=O)[O-])cc5)c5ccc([nH]5)c(-c5ccc(S(=O)(=O)[O-])cc5)c5nc(c(-c6ccc(S(=O)(=O)[O-])cc6)c6ccc3[nH]6)C=C5)C=C4)cc2)c(O)c1
REMARK SMILES IDX 29 1 28 2 27 3 25 4 26 5 24 7 21 8 22 9 99 10 23 11 97 12
REMARK SMILES IDX 20 13 1 14 2 15 3 17 4 18 5 19 6 20 18 21 7 22 8 23 17 24
REMARK SMILES IDX 19 25 9 26 10 27 11 28 12 29 13 30 16 31 14 32 15 33 98 34
REMARK SMILES IDX 30 36 31 37 32 38 33 39 34 40 35 41 36 43 37 44 38 45 96 46
REMARK SMILES IDX 39 47 95 48 40 49 41 50 42 51 89 52 43 53 94 54 88 55 90 56
REMARK SMILES IDX 44 57 93 58 87 59 86 60 45 62 75 63 56 64 74 65 57 66 60 67
REMARK SMILES IDX 73 68 91 69 58 70 59 71 72 73 92 74 61 75 46 76 47 77 55 78
REMARK SMILES IDX 48 79 54 80 49 81 50 82 51 83 52 84 53 85 76 86 77 87 85 88
REMARK SMILES IDX 78 89 84 90 79 91 80 92 81 93 82 94 83 95 62 96 63 97 71 98
REMARK SMILES IDX 64 99 70 100 65 101 66 102 67 103 68 104 69 105
REMARK H PARENT 27 6 20 16 98 35 34 42 90 61 60 72
REMARK Flexibility Score: inf
ROOT
ATOM      1  C   UNL A   1      35.228  32.362  28.277  1.00  0.00     0.021 C 
ENDROOT
BRANCH   1   2
ATOM      2  C   UNL A   1      34.261  31.233  27.926  1.00  0.00     0.116 C 
BRANCH   2   3
ATOM      3  N   UNL A   1      33.027  31.683  27.302  1.00  0.00    -0.352 N 
ATOM      4  C   UNL A   1      32.090  30.993  26.572  1.00  0.00     0.255 C 
ATOM      5  O   UNL A   1      31.130  31.604  26.108  1.00  0.00    -0.269 OA
ATOM      6  H   UNL A   1      32.832  32.641  27.420  1.00  0.00     0.163 HD
BRANCH   4   7
ATOM      7  C   UNL A   1      32.222  29.542  26.292  1.00  0.00     0.081 A 
ATOM      8  C   UNL A   1      32.238  26.753  25.889  1.00  0.00     0.044 A 
ATOM      9  C   UNL A   1      31.759  27.282  27.083  1.00  0.00     0.027 A 
ATOM     10  C   UNL A   1      32.791  27.617  24.937  1.00  0.00     0.073 A 
ATOM     11  C   UNL A   1      31.759  28.667  27.287  1.00  0.00     0.020 A 
ATOM     12  C   UNL A   1      32.797  28.997  25.143  1.00  0.00     0.130 A 
BRANCH   8  13
ATOM     13  N   UNL A   1      32.212  25.382  25.575  1.00  0.00    -0.326 N 
ATOM     14  O   UNL A   1      30.338  25.241  24.203  1.00  0.00    -0.275 OA
ATOM     15  C   UNL A   1      31.308  24.734  24.756  1.00  0.00     0.226 C 
ATOM     16  H   UNL A   1      32.913  24.824  25.984  1.00  0.00     0.169 HD
BRANCH  15  17
ATOM     17  C   UNL A   1      31.602  23.253  24.594  1.00  0.00     0.122 C 
BRANCH  17  18
ATOM     18  C   UNL A   1      32.270  22.598  25.810  1.00  0.00     0.137 C 
BRANCH  18  19
ATOM     19  N   UNL A   1      33.594  22.017  25.536  1.00  0.00    -0.292 N 
ATOM     20  C   UNL A   1      34.721  22.823  25.657  1.00  0.00     0.266 C 
ATOM     21  C   UNL A   1      33.810  20.724  25.098  1.00  0.00     0.148 C 
ATOM     22  O   UNL A   1      34.727  24.003  25.960  1.00  0.00    -0.268 OA
ATOM     23  C   UNL A   1      35.953  22.015  25.449  1.00  0.00     0.080 C 
ATOM     24  S   UNL A   1      35.535  20.425  24.951  1.00  0.00    -0.054 SA
ATOM     25  S   UNL A   1      32.679  19.542  24.773  1.00  0.00    -0.052 S 
ATOM     26  C   UNL A   1      37.171  22.497  25.732  1.00  0.00     0.021 C 
BRANCH  26  27
ATOM     27  C   UNL A   1      38.419  21.764  25.631  1.00  0.00     0.005 C 
ATOM     28  C   UNL A   1      39.460  21.955  26.456  1.00  0.00     0.047 C 
BRANCH  28  29
ATOM     29  C   UNL A   1      40.671  21.223  26.299  1.00  0.00     0.126 A 
ATOM     30  C   UNL A   1      40.939  19.869  26.475  1.00  0.00     0.050 A 
ATOM     31  O   UNL A   1      41.844  21.821  25.887  1.00  0.00    -0.465 OA
ATOM     32  C   UNL A   1      42.302  19.647  26.174  1.00  0.00     0.042 A 
ATOM     33  C   UNL A   1      42.810  20.871  25.827  1.00  0.00     0.195 A 
ENDBRANCH  28  29
ENDBRANCH  26  27
ENDBRANCH  18  19
ENDBRANCH  17  18
ENDBRANCH  15  17
ENDBRANCH   8  13
BRANCH  12  34
ATOM     34  O   UNL A   1      33.419  29.729  24.170  1.00  0.00    -0.507 OA
ATOM     35  H   UNL A   1      33.876  30.515  24.394  1.00  0.00     0.293 HD
ENDBRANCH  12  34
ENDBRANCH   4   7
ENDBRANCH   2   3
ENDBRANCH   1   2
BRANCH   1  36
ATOM     36  C   UNL A   1      35.022  33.044  29.635  1.00  0.00     0.002 C 
BRANCH  36  37
ATOM     37  C   UNL A   1      34.965  32.133  30.864  1.00  0.00     0.002 C 
BRANCH  37  38
ATOM     38  C   UNL A   1      35.318  32.775  32.206  1.00  0.00     0.021 C 
BRANCH  38  39
ATOM     39  C   UNL A   1      36.224  31.956  33.118  1.00  0.00     0.116 C 
BRANCH  39  40
ATOM     40  N   UNL A   1      36.301  30.556  32.736  1.00  0.00    -0.352 N 
ATOM     41  C   UNL A   1      37.246  29.908  31.978  1.00  0.00     0.251 C 
ATOM     42  H   UNL A   1      35.569  29.990  33.070  1.00  0.00     0.163 HD
ATOM     43  O   UNL A   1      37.063  28.739  31.645  1.00  0.00    -0.269 OA
BRANCH  41  44
ATOM     44  C   UNL A   1      38.466  30.622  31.537  1.00  0.00     0.039 A 
ATOM     45  C   UNL A   1      39.617  30.536  32.325  1.00  0.00     0.014 A 
ATOM     46  C   UNL A   1      38.479  31.375  30.359  1.00  0.00     0.014 A 
ATOM     47  C   UNL A   1      40.797  31.150  31.896  1.00  0.00     0.010 A 
ATOM     48  C   UNL A   1      39.675  31.920  29.897  1.00  0.00     0.010 A 
ATOM     49  C   UNL A   1      40.847  31.816  30.661  1.00  0.00    -0.014 A 
BRANCH  49  50
ATOM     50  C   UNL A   1      42.117  32.399  30.152  1.00  0.00     0.031 A 
ATOM     51  C   UNL A   1      43.087  31.547  29.375  1.00  0.00     0.074 A 
ATOM     52  C   UNL A   1      42.422  33.681  30.434  1.00  0.00     0.049 A 
ATOM     53  N   UNL A   1      44.261  31.866  28.896  1.00  0.00    -0.248 NA
ATOM     54  C   UNL A   1      42.696  30.151  29.122  1.00  0.00     0.031 C 
ATOM     55  C   UNL A   1      41.586  34.602  31.208  1.00  0.00     0.029 A 
ATOM     56  N   UNL A   1      43.524  34.434  30.106  1.00  0.00    -0.354 N 
ATOM     57  C   UNL A   1      44.753  30.712  28.297  1.00  0.00     0.074 A 
ATOM     58  C   UNL A   1      43.774  29.671  28.521  1.00  0.00     0.031 C 
ATOM     59  C   UNL A   1      42.188  35.800  31.270  1.00  0.00     0.029 A 
ATOM     60  C   UNL A   1      43.474  35.724  30.585  1.00  0.00     0.049 A 
ATOM     61  H   UNL A   1      44.277  34.085  29.579  1.00  0.00     0.167 HD
ATOM     62  C   UNL A   1      45.906  30.537  27.607  1.00  0.00     0.031 A 
ATOM     63  C   UNL A   1      44.367  36.729  30.494  1.00  0.00     0.031 A 
ATOM     64  C   UNL A   1      46.878  31.576  27.384  1.00  0.00     0.049 A 
ATOM     65  C   UNL A   1      45.654  36.502  29.747  1.00  0.00     0.074 A 
ATOM     66  C   UNL A   1      48.054  31.511  26.657  1.00  0.00     0.029 A 
ATOM     67  N   UNL A   1      46.789  32.866  27.885  1.00  0.00    -0.354 N 
ATOM     68  N   UNL A   1      46.070  35.419  29.134  1.00  0.00    -0.248 NA
ATOM     69  C   UNL A   1      46.586  37.635  29.670  1.00  0.00     0.031 C 
ATOM     70  C   UNL A   1      48.708  32.741  26.772  1.00  0.00     0.029 A 
ATOM     71  C   UNL A   1      47.904  33.596  27.508  1.00  0.00     0.049 A 
ATOM     72  H   UNL A   1      46.046  33.211  28.430  1.00  0.00     0.167 HD
ATOM     73  C   UNL A   1      47.298  35.752  28.572  1.00  0.00     0.074 A 
ATOM     74  C   UNL A   1      47.548  37.140  28.904  1.00  0.00     0.031 C 
ATOM     75  C   UNL A   1      48.141  34.979  27.844  1.00  0.00     0.031 A 
BRANCH  62  76
ATOM     76  C   UNL A   1      46.187  29.167  27.046  1.00  0.00    -0.014 A 
ATOM     77  C   UNL A   1      47.022  28.259  27.723  1.00  0.00     0.010 A 
ATOM     78  C   UNL A   1      45.562  28.758  25.852  1.00  0.00     0.010 A 
ATOM     79  C   UNL A   1      47.257  26.985  27.200  1.00  0.00     0.020 A 
ATOM     80  C   UNL A   1      45.769  27.473  25.342  1.00  0.00     0.020 A 
ATOM     81  C   UNL A   1      46.628  26.599  26.012  1.00  0.00     0.054 A 
BRANCH  81  82
ATOM     82  S   UNL A   1      46.926  24.927  25.375  1.00  0.00     0.124 S 
ATOM     83  O   UNL A   1      47.623  24.299  26.495  1.00  0.00    -0.237 OA
ATOM     84  O   UNL A   1      45.572  24.438  25.124  1.00  0.00    -0.237 OA
ATOM     85  O   UNL A   1      47.738  25.149  24.182  1.00  0.00    -0.744 OA
ENDBRANCH  81  82
ENDBRANCH  62  76
BRANCH  63  86
ATOM     86  C   UNL A   1      44.074  38.046  31.127  1.00  0.00    -0.014 A 
ATOM     87  C   UNL A   1      43.508  39.093  30.379  1.00  0.00     0.010 A 
ATOM     88  C   UNL A   1      44.367  38.260  32.487  1.00  0.00     0.010 A 
ATOM     89  C   UNL A   1      43.261  40.336  30.971  1.00  0.00     0.020 A 
ATOM     90  C   UNL A   1      44.091  39.489  33.091  1.00  0.00     0.020 A 
ATOM     91  C   UNL A   1      43.554  40.524  32.325  1.00  0.00     0.054 A 
BRANCH  91  92
ATOM     92  S   UNL A   1      43.190  42.132  33.085  1.00  0.00     0.124 S 
ATOM     93  O   UNL A   1      43.032  42.991  31.916  1.00  0.00    -0.237 OA
ATOM     94  O   UNL A   1      41.971  41.855  33.839  1.00  0.00    -0.237 OA
ATOM     95  O   UNL A   1      44.374  42.397  33.901  1.00  0.00    -0.744 OA
ENDBRANCH  91  92
ENDBRANCH  63  86
BRANCH  75  96
ATOM     96  C   UNL A   1      49.399  35.622  27.319  1.00  0.00    -0.014 A 
ATOM     97  C   UNL A   1      50.606  35.570  28.038  1.00  0.00     0.010 A 
ATOM     98  C   UNL A   1      49.381  36.241  26.055  1.00  0.00     0.010 A 
ATOM     99  C   UNL A   1      51.764  36.154  27.516  1.00  0.00     0.020 A 
ATOM    100  C   UNL A   1      50.544  36.797  25.517  1.00  0.00     0.020 A 
ATOM    101  C   UNL A   1      51.726  36.763  26.258  1.00  0.00     0.054 A 
BRANCH 101 102
ATOM    102  S   UNL A   1      53.254  37.472  25.586  1.00  0.00     0.124 S 
ATOM    103  O   UNL A   1      53.161  38.862  26.022  1.00  0.00    -0.237 OA
ATOM    104  O   UNL A   1      54.290  36.676  26.240  1.00  0.00    -0.237 OA
ATOM    105  O   UNL A   1      53.130  37.261  24.145  1.00  0.00    -0.744 OA
ENDBRANCH 101 102
ENDBRANCH  75  96
ENDBRANCH  49  50
ENDBRANCH  41  44
ENDBRANCH  39  40
ENDBRANCH  38  39
ENDBRANCH  37  38
ENDBRANCH  36  37
ENDBRANCH   1  36
TORSDOF 23
ENDMDL
MODEL 3
REMARK VINA RESULT:      -9.8      5.809     10.062
REMARK SMILES O=C(CCN1C(=O)/C(=C/C=C/c2ccco2)SC1=S)Nc1ccc(C(=O)NCCCCCCNC(=O)c2ccc(-c3c4nc(c(-c5ccc(S(=O)(=O)[O-])cc5)c5ccc([nH]5)c(-c5ccc(S(=O)(=O)[O-])cc5)c5nc(c(-c6ccc(S(=O)(=O)[O-])cc6)c6ccc3[nH]6)C=C5)C=C4)cc2)c(O)c1
REMARK SMILES IDX 29 1 28 2 27 3 25 4 26 5 24 7 21 8 22 9 99 10 23 11 97 12
REMARK SMILES IDX 20 13 1 14 2 15 3 17 4 18 5 19 6 20 18 21 7 22 8 23 17 24
REMARK SMILES IDX 19 25 9 26 10 27 11 28 12 29 13 30 16 31 14 32 15 33 98 34
REMARK SMILES IDX 30 36 31 37 32 38 33 39 34 40 35 41 36 43 37 44 38 45 96 46
REMARK SMILES IDX 39 47 95 48 40 49 41 50 42 51 89 52 43 53 94 54 88 55 90 56
REMARK SMILES IDX 44 57 93 58 87 59 86 60 45 62 75 63 56 64 74 65 57 66 60 67
REMARK SMILES IDX 73 68 91 69 58 70 59 71 72 73 92 74 61 75 46 76 47 77 55 78
REMARK SMILES IDX 48 79 54 80 49 81 50 82 51 83 52 84 53 85 76 86 77 87 85 88
REMARK SMILES IDX 78 89 84 90 79 91 80 92 81 93 82 94 83 95 62 96 63 97 71 98
REMARK SMILES IDX 64 99 70 100 65 101 66 102 67 103 68 104 69 105
REMARK H PARENT 27 6 20 16 98 35 34 42 90 61 60 72
REMARK Flexibility Score: inf
ROOT
ATOM      1  C   UNL A   1      31.860  28.616  27.264  1.00  0.00     0.021 C 
ENDROOT
BRANCH   1   2
ATOM      2  C   UNL A   1      31.396  27.436  26.412  1.00  0.00     0.116 C 
BRANCH   2   3
ATOM      3  N   UNL A   1      31.187  27.764  25.010  1.00  0.00    -0.352 N 
ATOM      4  C   UNL A   1      31.709  27.200  23.872  1.00  0.00     0.255 C 
ATOM      5  O   UNL A   1      31.408  27.677  22.780  1.00  0.00    -0.269 OA
ATOM      6  H   UNL A   1      30.570  28.515  24.852  1.00  0.00     0.163 HD
BRANCH   4   7
ATOM      7  C   UNL A   1      32.658  26.061  23.921  1.00  0.00     0.081 A 
ATOM      8  C   UNL A   1      34.490  23.949  24.279  1.00  0.00     0.044 A 
ATOM      9  C   UNL A   1      34.664  25.146  24.966  1.00  0.00     0.027 A 
ATOM     10  C   UNL A   1      33.451  23.846  23.348  1.00  0.00     0.073 A 
ATOM     11  C   UNL A   1      33.758  26.198  24.782  1.00  0.00     0.020 A 
ATOM     12  C   UNL A   1      32.552  24.896  23.159  1.00  0.00     0.130 A 
BRANCH   8  13
ATOM     13  N   UNL A   1      35.311  22.821  24.456  1.00  0.00    -0.326 N 
ATOM     14  O   UNL A   1      36.910  23.127  22.793  1.00  0.00    -0.275 OA
ATOM     15  C   UNL A   1      36.451  22.502  23.744  1.00  0.00     0.226 C 
ATOM     16  H   UNL A   1      35.046  22.191  25.164  1.00  0.00     0.169 HD
BRANCH  15  17
ATOM     17  C   UNL A   1      37.127  21.233  24.231  1.00  0.00     0.122 C 
BRANCH  17  18
ATOM     18  C   UNL A   1      37.450  21.218  25.731  1.00  0.00     0.137 C 
BRANCH  18  19
ATOM     19  N   UNL A   1      38.773  21.768  26.072  1.00  0.00    -0.292 N 
ATOM     20  C   UNL A   1      39.883  20.931  26.025  1.00  0.00     0.266 C 
ATOM     21  C   UNL A   1      38.999  23.061  26.506  1.00  0.00     0.148 C 
ATOM     22  O   UNL A   1      39.873  19.747  25.737  1.00  0.00    -0.268 OA
ATOM     23  C   UNL A   1      41.122  21.708  26.292  1.00  0.00     0.080 C 
ATOM     24  S   UNL A   1      40.721  23.315  26.747  1.00  0.00    -0.054 SA
ATOM     25  S   UNL A   1      37.884  24.276  26.752  1.00  0.00    -0.052 S 
ATOM     26  C   UNL A   1      42.341  21.191  26.084  1.00  0.00     0.021 C 
BRANCH  26  27
ATOM     27  C   UNL A   1      43.600  21.891  26.247  1.00  0.00     0.005 C 
ATOM     28  C   UNL A   1      44.094  22.750  25.341  1.00  0.00     0.047 C 
BRANCH  28  29
ATOM     29  C   UNL A   1      45.347  23.394  25.541  1.00  0.00     0.126 A 
ATOM     30  C   UNL A   1      46.309  23.808  24.623  1.00  0.00     0.050 A 
ATOM     31  O   UNL A   1      45.802  23.747  26.795  1.00  0.00    -0.465 OA
ATOM     32  C   UNL A   1      47.368  24.413  25.337  1.00  0.00     0.042 A 
ATOM     33  C   UNL A   1      47.012  24.343  26.659  1.00  0.00     0.195 A 
ENDBRANCH  28  29
ENDBRANCH  26  27
ENDBRANCH  18  19
ENDBRANCH  17  18
ENDBRANCH  15  17
ENDBRANCH   8  13
BRANCH  12  34
ATOM     34  O   UNL A   1      31.620  24.698  22.179  1.00  0.00    -0.507 OA
ATOM     35  H   UNL A   1      30.787  24.327  22.393  1.00  0.00     0.293 HD
ENDBRANCH  12  34
ENDBRANCH   4   7
ENDBRANCH   2   3
ENDBRANCH   1   2
BRANCH   1  36
ATOM     36  C   UNL A   1      31.695  30.011  26.651  1.00  0.00     0.002 C 
BRANCH  36  37
ATOM     37  C   UNL A   1      32.792  31.034  26.955  1.00  0.00     0.002 C 
BRANCH  37  38
ATOM     38  C   UNL A   1      32.329  32.453  27.288  1.00  0.00     0.021 C 
BRANCH  38  39
ATOM     39  C   UNL A   1      33.388  33.379  27.875  1.00  0.00     0.116 C 
BRANCH  39  40
ATOM     40  N   UNL A   1      32.849  34.318  28.844  1.00  0.00    -0.352 N 
ATOM     41  C   UNL A   1      33.285  34.610  30.114  1.00  0.00     0.251 C 
ATOM     42  H   UNL A   1      32.056  34.819  28.546  1.00  0.00     0.163 HD
ATOM     43  O   UNL A   1      32.610  35.338  30.837  1.00  0.00    -0.269 OA
BRANCH  41  44
ATOM     44  C   UNL A   1      34.547  34.025  30.622  1.00  0.00     0.039 A 
ATOM     45  C   UNL A   1      35.749  34.687  30.356  1.00  0.00     0.014 A 
ATOM     46  C   UNL A   1      34.552  32.832  31.350  1.00  0.00     0.014 A 
ATOM     47  C   UNL A   1      36.945  34.187  30.878  1.00  0.00     0.010 A 
ATOM     48  C   UNL A   1      35.733  32.380  31.933  1.00  0.00     0.010 A 
ATOM     49  C   UNL A   1      36.944  33.050  31.702  1.00  0.00    -0.014 A 
BRANCH  49  50
ATOM     50  C   UNL A   1      38.196  32.557  32.335  1.00  0.00     0.031 A 
ATOM     51  C   UNL A   1      39.149  31.686  31.559  1.00  0.00     0.074 A 
ATOM     52  C   UNL A   1      38.450  32.849  33.627  1.00  0.00     0.049 A 
ATOM     53  N   UNL A   1      40.261  31.123  31.958  1.00  0.00    -0.248 NA
ATOM     54  C   UNL A   1      38.797  31.392  30.160  1.00  0.00     0.031 C 
ATOM     55  C   UNL A   1      37.590  33.652  34.500  1.00  0.00     0.029 A 
ATOM     56  N   UNL A   1      39.504  32.499  34.435  1.00  0.00    -0.354 N 
ATOM     57  C   UNL A   1      40.733  30.402  30.867  1.00  0.00     0.074 A 
ATOM     58  C   UNL A   1      39.760  30.554  29.807  1.00  0.00     0.031 C 
ATOM     59  C   UNL A   1      38.164  33.759  35.709  1.00  0.00     0.029 A 
ATOM     60  C   UNL A   1      39.406  32.993  35.716  1.00  0.00     0.049 A 
ATOM     61  H   UNL A   1      40.259  31.948  34.128  1.00  0.00     0.167 HD
ATOM     62  C   UNL A   1      41.881  29.692  30.750  1.00  0.00     0.031 A 
ATOM     63  C   UNL A   1      40.217  32.838  36.782  1.00  0.00     0.031 A 
ATOM     64  C   UNL A   1      42.849  29.545  31.806  1.00  0.00     0.049 A 
ATOM     65  C   UNL A   1      41.472  32.021  36.635  1.00  0.00     0.074 A 
ATOM     66  C   UNL A   1      44.066  28.886  31.770  1.00  0.00     0.029 A 
ATOM     67  N   UNL A   1      42.711  30.060  33.087  1.00  0.00    -0.354 N 
ATOM     68  N   UNL A   1      41.931  31.399  35.575  1.00  0.00    -0.248 NA
ATOM     69  C   UNL A   1      42.324  31.893  37.825  1.00  0.00     0.031 C 
ATOM     70  C   UNL A   1      44.634  28.948  33.046  1.00  0.00     0.029 A 
ATOM     71  C   UNL A   1      43.807  29.708  33.857  1.00  0.00     0.049 A 
ATOM     72  H   UNL A   1      41.947  30.594  33.402  1.00  0.00     0.167 HD
ATOM     73  C   UNL A   1      43.142  30.834  35.963  1.00  0.00     0.074 A 
ATOM     74  C   UNL A   1      43.350  31.202  37.348  1.00  0.00     0.031 C 
ATOM     75  C   UNL A   1      44.004  30.081  35.236  1.00  0.00     0.031 A 
BRANCH  62  76
ATOM     76  C   UNL A   1      42.154  29.012  29.433  1.00  0.00    -0.014 A 
ATOM     77  C   UNL A   1      41.821  27.661  29.228  1.00  0.00     0.010 A 
ATOM     78  C   UNL A   1      42.701  29.749  28.366  1.00  0.00     0.010 A 
ATOM     79  C   UNL A   1      42.063  27.049  27.995  1.00  0.00     0.020 A 
ATOM     80  C   UNL A   1      42.915  29.150  27.121  1.00  0.00     0.020 A 
ATOM     81  C   UNL A   1      42.608  27.799  26.948  1.00  0.00     0.054 A 
BRANCH  81  82
ATOM     82  S   UNL A   1      42.879  26.987  25.349  1.00  0.00     0.124 S 
ATOM     83  O   UNL A   1      44.246  26.494  25.489  1.00  0.00    -0.237 OA
ATOM     84  O   UNL A   1      41.839  25.959  25.335  1.00  0.00    -0.237 OA
ATOM     85  O   UNL A   1      42.701  28.063  24.378  1.00  0.00    -0.744 OA
ENDBRANCH  81  82
ENDBRANCH  62  76
BRANCH  63  86
ATOM     86  C   UNL A   1      39.866  33.472  38.084  1.00  0.00    -0.014 A 
ATOM     87  C   UNL A   1      40.323  34.765  38.399  1.00  0.00     0.010 A 
ATOM     88  C   UNL A   1      39.075  32.781  39.020  1.00  0.00     0.010 A 
ATOM     89  C   UNL A   1      40.015  35.344  39.634  1.00  0.00     0.020 A 
ATOM     90  C   UNL A   1      38.736  33.370  40.241  1.00  0.00     0.020 A 
ATOM     91  C   UNL A   1      39.221  34.642  40.546  1.00  0.00     0.054 A 
BRANCH  91  92
ATOM     92  S   UNL A   1      38.800  35.427  42.127  1.00  0.00     0.124 S 
ATOM     93  O   UNL A   1      37.356  35.228  42.190  1.00  0.00    -0.237 OA
ATOM     94  O   UNL A   1      39.590  34.656  43.082  1.00  0.00    -0.237 OA
ATOM     95  O   UNL A   1      39.233  36.812  41.944  1.00  0.00    -0.744 OA
ENDBRANCH  91  92
ENDBRANCH  63  86
BRANCH  75  96
ATOM     96  C   UNL A   1      45.276  29.634  35.909  1.00  0.00    -0.014 A 
ATOM     97  C   UNL A   1      45.336  28.436  36.643  1.00  0.00     0.010 A 
ATOM     98  C   UNL A   1      46.445  30.401  35.754  1.00  0.00     0.010 A 
ATOM     99  C   UNL A   1      46.536  28.032  37.236  1.00  0.00     0.020 A 
ATOM    100  C   UNL A   1      47.653  29.984  36.319  1.00  0.00     0.020 A 
ATOM    101  C   UNL A   1      47.687  28.808  37.069  1.00  0.00     0.054 A 
BRANCH 101 102
ATOM    102  S   UNL A   1      49.240  28.236  37.812  1.00  0.00     0.124 S 
ATOM    103  O   UNL A   1      48.791  27.108  38.623  1.00  0.00    -0.237 OA
ATOM    104  O   UNL A   1      50.044  27.888  36.642  1.00  0.00    -0.237 OA
ATOM    105  O   UNL A   1      49.713  29.396  38.564  1.00  0.00    -0.744 OA
ENDBRANCH 101 102
ENDBRANCH  75  96
ENDBRANCH  49  50
ENDBRANCH  41  44
ENDBRANCH  39  40
ENDBRANCH  38  39
ENDBRANCH  37  38
ENDBRANCH  36  37
ENDBRANCH   1  36
TORSDOF 23
ENDMDL
