MODEL 1
REMARK VINA RESULT:     -10.7      0.000      0.000
REMARK SMILES O=C(CCN1C(=O)/C(=C/c2cc(Br)cc(Br)c2O)SC1=S)NCCCCCCNC(=O)c1ccc(-c2c3nc(c(-c4ccc(S(=O)(=O)[O-])cc4)c4ccc([nH]4)c(-c4ccc(S(=O)(=O)[O-])cc4)c4nc(c(-c5ccc(S(=O)(=O)[O-])cc5)c5ccc2[nH]5)C=C4)C=C3)cc1
REMARK SMILES IDX 25 1 24 2 23 3 22 4 1 5 2 6 3 8 4 9 5 10 6 11 20 12 7 13
REMARK SMILES IDX 8 14 19 15 21 16 9 17 10 18 11 19 17 20 12 21 15 22 13 23
REMARK SMILES IDX 14 24 16 25 18 26 26 28 27 29 28 30 29 31 30 32 31 34 32 35
REMARK SMILES IDX 33 36 91 37 34 38 90 39 35 40 36 41 37 42 84 43 38 44 89 45
REMARK SMILES IDX 83 46 85 47 39 48 88 49 82 50 81 51 40 53 70 54 51 55 69 56
REMARK SMILES IDX 52 57 55 58 68 59 86 60 53 61 54 62 67 64 87 65 56 66 41 67
REMARK SMILES IDX 42 68 50 69 43 70 49 71 44 72 45 73 46 74 47 75 48 76 71 77
REMARK SMILES IDX 72 78 80 79 73 80 79 81 74 82 75 83 76 84 77 85 78 86 57 87
REMARK SMILES IDX 58 88 66 89 59 90 65 91 60 92 61 93 62 94 63 95 64 96
REMARK H PARENT 22 7 18 27 29 33 85 52 55 63
REMARK Flexibility Score: inf
ROOT
ATOM      1  C   UNL A   1      41.394  22.140  27.763  1.00  0.00     0.002 C 
ENDROOT
BRANCH   1   2
ATOM      2  C   UNL A   1      40.011  22.477  27.188  1.00  0.00     0.021 C 
BRANCH   2   3
ATOM      3  C   UNL A   1      39.497  21.512  26.115  1.00  0.00     0.116 C 
BRANCH   3   4
ATOM      4  N   UNL A   1      38.380  22.075  25.376  1.00  0.00    -0.356 N 
ATOM      5  O   UNL A   1      37.301  20.094  25.001  1.00  0.00    -0.275 OA
ATOM      6  C   UNL A   1      37.381  21.308  24.833  1.00  0.00     0.221 C 
ATOM      7  H   UNL A   1      38.338  23.052  25.259  1.00  0.00     0.163 HD
BRANCH   6   8
ATOM      8  C   UNL A   1      36.442  22.020  23.879  1.00  0.00     0.122 C 
BRANCH   8   9
ATOM      9  C   UNL A   1      34.953  22.059  24.228  1.00  0.00     0.137 C 
BRANCH   9  10
ATOM     10  N   UNL A   1      34.346  23.336  24.638  1.00  0.00    -0.292 N 
ATOM     11  C   UNL A   1      34.382  24.386  23.724  1.00  0.00     0.266 C 
ATOM     12  C   UNL A   1      33.944  23.695  25.907  1.00  0.00     0.148 C 
ATOM     13  O   UNL A   1      34.933  24.377  22.632  1.00  0.00    -0.268 OA
ATOM     14  C   UNL A   1      33.658  25.575  24.258  1.00  0.00     0.081 C 
ATOM     15  S   UNL A   1      33.075  25.218  25.827  1.00  0.00    -0.054 SA
ATOM     16  S   UNL A   1      34.165  22.904  27.353  1.00  0.00    -0.052 S 
ATOM     17  C   UNL A   1      33.490  26.685  23.519  1.00  0.00     0.033 C 
BRANCH  17  18
ATOM     18  C   UNL A   1      32.574  27.818  23.789  1.00  0.00     0.020 A 
ATOM     19  C   UNL A   1      32.784  28.680  24.879  1.00  0.00     0.027 A 
ATOM     20  C   UNL A   1      31.431  28.036  22.991  1.00  0.00     0.137 A 
ATOM     21  C   UNL A   1      31.823  29.627  25.241  1.00  0.00     0.019 A 
ATOM     22  C   UNL A   1      30.487  29.015  23.347  1.00  0.00     0.061 A 
ATOM     23  Br  UNL A   1      32.082  30.665  26.800  1.00  0.00    -0.051 Br
ATOM     24  C   UNL A   1      30.666  29.789  24.490  1.00  0.00     0.035 A 
ATOM     25  Br  UNL A   1      28.919  29.305  22.313  1.00  0.00    -0.047 Br
BRANCH  20  26
ATOM     26  O   UNL A   1      31.170  27.302  21.860  1.00  0.00    -0.506 OA
ATOM     27  H   UNL A   1      31.161  26.366  21.901  1.00  0.00     0.293 HD
ENDBRANCH  20  26
ENDBRANCH  17  18
ENDBRANCH   9  10
ENDBRANCH   8   9
ENDBRANCH   6   8
ENDBRANCH   3   4
ENDBRANCH   2   3
ENDBRANCH   1   2
BRANCH   1  28
ATOM     28  C   UNL A   1      42.476  21.802  26.734  1.00  0.00     0.002 C 
BRANCH  28  29
ATOM     29  C   UNL A   1      43.804  22.536  26.928  1.00  0.00     0.021 C 
BRANCH  29  30
ATOM     30  C   UNL A   1      43.699  24.057  26.972  1.00  0.00     0.116 C 
BRANCH  30  31
ATOM     31  N   UNL A   1      42.847  24.592  25.921  1.00  0.00    -0.352 N 
ATOM     32  C   UNL A   1      41.902  25.586  25.998  1.00  0.00     0.251 C 
ATOM     33  H   UNL A   1      42.964  24.186  25.032  1.00  0.00     0.163 HD
ATOM     34  O   UNL A   1      41.167  25.808  25.039  1.00  0.00    -0.269 OA
BRANCH  32  35
ATOM     35  C   UNL A   1      41.751  26.371  27.245  1.00  0.00     0.039 A 
ATOM     36  C   UNL A   1      42.531  27.516  27.425  1.00  0.00     0.014 A 
ATOM     37  C   UNL A   1      40.847  25.979  28.237  1.00  0.00     0.014 A 
ATOM     38  C   UNL A   1      42.366  28.297  28.572  1.00  0.00     0.010 A 
ATOM     39  C   UNL A   1      40.633  26.796  29.345  1.00  0.00     0.010 A 
ATOM     40  C   UNL A   1      41.395  27.959  29.529  1.00  0.00    -0.014 A 
BRANCH  40  41
ATOM     41  C   UNL A   1      41.183  28.792  30.743  1.00  0.00     0.031 A 
ATOM     42  C   UNL A   1      40.088  29.827  30.760  1.00  0.00     0.074 A 
ATOM     43  C   UNL A   1      42.002  28.660  31.806  1.00  0.00     0.049 A 
ATOM     44  N   UNL A   1      39.798  30.708  31.683  1.00  0.00    -0.248 NA
ATOM     45  C   UNL A   1      39.219  29.896  29.573  1.00  0.00     0.031 C 
ATOM     46  C   UNL A   1      43.125  27.723  31.903  1.00  0.00     0.029 A 
ATOM     47  N   UNL A   1      42.023  29.325  33.007  1.00  0.00    -0.354 N 
ATOM     48  C   UNL A   1      38.727  31.440  31.187  1.00  0.00     0.074 A 
ATOM     49  C   UNL A   1      38.451  30.938  29.858  1.00  0.00     0.031 C 
ATOM     50  C   UNL A   1      43.713  27.863  33.103  1.00  0.00     0.029 A 
ATOM     51  C   UNL A   1      43.034  28.920  33.847  1.00  0.00     0.049 A 
ATOM     52  H   UNL A   1      41.375  30.027  33.243  1.00  0.00     0.167 HD
ATOM     53  C   UNL A   1      38.016  32.423  31.789  1.00  0.00     0.031 A 
ATOM     54  C   UNL A   1      43.379  29.353  35.074  1.00  0.00     0.031 A 
ATOM     55  C   UNL A   1      38.276  32.912  33.116  1.00  0.00     0.049 A 
ATOM     56  C   UNL A   1      42.568  30.442  35.725  1.00  0.00     0.074 A 
ATOM     57  C   UNL A   1      37.600  33.894  33.820  1.00  0.00     0.029 A 
ATOM     58  N   UNL A   1      39.281  32.442  33.948  1.00  0.00    -0.354 N 
ATOM     59  N   UNL A   1      41.539  31.100  35.247  1.00  0.00    -0.248 NA
ATOM     60  C   UNL A   1      42.952  30.833  37.089  1.00  0.00     0.031 C 
ATOM     61  C   UNL A   1      38.214  34.036  35.069  1.00  0.00     0.029 A 
ATOM     62  C   UNL A   1      39.240  33.110  35.160  1.00  0.00     0.049 A 
ATOM     63  H   UNL A   1      39.927  31.739  33.711  1.00  0.00     0.167 HD
ATOM     64  C   UNL A   1      41.131  31.954  36.267  1.00  0.00     0.074 A 
ATOM     65  C   UNL A   1      42.015  31.721  37.389  1.00  0.00     0.031 C 
ATOM     66  C   UNL A   1      40.113  32.850  36.274  1.00  0.00     0.031 A 
BRANCH  53  67
ATOM     67  C   UNL A   1      36.869  33.023  31.020  1.00  0.00    -0.014 A 
ATOM     68  C   UNL A   1      35.539  32.713  31.357  1.00  0.00     0.010 A 
ATOM     69  C   UNL A   1      37.116  33.945  29.987  1.00  0.00     0.010 A 
ATOM     70  C   UNL A   1      34.477  33.288  30.656  1.00  0.00     0.020 A 
ATOM     71  C   UNL A   1      36.054  34.544  29.301  1.00  0.00     0.020 A 
ATOM     72  C   UNL A   1      34.742  34.200  29.632  1.00  0.00     0.054 A 
BRANCH  72  73
ATOM     73  S   UNL A   1      33.342  34.963  28.766  1.00  0.00     0.124 S 
ATOM     74  O   UNL A   1      33.054  33.973  27.731  1.00  0.00    -0.237 OA
ATOM     75  O   UNL A   1      32.337  35.079  29.820  1.00  0.00    -0.237 OA
ATOM     76  O   UNL A   1      33.882  36.231  28.282  1.00  0.00    -0.744 OA
ENDBRANCH  72  73
ENDBRANCH  53  67
BRANCH  54  77
ATOM     77  C   UNL A   1      44.546  28.756  35.783  1.00  0.00    -0.014 A 
ATOM     78  C   UNL A   1      45.856  29.166  35.479  1.00  0.00     0.010 A 
ATOM     79  C   UNL A   1      44.351  27.748  36.745  1.00  0.00     0.010 A 
ATOM     80  C   UNL A   1      46.952  28.550  36.092  1.00  0.00     0.020 A 
ATOM     81  C   UNL A   1      45.443  27.151  37.382  1.00  0.00     0.020 A 
ATOM     82  C   UNL A   1      46.738  27.542  37.035  1.00  0.00     0.054 A 
BRANCH  82  83
ATOM     83  S   UNL A   1      48.171  26.759  37.828  1.00  0.00     0.124 S 
ATOM     84  O   UNL A   1      49.285  27.421  37.157  1.00  0.00    -0.237 OA
ATOM     85  O   UNL A   1      47.983  27.104  39.235  1.00  0.00    -0.237 OA
ATOM     86  O   UNL A   1      48.001  25.342  37.514  1.00  0.00    -0.744 OA
ENDBRANCH  82  83
ENDBRANCH  54  77
BRANCH  66  87
ATOM     87  C   UNL A   1      39.858  33.600  37.554  1.00  0.00    -0.014 A 
ATOM     88  C   UNL A   1      40.547  34.787  37.859  1.00  0.00     0.010 A 
ATOM     89  C   UNL A   1      38.875  33.128  38.442  1.00  0.00     0.010 A 
ATOM     90  C   UNL A   1      40.282  35.469  39.050  1.00  0.00     0.020 A 
ATOM     91  C   UNL A   1      38.590  33.820  39.621  1.00  0.00     0.020 A 
ATOM     92  C   UNL A   1      39.307  34.978  39.925  1.00  0.00     0.054 A 
BRANCH  92  93
ATOM     93  S   UNL A   1      38.955  35.898  41.448  1.00  0.00     0.124 S 
ATOM     94  O   UNL A   1      37.689  35.308  41.874  1.00  0.00    -0.237 OA
ATOM     95  O   UNL A   1      40.108  35.583  42.289  1.00  0.00    -0.237 OA
ATOM     96  O   UNL A   1      38.877  37.288  41.004  1.00  0.00    -0.744 OA
ENDBRANCH  92  93
ENDBRANCH  66  87
ENDBRANCH  40  41
ENDBRANCH  32  35
ENDBRANCH  30  31
ENDBRANCH  29  30
ENDBRANCH  28  29
ENDBRANCH   1  28
TORSDOF 20
ENDMDL
MODEL 2
REMARK VINA RESULT:     -10.6      5.895     11.941
REMARK SMILES O=C(CCN1C(=O)/C(=C/c2cc(Br)cc(Br)c2O)SC1=S)NCCCCCCNC(=O)c1ccc(-c2c3nc(c(-c4ccc(S(=O)(=O)[O-])cc4)c4ccc([nH]4)c(-c4ccc(S(=O)(=O)[O-])cc4)c4nc(c(-c5ccc(S(=O)(=O)[O-])cc5)c5ccc2[nH]5)C=C4)C=C3)cc1
REMARK SMILES IDX 25 1 24 2 23 3 22 4 1 5 2 6 3 8 4 9 5 10 6 11 20 12 7 13
REMARK SMILES IDX 8 14 19 15 21 16 9 17 10 18 11 19 17 20 12 21 15 22 13 23
REMARK SMILES IDX 14 24 16 25 18 26 26 28 27 29 28 30 29 31 30 32 31 34 32 35
REMARK SMILES IDX 33 36 91 37 34 38 90 39 35 40 36 41 37 42 84 43 38 44 89 45
REMARK SMILES IDX 83 46 85 47 39 48 88 49 82 50 81 51 40 53 70 54 51 55 69 56
REMARK SMILES IDX 52 57 55 58 68 59 86 60 53 61 54 62 67 64 87 65 56 66 41 67
REMARK SMILES IDX 42 68 50 69 43 70 49 71 44 72 45 73 46 74 47 75 48 76 71 77
REMARK SMILES IDX 72 78 80 79 73 80 79 81 74 82 75 83 76 84 77 85 78 86 57 87
REMARK SMILES IDX 58 88 66 89 59 90 65 91 60 92 61 93 62 94 63 95 64 96
REMARK H PARENT 22 7 18 27 29 33 85 52 55 63
REMARK Flexibility Score: inf
ROOT
ATOM      1  C   UNL A   1      35.873  32.684  28.038  1.00  0.00     0.002 C 
ENDROOT
BRANCH   1   2
ATOM      2  C   UNL A   1      35.564  31.237  27.630  1.00  0.00     0.021 C 
BRANCH   2   3
ATOM      3  C   UNL A   1      34.143  30.760  27.943  1.00  0.00     0.116 C 
BRANCH   3   4
ATOM      4  N   UNL A   1      33.318  30.708  26.747  1.00  0.00    -0.356 N 
ATOM      5  O   UNL A   1      31.705  29.336  27.613  1.00  0.00    -0.275 OA
ATOM      6  C   UNL A   1      32.174  29.956  26.662  1.00  0.00     0.221 C 
ATOM      7  H   UNL A   1      33.593  31.236  25.964  1.00  0.00     0.163 HD
BRANCH   6   8
ATOM      8  C   UNL A   1      31.581  29.807  25.274  1.00  0.00     0.122 C 
BRANCH   8   9
ATOM      9  C   UNL A   1      31.047  28.434  24.861  1.00  0.00     0.137 C 
BRANCH   9  10
ATOM     10  N   UNL A   1      32.001  27.339  24.616  1.00  0.00    -0.292 N 
ATOM     11  C   UNL A   1      32.070  26.325  25.566  1.00  0.00     0.266 C 
ATOM     12  C   UNL A   1      33.003  27.307  23.669  1.00  0.00     0.148 C 
ATOM     13  O   UNL A   1      31.465  26.284  26.628  1.00  0.00    -0.268 OA
ATOM     14  C   UNL A   1      33.017  25.258  25.131  1.00  0.00     0.081 C 
ATOM     15  S   UNL A   1      33.704  25.699  23.626  1.00  0.00    -0.054 SA
ATOM     16  S   UNL A   1      33.547  28.512  22.660  1.00  0.00    -0.052 S 
ATOM     17  C   UNL A   1      33.189  24.135  25.849  1.00  0.00     0.033 C 
BRANCH  17  18
ATOM     18  C   UNL A   1      33.862  22.886  25.422  1.00  0.00     0.020 A 
ATOM     19  C   UNL A   1      33.123  21.757  25.031  1.00  0.00     0.027 A 
ATOM     20  C   UNL A   1      35.269  22.773  25.446  1.00  0.00     0.137 A 
ATOM     21  C   UNL A   1      33.750  20.529  24.811  1.00  0.00     0.019 A 
ATOM     22  C   UNL A   1      35.890  21.539  25.189  1.00  0.00     0.061 A 
ATOM     23  Br  UNL A   1      32.699  19.004  24.429  1.00  0.00    -0.051 Br
ATOM     24  C   UNL A   1      35.130  20.408  24.903  1.00  0.00     0.035 A 
ATOM     25  Br  UNL A   1      37.780  21.347  25.252  1.00  0.00    -0.047 Br
BRANCH  20  26
ATOM     26  O   UNL A   1      36.089  23.834  25.740  1.00  0.00    -0.506 OA
ATOM     27  H   UNL A   1      35.788  24.517  26.307  1.00  0.00     0.293 HD
ENDBRANCH  20  26
ENDBRANCH  17  18
ENDBRANCH   9  10
ENDBRANCH   8   9
ENDBRANCH   6   8
ENDBRANCH   3   4
ENDBRANCH   2   3
ENDBRANCH   1   2
BRANCH   1  28
ATOM     28  C   UNL A   1      35.203  33.167  29.328  1.00  0.00     0.002 C 
BRANCH  28  29
ATOM     29  C   UNL A   1      36.134  33.876  30.313  1.00  0.00     0.021 C 
BRANCH  29  30
ATOM     30  C   UNL A   1      37.175  32.979  30.975  1.00  0.00     0.116 C 
BRANCH  30  31
ATOM     31  N   UNL A   1      36.578  31.913  31.765  1.00  0.00    -0.352 N 
ATOM     32  C   UNL A   1      36.965  30.599  31.874  1.00  0.00     0.251 C 
ATOM     33  H   UNL A   1      35.788  32.168  32.294  1.00  0.00     0.163 HD
ATOM     34  O   UNL A   1      36.251  29.799  32.474  1.00  0.00    -0.269 OA
BRANCH  32  35
ATOM     35  C   UNL A   1      38.227  30.143  31.246  1.00  0.00     0.039 A 
ATOM     36  C   UNL A   1      38.341  30.176  29.854  1.00  0.00     0.014 A 
ATOM     37  C   UNL A   1      39.292  29.681  32.024  1.00  0.00     0.014 A 
ATOM     38  C   UNL A   1      39.542  29.799  29.246  1.00  0.00     0.010 A 
ATOM     39  C   UNL A   1      40.510  29.373  31.422  1.00  0.00     0.010 A 
ATOM     40  C   UNL A   1      40.647  29.420  30.027  1.00  0.00    -0.014 A 
BRANCH  40  41
ATOM     41  C   UNL A   1      41.942  29.042  29.403  1.00  0.00     0.031 A 
ATOM     42  C   UNL A   1      43.031  30.073  29.251  1.00  0.00     0.074 A 
ATOM     43  C   UNL A   1      42.124  27.795  28.923  1.00  0.00     0.049 A 
ATOM     44  N   UNL A   1      44.193  29.966  28.659  1.00  0.00    -0.248 NA
ATOM     45  C   UNL A   1      42.769  31.406  29.819  1.00  0.00     0.031 C 
ATOM     46  C   UNL A   1      41.136  26.713  28.972  1.00  0.00     0.029 A 
ATOM     47  N   UNL A   1      43.203  27.228  28.291  1.00  0.00    -0.354 N 
ATOM     48  C   UNL A   1      44.793  31.214  28.773  1.00  0.00     0.074 A 
ATOM     49  C   UNL A   1      43.846  32.079  29.442  1.00  0.00     0.031 C 
ATOM     50  C   UNL A   1      41.661  25.612  28.408  1.00  0.00     0.029 A 
ATOM     51  C   UNL A   1      43.006  25.916  27.928  1.00  0.00     0.049 A 
ATOM     52  H   UNL A   1      44.038  27.716  28.112  1.00  0.00     0.167 HD
ATOM     53  C   UNL A   1      46.030  31.603  28.381  1.00  0.00     0.031 A 
ATOM     54  C   UNL A   1      43.814  25.056  27.279  1.00  0.00     0.031 A 
ATOM     55  C   UNL A   1      46.980  30.741  27.732  1.00  0.00     0.049 A 
ATOM     56  C   UNL A   1      45.188  25.510  26.861  1.00  0.00     0.074 A 
ATOM     57  C   UNL A   1      48.266  31.036  27.312  1.00  0.00     0.029 A 
ATOM     58  N   UNL A   1      46.756  29.407  27.425  1.00  0.00    -0.354 N 
ATOM     59  N   UNL A   1      45.745  26.688  27.006  1.00  0.00    -0.248 NA
ATOM     60  C   UNL A   1      46.048  24.512  26.211  1.00  0.00     0.031 C 
ATOM     61  C   UNL A   1      48.810  29.888  26.727  1.00  0.00     0.029 A 
ATOM     62  C   UNL A   1      47.880  28.865  26.827  1.00  0.00     0.049 A 
ATOM     63  H   UNL A   1      45.920  28.919  27.605  1.00  0.00     0.167 HD
ATOM     64  C   UNL A   1      47.035  26.560  26.500  1.00  0.00     0.074 A 
ATOM     65  C   UNL A   1      47.178  25.189  26.056  1.00  0.00     0.031 C 
ATOM     66  C   UNL A   1      48.014  27.494  26.411  1.00  0.00     0.031 A 
BRANCH  53  67
ATOM     67  C   UNL A   1      46.436  33.024  28.667  1.00  0.00    -0.014 A 
ATOM     68  C   UNL A   1      47.083  33.357  29.871  1.00  0.00     0.010 A 
ATOM     69  C   UNL A   1      46.219  34.028  27.706  1.00  0.00     0.010 A 
ATOM     70  C   UNL A   1      47.478  34.673  30.123  1.00  0.00     0.020 A 
ATOM     71  C   UNL A   1      46.637  35.341  27.944  1.00  0.00     0.020 A 
ATOM     72  C   UNL A   1      47.252  35.657  29.158  1.00  0.00     0.054 A 
BRANCH  72  73
ATOM     73  S   UNL A   1      47.812  37.349  29.495  1.00  0.00     0.124 S 
ATOM     74  O   UNL A   1      49.072  37.400  28.758  1.00  0.00    -0.237 OA
ATOM     75  O   UNL A   1      46.730  38.161  28.945  1.00  0.00    -0.237 OA
ATOM     76  O   UNL A   1      47.939  37.389  30.950  1.00  0.00    -0.744 OA
ENDBRANCH  72  73
ENDBRANCH  53  67
BRANCH  54  77
ATOM     77  C   UNL A   1      43.356  23.669  26.984  1.00  0.00    -0.014 A 
ATOM     78  C   UNL A   1      43.052  22.777  28.028  1.00  0.00     0.010 A 
ATOM     79  C   UNL A   1      43.251  23.224  25.654  1.00  0.00     0.010 A 
ATOM     80  C   UNL A   1      42.695  21.454  27.750  1.00  0.00     0.020 A 
ATOM     81  C   UNL A   1      42.864  21.911  25.370  1.00  0.00     0.020 A 
ATOM     82  C   UNL A   1      42.610  21.028  26.422  1.00  0.00     0.054 A 
BRANCH  82  83
ATOM     83  S   UNL A   1      42.135  19.310  26.078  1.00  0.00     0.124 S 
ATOM     84  O   UNL A   1      40.688  19.422  25.926  1.00  0.00    -0.237 OA
ATOM     85  O   UNL A   1      42.881  19.014  24.857  1.00  0.00    -0.237 OA
ATOM     86  O   UNL A   1      42.588  18.589  27.266  1.00  0.00    -0.744 OA
ENDBRANCH  82  83
ENDBRANCH  54  77
BRANCH  66  87
ATOM     87  C   UNL A   1      49.348  27.051  25.873  1.00  0.00    -0.014 A 
ATOM     88  C   UNL A   1      49.684  27.217  24.518  1.00  0.00     0.010 A 
ATOM     89  C   UNL A   1      50.296  26.501  26.755  1.00  0.00     0.010 A 
ATOM     90  C   UNL A   1      50.935  26.807  24.048  1.00  0.00     0.020 A 
ATOM     91  C   UNL A   1      51.556  26.114  26.293  1.00  0.00     0.020 A 
ATOM     92  C   UNL A   1      51.861  26.255  24.939  1.00  0.00     0.054 A 
BRANCH  92  93
ATOM     93  S   UNL A   1      53.491  25.761  24.313  1.00  0.00     0.124 S 
ATOM     94  O   UNL A   1      54.375  26.707  24.989  1.00  0.00    -0.237 OA
ATOM     95  O   UNL A   1      53.600  24.373  24.757  1.00  0.00    -0.237 OA
ATOM     96  O   UNL A   1      53.376  25.939  22.868  1.00  0.00    -0.744 OA
ENDBRANCH  92  93
ENDBRANCH  66  87
ENDBRANCH  40  41
ENDBRANCH  32  35
ENDBRANCH  30  31
ENDBRANCH  29  30
ENDBRANCH  28  29
ENDBRANCH   1  28
TORSDOF 20
ENDMDL
MODEL 3
REMARK VINA RESULT:     -10.5      5.666     10.442
REMARK SMILES O=C(CCN1C(=O)/C(=C/c2cc(Br)cc(Br)c2O)SC1=S)NCCCCCCNC(=O)c1ccc(-c2c3nc(c(-c4ccc(S(=O)(=O)[O-])cc4)c4ccc([nH]4)c(-c4ccc(S(=O)(=O)[O-])cc4)c4nc(c(-c5ccc(S(=O)(=O)[O-])cc5)c5ccc2[nH]5)C=C4)C=C3)cc1
REMARK SMILES IDX 25 1 24 2 23 3 22 4 1 5 2 6 3 8 4 9 5 10 6 11 20 12 7 13
REMARK SMILES IDX 8 14 19 15 21 16 9 17 10 18 11 19 17 20 12 21 15 22 13 23
REMARK SMILES IDX 14 24 16 25 18 26 26 28 27 29 28 30 29 31 30 32 31 34 32 35
REMARK SMILES IDX 33 36 91 37 34 38 90 39 35 40 36 41 37 42 84 43 38 44 89 45
REMARK SMILES IDX 83 46 85 47 39 48 88 49 82 50 81 51 40 53 70 54 51 55 69 56
REMARK SMILES IDX 52 57 55 58 68 59 86 60 53 61 54 62 67 64 87 65 56 66 41 67
REMARK SMILES IDX 42 68 50 69 43 70 49 71 44 72 45 73 46 74 47 75 48 76 71 77
REMARK SMILES IDX 72 78 80 79 73 80 79 81 74 82 75 83 76 84 77 85 78 86 57 87
REMARK SMILES IDX 58 88 66 89 59 90 65 91 60 92 61 93 62 94 63 95 64 96
REMARK H PARENT 22 7 18 27 29 33 85 52 55 63
REMARK Flexibility Score: inf
ROOT
ATOM      1  C   UNL A   1      38.285  23.737  26.272  1.00  0.00     0.002 C 
ENDROOT
BRANCH   1   2
ATOM      2  C   UNL A   1      37.226  23.138  25.337  1.00  0.00     0.021 C 
BRANCH   2   3
ATOM      3  C   UNL A   1      35.879  23.868  25.323  1.00  0.00     0.116 C 
BRANCH   3   4
ATOM      4  N   UNL A   1      34.782  22.965  25.016  1.00  0.00    -0.356 N 
ATOM      5  O   UNL A   1      34.895  23.196  22.743  1.00  0.00    -0.275 OA
ATOM      6  C   UNL A   1      34.344  22.731  23.737  1.00  0.00     0.221 C 
ATOM      7  H   UNL A   1      34.334  22.500  25.758  1.00  0.00     0.163 HD
BRANCH   6   8
ATOM      8  C   UNL A   1      33.035  21.975  23.612  1.00  0.00     0.122 C 
BRANCH   8   9
ATOM      9  C   UNL A   1      31.798  22.746  23.149  1.00  0.00     0.137 C 
BRANCH   9  10
ATOM     10  N   UNL A   1      31.470  24.029  23.793  1.00  0.00    -0.292 N 
ATOM     11  C   UNL A   1      31.817  25.193  23.115  1.00  0.00     0.266 C 
ATOM     12  C   UNL A   1      31.063  24.224  25.096  1.00  0.00     0.148 C 
ATOM     13  O   UNL A   1      32.434  25.262  22.061  1.00  0.00    -0.268 OA
ATOM     14  C   UNL A   1      31.345  26.397  23.858  1.00  0.00     0.081 C 
ATOM     15  S   UNL A   1      30.576  25.897  25.303  1.00  0.00    -0.054 SA
ATOM     16  S   UNL A   1      30.984  23.141  26.356  1.00  0.00    -0.052 S 
ATOM     17  C   UNL A   1      31.494  27.636  23.357  1.00  0.00     0.033 C 
BRANCH  17  18
ATOM     18  C   UNL A   1      30.845  28.882  23.826  1.00  0.00     0.020 A 
ATOM     19  C   UNL A   1      29.714  29.403  23.175  1.00  0.00     0.027 A 
ATOM     20  C   UNL A   1      31.375  29.615  24.909  1.00  0.00     0.137 A 
ATOM     21  C   UNL A   1      29.219  30.669  23.499  1.00  0.00     0.019 A 
ATOM     22  C   UNL A   1      30.846  30.872  25.247  1.00  0.00     0.061 A 
ATOM     23  Br  UNL A   1      27.785  31.390  22.499  1.00  0.00    -0.051 Br
ATOM     24  C   UNL A   1      29.788  31.415  24.522  1.00  0.00     0.035 A 
ATOM     25  Br  UNL A   1      31.563  31.900  26.676  1.00  0.00    -0.047 Br
BRANCH  20  26
ATOM     26  O   UNL A   1      32.430  29.161  25.661  1.00  0.00    -0.506 OA
ATOM     27  H   UNL A   1      32.556  28.241  25.785  1.00  0.00     0.293 HD
ENDBRANCH  20  26
ENDBRANCH  17  18
ENDBRANCH   9  10
ENDBRANCH   8   9
ENDBRANCH   6   8
ENDBRANCH   3   4
ENDBRANCH   2   3
ENDBRANCH   1   2
BRANCH   1  28
ATOM     28  C   UNL A   1      39.503  22.851  26.550  1.00  0.00     0.002 C 
BRANCH  28  29
ATOM     29  C   UNL A   1      39.414  21.434  25.982  1.00  0.00     0.021 C 
BRANCH  29  30
ATOM     30  C   UNL A   1      39.985  20.343  26.882  1.00  0.00     0.116 C 
BRANCH  30  31
ATOM     31  N   UNL A   1      40.998  19.539  26.216  1.00  0.00    -0.352 N 
ATOM     32  C   UNL A   1      42.239  19.917  25.760  1.00  0.00     0.251 C 
ATOM     33  H   UNL A   1      40.763  18.594  26.072  1.00  0.00     0.163 HD
ATOM     34  O   UNL A   1      42.906  19.137  25.085  1.00  0.00    -0.269 OA
BRANCH  32  35
ATOM     35  C   UNL A   1      42.757  21.272  26.060  1.00  0.00     0.039 A 
ATOM     36  C   UNL A   1      42.884  22.194  25.018  1.00  0.00     0.014 A 
ATOM     37  C   UNL A   1      43.121  21.632  27.361  1.00  0.00     0.014 A 
ATOM     38  C   UNL A   1      43.322  23.494  25.290  1.00  0.00     0.010 A 
ATOM     39  C   UNL A   1      43.489  22.946  27.641  1.00  0.00     0.010 A 
ATOM     40  C   UNL A   1      43.603  23.889  26.608  1.00  0.00    -0.014 A 
BRANCH  40  41
ATOM     41  C   UNL A   1      44.043  25.274  26.924  1.00  0.00     0.031 A 
ATOM     42  C   UNL A   1      45.476  25.677  26.689  1.00  0.00     0.074 A 
ATOM     43  C   UNL A   1      43.177  26.151  27.470  1.00  0.00     0.049 A 
ATOM     44  N   UNL A   1      46.075  26.804  26.979  1.00  0.00    -0.248 NA
ATOM     45  C   UNL A   1      46.357  24.674  26.069  1.00  0.00     0.031 C 
ATOM     46  C   UNL A   1      41.772  25.876  27.784  1.00  0.00     0.029 A 
ATOM     47  N   UNL A   1      43.354  27.453  27.868  1.00  0.00    -0.354 N 
ATOM     48  C   UNL A   1      47.398  26.641  26.589  1.00  0.00     0.074 A 
ATOM     49  C   UNL A   1      47.530  25.289  26.092  1.00  0.00     0.031 C 
ATOM     50  C   UNL A   1      41.213  26.979  28.310  1.00  0.00     0.029 A 
ATOM     51  C   UNL A   1      42.224  28.028  28.403  1.00  0.00     0.049 A 
ATOM     52  H   UNL A   1      44.210  27.930  27.779  1.00  0.00     0.167 HD
ATOM     53  C   UNL A   1      48.410  27.542  26.615  1.00  0.00     0.031 A 
ATOM     54  C   UNL A   1      42.026  29.258  28.915  1.00  0.00     0.031 A 
ATOM     55  C   UNL A   1      48.279  28.892  27.092  1.00  0.00     0.049 A 
ATOM     56  C   UNL A   1      43.165  30.243  28.925  1.00  0.00     0.074 A 
ATOM     57  C   UNL A   1      49.241  29.886  27.143  1.00  0.00     0.029 A 
ATOM     58  N   UNL A   1      47.106  29.445  27.583  1.00  0.00    -0.354 N 
ATOM     59  N   UNL A   1      44.402  30.076  28.523  1.00  0.00    -0.248 NA
ATOM     60  C   UNL A   1      42.875  31.588  29.440  1.00  0.00     0.031 C 
ATOM     61  C   UNL A   1      48.657  31.032  27.689  1.00  0.00     0.029 A 
ATOM     62  C   UNL A   1      47.319  30.767  27.933  1.00  0.00     0.049 A 
ATOM     63  H   UNL A   1      46.249  28.968  27.669  1.00  0.00     0.167 HD
ATOM     64  C   UNL A   1      45.026  31.307  28.700  1.00  0.00     0.074 A 
ATOM     65  C   UNL A   1      44.028  32.210  29.235  1.00  0.00     0.031 C 
ATOM     66  C   UNL A   1      46.310  31.658  28.443  1.00  0.00     0.031 A 
BRANCH  53  67
ATOM     67  C   UNL A   1      49.750  27.098  26.090  1.00  0.00    -0.014 A 
ATOM     68  C   UNL A   1      50.083  27.277  24.735  1.00  0.00     0.010 A 
ATOM     69  C   UNL A   1      50.705  26.548  26.964  1.00  0.00     0.010 A 
ATOM     70  C   UNL A   1      51.336  26.884  24.256  1.00  0.00     0.020 A 
ATOM     71  C   UNL A   1      51.969  26.179  26.493  1.00  0.00     0.020 A 
ATOM     72  C   UNL A   1      52.270  26.337  25.138  1.00  0.00     0.054 A 
BRANCH  72  73
ATOM     73  S   UNL A   1      53.902  25.875  24.496  1.00  0.00     0.124 S 
ATOM     74  O   UNL A   1      53.933  24.438  24.761  1.00  0.00    -0.237 OA
ATOM     75  O   UNL A   1      53.812  26.251  23.088  1.00  0.00    -0.237 OA
ATOM     76  O   UNL A   1      54.829  26.675  25.293  1.00  0.00    -0.744 OA
ENDBRANCH  72  73
ENDBRANCH  53  67
BRANCH  54  77
ATOM     77  C   UNL A   1      40.693  29.640  29.458  1.00  0.00    -0.014 A 
ATOM     78  C   UNL A   1      39.645  30.005  28.595  1.00  0.00     0.010 A 
ATOM     79  C   UNL A   1      40.476  29.672  30.847  1.00  0.00     0.010 A 
ATOM     80  C   UNL A   1      38.418  30.436  29.110  1.00  0.00     0.020 A 
ATOM     81  C   UNL A   1      39.240  30.072  31.366  1.00  0.00     0.020 A 
ATOM     82  C   UNL A   1      38.226  30.473  30.493  1.00  0.00     0.054 A 
BRANCH  82  83
ATOM     83  S   UNL A   1      36.625  31.025  31.145  1.00  0.00     0.124 S 
ATOM     84  O   UNL A   1      36.237  29.898  31.987  1.00  0.00    -0.237 OA
ATOM     85  O   UNL A   1      36.977  32.253  31.853  1.00  0.00    -0.237 OA
ATOM     86  O   UNL A   1      35.818  31.218  29.942  1.00  0.00    -0.744 OA
ENDBRANCH  82  83
ENDBRANCH  54  77
BRANCH  66  87
ATOM     87  C   UNL A   1      46.695  33.095  28.673  1.00  0.00    -0.014 A 
ATOM     88  C   UNL A   1      46.524  34.069  27.674  1.00  0.00     0.010 A 
ATOM     89  C   UNL A   1      47.194  33.480  29.930  1.00  0.00     0.010 A 
ATOM     90  C   UNL A   1      46.880  35.399  27.919  1.00  0.00     0.020 A 
ATOM     91  C   UNL A   1      47.527  34.812  30.187  1.00  0.00     0.020 A 
ATOM     92  C   UNL A   1      47.383  35.760  29.173  1.00  0.00     0.054 A 
BRANCH  92  93
ATOM     93  S   UNL A   1      47.806  37.497  29.479  1.00  0.00     0.124 S 
ATOM     94  O   UNL A   1      46.498  38.144  29.416  1.00  0.00    -0.237 OA
ATOM     95  O   UNL A   1      48.420  37.451  30.804  1.00  0.00    -0.237 OA
ATOM     96  O   UNL A   1      48.719  37.829  28.388  1.00  0.00    -0.744 OA
ENDBRANCH  92  93
ENDBRANCH  66  87
ENDBRANCH  40  41
ENDBRANCH  32  35
ENDBRANCH  30  31
ENDBRANCH  29  30
ENDBRANCH  28  29
ENDBRANCH   1  28
TORSDOF 20
ENDMDL
