MODEL 1
REMARK VINA RESULT:     -12.2      0.000      0.000
REMARK SMILES O=C(NCCCCCCNC(=O)c1ccccc1Nc1cccc(S(F)(F)(F)(F)F)c1)c1ccc(-c2c3nc(c(-c4ccc(S(=O)(=O)[O-])cc4)c4ccc([nH]4)c(-c4ccc(S(=O)(=O)[O-])cc4)c4nc(c(-c5ccc(S(=O)(=O)[O-])cc5)c5ccc2[nH]5)C=C4)C=C3)cc1
REMARK SMILES IDX 6 1 5 2 4 3 3 4 1 5 2 6 32 8 33 9 91 10 34 11 90 12 35 13
REMARK SMILES IDX 36 14 37 15 84 16 38 17 89 18 83 19 85 20 39 21 88 22 82 23
REMARK SMILES IDX 81 24 40 26 70 27 51 28 69 29 52 30 55 31 68 32 86 33 53 34
REMARK SMILES IDX 54 35 67 37 87 38 56 39 41 40 42 41 50 42 43 43 49 44 44 45
REMARK SMILES IDX 45 46 46 47 47 48 48 49 71 50 72 51 80 52 73 53 79 54 74 55
REMARK SMILES IDX 75 56 76 57 77 58 78 59 57 60 58 61 66 62 59 63 65 64 60 65
REMARK SMILES IDX 61 66 62 67 63 68 64 69 7 70 8 71 9 72 10 73 11 74 12 76
REMARK SMILES IDX 13 77 14 78 18 79 15 80 17 81 16 82 19 83 20 85 21 86 31 87
REMARK SMILES IDX 22 88 24 89 23 90 25 91 26 92 27 93 28 94 29 95 30 96
REMARK H PARENT 3 7 85 25 55 36 10 75 19 84
REMARK Flexibility Score: inf
ROOT
ATOM      1  C   UNL A   1      32.731  27.252  25.048  1.00  0.00     0.002 C 
ENDROOT
BRANCH   1   2
ATOM      2  C   UNL A   1      33.204  27.344  26.489  1.00  0.00     0.021 C 
BRANCH   2   3
ATOM      3  C   UNL A   1      34.276  28.416  26.604  1.00  0.00     0.116 C 
BRANCH   3   4
ATOM      4  N   UNL A   1      33.671  29.663  27.092  1.00  0.00    -0.352 N 
ATOM      5  O   UNL A   1      33.938  31.670  28.334  1.00  0.00    -0.269 OA
ATOM      6  C   UNL A   1      34.462  30.592  27.912  1.00  0.00     0.251 C 
ATOM      7  H   UNL A   1      32.736  29.877  26.870  1.00  0.00     0.163 HD
BRANCH   6   8
ATOM      8  C   UNL A   1      35.905  30.262  28.255  1.00  0.00     0.039 A 
ATOM      9  C   UNL A   1      36.901  30.449  27.311  1.00  0.00     0.014 A 
ATOM     10  C   UNL A   1      36.175  29.743  29.447  1.00  0.00     0.014 A 
ATOM     11  C   UNL A   1      38.112  29.783  27.616  1.00  0.00     0.010 A 
ATOM     12  C   UNL A   1      37.421  29.232  29.722  1.00  0.00     0.010 A 
ATOM     13  C   UNL A   1      38.436  29.329  28.812  1.00  0.00    -0.014 A 
BRANCH  13  14
ATOM     14  C   UNL A   1      39.863  28.935  29.159  1.00  0.00     0.031 A 
ATOM     15  C   UNL A   1      40.281  27.649  28.811  1.00  0.00     0.074 A 
ATOM     16  C   UNL A   1      40.679  29.878  29.759  1.00  0.00     0.049 A 
ATOM     17  N   UNL A   1      41.498  27.124  28.952  1.00  0.00    -0.248 NA
ATOM     18  C   UNL A   1      39.406  26.634  28.206  1.00  0.00     0.031 C 
ATOM     19  C   UNL A   1      40.268  31.180  30.106  1.00  0.00     0.029 A 
ATOM     20  N   UNL A   1      42.001  29.744  30.123  1.00  0.00    -0.354 N 
ATOM     21  C   UNL A   1      41.518  25.873  28.485  1.00  0.00     0.074 A 
ATOM     22  C   UNL A   1      40.170  25.538  28.005  1.00  0.00     0.031 C 
ATOM     23  C   UNL A   1      41.323  31.817  30.680  1.00  0.00     0.029 A 
ATOM     24  C   UNL A   1      42.411  30.924  30.702  1.00  0.00     0.049 A 
ATOM     25  H   UNL A   1      42.558  28.942  29.991  1.00  0.00     0.167 HD
ATOM     26  C   UNL A   1      42.606  25.000  28.441  1.00  0.00     0.031 A 
ATOM     27  C   UNL A   1      43.658  31.224  31.227  1.00  0.00     0.031 A 
ATOM     28  C   UNL A   1      43.865  25.316  28.928  1.00  0.00     0.049 A 
ATOM     29  C   UNL A   1      44.731  30.330  31.236  1.00  0.00     0.074 A 
ATOM     30  C   UNL A   1      44.974  24.450  28.883  1.00  0.00     0.029 A 
ATOM     31  N   UNL A   1      44.267  26.487  29.529  1.00  0.00    -0.354 N 
ATOM     32  N   UNL A   1      44.760  29.094  30.734  1.00  0.00    -0.248 NA
ATOM     33  C   UNL A   1      46.047  30.625  31.819  1.00  0.00     0.031 C 
ATOM     34  C   UNL A   1      46.029  25.087  29.458  1.00  0.00     0.029 A 
ATOM     35  C   UNL A   1      45.595  26.360  29.873  1.00  0.00     0.049 A 
ATOM     36  H   UNL A   1      43.703  27.279  29.687  1.00  0.00     0.167 HD
ATOM     37  C   UNL A   1      45.968  28.554  30.913  1.00  0.00     0.074 A 
ATOM     38  C   UNL A   1      46.810  29.528  31.620  1.00  0.00     0.031 C 
ATOM     39  C   UNL A   1      46.401  27.289  30.511  1.00  0.00     0.031 A 
BRANCH  26  40
ATOM     40  C   UNL A   1      42.398  23.626  27.825  1.00  0.00    -0.014 A 
ATOM     41  C   UNL A   1      42.042  22.563  28.640  1.00  0.00     0.010 A 
ATOM     42  C   UNL A   1      42.604  23.459  26.525  1.00  0.00     0.010 A 
ATOM     43  C   UNL A   1      42.211  21.295  28.034  1.00  0.00     0.020 A 
ATOM     44  C   UNL A   1      42.620  22.198  25.976  1.00  0.00     0.020 A 
ATOM     45  C   UNL A   1      42.336  21.097  26.734  1.00  0.00     0.054 A 
BRANCH  45  46
ATOM     46  S   UNL A   1      42.141  19.455  25.997  1.00  0.00     0.124 S 
ATOM     47  O   UNL A   1      40.663  19.206  25.690  1.00  0.00    -0.237 OA
ATOM     48  O   UNL A   1      42.952  19.379  24.701  1.00  0.00    -0.237 OA
ATOM     49  O   UNL A   1      42.705  18.268  27.093  1.00  0.00    -0.744 OA
ENDBRANCH  45  46
ENDBRANCH  26  40
BRANCH  27  50
ATOM     50  C   UNL A   1      43.869  32.604  31.829  1.00  0.00    -0.014 A 
ATOM     51  C   UNL A   1      43.578  32.764  33.174  1.00  0.00     0.010 A 
ATOM     52  C   UNL A   1      44.327  33.613  31.099  1.00  0.00     0.010 A 
ATOM     53  C   UNL A   1      43.530  34.115  33.593  1.00  0.00     0.020 A 
ATOM     54  C   UNL A   1      44.380  34.884  31.617  1.00  0.00     0.020 A 
ATOM     55  C   UNL A   1      44.050  35.126  32.922  1.00  0.00     0.054 A 
BRANCH  55  56
ATOM     56  S   UNL A   1      44.312  36.744  33.688  1.00  0.00     0.124 S 
ATOM     57  O   UNL A   1      44.705  37.760  32.613  1.00  0.00    -0.237 OA
ATOM     58  O   UNL A   1      43.022  37.200  34.373  1.00  0.00    -0.237 OA
ATOM     59  O   UNL A   1      45.565  36.630  34.848  1.00  0.00    -0.744 OA
ENDBRANCH  55  56
ENDBRANCH  27  50
BRANCH  39  60
ATOM     60  C   UNL A   1      47.846  26.908  30.793  1.00  0.00    -0.014 A 
ATOM     61  C   UNL A   1      48.174  26.301  31.994  1.00  0.00     0.010 A 
ATOM     62  C   UNL A   1      48.775  27.200  29.891  1.00  0.00     0.010 A 
ATOM     63  C   UNL A   1      49.561  26.302  32.276  1.00  0.00     0.020 A 
ATOM     64  C   UNL A   1      50.108  27.049  30.187  1.00  0.00     0.020 A 
ATOM     65  C   UNL A   1      50.508  26.510  31.378  1.00  0.00     0.054 A 
BRANCH  65  66
ATOM     66  S   UNL A   1      52.240  26.103  31.708  1.00  0.00     0.124 S 
ATOM     67  O   UNL A   1      52.767  26.994  32.837  1.00  0.00    -0.237 OA
ATOM     68  O   UNL A   1      52.349  24.634  32.125  1.00  0.00    -0.237 OA
ATOM     69  O   UNL A   1      53.166  26.365  30.296  1.00  0.00    -0.744 OA
ENDBRANCH  65  66
ENDBRANCH  39  60
ENDBRANCH  13  14
ENDBRANCH   6   8
ENDBRANCH   3   4
ENDBRANCH   2   3
ENDBRANCH   1   2
BRANCH   1  70
ATOM     70  C   UNL A   1      31.212  27.219  25.013  1.00  0.00     0.002 C 
BRANCH  70  71
ATOM     71  C   UNL A   1      30.702  26.274  26.089  1.00  0.00     0.021 C 
BRANCH  71  72
ATOM     72  C   UNL A   1      30.913  24.836  25.642  1.00  0.00     0.116 C 
BRANCH  72  73
ATOM     73  N   UNL A   1      31.074  23.974  26.822  1.00  0.00    -0.352 N 
ATOM     74  C   UNL A   1      32.312  23.203  27.005  1.00  0.00     0.253 C 
ATOM     75  H   UNL A   1      30.353  23.914  27.489  1.00  0.00     0.163 HD
ATOM     76  O   UNL A   1      32.452  22.459  28.025  1.00  0.00    -0.269 OA
BRANCH  74  77
ATOM     77  C   UNL A   1      33.425  23.297  25.973  1.00  0.00     0.063 A 
ATOM     78  C   UNL A   1      34.432  24.233  26.144  1.00  0.00     0.016 A 
ATOM     79  C   UNL A   1      33.413  22.481  24.927  1.00  0.00     0.051 A 
ATOM     80  C   UNL A   1      35.234  24.427  24.995  1.00  0.00     0.001 A 
ATOM     81  C   UNL A   1      34.314  22.643  23.902  1.00  0.00     0.027 A 
ATOM     82  C   UNL A   1      35.300  23.587  23.976  1.00  0.00     0.002 A 
BRANCH  79  83
ATOM     83  N   UNL A   1      32.426  21.393  24.863  1.00  0.00    -0.355 N 
ATOM     84  H   UNL A   1      31.576  21.471  25.352  1.00  0.00     0.167 HD
BRANCH  83  85
ATOM     85  C   UNL A   1      32.710  20.189  24.069  1.00  0.00     0.040 A 
ATOM     86  C   UNL A   1      32.163  20.091  22.800  1.00  0.00     0.026 A 
ATOM     87  C   UNL A   1      33.373  19.174  24.612  1.00  0.00     0.050 A 
ATOM     88  C   UNL A   1      32.122  18.771  22.292  1.00  0.00     0.004 A 
ATOM     89  C   UNL A   1      33.405  17.948  23.994  1.00  0.00     0.109 A 
ATOM     90  C   UNL A   1      32.835  17.765  22.766  1.00  0.00     0.024 A 
BRANCH  89  91
ATOM     91  S   UNL A   1      34.214  16.554  24.819  1.00  0.00     0.310 S 
ATOM     92  F   UNL A   1      34.514  15.969  23.375  1.00  0.00    -0.094 F 
ATOM     93  F   UNL A   1      32.805  15.855  24.734  1.00  0.00    -0.094 F 
ATOM     94  F   UNL A   1      34.851  15.263  25.406  1.00  0.00    -0.094 F 
ATOM     95  F   UNL A   1      35.643  17.224  24.764  1.00  0.00    -0.094 F 
ATOM     96  F   UNL A   1      33.604  17.833  24.118  1.00  0.00    -0.094 F 
ENDBRANCH  89  91
ENDBRANCH  83  85
ENDBRANCH  79  83
ENDBRANCH  74  77
ENDBRANCH  72  73
ENDBRANCH  71  72
ENDBRANCH  70  71
ENDBRANCH   1  70
TORSDOF 19
ENDMDL
MODEL 2
REMARK VINA RESULT:     -12.0      2.434      2.934
REMARK SMILES O=C(NCCCCCCNC(=O)c1ccccc1Nc1cccc(S(F)(F)(F)(F)F)c1)c1ccc(-c2c3nc(c(-c4ccc(S(=O)(=O)[O-])cc4)c4ccc([nH]4)c(-c4ccc(S(=O)(=O)[O-])cc4)c4nc(c(-c5ccc(S(=O)(=O)[O-])cc5)c5ccc2[nH]5)C=C4)C=C3)cc1
REMARK SMILES IDX 6 1 5 2 4 3 3 4 1 5 2 6 32 8 33 9 91 10 34 11 90 12 35 13
REMARK SMILES IDX 36 14 37 15 84 16 38 17 89 18 83 19 85 20 39 21 88 22 82 23
REMARK SMILES IDX 81 24 40 26 70 27 51 28 69 29 52 30 55 31 68 32 86 33 53 34
REMARK SMILES IDX 54 35 67 37 87 38 56 39 41 40 42 41 50 42 43 43 49 44 44 45
REMARK SMILES IDX 45 46 46 47 47 48 48 49 71 50 72 51 80 52 73 53 79 54 74 55
REMARK SMILES IDX 75 56 76 57 77 58 78 59 57 60 58 61 66 62 59 63 65 64 60 65
REMARK SMILES IDX 61 66 62 67 63 68 64 69 7 70 8 71 9 72 10 73 11 74 12 76
REMARK SMILES IDX 13 77 14 78 18 79 15 80 17 81 16 82 19 83 20 85 21 86 31 87
REMARK SMILES IDX 22 88 24 89 23 90 25 91 26 92 27 93 28 94 29 95 30 96
REMARK H PARENT 3 7 85 25 55 36 10 75 19 84
REMARK Flexibility Score: inf
ROOT
ATOM      1  C   UNL A   1      32.835  27.449  24.933  1.00  0.00     0.002 C 
ENDROOT
BRANCH   1   2
ATOM      2  C   UNL A   1      33.432  27.776  26.292  1.00  0.00     0.021 C 
BRANCH   2   3
ATOM      3  C   UNL A   1      34.377  28.959  26.159  1.00  0.00     0.116 C 
BRANCH   3   4
ATOM      4  N   UNL A   1      33.653  30.201  26.464  1.00  0.00    -0.352 N 
ATOM      5  O   UNL A   1      33.540  32.192  27.755  1.00  0.00    -0.269 OA
ATOM      6  C   UNL A   1      34.167  31.118  27.491  1.00  0.00     0.251 C 
ATOM      7  H   UNL A   1      32.823  30.419  25.981  1.00  0.00     0.163 HD
BRANCH   6   8
ATOM      8  C   UNL A   1      35.448  30.783  28.237  1.00  0.00     0.039 A 
ATOM      9  C   UNL A   1      36.626  31.437  27.918  1.00  0.00     0.014 A 
ATOM     10  C   UNL A   1      35.421  29.818  29.149  1.00  0.00     0.014 A 
ATOM     11  C   UNL A   1      37.788  30.799  28.414  1.00  0.00     0.010 A 
ATOM     12  C   UNL A   1      36.587  29.335  29.691  1.00  0.00     0.010 A 
ATOM     13  C   UNL A   1      37.793  29.895  29.376  1.00  0.00    -0.014 A 
BRANCH  13  14
ATOM     14  C   UNL A   1      39.073  29.499  30.094  1.00  0.00     0.031 A 
ATOM     15  C   UNL A   1      39.826  28.459  29.546  1.00  0.00     0.074 A 
ATOM     16  C   UNL A   1      39.444  30.213  31.220  1.00  0.00     0.049 A 
ATOM     17  N   UNL A   1      41.006  28.001  29.964  1.00  0.00    -0.248 NA
ATOM     18  C   UNL A   1      39.417  27.676  28.371  1.00  0.00     0.031 C 
ATOM     19  C   UNL A   1      38.695  31.269  31.775  1.00  0.00     0.029 A 
ATOM     20  N   UNL A   1      40.571  30.045  31.995  1.00  0.00    -0.354 N 
ATOM     21  C   UNL A   1      41.424  27.009  29.174  1.00  0.00     0.074 A 
ATOM     22  C   UNL A   1      40.404  26.782  28.142  1.00  0.00     0.031 C 
ATOM     23  C   UNL A   1      39.354  31.723  32.873  1.00  0.00     0.029 A 
ATOM     24  C   UNL A   1      40.527  30.958  33.024  1.00  0.00     0.049 A 
ATOM     25  H   UNL A   1      41.285  29.384  31.840  1.00  0.00     0.167 HD
ATOM     26  C   UNL A   1      42.614  26.287  29.274  1.00  0.00     0.031 A 
ATOM     27  C   UNL A   1      41.446  31.130  34.047  1.00  0.00     0.031 A 
ATOM     28  C   UNL A   1      43.554  26.488  30.272  1.00  0.00     0.049 A 
ATOM     29  C   UNL A   1      42.609  30.368  34.180  1.00  0.00     0.074 A 
ATOM     30  C   UNL A   1      44.762  25.775  30.382  1.00  0.00     0.029 A 
ATOM     31  N   UNL A   1      43.497  27.386  31.315  1.00  0.00    -0.354 N 
ATOM     32  N   UNL A   1      43.044  29.404  33.368  1.00  0.00    -0.248 NA
ATOM     33  C   UNL A   1      43.573  30.519  35.278  1.00  0.00     0.031 C 
ATOM     34  C   UNL A   1      45.422  26.228  31.482  1.00  0.00     0.029 A 
ATOM     35  C   UNL A   1      44.635  27.232  32.077  1.00  0.00     0.049 A 
ATOM     36  H   UNL A   1      42.769  28.026  31.487  1.00  0.00     0.167 HD
ATOM     37  C   UNL A   1      44.205  28.918  33.811  1.00  0.00     0.074 A 
ATOM     38  C   UNL A   1      44.558  29.623  35.051  1.00  0.00     0.031 C 
ATOM     39  C   UNL A   1      44.986  27.918  33.229  1.00  0.00     0.031 A 
BRANCH  26  40
ATOM     40  C   UNL A   1      42.895  25.220  28.228  1.00  0.00    -0.014 A 
ATOM     41  C   UNL A   1      42.497  23.914  28.467  1.00  0.00     0.010 A 
ATOM     42  C   UNL A   1      43.555  25.548  27.125  1.00  0.00     0.010 A 
ATOM     43  C   UNL A   1      43.101  22.965  27.608  1.00  0.00     0.020 A 
ATOM     44  C   UNL A   1      43.998  24.576  26.259  1.00  0.00     0.020 A 
ATOM     45  C   UNL A   1      43.692  23.260  26.465  1.00  0.00     0.054 A 
BRANCH  45  46
ATOM     46  S   UNL A   1      44.077  21.988  25.235  1.00  0.00     0.124 S 
ATOM     47  O   UNL A   1      43.083  20.832  25.368  1.00  0.00    -0.237 OA
ATOM     48  O   UNL A   1      43.976  22.589  23.831  1.00  0.00    -0.237 OA
ATOM     49  O   UNL A   1      45.666  21.408  25.495  1.00  0.00    -0.744 OA
ENDBRANCH  45  46
ENDBRANCH  26  40
BRANCH  27  50
ATOM     50  C   UNL A   1      41.172  32.208  35.084  1.00  0.00    -0.014 A 
ATOM     51  C   UNL A   1      40.463  31.839  36.215  1.00  0.00     0.010 A 
ATOM     52  C   UNL A   1      41.606  33.451  34.918  1.00  0.00     0.010 A 
ATOM     53  C   UNL A   1      40.009  32.933  36.989  1.00  0.00     0.020 A 
ATOM     54  C   UNL A   1      41.232  34.445  35.791  1.00  0.00     0.020 A 
ATOM     55  C   UNL A   1      40.482  34.162  36.899  1.00  0.00     0.054 A 
BRANCH  55  56
ATOM     56  S   UNL A   1      40.156  35.406  38.172  1.00  0.00     0.124 S 
ATOM     57  O   UNL A   1      39.870  36.754  37.506  1.00  0.00    -0.237 OA
ATOM     58  O   UNL A   1      38.944  34.981  39.003  1.00  0.00    -0.237 OA
ATOM     59  O   UNL A   1      41.523  35.553  39.189  1.00  0.00    -0.744 OA
ENDBRANCH  55  56
ENDBRANCH  27  50
BRANCH  39  60
ATOM     60  C   UNL A   1      46.301  27.558  33.902  1.00  0.00    -0.014 A 
ATOM     61  C   UNL A   1      46.333  26.555  34.855  1.00  0.00     0.010 A 
ATOM     62  C   UNL A   1      47.394  28.244  33.585  1.00  0.00     0.010 A 
ATOM     63  C   UNL A   1      47.515  26.542  35.634  1.00  0.00     0.020 A 
ATOM     64  C   UNL A   1      48.553  28.082  34.304  1.00  0.00     0.020 A 
ATOM     65  C   UNL A   1      48.639  27.149  35.300  1.00  0.00     0.054 A 
BRANCH  65  66
ATOM     66  S   UNL A   1      50.208  26.767  36.116  1.00  0.00     0.124 S 
ATOM     67  O   UNL A   1      50.335  25.251  36.293  1.00  0.00    -0.237 OA
ATOM     68  O   UNL A   1      51.367  27.280  35.259  1.00  0.00    -0.237 OA
ATOM     69  O   UNL A   1      50.253  27.525  37.648  1.00  0.00    -0.744 OA
ENDBRANCH  65  66
ENDBRANCH  39  60
ENDBRANCH  13  14
ENDBRANCH   6   8
ENDBRANCH   3   4
ENDBRANCH   2   3
ENDBRANCH   1   2
BRANCH   1  70
ATOM     70  C   UNL A   1      31.319  27.511  25.017  1.00  0.00     0.002 C 
BRANCH  70  71
ATOM     71  C   UNL A   1      30.833  26.561  26.100  1.00  0.00     0.021 C 
BRANCH  71  72
ATOM     72  C   UNL A   1      30.966  25.126  25.613  1.00  0.00     0.116 C 
BRANCH  72  73
ATOM     73  N   UNL A   1      31.032  24.220  26.768  1.00  0.00    -0.352 N 
ATOM     74  C   UNL A   1      32.213  23.368  26.966  1.00  0.00     0.253 C 
ATOM     75  H   UNL A   1      30.285  24.185  27.409  1.00  0.00     0.163 HD
ATOM     76  O   UNL A   1      32.271  22.585  27.965  1.00  0.00    -0.269 OA
BRANCH  74  77
ATOM     77  C   UNL A   1      33.365  23.423  25.976  1.00  0.00     0.063 A 
ATOM     78  C   UNL A   1      34.365  24.365  26.149  1.00  0.00     0.016 A 
ATOM     79  C   UNL A   1      33.392  22.568  24.961  1.00  0.00     0.051 A 
ATOM     80  C   UNL A   1      35.211  24.516  25.025  1.00  0.00     0.001 A 
ATOM     81  C   UNL A   1      34.332  22.692  23.966  1.00  0.00     0.027 A 
ATOM     82  C   UNL A   1      35.315  23.639  24.043  1.00  0.00     0.002 A 
BRANCH  79  83
ATOM     83  N   UNL A   1      32.407  21.478  24.900  1.00  0.00    -0.355 N 
ATOM     84  H   UNL A   1      31.561  21.551  25.398  1.00  0.00     0.167 HD
BRANCH  83  85
ATOM     85  C   UNL A   1      32.686  20.280  24.096  1.00  0.00     0.040 A 
ATOM     86  C   UNL A   1      32.153  20.203  22.819  1.00  0.00     0.026 A 
ATOM     87  C   UNL A   1      33.332  19.251  24.635  1.00  0.00     0.050 A 
ATOM     88  C   UNL A   1      32.102  18.889  22.297  1.00  0.00     0.004 A 
ATOM     89  C   UNL A   1      33.356  18.032  24.003  1.00  0.00     0.109 A 
ATOM     90  C   UNL A   1      32.797  17.869  22.767  1.00  0.00     0.024 A 
BRANCH  89  91
ATOM     91  S   UNL A   1      34.140  16.619  24.821  1.00  0.00     0.310 S 
ATOM     92  F   UNL A   1      34.394  16.017  23.376  1.00  0.00    -0.094 F 
ATOM     93  F   UNL A   1      32.709  15.962  24.769  1.00  0.00    -0.094 F 
ATOM     94  F   UNL A   1      34.749  15.314  25.405  1.00  0.00    -0.094 F 
ATOM     95  F   UNL A   1      35.586  17.247  24.735  1.00  0.00    -0.094 F 
ATOM     96  F   UNL A   1      33.554  17.912  24.124  1.00  0.00    -0.094 F 
ENDBRANCH  89  91
ENDBRANCH  83  85
ENDBRANCH  79  83
ENDBRANCH  74  77
ENDBRANCH  72  73
ENDBRANCH  71  72
ENDBRANCH  70  71
ENDBRANCH   1  70
TORSDOF 19
ENDMDL
MODEL 3
REMARK VINA RESULT:     -11.8      1.332      2.008
REMARK SMILES O=C(NCCCCCCNC(=O)c1ccccc1Nc1cccc(S(F)(F)(F)(F)F)c1)c1ccc(-c2c3nc(c(-c4ccc(S(=O)(=O)[O-])cc4)c4ccc([nH]4)c(-c4ccc(S(=O)(=O)[O-])cc4)c4nc(c(-c5ccc(S(=O)(=O)[O-])cc5)c5ccc2[nH]5)C=C4)C=C3)cc1
REMARK SMILES IDX 6 1 5 2 4 3 3 4 1 5 2 6 32 8 33 9 91 10 34 11 90 12 35 13
REMARK SMILES IDX 36 14 37 15 84 16 38 17 89 18 83 19 85 20 39 21 88 22 82 23
REMARK SMILES IDX 81 24 40 26 70 27 51 28 69 29 52 30 55 31 68 32 86 33 53 34
REMARK SMILES IDX 54 35 67 37 87 38 56 39 41 40 42 41 50 42 43 43 49 44 44 45
REMARK SMILES IDX 45 46 46 47 47 48 48 49 71 50 72 51 80 52 73 53 79 54 74 55
REMARK SMILES IDX 75 56 76 57 77 58 78 59 57 60 58 61 66 62 59 63 65 64 60 65
REMARK SMILES IDX 61 66 62 67 63 68 64 69 7 70 8 71 9 72 10 73 11 74 12 76
REMARK SMILES IDX 13 77 14 78 18 79 15 80 17 81 16 82 19 83 20 85 21 86 31 87
REMARK SMILES IDX 22 88 24 89 23 90 25 91 26 92 27 93 28 94 29 95 30 96
REMARK H PARENT 3 7 85 25 55 36 10 75 19 84
REMARK Flexibility Score: inf
ROOT
ATOM      1  C   UNL A   1      32.540  27.141  25.038  1.00  0.00     0.002 C 
ENDROOT
BRANCH   1   2
ATOM      2  C   UNL A   1      33.079  27.140  26.459  1.00  0.00     0.021 C 
BRANCH   2   3
ATOM      3  C   UNL A   1      34.191  28.169  26.581  1.00  0.00     0.116 C 
BRANCH   3   4
ATOM      4  N   UNL A   1      33.611  29.481  26.902  1.00  0.00    -0.352 N 
ATOM      5  O   UNL A   1      33.897  31.602  27.933  1.00  0.00    -0.269 OA
ATOM      6  C   UNL A   1      34.398  30.468  27.655  1.00  0.00     0.251 C 
ATOM      7  H   UNL A   1      32.695  29.699  26.614  1.00  0.00     0.163 HD
BRANCH   6   8
ATOM      8  C   UNL A   1      35.812  30.132  28.101  1.00  0.00     0.039 A 
ATOM      9  C   UNL A   1      36.873  30.310  27.229  1.00  0.00     0.014 A 
ATOM     10  C   UNL A   1      35.993  29.616  29.310  1.00  0.00     0.014 A 
ATOM     11  C   UNL A   1      38.056  29.640  27.621  1.00  0.00     0.010 A 
ATOM     12  C   UNL A   1      37.214  29.100  29.675  1.00  0.00     0.010 A 
ATOM     13  C   UNL A   1      38.292  29.188  28.839  1.00  0.00    -0.014 A 
BRANCH  13  14
ATOM     14  C   UNL A   1      39.688  28.788  29.288  1.00  0.00     0.031 A 
ATOM     15  C   UNL A   1      40.146  27.521  28.922  1.00  0.00     0.074 A 
ATOM     16  C   UNL A   1      40.443  29.710  29.993  1.00  0.00     0.049 A 
ATOM     17  N   UNL A   1      41.352  26.997  29.142  1.00  0.00    -0.248 NA
ATOM     18  C   UNL A   1      39.334  26.528  28.204  1.00  0.00     0.031 C 
ATOM     19  C   UNL A   1      39.992  30.993  30.358  1.00  0.00     0.029 A 
ATOM     20  N   UNL A   1      41.731  29.568  30.460  1.00  0.00    -0.354 N 
ATOM     21  C   UNL A   1      41.422  25.767  28.627  1.00  0.00     0.074 A 
ATOM     22  C   UNL A   1      40.123  25.446  28.022  1.00  0.00     0.031 C 
ATOM     23  C   UNL A   1      40.988  31.611  31.046  1.00  0.00     0.029 A 
ATOM     24  C   UNL A   1      42.079  30.724  31.121  1.00  0.00     0.049 A 
ATOM     25  H   UNL A   1      42.304  28.775  30.343  1.00  0.00     0.167 HD
ATOM     26  C   UNL A   1      42.518  24.904  28.637  1.00  0.00     0.031 A 
ATOM     27  C   UNL A   1      43.275  31.009  31.762  1.00  0.00     0.031 A 
ATOM     28  C   UNL A   1      43.729  25.205  29.241  1.00  0.00     0.049 A 
ATOM     29  C   UNL A   1      44.352  30.121  31.822  1.00  0.00     0.074 A 
ATOM     30  C   UNL A   1      44.846  24.349  29.253  1.00  0.00     0.029 A 
ATOM     31  N   UNL A   1      44.068  26.352  29.922  1.00  0.00    -0.354 N 
ATOM     32  N   UNL A   1      44.435  28.908  31.273  1.00  0.00    -0.248 NA
ATOM     33  C   UNL A   1      45.612  30.399  32.525  1.00  0.00     0.031 C 
ATOM     34  C   UNL A   1      45.844  24.967  29.941  1.00  0.00     0.029 A 
ATOM     35  C   UNL A   1      45.365  26.219  30.371  1.00  0.00     0.049 A 
ATOM     36  H   UNL A   1      43.486  27.133  30.065  1.00  0.00     0.167 HD
ATOM     37  C   UNL A   1      45.628  28.368  31.530  1.00  0.00     0.074 A 
ATOM     38  C   UNL A   1      46.399  29.316  32.346  1.00  0.00     0.031 C 
ATOM     39  C   UNL A   1      46.106  27.124  31.113  1.00  0.00     0.031 A 
BRANCH  26  40
ATOM     40  C   UNL A   1      42.376  23.556  27.949  1.00  0.00    -0.014 A 
ATOM     41  C   UNL A   1      41.800  22.500  28.636  1.00  0.00     0.010 A 
ATOM     42  C   UNL A   1      42.846  23.402  26.717  1.00  0.00     0.010 A 
ATOM     43  C   UNL A   1      42.028  21.236  28.040  1.00  0.00     0.020 A 
ATOM     44  C   UNL A   1      42.913  22.154  26.145  1.00  0.00     0.020 A 
ATOM     45  C   UNL A   1      42.416  21.056  26.791  1.00  0.00     0.054 A 
BRANCH  45  46
ATOM     46  S   UNL A   1      42.299  19.443  25.979  1.00  0.00     0.124 S 
ATOM     47  O   UNL A   1      43.045  19.489  24.644  1.00  0.00    -0.237 OA
ATOM     48  O   UNL A   1      42.926  18.373  26.877  1.00  0.00    -0.237 OA
ATOM     49  O   UNL A   1      40.654  19.063  25.701  1.00  0.00    -0.744 OA
ENDBRANCH  45  46
ENDBRANCH  26  40
BRANCH  27  50
ATOM     50  C   UNL A   1      43.422  32.363  32.436  1.00  0.00    -0.014 A 
ATOM     51  C   UNL A   1      43.179  32.426  33.799  1.00  0.00     0.010 A 
ATOM     52  C   UNL A   1      43.783  33.441  31.751  1.00  0.00     0.010 A 
ATOM     53  C   UNL A   1      43.062  33.744  34.299  1.00  0.00     0.020 A 
ATOM     54  C   UNL A   1      43.776  34.681  32.342  1.00  0.00     0.020 A 
ATOM     55  C   UNL A   1      43.487  34.825  33.671  1.00  0.00     0.054 A 
BRANCH  55  56
ATOM     56  S   UNL A   1      43.676  36.410  34.522  1.00  0.00     0.124 S 
ATOM     57  O   UNL A   1      43.012  36.333  35.899  1.00  0.00    -0.237 OA
ATOM     58  O   UNL A   1      45.164  36.725  34.691  1.00  0.00    -0.237 OA
ATOM     59  O   UNL A   1      42.933  37.645  33.600  1.00  0.00    -0.744 OA
ENDBRANCH  55  56
ENDBRANCH  27  50
BRANCH  39  60
ATOM     60  C   UNL A   1      47.525  26.740  31.499  1.00  0.00    -0.014 A 
ATOM     61  C   UNL A   1      47.754  26.051  32.678  1.00  0.00     0.010 A 
ATOM     62  C   UNL A   1      48.528  27.107  30.710  1.00  0.00     0.010 A 
ATOM     63  C   UNL A   1      49.109  26.047  33.086  1.00  0.00     0.020 A 
ATOM     64  C   UNL A   1      49.830  26.950  31.115  1.00  0.00     0.020 A 
ATOM     65  C   UNL A   1      50.129  26.330  32.297  1.00  0.00     0.054 A 
BRANCH  65  66
ATOM     66  S   UNL A   1      51.832  25.920  32.756  1.00  0.00     0.124 S 
ATOM     67  O   UNL A   1      51.842  25.252  34.134  1.00  0.00    -0.237 OA
ATOM     68  O   UNL A   1      52.422  24.961  31.719  1.00  0.00    -0.237 OA
ATOM     69  O   UNL A   1      52.768  27.349  32.809  1.00  0.00    -0.744 OA
ENDBRANCH  65  66
ENDBRANCH  39  60
ENDBRANCH  13  14
ENDBRANCH   6   8
ENDBRANCH   3   4
ENDBRANCH   2   3
ENDBRANCH   1   2
BRANCH   1  70
ATOM     70  C   UNL A   1      33.700  27.180  24.057  1.00  0.00     0.002 C 
BRANCH  70  71
ATOM     71  C   UNL A   1      33.604  25.993  23.112  1.00  0.00     0.021 C 
BRANCH  71  72
ATOM     72  C   UNL A   1      32.154  25.548  23.002  1.00  0.00     0.116 C 
BRANCH  72  73
ATOM     73  N   UNL A   1      32.089  24.254  22.308  1.00  0.00    -0.352 N 
ATOM     74  C   UNL A   1      32.047  23.006  23.083  1.00  0.00     0.253 C 
ATOM     75  H   UNL A   1      32.075  24.224  21.324  1.00  0.00     0.163 HD
ATOM     76  O   UNL A   1      31.992  21.888  22.483  1.00  0.00    -0.269 OA
BRANCH  74  77
ATOM     77  C   UNL A   1      32.070  23.054  24.602  1.00  0.00     0.063 A 
ATOM     78  C   UNL A   1      30.900  23.329  25.291  1.00  0.00     0.016 A 
ATOM     79  C   UNL A   1      33.211  22.832  25.243  1.00  0.00     0.051 A 
ATOM     80  C   UNL A   1      31.098  23.635  26.658  1.00  0.00     0.001 A 
ATOM     81  C   UNL A   1      33.299  23.020  26.602  1.00  0.00     0.027 A 
ATOM     82  C   UNL A   1      32.195  23.350  27.338  1.00  0.00     0.002 A 
BRANCH  79  83
ATOM     83  N   UNL A   1      34.392  22.381  24.493  1.00  0.00    -0.355 N 
ATOM     84  H   UNL A   1      34.790  22.963  23.806  1.00  0.00     0.167 HD
BRANCH  83  85
ATOM     85  C   UNL A   1      34.980  21.063  24.770  1.00  0.00     0.040 A 
ATOM     86  C   UNL A   1      36.331  20.992  25.068  1.00  0.00     0.026 A 
ATOM     87  C   UNL A   1      34.250  19.963  24.615  1.00  0.00     0.050 A 
ATOM     88  C   UNL A   1      36.889  19.703  24.898  1.00  0.00     0.004 A 
ATOM     89  C   UNL A   1      34.847  18.725  24.594  1.00  0.00     0.109 A 
ATOM     90  C   UNL A   1      36.187  18.587  24.823  1.00  0.00     0.024 A 
BRANCH  89  91
ATOM     91  S   UNL A   1      33.841  17.257  24.260  1.00  0.00     0.310 S 
ATOM     92  F   UNL A   1      32.622  18.240  24.011  1.00  0.00    -0.094 F 
ATOM     93  F   UNL A   1      33.485  17.313  25.793  1.00  0.00    -0.094 F 
ATOM     94  F   UNL A   1      32.854  16.076  24.044  1.00  0.00    -0.094 F 
ATOM     95  F   UNL A   1      34.107  17.309  22.704  1.00  0.00    -0.094 F 
ATOM     96  F   UNL A   1      34.762  18.529  24.444  1.00  0.00    -0.094 F 
ENDBRANCH  89  91
ENDBRANCH  83  85
ENDBRANCH  79  83
ENDBRANCH  74  77
ENDBRANCH  72  73
ENDBRANCH  71  72
ENDBRANCH  70  71
ENDBRANCH   1  70
TORSDOF 19
ENDMDL
