MODEL 1
REMARK VINA RESULT:      -8.6      0.000      0.000
REMARK SMILES O=CN1CCC[C@@H](C(=O)NCCCCCCNC(=O)c2ccc(-c3c4nc(c(-c5ccc(S(=O)(=O)[O-])cc5)c5ccc([nH]5)c(-c5ccc(S(=O)(=O)[O-])cc5)c5nc(c(-c6ccc(S(=O)(=O)[O-])cc6)c6ccc3[nH]6)C=C5)C=C4)cc2)C1
REMARK SMILES IDX 14 1 13 2 12 3 11 4 10 5 8 6 9 7 7 9 3 10 4 11 80 12 5 13
REMARK SMILES IDX 6 14 2 15 1 16 15 17 16 18 17 19 18 20 19 22 20 23 21 24
REMARK SMILES IDX 79 25 22 26 78 27 23 28 24 29 25 30 72 31 26 32 77 33 71 34
REMARK SMILES IDX 73 35 27 36 76 37 70 38 69 39 28 41 58 42 39 43 57 44 40 45
REMARK SMILES IDX 43 46 56 47 74 48 41 49 42 50 55 52 75 53 44 54 29 55 30 56
REMARK SMILES IDX 38 57 31 58 37 59 32 60 33 61 34 62 35 63 36 64 59 65 60 66
REMARK SMILES IDX 68 67 61 68 67 69 62 70 63 71 64 72 65 73 66 74 45 75 46 76
REMARK SMILES IDX 54 77 47 78 53 79 48 80 49 81 50 82 51 83 52 84
REMARK H PARENT 10 8 17 21 73 40 43 51
REMARK Flexibility Score: inf
ROOT
ATOM      1  C   UNL A   1      37.432  33.068  29.037  1.00  0.00     0.002 C 
ENDROOT
BRANCH   1   2
ATOM      2  C   UNL A   1      38.343  34.300  29.011  1.00  0.00     0.002 C 
BRANCH   2   3
ATOM      3  C   UNL A   1      38.810  34.792  30.384  1.00  0.00     0.021 C 
BRANCH   3   4
ATOM      4  C   UNL A   1      38.155  34.073  31.561  1.00  0.00     0.116 C 
BRANCH   4   5
ATOM      5  N   UNL A   1      38.419  34.761  32.813  1.00  0.00    -0.356 N 
ATOM      6  C   UNL A   1      38.571  34.292  34.081  1.00  0.00     0.224 C 
ATOM      7  O   UNL A   1      38.766  35.118  34.977  1.00  0.00    -0.275 OA
ATOM      8  H   UNL A   1      38.504  35.738  32.729  1.00  0.00     0.163 HD
BRANCH   6   9
ATOM      9  C   UNL A   1      38.528  32.806  34.398  1.00  0.00     0.098 C 
ATOM     10  N   UNL A   1      39.929  30.747  34.456  1.00  0.00    -0.344 N 
ATOM     11  C   UNL A   1      39.689  30.568  35.878  1.00  0.00     0.119 C 
ATOM     12  C   UNL A   1      39.793  32.093  33.910  1.00  0.00     0.132 C 
ATOM     13  C   UNL A   1      38.310  31.088  36.258  1.00  0.00     0.022 C 
ATOM     14  C   UNL A   1      38.150  32.553  35.866  1.00  0.00     0.017 C 
BRANCH  10  15
ATOM     15  C   UNL A   1      40.469  29.738  33.687  1.00  0.00     0.339 C 
ATOM     16  O   UNL A   1      40.425  28.542  33.943  1.00  0.00    -0.279 OA
ENDBRANCH  10  15
ENDBRANCH   6   9
ENDBRANCH   4   5
ENDBRANCH   3   4
ENDBRANCH   2   3
ENDBRANCH   1   2
BRANCH   1  17
ATOM     17  C   UNL A   1      35.990  33.318  28.590  1.00  0.00     0.021 C 
BRANCH  17  18
ATOM     18  C   UNL A   1      34.931  32.623  29.439  1.00  0.00     0.116 C 
BRANCH  18  19
ATOM     19  N   UNL A   1      34.136  31.685  28.662  1.00  0.00    -0.352 N 
ATOM     20  C   UNL A   1      34.527  30.521  28.046  1.00  0.00     0.251 C 
ATOM     21  H   UNL A   1      33.184  31.916  28.564  1.00  0.00     0.163 HD
ATOM     22  O   UNL A   1      33.769  29.951  27.267  1.00  0.00    -0.269 OA
BRANCH  20  23
ATOM     23  C   UNL A   1      35.875  29.976  28.311  1.00  0.00     0.039 A 
ATOM     24  C   UNL A   1      36.835  30.020  27.297  1.00  0.00     0.014 A 
ATOM     25  C   UNL A   1      36.192  29.443  29.562  1.00  0.00     0.014 A 
ATOM     26  C   UNL A   1      38.138  29.595  27.564  1.00  0.00     0.010 A 
ATOM     27  C   UNL A   1      37.508  29.086  29.847  1.00  0.00     0.010 A 
ATOM     28  C   UNL A   1      38.495  29.164  28.853  1.00  0.00    -0.014 A 
BRANCH  28  29
ATOM     29  C   UNL A   1      39.898  28.813  29.191  1.00  0.00     0.031 A 
ATOM     30  C   UNL A   1      40.804  29.837  29.817  1.00  0.00     0.074 A 
ATOM     31  C   UNL A   1      40.378  27.597  28.861  1.00  0.00     0.049 A 
ATOM     32  N   UNL A   1      42.078  29.746  30.101  1.00  0.00    -0.248 NA
ATOM     33  C   UNL A   1      40.207  31.143  30.146  1.00  0.00     0.031 C 
ATOM     34  C   UNL A   1      39.609  26.528  28.220  1.00  0.00     0.029 A 
ATOM     35  N   UNL A   1      41.632  27.058  29.007  1.00  0.00    -0.354 N 
ATOM     36  C   UNL A   1      42.439  30.981  30.627  1.00  0.00     0.074 A 
ATOM     37  C   UNL A   1      41.261  31.821  30.578  1.00  0.00     0.031 C 
ATOM     38  C   UNL A   1      40.400  25.457  28.049  1.00  0.00     0.029 A 
ATOM     39  C   UNL A   1      41.744  25.777  28.520  1.00  0.00     0.049 A 
ATOM     40  H   UNL A   1      42.381  27.543  29.422  1.00  0.00     0.167 HD
ATOM     41  C   UNL A   1      43.637  31.376  31.119  1.00  0.00     0.031 A 
ATOM     42  C   UNL A   1      42.809  24.956  28.443  1.00  0.00     0.031 A 
ATOM     43  C   UNL A   1      44.803  30.535  31.170  1.00  0.00     0.049 A 
ATOM     44  C   UNL A   1      44.139  25.430  28.965  1.00  0.00     0.074 A 
ATOM     45  C   UNL A   1      46.048  30.824  31.702  1.00  0.00     0.029 A 
ATOM     46  N   UNL A   1      44.874  29.245  30.665  1.00  0.00    -0.354 N 
ATOM     47  N   UNL A   1      44.442  26.578  29.522  1.00  0.00    -0.248 NA
ATOM     48  C   UNL A   1      45.268  24.496  28.854  1.00  0.00     0.031 C 
ATOM     49  C   UNL A   1      46.889  29.734  31.463  1.00  0.00     0.029 A 
ATOM     50  C   UNL A   1      46.150  28.738  30.841  1.00  0.00     0.049 A 
ATOM     51  H   UNL A   1      44.127  28.761  30.243  1.00  0.00     0.167 HD
ATOM     52  C   UNL A   1      45.791  26.496  29.848  1.00  0.00     0.074 A 
ATOM     53  C   UNL A   1      46.241  25.180  29.442  1.00  0.00     0.031 C 
ATOM     54  C   UNL A   1      46.585  27.426  30.431  1.00  0.00     0.031 A 
BRANCH  41  55
ATOM     55  C   UNL A   1      43.750  32.787  31.635  1.00  0.00    -0.014 A 
ATOM     56  C   UNL A   1      44.273  33.816  30.830  1.00  0.00     0.010 A 
ATOM     57  C   UNL A   1      43.282  33.099  32.924  1.00  0.00     0.010 A 
ATOM     58  C   UNL A   1      44.364  35.121  31.321  1.00  0.00     0.020 A 
ATOM     59  C   UNL A   1      43.343  34.410  33.408  1.00  0.00     0.020 A 
ATOM     60  C   UNL A   1      43.901  35.409  32.608  1.00  0.00     0.054 A 
BRANCH  60  61
ATOM     61  S   UNL A   1      44.012  37.117  33.209  1.00  0.00     0.124 S 
ATOM     62  O   UNL A   1      43.756  37.881  31.990  1.00  0.00    -0.237 OA
ATOM     63  O   UNL A   1      42.955  37.171  34.216  1.00  0.00    -0.237 OA
ATOM     64  O   UNL A   1      45.373  37.214  33.730  1.00  0.00    -0.744 OA
ENDBRANCH  60  61
ENDBRANCH  41  55
BRANCH  42  65
ATOM     65  C   UNL A   1      42.663  23.601  27.844  1.00  0.00    -0.014 A 
ATOM     66  C   UNL A   1      42.285  22.504  28.638  1.00  0.00     0.010 A 
ATOM     67  C   UNL A   1      42.888  23.403  26.469  1.00  0.00     0.010 A 
ATOM     68  C   UNL A   1      42.152  21.232  28.072  1.00  0.00     0.020 A 
ATOM     69  C   UNL A   1      42.726  22.140  25.893  1.00  0.00     0.020 A 
ATOM     70  C   UNL A   1      42.370  21.058  26.702  1.00  0.00     0.054 A 
BRANCH  70  71
ATOM     71  S   UNL A   1      42.140  19.410  25.980  1.00  0.00     0.124 S 
ATOM     72  O   UNL A   1      40.699  19.376  25.756  1.00  0.00    -0.237 OA
ATOM     73  O   UNL A   1      42.967  19.476  24.777  1.00  0.00    -0.237 OA
ATOM     74  O   UNL A   1      42.636  18.510  27.018  1.00  0.00    -0.744 OA
ENDBRANCH  70  71
ENDBRANCH  42  65
BRANCH  54  75
ATOM     75  C   UNL A   1      48.021  27.055  30.693  1.00  0.00    -0.014 A 
ATOM     76  C   UNL A   1      49.003  27.203  29.698  1.00  0.00     0.010 A 
ATOM     77  C   UNL A   1      48.404  26.629  31.978  1.00  0.00     0.010 A 
ATOM     78  C   UNL A   1      50.341  26.915  29.980  1.00  0.00     0.020 A 
ATOM     79  C   UNL A   1      49.745  26.369  32.272  1.00  0.00     0.020 A 
ATOM     80  C   UNL A   1      50.704  26.507  31.267  1.00  0.00     0.054 A 
BRANCH  80  81
ATOM     81  S   UNL A   1      52.458  26.209  31.625  1.00  0.00     0.124 S 
ATOM     82  O   UNL A   1      53.088  26.538  30.349  1.00  0.00    -0.237 OA
ATOM     83  O   UNL A   1      52.723  27.144  32.716  1.00  0.00    -0.237 OA
ATOM     84  O   UNL A   1      52.503  24.798  31.996  1.00  0.00    -0.744 OA
ENDBRANCH  80  81
ENDBRANCH  54  75
ENDBRANCH  28  29
ENDBRANCH  20  23
ENDBRANCH  18  19
ENDBRANCH  17  18
ENDBRANCH   1  17
TORSDOF 17
ENDMDL
MODEL 2
REMARK VINA RESULT:      -8.6      3.371      6.345
REMARK SMILES O=CN1CCC[C@@H](C(=O)NCCCCCCNC(=O)c2ccc(-c3c4nc(c(-c5ccc(S(=O)(=O)[O-])cc5)c5ccc([nH]5)c(-c5ccc(S(=O)(=O)[O-])cc5)c5nc(c(-c6ccc(S(=O)(=O)[O-])cc6)c6ccc3[nH]6)C=C5)C=C4)cc2)C1
REMARK SMILES IDX 14 1 13 2 12 3 11 4 10 5 8 6 9 7 7 9 3 10 4 11 80 12 5 13
REMARK SMILES IDX 6 14 2 15 1 16 15 17 16 18 17 19 18 20 19 22 20 23 21 24
REMARK SMILES IDX 79 25 22 26 78 27 23 28 24 29 25 30 72 31 26 32 77 33 71 34
REMARK SMILES IDX 73 35 27 36 76 37 70 38 69 39 28 41 58 42 39 43 57 44 40 45
REMARK SMILES IDX 43 46 56 47 74 48 41 49 42 50 55 52 75 53 44 54 29 55 30 56
REMARK SMILES IDX 38 57 31 58 37 59 32 60 33 61 34 62 35 63 36 64 59 65 60 66
REMARK SMILES IDX 68 67 61 68 67 69 62 70 63 71 64 72 65 73 66 74 45 75 46 76
REMARK SMILES IDX 54 77 47 78 53 79 48 80 49 81 50 82 51 83 52 84
REMARK H PARENT 10 8 17 21 73 40 43 51
REMARK Flexibility Score: inf
ROOT
ATOM      1  C   UNL A   1      31.422  28.684  25.940  1.00  0.00     0.002 C 
ENDROOT
BRANCH   1   2
ATOM      2  C   UNL A   1      31.387  28.050  24.545  1.00  0.00     0.002 C 
BRANCH   2   3
ATOM      3  C   UNL A   1      30.556  26.768  24.436  1.00  0.00     0.021 C 
BRANCH   3   4
ATOM      4  C   UNL A   1      31.373  25.482  24.546  1.00  0.00     0.116 C 
BRANCH   4   5
ATOM      5  N   UNL A   1      32.269  25.328  23.412  1.00  0.00    -0.356 N 
ATOM      6  C   UNL A   1      33.349  24.523  23.224  1.00  0.00     0.224 C 
ATOM      7  O   UNL A   1      33.953  24.618  22.153  1.00  0.00    -0.275 OA
ATOM      8  H   UNL A   1      32.056  25.907  22.646  1.00  0.00     0.163 HD
BRANCH   6   9
ATOM      9  C   UNL A   1      33.796  23.521  24.276  1.00  0.00     0.098 C 
ATOM     10  N   UNL A   1      33.646  21.119  24.919  1.00  0.00    -0.344 N 
ATOM     11  C   UNL A   1      35.089  20.961  24.848  1.00  0.00     0.119 C 
ATOM     12  C   UNL A   1      33.042  22.194  24.140  1.00  0.00     0.132 C 
ATOM     13  C   UNL A   1      35.788  22.260  25.225  1.00  0.00     0.022 C 
ATOM     14  C   UNL A   1      35.328  23.408  24.333  1.00  0.00     0.017 C 
BRANCH  10  15
ATOM     15  C   UNL A   1      32.850  20.169  25.523  1.00  0.00     0.339 C 
ATOM     16  O   UNL A   1      32.186  19.319  24.944  1.00  0.00    -0.279 OA
ENDBRANCH  10  15
ENDBRANCH   6   9
ENDBRANCH   4   5
ENDBRANCH   3   4
ENDBRANCH   2   3
ENDBRANCH   1   2
BRANCH   1  17
ATOM     17  C   UNL A   1      32.271  27.936  26.971  1.00  0.00     0.021 C 
BRANCH  17  18
ATOM     18  C   UNL A   1      33.666  28.511  27.185  1.00  0.00     0.116 C 
BRANCH  18  19
ATOM     19  N   UNL A   1      33.629  29.923  27.533  1.00  0.00    -0.352 N 
ATOM     20  C   UNL A   1      34.576  30.681  28.177  1.00  0.00     0.251 C 
ATOM     21  H   UNL A   1      32.811  30.403  27.269  1.00  0.00     0.163 HD
ATOM     22  O   UNL A   1      34.301  31.813  28.565  1.00  0.00    -0.269 OA
BRANCH  20  23
ATOM     23  C   UNL A   1      35.918  30.114  28.422  1.00  0.00     0.039 A 
ATOM     24  C   UNL A   1      36.858  30.126  27.388  1.00  0.00     0.014 A 
ATOM     25  C   UNL A   1      36.252  29.592  29.674  1.00  0.00     0.014 A 
ATOM     26  C   UNL A   1      38.158  29.680  27.633  1.00  0.00     0.010 A 
ATOM     27  C   UNL A   1      37.566  29.214  29.936  1.00  0.00     0.010 A 
ATOM     28  C   UNL A   1      38.534  29.260  28.921  1.00  0.00    -0.014 A 
BRANCH  28  29
ATOM     29  C   UNL A   1      39.937  28.887  29.235  1.00  0.00     0.031 A 
ATOM     30  C   UNL A   1      40.870  29.897  29.843  1.00  0.00     0.074 A 
ATOM     31  C   UNL A   1      40.391  27.663  28.899  1.00  0.00     0.049 A 
ATOM     32  N   UNL A   1      42.147  29.786  30.105  1.00  0.00    -0.248 NA
ATOM     33  C   UNL A   1      40.300  31.213  30.180  1.00  0.00     0.031 C 
ATOM     34  C   UNL A   1      39.594  26.605  28.273  1.00  0.00     0.029 A 
ATOM     35  N   UNL A   1      41.639  27.104  29.023  1.00  0.00    -0.354 N 
ATOM     36  C   UNL A   1      42.537  31.016  30.621  1.00  0.00     0.074 A 
ATOM     37  C   UNL A   1      41.372  31.874  30.592  1.00  0.00     0.031 C 
ATOM     38  C   UNL A   1      40.365  25.521  28.090  1.00  0.00     0.029 A 
ATOM     39  C   UNL A   1      41.721  25.821  28.537  1.00  0.00     0.049 A 
ATOM     40  H   UNL A   1      42.403  27.577  29.424  1.00  0.00     0.167 HD
ATOM     41  C   UNL A   1      43.750  31.392  31.092  1.00  0.00     0.031 A 
ATOM     42  C   UNL A   1      42.772  24.982  28.443  1.00  0.00     0.031 A 
ATOM     43  C   UNL A   1      44.903  30.532  31.123  1.00  0.00     0.049 A 
ATOM     44  C   UNL A   1      44.118  25.435  28.940  1.00  0.00     0.074 A 
ATOM     45  C   UNL A   1      46.162  30.802  31.633  1.00  0.00     0.029 A 
ATOM     46  N   UNL A   1      44.945  29.241  30.620  1.00  0.00    -0.354 N 
ATOM     47  N   UNL A   1      44.450  26.579  29.489  1.00  0.00    -0.248 NA
ATOM     48  C   UNL A   1      45.230  24.483  28.810  1.00  0.00     0.031 C 
ATOM     49  C   UNL A   1      46.981  29.698  31.381  1.00  0.00     0.029 A 
ATOM     50  C   UNL A   1      46.215  28.714  30.774  1.00  0.00     0.049 A 
ATOM     51  H   UNL A   1      44.183  28.769  30.212  1.00  0.00     0.167 HD
ATOM     52  C   UNL A   1      45.803  26.476  29.791  1.00  0.00     0.074 A 
ATOM     53  C   UNL A   1      46.224  25.153  29.380  1.00  0.00     0.031 C 
ATOM     54  C   UNL A   1      46.622  27.395  30.359  1.00  0.00     0.031 A 
BRANCH  41  55
ATOM     55  C   UNL A   1      43.895  32.802  31.603  1.00  0.00    -0.014 A 
ATOM     56  C   UNL A   1      43.779  33.095  32.974  1.00  0.00     0.010 A 
ATOM     57  C   UNL A   1      44.198  33.842  30.706  1.00  0.00     0.010 A 
ATOM     58  C   UNL A   1      43.924  34.407  33.432  1.00  0.00     0.020 A 
ATOM     59  C   UNL A   1      44.374  35.152  31.163  1.00  0.00     0.020 A 
ATOM     60  C   UNL A   1      44.218  35.428  32.523  1.00  0.00     0.054 A 
BRANCH  60  61
ATOM     61  S   UNL A   1      44.422  37.117  33.151  1.00  0.00     0.124 S 
ATOM     62  O   UNL A   1      45.503  36.949  34.119  1.00  0.00    -0.237 OA
ATOM     63  O   UNL A   1      44.769  37.866  31.946  1.00  0.00    -0.237 OA
ATOM     64  O   UNL A   1      43.116  37.435  33.725  1.00  0.00    -0.744 OA
ENDBRANCH  60  61
ENDBRANCH  41  55
BRANCH  42  65
ATOM     65  C   UNL A   1      42.593  23.629  27.848  1.00  0.00    -0.014 A 
ATOM     66  C   UNL A   1      42.861  23.404  26.487  1.00  0.00     0.010 A 
ATOM     67  C   UNL A   1      42.164  22.552  28.646  1.00  0.00     0.010 A 
ATOM     68  C   UNL A   1      42.688  22.133  25.930  1.00  0.00     0.020 A 
ATOM     69  C   UNL A   1      42.020  21.273  28.102  1.00  0.00     0.020 A 
ATOM     70  C   UNL A   1      42.271  21.074  26.743  1.00  0.00     0.054 A 
BRANCH  70  71
ATOM     71  S   UNL A   1      42.104  19.422  26.012  1.00  0.00     0.124 S 
ATOM     72  O   UNL A   1      40.664  19.328  25.800  1.00  0.00    -0.237 OA
ATOM     73  O   UNL A   1      42.918  19.530  24.803  1.00  0.00    -0.237 OA
ATOM     74  O   UNL A   1      42.646  18.537  27.041  1.00  0.00    -0.744 OA
ENDBRANCH  70  71
ENDBRANCH  42  65
BRANCH  54  75
ATOM     75  C   UNL A   1      48.056  27.001  30.596  1.00  0.00    -0.014 A 
ATOM     76  C   UNL A   1      49.049  27.257  29.634  1.00  0.00     0.010 A 
ATOM     77  C   UNL A   1      48.426  26.440  31.832  1.00  0.00     0.010 A 
ATOM     78  C   UNL A   1      50.385  26.944  29.899  1.00  0.00     0.020 A 
ATOM     79  C   UNL A   1      49.764  26.153  32.112  1.00  0.00     0.020 A 
ATOM     80  C   UNL A   1      50.734  26.400  31.139  1.00  0.00     0.054 A 
BRANCH  80  81
ATOM     81  S   UNL A   1      52.485  26.070  31.483  1.00  0.00     0.124 S 
ATOM     82  O   UNL A   1      52.445  24.693  31.968  1.00  0.00    -0.237 OA
ATOM     83  O   UNL A   1      53.107  26.256  30.173  1.00  0.00    -0.237 OA
ATOM     84  O   UNL A   1      52.838  27.074  32.483  1.00  0.00    -0.744 OA
ENDBRANCH  80  81
ENDBRANCH  54  75
ENDBRANCH  28  29
ENDBRANCH  20  23
ENDBRANCH  18  19
ENDBRANCH  17  18
ENDBRANCH   1  17
TORSDOF 17
ENDMDL
MODEL 3
REMARK VINA RESULT:      -8.6      4.125     11.075
REMARK SMILES O=CN1CCC[C@@H](C(=O)NCCCCCCNC(=O)c2ccc(-c3c4nc(c(-c5ccc(S(=O)(=O)[O-])cc5)c5ccc([nH]5)c(-c5ccc(S(=O)(=O)[O-])cc5)c5nc(c(-c6ccc(S(=O)(=O)[O-])cc6)c6ccc3[nH]6)C=C5)C=C4)cc2)C1
REMARK SMILES IDX 14 1 13 2 12 3 11 4 10 5 8 6 9 7 7 9 3 10 4 11 80 12 5 13
REMARK SMILES IDX 6 14 2 15 1 16 15 17 16 18 17 19 18 20 19 22 20 23 21 24
REMARK SMILES IDX 79 25 22 26 78 27 23 28 24 29 25 30 72 31 26 32 77 33 71 34
REMARK SMILES IDX 73 35 27 36 76 37 70 38 69 39 28 41 58 42 39 43 57 44 40 45
REMARK SMILES IDX 43 46 56 47 74 48 41 49 42 50 55 52 75 53 44 54 29 55 30 56
REMARK SMILES IDX 38 57 31 58 37 59 32 60 33 61 34 62 35 63 36 64 59 65 60 66
REMARK SMILES IDX 68 67 61 68 67 69 62 70 63 71 64 72 65 73 66 74 45 75 46 76
REMARK SMILES IDX 54 77 47 78 53 79 48 80 49 81 50 82 51 83 52 84
REMARK H PARENT 10 8 17 21 73 40 43 51
REMARK Flexibility Score: inf
ROOT
ATOM      1  C   UNL A   1      35.563  21.582  24.515  1.00  0.00     0.002 C 
ENDROOT
BRANCH   1   2
ATOM      2  C   UNL A   1      34.568  21.177  25.609  1.00  0.00     0.002 C 
BRANCH   2   3
ATOM      3  C   UNL A   1      33.363  20.366  25.122  1.00  0.00     0.021 C 
BRANCH   3   4
ATOM      4  C   UNL A   1      32.108  21.201  24.874  1.00  0.00     0.116 C 
BRANCH   4   5
ATOM      5  N   UNL A   1      31.632  21.815  26.101  1.00  0.00    -0.356 N 
ATOM      6  C   UNL A   1      31.578  23.117  26.492  1.00  0.00     0.224 C 
ATOM      7  O   UNL A   1      31.141  23.358  27.620  1.00  0.00    -0.275 OA
ATOM      8  H   UNL A   1      31.287  21.177  26.767  1.00  0.00     0.163 HD
BRANCH   6   9
ATOM      9  C   UNL A   1      32.014  24.249  25.576  1.00  0.00     0.098 C 
ATOM     10  N   UNL A   1      31.255  26.403  24.583  1.00  0.00    -0.344 N 
ATOM     11  C   UNL A   1      32.349  27.130  25.206  1.00  0.00     0.119 C 
ATOM     12  C   UNL A   1      30.834  25.151  25.200  1.00  0.00     0.132 C 
ATOM     13  C   UNL A   1      33.576  26.239  25.337  1.00  0.00     0.022 C 
ATOM     14  C   UNL A   1      33.253  24.974  26.125  1.00  0.00     0.017 C 
BRANCH  10  15
ATOM     15  C   UNL A   1      30.500  26.969  23.577  1.00  0.00     0.339 C 
ATOM     16  O   UNL A   1      30.843  27.090  22.408  1.00  0.00    -0.279 OA
ENDBRANCH  10  15
ENDBRANCH   6   9
ENDBRANCH   4   5
ENDBRANCH   3   4
ENDBRANCH   2   3
ENDBRANCH   1   2
BRANCH   1  17
ATOM     17  C   UNL A   1      35.760  23.091  24.347  1.00  0.00     0.021 C 
BRANCH  17  18
ATOM     18  C   UNL A   1      36.846  23.693  25.232  1.00  0.00     0.116 C 
BRANCH  18  19
ATOM     19  N   UNL A   1      37.813  22.697  25.667  1.00  0.00    -0.352 N 
ATOM     20  C   UNL A   1      39.000  22.877  26.333  1.00  0.00     0.251 C 
ATOM     21  H   UNL A   1      37.584  21.764  25.454  1.00  0.00     0.163 HD
ATOM     22  O   UNL A   1      39.789  21.943  26.451  1.00  0.00    -0.269 OA
BRANCH  20  23
ATOM     23  C   UNL A   1      39.330  24.207  26.886  1.00  0.00     0.039 A 
ATOM     24  C   UNL A   1      38.938  24.515  28.191  1.00  0.00     0.014 A 
ATOM     25  C   UNL A   1      40.042  25.136  26.123  1.00  0.00     0.014 A 
ATOM     26  C   UNL A   1      39.325  25.732  28.757  1.00  0.00     0.010 A 
ATOM     27  C   UNL A   1      40.487  26.316  26.713  1.00  0.00     0.010 A 
ATOM     28  C   UNL A   1      40.138  26.624  28.038  1.00  0.00    -0.014 A 
BRANCH  28  29
ATOM     29  C   UNL A   1      40.655  27.871  28.656  1.00  0.00     0.031 A 
ATOM     30  C   UNL A   1      42.067  27.931  29.171  1.00  0.00     0.074 A 
ATOM     31  C   UNL A   1      39.828  28.923  28.824  1.00  0.00     0.049 A 
ATOM     32  N   UNL A   1      42.666  28.897  29.818  1.00  0.00    -0.248 NA
ATOM     33  C   UNL A   1      42.907  26.742  28.952  1.00  0.00     0.031 C 
ATOM     34  C   UNL A   1      38.428  28.977  28.397  1.00  0.00     0.029 A 
ATOM     35  N   UNL A   1      40.040  30.146  29.411  1.00  0.00    -0.354 N 
ATOM     36  C   UNL A   1      43.945  28.430  30.097  1.00  0.00     0.074 A 
ATOM     37  C   UNL A   1      44.020  27.076  29.590  1.00  0.00     0.031 C 
ATOM     38  C   UNL A   1      37.915  30.176  28.716  1.00  0.00     0.029 A 
ATOM     39  C   UNL A   1      38.931  30.958  29.413  1.00  0.00     0.049 A 
ATOM     40  H   UNL A   1      40.906  30.416  29.793  1.00  0.00     0.167 HD
ATOM     41  C   UNL A   1      44.970  29.074  30.705  1.00  0.00     0.031 A 
ATOM     42  C   UNL A   1      38.743  32.187  29.933  1.00  0.00     0.031 A 
ATOM     43  C   UNL A   1      44.891  30.422  31.202  1.00  0.00     0.049 A 
ATOM     44  C   UNL A   1      39.886  32.868  30.635  1.00  0.00     0.074 A 
ATOM     45  C   UNL A   1      45.892  31.182  31.783  1.00  0.00     0.029 A 
ATOM     46  N   UNL A   1      43.750  31.209  31.186  1.00  0.00    -0.354 N 
ATOM     47  N   UNL A   1      41.109  32.436  30.827  1.00  0.00    -0.248 NA
ATOM     48  C   UNL A   1      39.625  34.206  31.186  1.00  0.00     0.031 C 
ATOM     49  C   UNL A   1      45.339  32.405  32.174  1.00  0.00     0.029 A 
ATOM     50  C   UNL A   1      44.011  32.432  31.778  1.00  0.00     0.049 A 
ATOM     51  H   UNL A   1      42.881  30.937  30.810  1.00  0.00     0.167 HD
ATOM     52  C   UNL A   1      41.771  33.456  31.500  1.00  0.00     0.074 A 
ATOM     53  C   UNL A   1      40.818  34.534  31.668  1.00  0.00     0.031 C 
ATOM     54  C   UNL A   1      43.052  33.497  31.939  1.00  0.00     0.031 A 
BRANCH  41  55
ATOM     55  C   UNL A   1      46.264  28.323  30.876  1.00  0.00    -0.014 A 
ATOM     56  C   UNL A   1      47.274  28.380  29.898  1.00  0.00     0.010 A 
ATOM     57  C   UNL A   1      46.495  27.587  32.053  1.00  0.00     0.010 A 
ATOM     58  C   UNL A   1      48.472  27.683  30.076  1.00  0.00     0.020 A 
ATOM     59  C   UNL A   1      47.704  26.913  32.249  1.00  0.00     0.020 A 
ATOM     60  C   UNL A   1      48.678  26.952  31.250  1.00  0.00     0.054 A 
BRANCH  60  61
ATOM     61  S   UNL A   1      50.252  26.076  31.462  1.00  0.00     0.124 S 
ATOM     62  O   UNL A   1      51.188  27.181  31.653  1.00  0.00    -0.237 OA
ATOM     63  O   UNL A   1      50.003  25.253  32.642  1.00  0.00    -0.237 OA
ATOM     64  O   UNL A   1      50.410  25.336  30.211  1.00  0.00    -0.744 OA
ENDBRANCH  60  61
ENDBRANCH  41  55
BRANCH  42  65
ATOM     65  C   UNL A   1      37.415  32.851  29.813  1.00  0.00    -0.014 A 
ATOM     66  C   UNL A   1      37.121  33.668  28.707  1.00  0.00     0.010 A 
ATOM     67  C   UNL A   1      36.430  32.656  30.799  1.00  0.00     0.010 A 
ATOM     68  C   UNL A   1      35.875  34.293  28.599  1.00  0.00     0.020 A 
ATOM     69  C   UNL A   1      35.173  33.253  30.680  1.00  0.00     0.020 A 
ATOM     70  C   UNL A   1      34.907  34.079  29.585  1.00  0.00     0.054 A 
BRANCH  70  71
ATOM     71  S   UNL A   1      33.279  34.857  29.397  1.00  0.00     0.124 S 
ATOM     72  O   UNL A   1      32.828  34.954  30.781  1.00  0.00    -0.237 OA
ATOM     73  O   UNL A   1      33.609  36.123  28.747  1.00  0.00    -0.237 OA
ATOM     74  O   UNL A   1      32.542  33.910  28.562  1.00  0.00    -0.744 OA
ENDBRANCH  70  71
ENDBRANCH  42  65
BRANCH  54  75
ATOM     75  C   UNL A   1      43.517  34.755  32.625  1.00  0.00    -0.014 A 
ATOM     76  C   UNL A   1      44.189  35.765  31.914  1.00  0.00     0.010 A 
ATOM     77  C   UNL A   1      43.205  34.961  33.981  1.00  0.00     0.010 A 
ATOM     78  C   UNL A   1      44.554  36.952  32.553  1.00  0.00     0.020 A 
ATOM     79  C   UNL A   1      43.543  36.159  34.616  1.00  0.00     0.020 A 
ATOM     80  C   UNL A   1      44.223  37.145  33.898  1.00  0.00     0.054 A 
BRANCH  80  81
ATOM     81  S   UNL A   1      44.646  38.725  34.682  1.00  0.00     0.124 S 
ATOM     82  O   UNL A   1      44.847  38.329  36.074  1.00  0.00    -0.237 OA
ATOM     83  O   UNL A   1      45.853  39.125  33.962  1.00  0.00    -0.237 OA
ATOM     84  O   UNL A   1      43.474  39.561  34.435  1.00  0.00    -0.744 OA
ENDBRANCH  80  81
ENDBRANCH  54  75
ENDBRANCH  28  29
ENDBRANCH  20  23
ENDBRANCH  18  19
ENDBRANCH  17  18
ENDBRANCH   1  17
TORSDOF 17
ENDMDL
