MODEL 1
REMARK VINA RESULT:     -10.6      0.000      0.000
REMARK SMILES Cc1ncsc1CCC(=O)N[C@@H](Cc1cnc[nH]1)C(=O)NCCCCCCNC(=O)c1ccc(-c2c3nc(c(-c4ccc(S(=O)(=O)[O-])cc4)c4ccc([nH]4)c(-c4ccc(S(=O)(=O)[O-])cc4)c4nc(c(-c5ccc(S(=O)(=O)[O-])cc5)c5ccc2[nH]5)C=C4)C=C3)cc1
REMARK SMILES IDX 24 1 23 2 22 3 21 4 19 5 20 6 12 8 11 9 9 10 10 11 8 13 7 14
REMARK SMILES IDX 6 15 1 16 2 17 3 18 4 19 5 20 13 21 14 22 15 23 18 24 16 25
REMARK SMILES IDX 17 26 25 28 26 29 27 30 28 31 29 32 30 34 31 35 32 36 90 37
REMARK SMILES IDX 33 38 89 39 34 40 35 41 36 42 83 43 37 44 88 45 82 46 84 47
REMARK SMILES IDX 38 48 87 49 81 50 80 51 39 53 69 54 50 55 68 56 51 57 54 58
REMARK SMILES IDX 67 59 85 60 52 61 53 62 66 64 86 65 55 66 40 67 41 68 49 69
REMARK SMILES IDX 42 70 48 71 43 72 44 73 45 74 46 75 47 76 70 77 71 78 79 79
REMARK SMILES IDX 72 80 78 81 73 82 74 83 75 84 76 85 77 86 56 87 57 88 65 89
REMARK SMILES IDX 58 90 64 91 59 92 60 93 61 94 62 95 63 96
REMARK H PARENT 21 7 11 12 18 27 28 33 84 52 54 63
REMARK Flexibility Score: inf
ROOT
ATOM      1  C   UNL A   1      37.784  22.430  25.558  1.00  0.00     0.002 C 
ENDROOT
BRANCH   1   2
ATOM      2  C   UNL A   1      36.981  23.313  24.603  1.00  0.00     0.021 C 
BRANCH   2   3
ATOM      3  C   UNL A   1      35.598  23.687  25.105  1.00  0.00     0.116 C 
BRANCH   3   4
ATOM      4  N   UNL A   1      34.520  23.207  24.280  1.00  0.00    -0.354 N 
ATOM      5  C   UNL A   1      33.353  22.620  24.670  1.00  0.00     0.242 C 
ATOM      6  O   UNL A   1      32.499  22.422  23.798  1.00  0.00    -0.273 OA
ATOM      7  H   UNL A   1      34.640  23.318  23.310  1.00  0.00     0.163 HD
BRANCH   5   8
ATOM      8  C   UNL A   1      33.082  22.195  26.132  1.00  0.00     0.177 C 
BRANCH   8   9
ATOM      9  N   UNL A   1      31.716  22.480  26.586  1.00  0.00    -0.344 N 
ATOM     10  C   UNL A   1      31.086  23.674  26.743  1.00  0.00     0.221 C 
ATOM     11  O   UNL A   1      29.917  23.656  27.137  1.00  0.00    -0.275 OA
ATOM     12  H   UNL A   1      31.176  21.688  26.811  1.00  0.00     0.164 HD
BRANCH  10  13
ATOM     13  C   UNL A   1      31.783  24.992  26.460  1.00  0.00     0.105 C 
BRANCH  13  14
ATOM     14  C   UNL A   1      30.822  26.088  25.994  1.00  0.00     0.058 C 
BRANCH  14  15
ATOM     15  C   UNL A   1      31.500  27.397  25.715  1.00  0.00     0.028 A 
ATOM     16  C   UNL A   1      31.579  27.504  23.134  1.00  0.00     0.068 C 
ATOM     17  C   UNL A   1      31.883  27.975  24.511  1.00  0.00     0.051 A 
ATOM     18  N   UNL A   1      32.661  29.115  24.639  1.00  0.00    -0.250 NA
ATOM     19  C   UNL A   1      32.728  29.470  25.901  1.00  0.00     0.176 A 
ATOM     20  S   UNL A   1      31.822  28.506  26.993  1.00  0.00    -0.127 S 
ENDBRANCH  14  15
ENDBRANCH  13  14
ENDBRANCH  10  13
ENDBRANCH   8   9
BRANCH   8  21
ATOM     21  C   UNL A   1      33.621  20.822  26.565  1.00  0.00     0.090 C 
BRANCH  21  22
ATOM     22  C   UNL A   1      33.293  19.583  25.808  1.00  0.00     0.037 A 
ATOM     23  C   UNL A   1      33.639  19.208  24.525  1.00  0.00     0.134 A 
ATOM     24  N   UNL A   1      32.689  18.465  26.338  1.00  0.00    -0.348 N 
ATOM     25  N   UNL A   1      33.163  17.961  24.236  1.00  0.00    -0.245 NA
ATOM     26  C   UNL A   1      32.608  17.531  25.344  1.00  0.00     0.196 A 
ATOM     27  H   UNL A   1      32.373  18.358  27.265  1.00  0.00     0.167 HD
ENDBRANCH  21  22
ENDBRANCH   8  21
ENDBRANCH   5   8
ENDBRANCH   3   4
ENDBRANCH   2   3
ENDBRANCH   1   2
BRANCH   1  28
ATOM     28  C   UNL A   1      38.860  23.141  26.391  1.00  0.00     0.002 C 
BRANCH  28  29
ATOM     29  C   UNL A   1      40.037  22.278  26.858  1.00  0.00     0.021 C 
BRANCH  29  30
ATOM     30  C   UNL A   1      41.324  23.031  27.167  1.00  0.00     0.116 C 
BRANCH  30  31
ATOM     31  N   UNL A   1      41.773  23.845  26.054  1.00  0.00    -0.352 N 
ATOM     32  C   UNL A   1      41.873  25.210  25.957  1.00  0.00     0.251 C 
ATOM     33  H   UNL A   1      42.046  23.346  25.249  1.00  0.00     0.163 HD
ATOM     34  O   UNL A   1      42.120  25.728  24.874  1.00  0.00    -0.269 OA
BRANCH  32  35
ATOM     35  C   UNL A   1      41.663  26.049  27.156  1.00  0.00     0.039 A 
ATOM     36  C   UNL A   1      42.529  27.121  27.380  1.00  0.00     0.014 A 
ATOM     37  C   UNL A   1      40.634  25.773  28.062  1.00  0.00     0.014 A 
ATOM     38  C   UNL A   1      42.335  27.944  28.490  1.00  0.00     0.010 A 
ATOM     39  C   UNL A   1      40.397  26.639  29.127  1.00  0.00     0.010 A 
ATOM     40  C   UNL A   1      41.252  27.727  29.359  1.00  0.00    -0.014 A 
BRANCH  40  41
ATOM     41  C   UNL A   1      41.016  28.621  30.521  1.00  0.00     0.031 A 
ATOM     42  C   UNL A   1      41.882  28.508  31.747  1.00  0.00     0.074 A 
ATOM     43  C   UNL A   1      40.009  29.516  30.479  1.00  0.00     0.049 A 
ATOM     44  N   UNL A   1      41.812  29.179  32.868  1.00  0.00    -0.248 NA
ATOM     45  C   UNL A   1      42.955  27.498  31.719  1.00  0.00     0.031 C 
ATOM     46  C   UNL A   1      39.085  29.701  29.356  1.00  0.00     0.029 A 
ATOM     47  N   UNL A   1      39.596  30.443  31.402  1.00  0.00    -0.354 N 
ATOM     48  C   UNL A   1      42.829  28.677  33.674  1.00  0.00     0.074 A 
ATOM     49  C   UNL A   1      43.458  27.601  32.941  1.00  0.00     0.031 C 
ATOM     50  C   UNL A   1      38.239  30.704  29.643  1.00  0.00     0.029 A 
ATOM     51  C   UNL A   1      38.531  31.204  30.982  1.00  0.00     0.049 A 
ATOM     52  H   UNL A   1      40.023  30.552  32.282  1.00  0.00     0.167 HD
ATOM     53  C   UNL A   1      43.224  29.094  34.900  1.00  0.00     0.031 A 
ATOM     54  C   UNL A   1      37.861  32.192  31.608  1.00  0.00     0.031 A 
ATOM     55  C   UNL A   1      42.599  30.167  35.626  1.00  0.00     0.049 A 
ATOM     56  C   UNL A   1      38.293  32.602  32.992  1.00  0.00     0.074 A 
ATOM     57  C   UNL A   1      42.935  30.676  36.868  1.00  0.00     0.029 A 
ATOM     58  N   UNL A   1      41.515  30.903  35.172  1.00  0.00    -0.354 N 
ATOM     59  N   UNL A   1      39.284  32.141  33.717  1.00  0.00    -0.248 NA
ATOM     60  C   UNL A   1      37.521  33.674  33.635  1.00  0.00     0.031 C 
ATOM     61  C   UNL A   1      42.026  31.691  37.185  1.00  0.00     0.029 A 
ATOM     62  C   UNL A   1      41.161  31.853  36.114  1.00  0.00     0.049 A 
ATOM     63  H   UNL A   1      41.063  30.770  34.307  1.00  0.00     0.167 HD
ATOM     64  C   UNL A   1      39.276  32.895  34.887  1.00  0.00     0.074 A 
ATOM     65  C   UNL A   1      38.196  33.850  34.762  1.00  0.00     0.031 C 
ATOM     66  C   UNL A   1      40.090  32.805  35.967  1.00  0.00     0.031 A 
BRANCH  53  67
ATOM     67  C   UNL A   1      44.401  28.396  35.530  1.00  0.00    -0.014 A 
ATOM     68  C   UNL A   1      45.708  28.883  35.344  1.00  0.00     0.010 A 
ATOM     69  C   UNL A   1      44.199  27.284  36.367  1.00  0.00     0.010 A 
ATOM     70  C   UNL A   1      46.793  28.256  35.960  1.00  0.00     0.020 A 
ATOM     71  C   UNL A   1      45.279  26.670  37.009  1.00  0.00     0.020 A 
ATOM     72  C   UNL A   1      46.572  27.154  36.792  1.00  0.00     0.054 A 
BRANCH  72  73
ATOM     73  S   UNL A   1      47.996  26.392  37.616  1.00  0.00     0.124 S 
ATOM     74  O   UNL A   1      47.350  25.421  38.497  1.00  0.00    -0.237 OA
ATOM     75  O   UNL A   1      48.745  25.825  36.498  1.00  0.00    -0.237 OA
ATOM     76  O   UNL A   1      48.645  27.512  38.294  1.00  0.00    -0.744 OA
ENDBRANCH  72  73
ENDBRANCH  53  67
BRANCH  54  77
ATOM     77  C   UNL A   1      36.714  32.870  30.942  1.00  0.00    -0.014 A 
ATOM     78  C   UNL A   1      36.924  33.696  29.822  1.00  0.00     0.010 A 
ATOM     79  C   UNL A   1      35.410  32.730  31.451  1.00  0.00     0.010 A 
ATOM     80  C   UNL A   1      35.861  34.406  29.255  1.00  0.00     0.020 A 
ATOM     81  C   UNL A   1      34.339  33.412  30.865  1.00  0.00     0.020 A 
ATOM     82  C   UNL A   1      34.577  34.265  29.786  1.00  0.00     0.054 A 
BRANCH  82  83
ATOM     83  S   UNL A   1      33.213  35.203  29.042  1.00  0.00     0.124 S 
ATOM     84  O   UNL A   1      33.909  36.362  28.492  1.00  0.00    -0.237 OA
ATOM     85  O   UNL A   1      32.678  34.260  28.063  1.00  0.00    -0.237 OA
ATOM     86  O   UNL A   1      32.332  35.481  30.175  1.00  0.00    -0.744 OA
ENDBRANCH  82  83
ENDBRANCH  54  77
BRANCH  66  87
ATOM     87  C   UNL A   1      39.877  33.798  37.080  1.00  0.00    -0.014 A 
ATOM     88  C   UNL A   1      39.106  33.475  38.210  1.00  0.00     0.010 A 
ATOM     89  C   UNL A   1      40.494  35.060  37.007  1.00  0.00     0.010 A 
ATOM     90  C   UNL A   1      38.926  34.412  39.231  1.00  0.00     0.020 A 
ATOM     91  C   UNL A   1      40.342  35.987  38.041  1.00  0.00     0.020 A 
ATOM     92  C   UNL A   1      39.545  35.663  39.139  1.00  0.00     0.054 A 
BRANCH  92  93
ATOM     93  S   UNL A   1      39.327  36.847  40.495  1.00  0.00     0.124 S 
ATOM     94  O   UNL A   1      39.364  38.126  39.791  1.00  0.00    -0.237 OA
ATOM     95  O   UNL A   1      38.027  36.469  41.044  1.00  0.00    -0.237 OA
ATOM     96  O   UNL A   1      40.466  36.585  41.372  1.00  0.00    -0.744 OA
ENDBRANCH  92  93
ENDBRANCH  66  87
ENDBRANCH  40  41
ENDBRANCH  32  35
ENDBRANCH  30  31
ENDBRANCH  29  30
ENDBRANCH  28  29
ENDBRANCH   1  28
TORSDOF 22
ENDMDL
MODEL 2
REMARK VINA RESULT:     -10.5      1.671      4.010
REMARK SMILES Cc1ncsc1CCC(=O)N[C@@H](Cc1cnc[nH]1)C(=O)NCCCCCCNC(=O)c1ccc(-c2c3nc(c(-c4ccc(S(=O)(=O)[O-])cc4)c4ccc([nH]4)c(-c4ccc(S(=O)(=O)[O-])cc4)c4nc(c(-c5ccc(S(=O)(=O)[O-])cc5)c5ccc2[nH]5)C=C4)C=C3)cc1
REMARK SMILES IDX 24 1 23 2 22 3 21 4 19 5 20 6 12 8 11 9 9 10 10 11 8 13 7 14
REMARK SMILES IDX 6 15 1 16 2 17 3 18 4 19 5 20 13 21 14 22 15 23 18 24 16 25
REMARK SMILES IDX 17 26 25 28 26 29 27 30 28 31 29 32 30 34 31 35 32 36 90 37
REMARK SMILES IDX 33 38 89 39 34 40 35 41 36 42 83 43 37 44 88 45 82 46 84 47
REMARK SMILES IDX 38 48 87 49 81 50 80 51 39 53 69 54 50 55 68 56 51 57 54 58
REMARK SMILES IDX 67 59 85 60 52 61 53 62 66 64 86 65 55 66 40 67 41 68 49 69
REMARK SMILES IDX 42 70 48 71 43 72 44 73 45 74 46 75 47 76 70 77 71 78 79 79
REMARK SMILES IDX 72 80 78 81 73 82 74 83 75 84 76 85 77 86 56 87 57 88 65 89
REMARK SMILES IDX 58 90 64 91 59 92 60 93 61 94 62 95 63 96
REMARK H PARENT 21 7 11 12 18 27 28 33 84 52 54 63
REMARK Flexibility Score: inf
ROOT
ATOM      1  C   UNL A   1      38.514  21.064  25.401  1.00  0.00     0.002 C 
ENDROOT
BRANCH   1   2
ATOM      2  C   UNL A   1      37.116  21.289  24.823  1.00  0.00     0.021 C 
BRANCH   2   3
ATOM      3  C   UNL A   1      36.971  22.559  24.004  1.00  0.00     0.116 C 
BRANCH   3   4
ATOM      4  N   UNL A   1      36.280  23.624  24.684  1.00  0.00    -0.354 N 
ATOM      5  C   UNL A   1      34.938  23.839  24.775  1.00  0.00     0.242 C 
ATOM      6  O   UNL A   1      34.557  24.734  25.539  1.00  0.00    -0.273 OA
ATOM      7  H   UNL A   1      36.851  24.281  25.144  1.00  0.00     0.163 HD
BRANCH   5   8
ATOM      8  C   UNL A   1      33.905  23.024  23.962  1.00  0.00     0.177 C 
BRANCH   8   9
ATOM      9  N   UNL A   1      32.806  22.487  24.771  1.00  0.00    -0.344 N 
ATOM     10  C   UNL A   1      32.257  21.243  24.773  1.00  0.00     0.221 C 
ATOM     11  O   UNL A   1      31.333  21.029  25.562  1.00  0.00    -0.275 OA
ATOM     12  H   UNL A   1      32.405  23.123  25.407  1.00  0.00     0.164 HD
BRANCH  10  13
ATOM     13  C   UNL A   1      32.743  20.151  23.840  1.00  0.00     0.105 C 
BRANCH  13  14
ATOM     14  C   UNL A   1      33.879  19.317  24.436  1.00  0.00     0.058 C 
BRANCH  14  15
ATOM     15  C   UNL A   1      33.501  17.887  24.689  1.00  0.00     0.028 A 
ATOM     16  C   UNL A   1      34.667  16.601  22.775  1.00  0.00     0.068 C 
ATOM     17  C   UNL A   1      33.775  16.740  23.957  1.00  0.00     0.051 A 
ATOM     18  N   UNL A   1      33.104  15.606  24.388  1.00  0.00    -0.250 NA
ATOM     19  C   UNL A   1      32.468  15.861  25.507  1.00  0.00     0.176 A 
ATOM     20  S   UNL A   1      32.681  17.442  26.137  1.00  0.00    -0.127 S 
ENDBRANCH  14  15
ENDBRANCH  13  14
ENDBRANCH  10  13
ENDBRANCH   8   9
BRANCH   8  21
ATOM     21  C   UNL A   1      33.471  23.611  22.610  1.00  0.00     0.090 C 
BRANCH  21  22
ATOM     22  C   UNL A   1      32.620  24.830  22.528  1.00  0.00     0.037 A 
ATOM     23  C   UNL A   1      32.381  25.811  23.470  1.00  0.00     0.134 A 
ATOM     24  N   UNL A   1      32.015  25.301  21.384  1.00  0.00    -0.348 N 
ATOM     25  N   UNL A   1      31.565  26.784  22.965  1.00  0.00    -0.245 NA
ATOM     26  C   UNL A   1      31.370  26.461  21.708  1.00  0.00     0.196 A 
ATOM     27  H   UNL A   1      32.043  24.879  20.495  1.00  0.00     0.167 HD
ENDBRANCH  21  22
ENDBRANCH   8  21
ENDBRANCH   5   8
ENDBRANCH   3   4
ENDBRANCH   2   3
ENDBRANCH   1   2
BRANCH   1  28
ATOM     28  C   UNL A   1      39.086  22.208  26.249  1.00  0.00     0.002 C 
BRANCH  28  29
ATOM     29  C   UNL A   1      40.332  21.881  27.078  1.00  0.00     0.021 C 
BRANCH  29  30
ATOM     30  C   UNL A   1      41.236  23.062  27.403  1.00  0.00     0.116 C 
BRANCH  30  31
ATOM     31  N   UNL A   1      41.545  23.864  26.235  1.00  0.00    -0.352 N 
ATOM     32  C   UNL A   1      41.526  25.227  26.085  1.00  0.00     0.251 C 
ATOM     33  H   UNL A   1      41.805  23.357  25.432  1.00  0.00     0.163 HD
ATOM     34  O   UNL A   1      41.659  25.720  24.970  1.00  0.00    -0.269 OA
BRANCH  32  35
ATOM     35  C   UNL A   1      41.325  26.095  27.265  1.00  0.00     0.039 A 
ATOM     36  C   UNL A   1      42.245  27.116  27.507  1.00  0.00     0.014 A 
ATOM     37  C   UNL A   1      40.249  25.894  28.136  1.00  0.00     0.014 A 
ATOM     38  C   UNL A   1      42.062  27.965  28.599  1.00  0.00     0.010 A 
ATOM     39  C   UNL A   1      40.028  26.787  29.182  1.00  0.00     0.010 A 
ATOM     40  C   UNL A   1      40.938  27.825  29.431  1.00  0.00    -0.014 A 
BRANCH  40  41
ATOM     41  C   UNL A   1      40.715  28.748  30.573  1.00  0.00     0.031 A 
ATOM     42  C   UNL A   1      41.568  28.637  31.809  1.00  0.00     0.074 A 
ATOM     43  C   UNL A   1      39.732  29.667  30.504  1.00  0.00     0.049 A 
ATOM     44  N   UNL A   1      41.505  29.332  32.915  1.00  0.00    -0.248 NA
ATOM     45  C   UNL A   1      42.614  27.600  31.811  1.00  0.00     0.031 C 
ATOM     46  C   UNL A   1      38.823  29.854  29.369  1.00  0.00     0.029 A 
ATOM     47  N   UNL A   1      39.336  30.623  31.404  1.00  0.00    -0.354 N 
ATOM     48  C   UNL A   1      42.502  28.820  33.740  1.00  0.00     0.074 A 
ATOM     49  C   UNL A   1      43.109  27.714  33.034  1.00  0.00     0.031 C 
ATOM     50  C   UNL A   1      38.001  30.884  29.628  1.00  0.00     0.029 A 
ATOM     51  C   UNL A   1      38.294  31.403  30.960  1.00  0.00     0.049 A 
ATOM     52  H   UNL A   1      39.757  30.739  32.286  1.00  0.00     0.167 HD
ATOM     53  C   UNL A   1      42.896  29.251  34.962  1.00  0.00     0.031 A 
ATOM     54  C   UNL A   1      37.645  32.420  31.560  1.00  0.00     0.031 A 
ATOM     55  C   UNL A   1      42.293  30.355  35.661  1.00  0.00     0.049 A 
ATOM     56  C   UNL A   1      38.075  32.846  32.940  1.00  0.00     0.074 A 
ATOM     57  C   UNL A   1      42.633  30.880  36.896  1.00  0.00     0.029 A 
ATOM     58  N   UNL A   1      41.233  31.109  35.182  1.00  0.00    -0.354 N 
ATOM     59  N   UNL A   1      39.048  32.375  33.683  1.00  0.00    -0.248 NA
ATOM     60  C   UNL A   1      37.326  33.951  33.554  1.00  0.00     0.031 C 
ATOM     61  C   UNL A   1      41.747  31.923  37.184  1.00  0.00     0.029 A 
ATOM     62  C   UNL A   1      40.896  32.087  36.102  1.00  0.00     0.049 A 
ATOM     63  H   UNL A   1      40.785  30.970  34.316  1.00  0.00     0.167 HD
ATOM     64  C   UNL A   1      39.050  33.152  34.837  1.00  0.00     0.074 A 
ATOM     65  C   UNL A   1      37.996  34.132  34.683  1.00  0.00     0.031 C 
ATOM     66  C   UNL A   1      39.852  33.063  35.927  1.00  0.00     0.031 A 
BRANCH  53  67
ATOM     67  C   UNL A   1      44.049  28.536  35.616  1.00  0.00    -0.014 A 
ATOM     68  C   UNL A   1      43.839  27.354  36.350  1.00  0.00     0.010 A 
ATOM     69  C   UNL A   1      45.363  29.007  35.445  1.00  0.00     0.010 A 
ATOM     70  C   UNL A   1      44.915  26.673  36.924  1.00  0.00     0.020 A 
ATOM     71  C   UNL A   1      46.447  28.314  35.992  1.00  0.00     0.020 A 
ATOM     72  C   UNL A   1      46.214  27.156  36.738  1.00  0.00     0.054 A 
BRANCH  72  73
ATOM     73  S   UNL A   1      47.594  26.223  37.454  1.00  0.00     0.124 S 
ATOM     74  O   UNL A   1      48.712  26.646  36.614  1.00  0.00    -0.237 OA
ATOM     75  O   UNL A   1      47.625  26.706  38.832  1.00  0.00    -0.237 OA
ATOM     76  O   UNL A   1      47.190  24.828  37.294  1.00  0.00    -0.744 OA
ENDBRANCH  72  73
ENDBRANCH  53  67
BRANCH  54  77
ATOM     77  C   UNL A   1      36.521  33.114  30.870  1.00  0.00    -0.014 A 
ATOM     78  C   UNL A   1      36.748  33.837  29.684  1.00  0.00     0.010 A 
ATOM     79  C   UNL A   1      35.227  33.094  31.419  1.00  0.00     0.010 A 
ATOM     80  C   UNL A   1      35.713  34.566  29.089  1.00  0.00     0.020 A 
ATOM     81  C   UNL A   1      34.182  33.794  30.808  1.00  0.00     0.020 A 
ATOM     82  C   UNL A   1      34.439  34.545  29.660  1.00  0.00     0.054 A 
BRANCH  82  83
ATOM     83  S   UNL A   1      33.113  35.505  28.877  1.00  0.00     0.124 S 
ATOM     84  O   UNL A   1      32.396  34.477  28.130  1.00  0.00    -0.237 OA
ATOM     85  O   UNL A   1      32.406  36.063  30.028  1.00  0.00    -0.237 OA
ATOM     86  O   UNL A   1      33.833  36.482  28.064  1.00  0.00    -0.744 OA
ENDBRANCH  82  83
ENDBRANCH  54  77
BRANCH  66  87
ATOM     87  C   UNL A   1      39.654  34.083  37.017  1.00  0.00    -0.014 A 
ATOM     88  C   UNL A   1      38.953  33.769  38.194  1.00  0.00     0.010 A 
ATOM     89  C   UNL A   1      40.219  35.364  36.875  1.00  0.00     0.010 A 
ATOM     90  C   UNL A   1      38.787  34.732  39.194  1.00  0.00     0.020 A 
ATOM     91  C   UNL A   1      40.082  36.318  37.886  1.00  0.00     0.020 A 
ATOM     92  C   UNL A   1      39.352  36.001  39.032  1.00  0.00     0.054 A 
BRANCH  92  93
ATOM     93  S   UNL A   1      39.154  37.219  40.361  1.00  0.00     0.124 S 
ATOM     94  O   UNL A   1      40.521  37.346  40.862  1.00  0.00    -0.237 OA
ATOM     95  O   UNL A   1      38.635  38.386  39.651  1.00  0.00    -0.237 OA
ATOM     96  O   UNL A   1      38.211  36.584  41.277  1.00  0.00    -0.744 OA
ENDBRANCH  92  93
ENDBRANCH  66  87
ENDBRANCH  40  41
ENDBRANCH  32  35
ENDBRANCH  30  31
ENDBRANCH  29  30
ENDBRANCH  28  29
ENDBRANCH   1  28
TORSDOF 22
ENDMDL
MODEL 3
REMARK VINA RESULT:     -10.3      1.980      3.739
REMARK SMILES Cc1ncsc1CCC(=O)N[C@@H](Cc1cnc[nH]1)C(=O)NCCCCCCNC(=O)c1ccc(-c2c3nc(c(-c4ccc(S(=O)(=O)[O-])cc4)c4ccc([nH]4)c(-c4ccc(S(=O)(=O)[O-])cc4)c4nc(c(-c5ccc(S(=O)(=O)[O-])cc5)c5ccc2[nH]5)C=C4)C=C3)cc1
REMARK SMILES IDX 24 1 23 2 22 3 21 4 19 5 20 6 12 8 11 9 9 10 10 11 8 13 7 14
REMARK SMILES IDX 6 15 1 16 2 17 3 18 4 19 5 20 13 21 14 22 15 23 18 24 16 25
REMARK SMILES IDX 17 26 25 28 26 29 27 30 28 31 29 32 30 34 31 35 32 36 90 37
REMARK SMILES IDX 33 38 89 39 34 40 35 41 36 42 83 43 37 44 88 45 82 46 84 47
REMARK SMILES IDX 38 48 87 49 81 50 80 51 39 53 69 54 50 55 68 56 51 57 54 58
REMARK SMILES IDX 67 59 85 60 52 61 53 62 66 64 86 65 55 66 40 67 41 68 49 69
REMARK SMILES IDX 42 70 48 71 43 72 44 73 45 74 46 75 47 76 70 77 71 78 79 79
REMARK SMILES IDX 72 80 78 81 73 82 74 83 75 84 76 85 77 86 56 87 57 88 65 89
REMARK SMILES IDX 58 90 64 91 59 92 60 93 61 94 62 95 63 96
REMARK H PARENT 21 7 11 12 18 27 28 33 84 52 54 63
REMARK Flexibility Score: inf
ROOT
ATOM      1  C   UNL A   1      34.834  24.032  25.277  1.00  0.00     0.002 C 
ENDROOT
BRANCH   1   2
ATOM      2  C   UNL A   1      33.665  24.498  26.146  1.00  0.00     0.021 C 
BRANCH   2   3
ATOM      3  C   UNL A   1      32.787  25.556  25.504  1.00  0.00     0.116 C 
BRANCH   3   4
ATOM      4  N   UNL A   1      31.663  25.027  24.775  1.00  0.00    -0.354 N 
ATOM      5  C   UNL A   1      31.009  25.575  23.713  1.00  0.00     0.242 C 
ATOM      6  O   UNL A   1      30.163  24.875  23.144  1.00  0.00    -0.273 OA
ATOM      7  H   UNL A   1      31.323  24.156  25.083  1.00  0.00     0.163 HD
BRANCH   5   8
ATOM      8  C   UNL A   1      31.281  27.017  23.220  1.00  0.00     0.177 C 
BRANCH   8   9
ATOM      9  N   UNL A   1      32.646  27.224  22.725  1.00  0.00    -0.344 N 
ATOM     10  C   UNL A   1      33.540  28.202  23.028  1.00  0.00     0.221 C 
ATOM     11  O   UNL A   1      34.644  28.158  22.479  1.00  0.00    -0.275 OA
ATOM     12  H   UNL A   1      32.961  26.555  22.074  1.00  0.00     0.164 HD
BRANCH  10  13
ATOM     13  C   UNL A   1      33.205  29.321  23.996  1.00  0.00     0.105 C 
BRANCH  13  14
ATOM     14  C   UNL A   1      33.011  28.830  25.434  1.00  0.00     0.058 C 
BRANCH  14  15
ATOM     15  C   UNL A   1      33.390  29.849  26.468  1.00  0.00     0.028 A 
ATOM     16  C   UNL A   1      31.406  31.504  26.448  1.00  0.00     0.068 C 
ATOM     17  C   UNL A   1      32.749  31.017  26.859  1.00  0.00     0.051 A 
ATOM     18  N   UNL A   1      33.484  31.819  27.718  1.00  0.00    -0.250 NA
ATOM     19  C   UNL A   1      34.579  31.194  28.085  1.00  0.00     0.176 A 
ATOM     20  S   UNL A   1      34.764  29.601  27.478  1.00  0.00    -0.127 S 
ENDBRANCH  14  15
ENDBRANCH  13  14
ENDBRANCH  10  13
ENDBRANCH   8   9
BRANCH   8  21
ATOM     21  C   UNL A   1      30.187  27.672  22.362  1.00  0.00     0.090 C 
BRANCH  21  22
ATOM     22  C   UNL A   1      28.857  28.022  22.930  1.00  0.00     0.037 A 
ATOM     23  C   UNL A   1      28.150  29.206  22.873  1.00  0.00     0.134 A 
ATOM     24  N   UNL A   1      27.980  27.129  23.506  1.00  0.00    -0.348 N 
ATOM     25  N   UNL A   1      26.940  29.083  23.494  1.00  0.00    -0.245 NA
ATOM     26  C   UNL A   1      26.856  27.825  23.855  1.00  0.00     0.196 A 
ATOM     27  H   UNL A   1      28.135  26.167  23.643  1.00  0.00     0.167 HD
ENDBRANCH  21  22
ENDBRANCH   8  21
ENDBRANCH   5   8
ENDBRANCH   3   4
ENDBRANCH   2   3
ENDBRANCH   1   2
BRANCH   1  28
ATOM     28  C   UNL A   1      35.962  23.289  26.004  1.00  0.00     0.002 C 
BRANCH  28  29
ATOM     29  C   UNL A   1      37.385  23.554  25.502  1.00  0.00     0.021 C 
BRANCH  29  30
ATOM     30  C   UNL A   1      38.361  24.092  26.540  1.00  0.00     0.116 C 
BRANCH  30  31
ATOM     31  N   UNL A   1      39.740  24.019  26.096  1.00  0.00    -0.352 N 
ATOM     32  C   UNL A   1      40.802  24.824  26.420  1.00  0.00     0.251 C 
ATOM     33  H   UNL A   1      39.944  23.286  25.471  1.00  0.00     0.163 HD
ATOM     34  O   UNL A   1      41.863  24.707  25.816  1.00  0.00    -0.269 OA
BRANCH  32  35
ATOM     35  C   UNL A   1      40.657  25.842  27.482  1.00  0.00     0.039 A 
ATOM     36  C   UNL A   1      39.685  25.649  28.465  1.00  0.00     0.014 A 
ATOM     37  C   UNL A   1      41.460  26.987  27.502  1.00  0.00     0.014 A 
ATOM     38  C   UNL A   1      39.546  26.581  29.492  1.00  0.00     0.010 A 
ATOM     39  C   UNL A   1      41.371  27.879  28.569  1.00  0.00     0.010 A 
ATOM     40  C   UNL A   1      40.406  27.691  29.569  1.00  0.00    -0.014 A 
BRANCH  40  41
ATOM     41  C   UNL A   1      40.291  28.668  30.681  1.00  0.00     0.031 A 
ATOM     42  C   UNL A   1      41.194  28.557  31.880  1.00  0.00     0.074 A 
ATOM     43  C   UNL A   1      39.358  29.640  30.619  1.00  0.00     0.049 A 
ATOM     44  N   UNL A   1      41.225  29.296  32.958  1.00  0.00    -0.248 NA
ATOM     45  C   UNL A   1      42.179  27.461  31.876  1.00  0.00     0.031 C 
ATOM     46  C   UNL A   1      38.407  29.835  29.521  1.00  0.00     0.029 A 
ATOM     47  N   UNL A   1      39.060  30.652  31.497  1.00  0.00    -0.354 N 
ATOM     48  C   UNL A   1      42.230  28.760  33.757  1.00  0.00     0.074 A 
ATOM     49  C   UNL A   1      42.739  27.594  33.070  1.00  0.00     0.031 C 
ATOM     50  C   UNL A   1      37.658  30.921  29.775  1.00  0.00     0.029 A 
ATOM     51  C   UNL A   1      38.044  31.473  31.069  1.00  0.00     0.049 A 
ATOM     52  H   UNL A   1      39.530  30.776  32.353  1.00  0.00     0.167 HD
ATOM     53  C   UNL A   1      42.707  29.214  34.940  1.00  0.00     0.031 A 
ATOM     54  C   UNL A   1      37.483  32.548  31.656  1.00  0.00     0.031 A 
ATOM     55  C   UNL A   1      42.201  30.377  35.620  1.00  0.00     0.049 A 
ATOM     56  C   UNL A   1      38.002  33.002  32.995  1.00  0.00     0.074 A 
ATOM     57  C   UNL A   1      42.628  30.929  36.815  1.00  0.00     0.029 A 
ATOM     58  N   UNL A   1      41.163  31.172  35.160  1.00  0.00    -0.354 N 
ATOM     59  N   UNL A   1      38.982  32.504  33.711  1.00  0.00    -0.248 NA
ATOM     60  C   UNL A   1      37.347  34.171  33.598  1.00  0.00     0.031 C 
ATOM     61  C   UNL A   1      41.818  32.032  37.100  1.00  0.00     0.029 A 
ATOM     62  C   UNL A   1      40.926  32.203  36.053  1.00  0.00     0.049 A 
ATOM     63  H   UNL A   1      40.666  31.026  34.322  1.00  0.00     0.167 HD
ATOM     64  C   UNL A   1      39.083  33.324  34.831  1.00  0.00     0.074 A 
ATOM     65  C   UNL A   1      38.080  34.356  34.686  1.00  0.00     0.031 C 
ATOM     66  C   UNL A   1      39.931  33.230  35.886  1.00  0.00     0.031 A 
BRANCH  53  67
ATOM     67  C   UNL A   1      43.848  28.459  35.569  1.00  0.00    -0.014 A 
ATOM     68  C   UNL A   1      45.174  28.687  35.157  1.00  0.00     0.010 A 
ATOM     69  C   UNL A   1      43.607  27.562  36.625  1.00  0.00     0.010 A 
ATOM     70  C   UNL A   1      46.234  28.013  35.769  1.00  0.00     0.020 A 
ATOM     71  C   UNL A   1      44.666  26.906  37.260  1.00  0.00     0.020 A 
ATOM     72  C   UNL A   1      45.973  27.129  36.819  1.00  0.00     0.054 A 
BRANCH  72  73
ATOM     73  S   UNL A   1      47.374  26.306  37.625  1.00  0.00     0.124 S 
ATOM     74  O   UNL A   1      48.354  26.250  36.542  1.00  0.00    -0.237 OA
ATOM     75  O   UNL A   1      47.696  27.219  38.717  1.00  0.00    -0.237 OA
ATOM     76  O   UNL A   1      46.828  25.014  38.036  1.00  0.00    -0.744 OA
ENDBRANCH  72  73
ENDBRANCH  53  67
BRANCH  54  77
ATOM     77  C   UNL A   1      36.368  33.279  30.991  1.00  0.00    -0.014 A 
ATOM     78  C   UNL A   1      36.565  33.904  29.745  1.00  0.00     0.010 A 
ATOM     79  C   UNL A   1      35.115  33.392  31.619  1.00  0.00     0.010 A 
ATOM     80  C   UNL A   1      35.547  34.669  29.166  1.00  0.00     0.020 A 
ATOM     81  C   UNL A   1      34.083  34.128  31.026  1.00  0.00     0.020 A 
ATOM     82  C   UNL A   1      34.316  34.782  29.815  1.00  0.00     0.054 A 
BRANCH  82  83
ATOM     83  S   UNL A   1      33.012  35.787  29.051  1.00  0.00     0.124 S 
ATOM     84  O   UNL A   1      32.396  34.835  28.133  1.00  0.00    -0.237 OA
ATOM     85  O   UNL A   1      32.200  36.177  30.201  1.00  0.00    -0.237 OA
ATOM     86  O   UNL A   1      33.750  36.879  28.419  1.00  0.00    -0.744 OA
ENDBRANCH  82  83
ENDBRANCH  54  77
BRANCH  66  87
ATOM     87  C   UNL A   1      39.844  34.302  36.941  1.00  0.00    -0.014 A 
ATOM     88  C   UNL A   1      40.506  35.533  36.789  1.00  0.00     0.010 A 
ATOM     89  C   UNL A   1      39.052  34.085  38.083  1.00  0.00     0.010 A 
ATOM     90  C   UNL A   1      40.407  36.513  37.780  1.00  0.00     0.020 A 
ATOM     91  C   UNL A   1      38.925  35.075  39.060  1.00  0.00     0.020 A 
ATOM     92  C   UNL A   1      39.617  36.277  38.910  1.00  0.00     0.054 A 
BRANCH  92  93
ATOM     93  S   UNL A   1      39.475  37.580  40.162  1.00  0.00     0.124 S 
ATOM     94  O   UNL A   1      38.489  38.475  39.559  1.00  0.00    -0.237 OA
ATOM     95  O   UNL A   1      39.020  36.846  41.340  1.00  0.00    -0.237 OA
ATOM     96  O   UNL A   1      40.829  38.121  40.257  1.00  0.00    -0.744 OA
ENDBRANCH  92  93
ENDBRANCH  66  87
ENDBRANCH  40  41
ENDBRANCH  32  35
ENDBRANCH  30  31
ENDBRANCH  29  30
ENDBRANCH  28  29
ENDBRANCH   1  28
TORSDOF 22
ENDMDL
