MODEL 1
REMARK VINA RESULT:      -9.2      0.000      0.000
REMARK SMILES C[C@@H](CC(=O)NCCCCCCNC(=O)c1ccc(-c2c3nc(c(-c4ccc(S(=O)(=O)[O-])cc4)c4ccc([nH]4)c(-c4ccc(S(=O)(=O)[O-])cc4)c4nc(c(-c5ccc(S(=O)(=O)[O-])cc5)c5ccc2[nH]5)C=C4)C=C3)cc1)NC(=O)CCCN1C(=O)CN(C)C1=O
REMARK SMILES IDX 8 1 7 2 6 3 4 4 5 5 3 7 2 8 1 9 76 10 77 11 78 13 79 14
REMARK SMILES IDX 80 15 81 16 82 17 83 18 88 19 84 20 85 21 86 22 89 23 87 24
REMARK SMILES IDX 9 25 10 26 11 27 12 28 13 29 14 30 15 32 16 33 17 34 75 35
REMARK SMILES IDX 18 36 74 37 19 38 20 39 21 40 68 41 22 42 73 43 67 44 69 45
REMARK SMILES IDX 23 46 72 47 66 48 65 49 24 51 54 52 35 53 53 54 36 55 39 56
REMARK SMILES IDX 52 57 70 58 37 59 38 60 51 62 71 63 40 64 25 65 26 66 34 67
REMARK SMILES IDX 27 68 33 69 28 70 29 71 30 72 31 73 32 74 55 75 56 76 64 77
REMARK SMILES IDX 57 78 63 79 58 80 59 81 60 82 61 83 62 84 41 85 42 86 50 87
REMARK SMILES IDX 43 88 49 89 44 90 45 91 46 92 47 93 48 94
REMARK H PARENT 6 6 76 12 13 31 69 50 39 61
REMARK Flexibility Score: inf
ROOT
ATOM      1  C   UNL A   1      33.071  27.032  22.188  1.00  0.00     0.021 C 
ENDROOT
BRANCH   1   2
ATOM      2  C   UNL A   1      33.575  25.642  22.583  1.00  0.00     0.116 C 
BRANCH   2   3
ATOM      3  N   UNL A   1      33.633  25.528  24.032  1.00  0.00    -0.356 N 
ATOM      4  C   UNL A   1      34.451  24.780  24.822  1.00  0.00     0.222 C 
ATOM      5  O   UNL A   1      34.206  24.705  26.026  1.00  0.00    -0.275 OA
ATOM      6  H   UNL A   1      32.976  26.078  24.518  1.00  0.00     0.163 HD
BRANCH   4   7
ATOM      7  C   UNL A   1      35.675  24.122  24.239  1.00  0.00     0.124 C 
BRANCH   7   8
ATOM      8  C   UNL A   1      36.429  23.120  25.111  1.00  0.00     0.088 C 
ATOM      9  C   UNL A   1      37.757  23.571  25.690  1.00  0.00     0.031 C 
BRANCH   8  10
ATOM     10  N   UNL A   1      36.636  21.803  24.550  1.00  0.00    -0.353 N 
ATOM     11  C   UNL A   1      36.038  20.676  25.061  1.00  0.00     0.220 C 
ATOM     12  H   UNL A   1      37.229  21.711  23.770  1.00  0.00     0.163 HD
ATOM     13  O   UNL A   1      36.633  19.602  25.006  1.00  0.00    -0.275 OA
BRANCH  11  14
ATOM     14  C   UNL A   1      34.606  20.779  25.589  1.00  0.00     0.102 C 
BRANCH  14  15
ATOM     15  C   UNL A   1      33.443  21.055  24.619  1.00  0.00     0.032 C 
BRANCH  15  16
ATOM     16  C   UNL A   1      31.984  21.216  25.123  1.00  0.00     0.131 C 
BRANCH  16  17
ATOM     17  N   UNL A   1      31.467  22.561  25.316  1.00  0.00    -0.263 N 
ATOM     18  C   UNL A   1      31.333  23.216  26.508  1.00  0.00     0.250 C 
ATOM     19  C   UNL A   1      31.055  23.371  24.286  1.00  0.00     0.326 C 
ATOM     20  O   UNL A   1      31.705  22.826  27.605  1.00  0.00    -0.272 OA
ATOM     21  C   UNL A   1      30.524  24.481  26.271  1.00  0.00     0.221 C 
ATOM     22  N   UNL A   1      30.503  24.514  24.832  1.00  0.00    -0.318 N 
ATOM     23  O   UNL A   1      31.088  23.107  23.092  1.00  0.00    -0.248 OA
ATOM     24  C   UNL A   1      29.834  25.558  24.091  1.00  0.00     0.149 C 
ENDBRANCH  16  17
ENDBRANCH  15  16
ENDBRANCH  14  15
ENDBRANCH  11  14
ENDBRANCH   8  10
ENDBRANCH   7   8
ENDBRANCH   4   7
ENDBRANCH   2   3
ENDBRANCH   1   2
BRANCH   1  25
ATOM     25  C   UNL A   1      32.345  27.768  23.310  1.00  0.00     0.002 C 
BRANCH  25  26
ATOM     26  C   UNL A   1      33.119  28.960  23.863  1.00  0.00     0.002 C 
BRANCH  26  27
ATOM     27  C   UNL A   1      34.368  28.586  24.669  1.00  0.00     0.021 C 
BRANCH  27  28
ATOM     28  C   UNL A   1      34.253  28.841  26.170  1.00  0.00     0.116 C 
BRANCH  28  29
ATOM     29  N   UNL A   1      33.802  30.195  26.444  1.00  0.00    -0.352 N 
ATOM     30  C   UNL A   1      34.179  31.047  27.449  1.00  0.00     0.251 C 
ATOM     31  H   UNL A   1      33.130  30.551  25.820  1.00  0.00     0.163 HD
ATOM     32  O   UNL A   1      33.491  32.028  27.712  1.00  0.00    -0.269 OA
BRANCH  30  33
ATOM     33  C   UNL A   1      35.414  30.774  28.213  1.00  0.00     0.039 A 
ATOM     34  C   UNL A   1      35.423  29.718  29.124  1.00  0.00     0.014 A 
ATOM     35  C   UNL A   1      36.550  31.573  28.045  1.00  0.00     0.014 A 
ATOM     36  C   UNL A   1      36.586  29.440  29.839  1.00  0.00     0.010 A 
ATOM     37  C   UNL A   1      37.734  31.243  28.698  1.00  0.00     0.010 A 
ATOM     38  C   UNL A   1      37.760  30.181  29.613  1.00  0.00    -0.014 A 
BRANCH  38  39
ATOM     39  C   UNL A   1      39.015  29.830  30.322  1.00  0.00     0.031 A 
ATOM     40  C   UNL A   1      39.917  28.743  29.800  1.00  0.00     0.074 A 
ATOM     41  C   UNL A   1      39.331  30.486  31.457  1.00  0.00     0.049 A 
ATOM     42  N   UNL A   1      41.078  28.350  30.259  1.00  0.00    -0.248 NA
ATOM     43  C   UNL A   1      39.448  27.987  28.629  1.00  0.00     0.031 C 
ATOM     44  C   UNL A   1      38.505  31.514  32.094  1.00  0.00     0.029 A 
ATOM     45  N   UNL A   1      40.433  30.395  32.269  1.00  0.00    -0.354 N 
ATOM     46  C   UNL A   1      41.473  27.299  29.438  1.00  0.00     0.074 A 
ATOM     47  C   UNL A   1      40.404  27.080  28.490  1.00  0.00     0.031 C 
ATOM     48  C   UNL A   1      39.151  31.992  33.169  1.00  0.00     0.029 A 
ATOM     49  C   UNL A   1      40.415  31.280  33.320  1.00  0.00     0.049 A 
ATOM     50  H   UNL A   1      41.167  29.758  32.112  1.00  0.00     0.167 HD
ATOM     51  C   UNL A   1      42.631  26.595  29.460  1.00  0.00     0.031 A 
ATOM     52  C   UNL A   1      41.315  31.497  34.299  1.00  0.00     0.031 A 
ATOM     53  C   UNL A   1      43.690  26.819  30.411  1.00  0.00     0.049 A 
ATOM     54  C   UNL A   1      42.594  30.708  34.298  1.00  0.00     0.074 A 
ATOM     55  C   UNL A   1      44.928  26.205  30.480  1.00  0.00     0.029 A 
ATOM     56  N   UNL A   1      43.633  27.719  31.465  1.00  0.00    -0.354 N 
ATOM     57  N   UNL A   1      42.991  29.782  33.457  1.00  0.00    -0.248 NA
ATOM     58  C   UNL A   1      43.553  31.006  35.369  1.00  0.00     0.031 C 
ATOM     59  C   UNL A   1      45.591  26.684  31.615  1.00  0.00     0.029 A 
ATOM     60  C   UNL A   1      44.798  27.651  32.212  1.00  0.00     0.049 A 
ATOM     61  H   UNL A   1      42.875  28.318  31.655  1.00  0.00     0.167 HD
ATOM     62  C   UNL A   1      44.256  29.397  33.888  1.00  0.00     0.074 A 
ATOM     63  C   UNL A   1      44.567  30.215  35.044  1.00  0.00     0.031 C 
ATOM     64  C   UNL A   1      45.083  28.452  33.375  1.00  0.00     0.031 A 
BRANCH  51  65
ATOM     65  C   UNL A   1      42.806  25.505  28.433  1.00  0.00    -0.014 A 
ATOM     66  C   UNL A   1      43.475  25.745  27.218  1.00  0.00     0.010 A 
ATOM     67  C   UNL A   1      42.332  24.208  28.703  1.00  0.00     0.010 A 
ATOM     68  C   UNL A   1      43.627  24.722  26.277  1.00  0.00     0.020 A 
ATOM     69  C   UNL A   1      42.509  23.174  27.779  1.00  0.00     0.020 A 
ATOM     70  C   UNL A   1      43.141  23.443  26.564  1.00  0.00     0.054 A 
BRANCH  70  71
ATOM     71  S   UNL A   1      43.374  22.130  25.333  1.00  0.00     0.124 S 
ATOM     72  O   UNL A   1      44.689  21.609  25.694  1.00  0.00    -0.237 OA
ATOM     73  O   UNL A   1      42.249  21.237  25.602  1.00  0.00    -0.237 OA
ATOM     74  O   UNL A   1      43.313  22.836  24.056  1.00  0.00    -0.744 OA
ENDBRANCH  70  71
ENDBRANCH  51  65
BRANCH  52  75
ATOM     75  C   UNL A   1      41.038  32.519  35.344  1.00  0.00    -0.014 A 
ATOM     76  C   UNL A   1      41.422  33.860  35.164  1.00  0.00     0.010 A 
ATOM     77  C   UNL A   1      40.359  32.157  36.523  1.00  0.00     0.010 A 
ATOM     78  C   UNL A   1      41.148  34.814  36.149  1.00  0.00     0.020 A 
ATOM     79  C   UNL A   1      40.054  33.114  37.494  1.00  0.00     0.020 A 
ATOM     80  C   UNL A   1      40.461  34.436  37.305  1.00  0.00     0.054 A 
BRANCH  80  81
ATOM     81  S   UNL A   1      40.060  35.702  38.541  1.00  0.00     0.124 S 
ATOM     82  O   UNL A   1      38.963  35.077  39.272  1.00  0.00    -0.237 OA
ATOM     83  O   UNL A   1      41.318  35.834  39.274  1.00  0.00    -0.237 OA
ATOM     84  O   UNL A   1      39.695  36.864  37.734  1.00  0.00    -0.744 OA
ENDBRANCH  80  81
ENDBRANCH  52  75
BRANCH  64  85
ATOM     85  C   UNL A   1      46.412  28.262  34.061  1.00  0.00    -0.014 A 
ATOM     86  C   UNL A   1      47.545  29.004  33.678  1.00  0.00     0.010 A 
ATOM     87  C   UNL A   1      46.525  27.337  35.115  1.00  0.00     0.010 A 
ATOM     88  C   UNL A   1      48.778  28.783  34.298  1.00  0.00     0.020 A 
ATOM     89  C   UNL A   1      47.748  27.140  35.762  1.00  0.00     0.020 A 
ATOM     90  C   UNL A   1      48.872  27.849  35.334  1.00  0.00     0.054 A 
BRANCH  90  91
ATOM     91  S   UNL A   1      50.481  27.584  36.125  1.00  0.00     0.124 S 
ATOM     92  O   UNL A   1      51.304  28.613  35.492  1.00  0.00    -0.237 OA
ATOM     93  O   UNL A   1      50.182  27.800  37.539  1.00  0.00    -0.237 OA
ATOM     94  O   UNL A   1      50.822  26.209  35.769  1.00  0.00    -0.744 OA
ENDBRANCH  90  91
ENDBRANCH  64  85
ENDBRANCH  38  39
ENDBRANCH  30  33
ENDBRANCH  28  29
ENDBRANCH  27  28
ENDBRANCH  26  27
ENDBRANCH  25  26
ENDBRANCH   1  25
TORSDOF 22
ENDMDL
MODEL 2
REMARK VINA RESULT:      -9.1      5.336     10.010
REMARK SMILES C[C@@H](CC(=O)NCCCCCCNC(=O)c1ccc(-c2c3nc(c(-c4ccc(S(=O)(=O)[O-])cc4)c4ccc([nH]4)c(-c4ccc(S(=O)(=O)[O-])cc4)c4nc(c(-c5ccc(S(=O)(=O)[O-])cc5)c5ccc2[nH]5)C=C4)C=C3)cc1)NC(=O)CCCN1C(=O)CN(C)C1=O
REMARK SMILES IDX 8 1 7 2 6 3 4 4 5 5 3 7 2 8 1 9 76 10 77 11 78 13 79 14
REMARK SMILES IDX 80 15 81 16 82 17 83 18 88 19 84 20 85 21 86 22 89 23 87 24
REMARK SMILES IDX 9 25 10 26 11 27 12 28 13 29 14 30 15 32 16 33 17 34 75 35
REMARK SMILES IDX 18 36 74 37 19 38 20 39 21 40 68 41 22 42 73 43 67 44 69 45
REMARK SMILES IDX 23 46 72 47 66 48 65 49 24 51 54 52 35 53 53 54 36 55 39 56
REMARK SMILES IDX 52 57 70 58 37 59 38 60 51 62 71 63 40 64 25 65 26 66 34 67
REMARK SMILES IDX 27 68 33 69 28 70 29 71 30 72 31 73 32 74 55 75 56 76 64 77
REMARK SMILES IDX 57 78 63 79 58 80 59 81 60 82 61 83 62 84 41 85 42 86 50 87
REMARK SMILES IDX 43 88 49 89 44 90 45 91 46 92 47 93 48 94
REMARK H PARENT 6 6 76 12 13 31 69 50 39 61
REMARK Flexibility Score: inf
ROOT
ATOM      1  C   UNL A   1      32.409  29.683  25.831  1.00  0.00     0.021 C 
ENDROOT
BRANCH   1   2
ATOM      2  C   UNL A   1      32.803  29.238  24.421  1.00  0.00     0.116 C 
BRANCH   2   3
ATOM      3  N   UNL A   1      31.720  28.475  23.820  1.00  0.00    -0.356 N 
ATOM      4  C   UNL A   1      31.744  27.557  22.815  1.00  0.00     0.222 C 
ATOM      5  O   UNL A   1      30.675  27.163  22.347  1.00  0.00    -0.275 OA
ATOM      6  H   UNL A   1      30.828  28.651  24.200  1.00  0.00     0.163 HD
BRANCH   4   7
ATOM      7  C   UNL A   1      33.054  26.984  22.342  1.00  0.00     0.124 C 
BRANCH   7   8
ATOM      8  C   UNL A   1      33.028  25.620  21.655  1.00  0.00     0.088 C 
ATOM      9  C   UNL A   1      32.523  25.578  20.225  1.00  0.00     0.031 C 
BRANCH   8  10
ATOM     10  N   UNL A   1      32.370  24.550  22.369  1.00  0.00    -0.353 N 
ATOM     11  C   UNL A   1      32.923  23.299  22.507  1.00  0.00     0.220 C 
ATOM     12  H   UNL A   1      31.489  24.724  22.773  1.00  0.00     0.163 HD
ATOM     13  O   UNL A   1      32.186  22.317  22.551  1.00  0.00    -0.275 OA
BRANCH  11  14
ATOM     14  C   UNL A   1      34.434  23.183  22.708  1.00  0.00     0.102 C 
BRANCH  14  15
ATOM     15  C   UNL A   1      35.088  23.725  23.992  1.00  0.00     0.032 C 
BRANCH  15  16
ATOM     16  C   UNL A   1      34.572  23.323  25.400  1.00  0.00     0.131 C 
BRANCH  16  17
ATOM     17  N   UNL A   1      33.228  23.724  25.781  1.00  0.00    -0.263 N 
ATOM     18  C   UNL A   1      32.782  25.003  25.961  1.00  0.00     0.250 C 
ATOM     19  C   UNL A   1      32.202  22.836  25.994  1.00  0.00     0.326 C 
ATOM     20  O   UNL A   1      33.405  26.034  25.746  1.00  0.00    -0.272 OA
ATOM     21  C   UNL A   1      31.403  24.946  26.596  1.00  0.00     0.221 C 
ATOM     22  N   UNL A   1      31.113  23.542  26.468  1.00  0.00    -0.318 N 
ATOM     23  O   UNL A   1      32.253  21.619  25.871  1.00  0.00    -0.248 OA
ATOM     24  C   UNL A   1      29.878  22.960  26.939  1.00  0.00     0.149 C 
ENDBRANCH  16  17
ENDBRANCH  15  16
ENDBRANCH  14  15
ENDBRANCH  11  14
ENDBRANCH   8  10
ENDBRANCH   7   8
ENDBRANCH   4   7
ENDBRANCH   2   3
ENDBRANCH   1   2
BRANCH   1  25
ATOM     25  C   UNL A   1      33.495  29.451  26.877  1.00  0.00     0.002 C 
BRANCH  25  26
ATOM     26  C   UNL A   1      33.990  30.731  27.543  1.00  0.00     0.002 C 
BRANCH  26  27
ATOM     27  C   UNL A   1      35.515  30.861  27.613  1.00  0.00     0.021 C 
BRANCH  27  28
ATOM     28  C   UNL A   1      36.236  29.605  28.096  1.00  0.00     0.116 C 
BRANCH  28  29
ATOM     29  N   UNL A   1      36.253  29.529  29.547  1.00  0.00    -0.352 N 
ATOM     30  C   UNL A   1      37.242  29.072  30.379  1.00  0.00     0.251 C 
ATOM     31  H   UNL A   1      35.439  29.850  29.996  1.00  0.00     0.163 HD
ATOM     32  O   UNL A   1      36.983  28.799  31.546  1.00  0.00    -0.269 OA
BRANCH  30  33
ATOM     33  C   UNL A   1      38.616  28.910  29.860  1.00  0.00     0.039 A 
ATOM     34  C   UNL A   1      38.901  29.340  28.563  1.00  0.00     0.014 A 
ATOM     35  C   UNL A   1      39.611  28.316  30.643  1.00  0.00     0.014 A 
ATOM     36  C   UNL A   1      40.196  29.207  28.067  1.00  0.00     0.010 A 
ATOM     37  C   UNL A   1      40.921  28.259  30.175  1.00  0.00     0.010 A 
ATOM     38  C   UNL A   1      41.224  28.692  28.878  1.00  0.00    -0.014 A 
BRANCH  38  39
ATOM     39  C   UNL A   1      42.616  28.625  28.368  1.00  0.00     0.031 A 
ATOM     40  C   UNL A   1      43.545  29.800  28.508  1.00  0.00     0.074 A 
ATOM     41  C   UNL A   1      43.035  27.499  27.756  1.00  0.00     0.049 A 
ATOM     42  N   UNL A   1      44.808  29.893  28.176  1.00  0.00    -0.248 NA
ATOM     43  C   UNL A   1      42.983  31.037  29.073  1.00  0.00     0.031 C 
ATOM     44  C   UNL A   1      42.206  26.317  27.504  1.00  0.00     0.029 A 
ATOM     45  N   UNL A   1      44.262  27.159  27.245  1.00  0.00    -0.354 N 
ATOM     46  C   UNL A   1      45.187  31.194  28.485  1.00  0.00     0.074 A 
ATOM     47  C   UNL A   1      44.009  31.871  28.978  1.00  0.00     0.031 C 
ATOM     48  C   UNL A   1      42.961  25.366  26.932  1.00  0.00     0.029 A 
ATOM     49  C   UNL A   1      44.311  25.882  26.740  1.00  0.00     0.049 A 
ATOM     50  H   UNL A   1      45.033  27.771  27.243  1.00  0.00     0.167 HD
ATOM     51  C   UNL A   1      46.411  31.767  28.386  1.00  0.00     0.031 A 
ATOM     52  C   UNL A   1      45.330  25.197  26.185  1.00  0.00     0.031 A 
ATOM     53  C   UNL A   1      47.580  31.086  27.891  1.00  0.00     0.049 A 
ATOM     54  C   UNL A   1      46.681  25.853  26.092  1.00  0.00     0.074 A 
ATOM     55  C   UNL A   1      48.880  31.554  27.809  1.00  0.00     0.029 A 
ATOM     56  N   UNL A   1      47.590  29.795  27.382  1.00  0.00    -0.354 N 
ATOM     57  N   UNL A   1      47.042  27.054  26.476  1.00  0.00    -0.248 NA
ATOM     58  C   UNL A   1      47.763  25.052  25.506  1.00  0.00     0.031 C 
ATOM     59  C   UNL A   1      49.661  30.574  27.189  1.00  0.00     0.029 A 
ATOM     60  C   UNL A   1      48.865  29.464  26.951  1.00  0.00     0.049 A 
ATOM     61  H   UNL A   1      46.806  29.201  27.334  1.00  0.00     0.167 HD
ATOM     62  C   UNL A   1      48.400  27.148  26.193  1.00  0.00     0.074 A 
ATOM     63  C   UNL A   1      48.798  25.870  25.637  1.00  0.00     0.031 C 
ATOM     64  C   UNL A   1      49.241  28.197  26.375  1.00  0.00     0.031 A 
BRANCH  51  65
ATOM     65  C   UNL A   1      46.545  33.209  28.808  1.00  0.00    -0.014 A 
ATOM     66  C   UNL A   1      46.348  34.261  27.894  1.00  0.00     0.010 A 
ATOM     67  C   UNL A   1      46.834  33.520  30.149  1.00  0.00     0.010 A 
ATOM     68  C   UNL A   1      46.477  35.591  28.303  1.00  0.00     0.020 A 
ATOM     69  C   UNL A   1      46.934  34.849  30.571  1.00  0.00     0.020 A 
ATOM     70  C   UNL A   1      46.771  35.876  29.640  1.00  0.00     0.054 A 
BRANCH  70  71
ATOM     71  S   UNL A   1      46.911  37.612  30.147  1.00  0.00     0.124 S 
ATOM     72  O   UNL A   1      48.220  37.633  30.795  1.00  0.00    -0.237 OA
ATOM     73  O   UNL A   1      46.829  38.324  28.874  1.00  0.00    -0.237 OA
ATOM     74  O   UNL A   1      45.772  37.807  31.040  1.00  0.00    -0.744 OA
ENDBRANCH  70  71
ENDBRANCH  51  65
BRANCH  52  75
ATOM     75  C   UNL A   1      45.109  23.810  25.693  1.00  0.00    -0.014 A 
ATOM     76  C   UNL A   1      44.601  23.573  24.404  1.00  0.00     0.010 A 
ATOM     77  C   UNL A   1      45.434  22.711  26.511  1.00  0.00     0.010 A 
ATOM     78  C   UNL A   1      44.407  22.266  23.948  1.00  0.00     0.020 A 
ATOM     79  C   UNL A   1      45.273  21.404  26.047  1.00  0.00     0.020 A 
ATOM     80  C   UNL A   1      44.749  21.189  24.770  1.00  0.00     0.054 A 
BRANCH  80  81
ATOM     81  S   UNL A   1      44.548  19.501  24.135  1.00  0.00     0.124 S 
ATOM     82  O   UNL A   1      45.772  18.855  24.596  1.00  0.00    -0.237 OA
ATOM     83  O   UNL A   1      43.316  19.065  24.790  1.00  0.00    -0.237 OA
ATOM     84  O   UNL A   1      44.443  19.690  22.690  1.00  0.00    -0.744 OA
ENDBRANCH  80  81
ENDBRANCH  52  75
BRANCH  64  85
ATOM     85  C   UNL A   1      50.680  27.997  25.976  1.00  0.00    -0.014 A 
ATOM     86  C   UNL A   1      51.139  28.352  24.694  1.00  0.00     0.010 A 
ATOM     87  C   UNL A   1      51.591  27.458  26.903  1.00  0.00     0.010 A 
ATOM     88  C   UNL A   1      52.468  28.121  24.329  1.00  0.00     0.020 A 
ATOM     89  C   UNL A   1      52.929  27.258  26.553  1.00  0.00     0.020 A 
ATOM     90  C   UNL A   1      53.354  27.570  25.261  1.00  0.00     0.054 A 
BRANCH  90  91
ATOM     91  S   UNL A   1      55.074  27.284  24.764  1.00  0.00     0.124 S 
ATOM     92  O   UNL A   1      55.767  27.293  26.050  1.00  0.00    -0.237 OA
ATOM     93  O   UNL A   1      55.002  25.985  24.097  1.00  0.00    -0.237 OA
ATOM     94  O   UNL A   1      55.375  28.412  23.886  1.00  0.00    -0.744 OA
ENDBRANCH  90  91
ENDBRANCH  64  85
ENDBRANCH  38  39
ENDBRANCH  30  33
ENDBRANCH  28  29
ENDBRANCH  27  28
ENDBRANCH  26  27
ENDBRANCH  25  26
ENDBRANCH   1  25
TORSDOF 22
ENDMDL
MODEL 3
REMARK VINA RESULT:      -9.1      2.723      8.315
REMARK SMILES C[C@@H](CC(=O)NCCCCCCNC(=O)c1ccc(-c2c3nc(c(-c4ccc(S(=O)(=O)[O-])cc4)c4ccc([nH]4)c(-c4ccc(S(=O)(=O)[O-])cc4)c4nc(c(-c5ccc(S(=O)(=O)[O-])cc5)c5ccc2[nH]5)C=C4)C=C3)cc1)NC(=O)CCCN1C(=O)CN(C)C1=O
REMARK SMILES IDX 8 1 7 2 6 3 4 4 5 5 3 7 2 8 1 9 76 10 77 11 78 13 79 14
REMARK SMILES IDX 80 15 81 16 82 17 83 18 88 19 84 20 85 21 86 22 89 23 87 24
REMARK SMILES IDX 9 25 10 26 11 27 12 28 13 29 14 30 15 32 16 33 17 34 75 35
REMARK SMILES IDX 18 36 74 37 19 38 20 39 21 40 68 41 22 42 73 43 67 44 69 45
REMARK SMILES IDX 23 46 72 47 66 48 65 49 24 51 54 52 35 53 53 54 36 55 39 56
REMARK SMILES IDX 52 57 70 58 37 59 38 60 51 62 71 63 40 64 25 65 26 66 34 67
REMARK SMILES IDX 27 68 33 69 28 70 29 71 30 72 31 73 32 74 55 75 56 76 64 77
REMARK SMILES IDX 57 78 63 79 58 80 59 81 60 82 61 83 62 84 41 85 42 86 50 87
REMARK SMILES IDX 43 88 49 89 44 90 45 91 46 92 47 93 48 94
REMARK H PARENT 6 6 76 12 13 31 69 50 39 61
REMARK Flexibility Score: inf
ROOT
ATOM      1  C   UNL A   1      36.764  23.148  25.095  1.00  0.00     0.021 C 
ENDROOT
BRANCH   1   2
ATOM      2  C   UNL A   1      36.604  22.997  23.581  1.00  0.00     0.116 C 
BRANCH   2   3
ATOM      3  N   UNL A   1      35.192  22.984  23.229  1.00  0.00    -0.356 N 
ATOM      4  C   UNL A   1      34.185  22.180  23.667  1.00  0.00     0.222 C 
ATOM      5  O   UNL A   1      33.093  22.235  23.099  1.00  0.00    -0.275 OA
ATOM      6  H   UNL A   1      34.923  23.664  22.569  1.00  0.00     0.163 HD
BRANCH   4   7
ATOM      7  C   UNL A   1      34.386  21.299  24.872  1.00  0.00     0.124 C 
BRANCH   7   8
ATOM      8  C   UNL A   1      33.145  20.714  25.542  1.00  0.00     0.088 C 
ATOM      9  C   UNL A   1      32.815  19.264  25.237  1.00  0.00     0.031 C 
BRANCH   8  10
ATOM     10  N   UNL A   1      31.919  21.467  25.400  1.00  0.00    -0.353 N 
ATOM     11  C   UNL A   1      31.576  22.494  26.246  1.00  0.00     0.220 C 
ATOM     12  H   UNL A   1      31.305  21.234  24.667  1.00  0.00     0.163 HD
ATOM     13  O   UNL A   1      30.391  22.694  26.500  1.00  0.00    -0.275 OA
BRANCH  11  14
ATOM     14  C   UNL A   1      32.679  23.420  26.762  1.00  0.00     0.102 C 
BRANCH  14  15
ATOM     15  C   UNL A   1      32.779  24.866  26.243  1.00  0.00     0.032 C 
BRANCH  15  16
ATOM     16  C   UNL A   1      32.061  25.315  24.942  1.00  0.00     0.131 C 
BRANCH  16  17
ATOM     17  N   UNL A   1      31.945  26.740  24.678  1.00  0.00    -0.263 N 
ATOM     18  C   UNL A   1      32.815  27.714  25.079  1.00  0.00     0.250 C 
ATOM     19  C   UNL A   1      30.920  27.297  23.953  1.00  0.00     0.326 C 
ATOM     20  O   UNL A   1      33.886  27.552  25.647  1.00  0.00    -0.272 OA
ATOM     21  C   UNL A   1      32.178  29.068  24.811  1.00  0.00     0.221 C 
ATOM     22  N   UNL A   1      31.047  28.672  24.013  1.00  0.00    -0.318 N 
ATOM     23  O   UNL A   1      30.000  26.698  23.412  1.00  0.00    -0.248 OA
ATOM     24  C   UNL A   1      30.096  29.625  23.492  1.00  0.00     0.149 C 
ENDBRANCH  16  17
ENDBRANCH  15  16
ENDBRANCH  14  15
ENDBRANCH  11  14
ENDBRANCH   8  10
ENDBRANCH   7   8
ENDBRANCH   4   7
ENDBRANCH   2   3
ENDBRANCH   1   2
BRANCH   1  25
ATOM     25  C   UNL A   1      37.915  22.335  25.678  1.00  0.00     0.002 C 
BRANCH  25  26
ATOM     26  C   UNL A   1      38.954  23.179  26.410  1.00  0.00     0.002 C 
BRANCH  26  27
ATOM     27  C   UNL A   1      40.244  22.432  26.764  1.00  0.00     0.021 C 
BRANCH  27  28
ATOM     28  C   UNL A   1      41.410  23.334  27.158  1.00  0.00     0.116 C 
BRANCH  28  29
ATOM     29  N   UNL A   1      41.788  24.219  26.068  1.00  0.00    -0.352 N 
ATOM     30  C   UNL A   1      41.692  25.583  25.987  1.00  0.00     0.251 C 
ATOM     31  H   UNL A   1      42.166  23.775  25.276  1.00  0.00     0.163 HD
ATOM     32  O   UNL A   1      41.773  26.139  24.896  1.00  0.00    -0.269 OA
BRANCH  30  33
ATOM     33  C   UNL A   1      41.489  26.376  27.217  1.00  0.00     0.039 A 
ATOM     34  C   UNL A   1      42.419  27.362  27.544  1.00  0.00     0.014 A 
ATOM     35  C   UNL A   1      40.396  26.128  28.055  1.00  0.00     0.014 A 
ATOM     36  C   UNL A   1      42.231  28.127  28.694  1.00  0.00     0.010 A 
ATOM     37  C   UNL A   1      40.167  26.947  29.157  1.00  0.00     0.010 A 
ATOM     38  C   UNL A   1      41.089  27.946  29.495  1.00  0.00    -0.014 A 
BRANCH  38  39
ATOM     39  C   UNL A   1      40.858  28.816  30.675  1.00  0.00     0.031 A 
ATOM     40  C   UNL A   1      41.692  28.667  31.918  1.00  0.00     0.074 A 
ATOM     41  C   UNL A   1      39.872  29.736  30.626  1.00  0.00     0.049 A 
ATOM     42  N   UNL A   1      41.666  29.381  33.014  1.00  0.00    -0.248 NA
ATOM     43  C   UNL A   1      42.664  27.563  31.946  1.00  0.00     0.031 C 
ATOM     44  C   UNL A   1      38.956  29.931  29.499  1.00  0.00     0.029 A 
ATOM     45  N   UNL A   1      39.483  30.683  31.538  1.00  0.00    -0.354 N 
ATOM     46  C   UNL A   1      42.610  28.810  33.861  1.00  0.00     0.074 A 
ATOM     47  C   UNL A   1      43.149  27.658  33.175  1.00  0.00     0.031 C 
ATOM     48  C   UNL A   1      38.145  30.967  29.768  1.00  0.00     0.029 A 
ATOM     49  C   UNL A   1      38.455  31.481  31.097  1.00  0.00     0.049 A 
ATOM     50  H   UNL A   1      39.902  30.782  32.424  1.00  0.00     0.167 HD
ATOM     51  C   UNL A   1      43.005  29.221  35.091  1.00  0.00     0.031 A 
ATOM     52  C   UNL A   1      37.830  32.515  31.692  1.00  0.00     0.031 A 
ATOM     53  C   UNL A   1      42.460  30.370  35.768  1.00  0.00     0.049 A 
ATOM     54  C   UNL A   1      38.291  32.956  33.054  1.00  0.00     0.074 A 
ATOM     55  C   UNL A   1      42.835  30.909  36.986  1.00  0.00     0.029 A 
ATOM     56  N   UNL A   1      41.416  31.150  35.293  1.00  0.00    -0.354 N 
ATOM     57  N   UNL A   1      39.250  32.461  33.800  1.00  0.00    -0.248 NA
ATOM     58  C   UNL A   1      37.596  34.107  33.644  1.00  0.00     0.031 C 
ATOM     59  C   UNL A   1      41.973  31.971  37.279  1.00  0.00     0.029 A 
ATOM     60  C   UNL A   1      41.109  32.143  36.209  1.00  0.00     0.049 A 
ATOM     61  H   UNL A   1      40.960  31.017  34.430  1.00  0.00     0.167 HD
ATOM     62  C   UNL A   1      39.285  33.251  34.944  1.00  0.00     0.074 A 
ATOM     63  C   UNL A   1      38.273  34.274  34.772  1.00  0.00     0.031 C 
ATOM     64  C   UNL A   1      40.081  33.139  36.037  1.00  0.00     0.031 A 
BRANCH  51  65
ATOM     65  C   UNL A   1      44.070  28.414  35.789  1.00  0.00    -0.014 A 
ATOM     66  C   UNL A   1      43.737  27.337  36.633  1.00  0.00     0.010 A 
ATOM     67  C   UNL A   1      45.428  28.709  35.568  1.00  0.00     0.010 A 
ATOM     68  C   UNL A   1      44.738  26.601  37.273  1.00  0.00     0.020 A 
ATOM     69  C   UNL A   1      46.433  27.957  36.182  1.00  0.00     0.020 A 
ATOM     70  C   UNL A   1      46.081  26.917  37.044  1.00  0.00     0.054 A 
BRANCH  70  71
ATOM     71  S   UNL A   1      47.358  25.930  37.871  1.00  0.00     0.124 S 
ATOM     72  O   UNL A   1      47.279  24.666  37.144  1.00  0.00    -0.237 OA
ATOM     73  O   UNL A   1      48.568  26.713  37.638  1.00  0.00    -0.237 OA
ATOM     74  O   UNL A   1      46.912  25.876  39.261  1.00  0.00    -0.744 OA
ENDBRANCH  70  71
ENDBRANCH  51  65
BRANCH  52  75
ATOM     75  C   UNL A   1      36.716  33.209  30.992  1.00  0.00    -0.014 A 
ATOM     76  C   UNL A   1      36.972  34.110  29.943  1.00  0.00     0.010 A 
ATOM     77  C   UNL A   1      35.381  32.948  31.357  1.00  0.00     0.010 A 
ATOM     78  C   UNL A   1      35.916  34.749  29.284  1.00  0.00     0.020 A 
ATOM     79  C   UNL A   1      34.324  33.559  30.679  1.00  0.00     0.020 A 
ATOM     80  C   UNL A   1      34.599  34.465  29.653  1.00  0.00     0.054 A 
BRANCH  80  81
ATOM     81  S   UNL A   1      33.243  35.257  28.743  1.00  0.00     0.124 S 
ATOM     82  O   UNL A   1      33.961  36.194  27.884  1.00  0.00    -0.237 OA
ATOM     83  O   UNL A   1      32.618  34.124  28.063  1.00  0.00    -0.237 OA
ATOM     84  O   UNL A   1      32.434  35.865  29.796  1.00  0.00    -0.744 OA
ENDBRANCH  80  81
ENDBRANCH  52  75
BRANCH  64  85
ATOM     85  C   UNL A   1      39.891  34.160  37.129  1.00  0.00    -0.014 A 
ATOM     86  C   UNL A   1      40.418  35.460  37.014  1.00  0.00     0.010 A 
ATOM     87  C   UNL A   1      39.160  33.818  38.282  1.00  0.00     0.010 A 
ATOM     88  C   UNL A   1      40.267  36.379  38.056  1.00  0.00     0.020 A 
ATOM     89  C   UNL A   1      38.976  34.747  39.310  1.00  0.00     0.020 A 
ATOM     90  C   UNL A   1      39.550  36.014  39.199  1.00  0.00     0.054 A 
BRANCH  90  91
ATOM     91  S   UNL A   1      39.363  37.227  40.534  1.00  0.00     0.124 S 
ATOM     92  O   UNL A   1      38.621  38.297  39.872  1.00  0.00    -0.237 OA
ATOM     93  O   UNL A   1      38.620  36.478  41.545  1.00  0.00    -0.237 OA
ATOM     94  O   UNL A   1      40.739  37.557  40.899  1.00  0.00    -0.744 OA
ENDBRANCH  90  91
ENDBRANCH  64  85
ENDBRANCH  38  39
ENDBRANCH  30  33
ENDBRANCH  28  29
ENDBRANCH  27  28
ENDBRANCH  26  27
ENDBRANCH  25  26
ENDBRANCH   1  25
TORSDOF 22
ENDMDL
