MODEL 1
REMARK VINA RESULT:     -11.0      0.000      0.000
REMARK SMILES O=C(NCCCCCCNC(=O)c1ccc2c(c1)CCN2C(=O)c1ccn[nH]1)c1ccc(-c2c3nc(c(-c4ccc(S(=O)(=O)[O-])cc4)c4ccc([nH]4)c(-c4ccc(S(=O)(=O)[O-])cc4)c4nc(c(-c5ccc(S(=O)(=O)[O-])cc5)c5ccc2[nH]5)C=C4)C=C3)cc1
REMARK SMILES IDX 6 1 5 2 4 3 3 4 1 5 2 6 29 8 30 9 88 10 31 11 87 12 32 13
REMARK SMILES IDX 33 14 34 15 81 16 35 17 86 18 80 19 82 20 36 21 85 22 79 23
REMARK SMILES IDX 78 24 37 26 67 27 48 28 66 29 49 30 52 31 65 32 83 33 50 34
REMARK SMILES IDX 51 35 64 37 84 38 53 39 38 40 39 41 47 42 40 43 46 44 41 45
REMARK SMILES IDX 42 46 43 47 44 48 45 49 68 50 69 51 77 52 70 53 76 54 71 55
REMARK SMILES IDX 72 56 73 57 74 58 75 59 54 60 55 61 63 62 56 63 62 64 57 65
REMARK SMILES IDX 58 66 59 67 60 68 61 69 7 70 8 71 9 72 10 73 11 74 12 76
REMARK SMILES IDX 13 77 14 78 18 79 15 80 17 81 16 82 19 83 21 84 20 85 22 86
REMARK SMILES IDX 23 87 24 88 25 89 28 90 26 91 27 92
REMARK H PARENT 3 7 82 25 52 36 10 75 28 93
REMARK Flexibility Score: inf
ROOT
ATOM      1  C   UNL A   1      31.557  27.194  26.819  1.00  0.00     0.002 C 
ENDROOT
BRANCH   1   2
ATOM      2  C   UNL A   1      32.796  27.811  26.168  1.00  0.00     0.021 C 
BRANCH   2   3
ATOM      3  C   UNL A   1      33.842  28.326  27.147  1.00  0.00     0.116 C 
BRANCH   3   4
ATOM      4  N   UNL A   1      33.642  29.728  27.475  1.00  0.00    -0.352 N 
ATOM      5  O   UNL A   1      34.092  31.688  28.494  1.00  0.00    -0.269 OA
ATOM      6  C   UNL A   1      34.490  30.584  28.129  1.00  0.00     0.251 C 
ATOM      7  H   UNL A   1      32.782  30.115  27.189  1.00  0.00     0.163 HD
BRANCH   6   8
ATOM      8  C   UNL A   1      35.881  30.165  28.402  1.00  0.00     0.039 A 
ATOM      9  C   UNL A   1      36.852  30.239  27.399  1.00  0.00     0.014 A 
ATOM     10  C   UNL A   1      36.220  29.714  29.680  1.00  0.00     0.014 A 
ATOM     11  C   UNL A   1      38.138  29.768  27.643  1.00  0.00     0.010 A 
ATOM     12  C   UNL A   1      37.532  29.314  29.946  1.00  0.00     0.010 A 
ATOM     13  C   UNL A   1      38.499  29.333  28.928  1.00  0.00    -0.014 A 
BRANCH  13  14
ATOM     14  C   UNL A   1      39.920  29.029  29.223  1.00  0.00     0.031 A 
ATOM     15  C   UNL A   1      40.841  30.066  29.799  1.00  0.00     0.074 A 
ATOM     16  C   UNL A   1      40.376  27.793  28.936  1.00  0.00     0.049 A 
ATOM     17  N   UNL A   1      42.115  29.964  30.075  1.00  0.00    -0.248 NA
ATOM     18  C   UNL A   1      40.266  31.388  30.098  1.00  0.00     0.031 C 
ATOM     19  C   UNL A   1      39.569  26.710  28.359  1.00  0.00     0.029 A 
ATOM     20  N   UNL A   1      41.618  27.233  29.082  1.00  0.00    -0.354 N 
ATOM     21  C   UNL A   1      42.505  31.209  30.552  1.00  0.00     0.074 A 
ATOM     22  C   UNL A   1      41.332  32.056  30.525  1.00  0.00     0.031 C 
ATOM     23  C   UNL A   1      40.330  25.617  28.221  1.00  0.00     0.029 A 
ATOM     24  C   UNL A   1      41.692  25.937  28.630  1.00  0.00     0.049 A 
ATOM     25  H   UNL A   1      42.384  27.713  29.473  1.00  0.00     0.167 HD
ATOM     26  C   UNL A   1      43.732  31.604  30.970  1.00  0.00     0.031 A 
ATOM     27  C   UNL A   1      42.744  25.105  28.516  1.00  0.00     0.031 A 
ATOM     28  C   UNL A   1      44.889  30.745  30.997  1.00  0.00     0.049 A 
ATOM     29  C   UNL A   1      44.098  25.587  28.947  1.00  0.00     0.074 A 
ATOM     30  C   UNL A   1      46.157  31.031  31.472  1.00  0.00     0.029 A 
ATOM     31  N   UNL A   1      44.928  29.446  30.513  1.00  0.00    -0.354 N 
ATOM     32  N   UNL A   1      44.427  26.741  29.477  1.00  0.00    -0.248 NA
ATOM     33  C   UNL A   1      45.223  24.661  28.764  1.00  0.00     0.031 C 
ATOM     34  C   UNL A   1      46.980  29.932  31.210  1.00  0.00     0.029 A 
ATOM     35  C   UNL A   1      46.210  28.936  30.631  1.00  0.00     0.049 A 
ATOM     36  H   UNL A   1      44.158  28.958  30.141  1.00  0.00     0.167 HD
ATOM     37  C   UNL A   1      45.797  26.677  29.698  1.00  0.00     0.074 A 
ATOM     38  C   UNL A   1      46.229  25.361  29.272  1.00  0.00     0.031 C 
ATOM     39  C   UNL A   1      46.624  27.625  30.199  1.00  0.00     0.031 A 
BRANCH  26  40
ATOM     40  C   UNL A   1      43.915  33.034  31.404  1.00  0.00    -0.014 A 
ATOM     41  C   UNL A   1      44.337  34.028  30.503  1.00  0.00     0.010 A 
ATOM     42  C   UNL A   1      43.558  33.407  32.714  1.00  0.00     0.010 A 
ATOM     43  C   UNL A   1      44.412  35.364  30.909  1.00  0.00     0.020 A 
ATOM     44  C   UNL A   1      43.610  34.744  33.117  1.00  0.00     0.020 A 
ATOM     45  C   UNL A   1      44.045  35.714  32.214  1.00  0.00     0.054 A 
BRANCH  45  46
ATOM     46  S   UNL A   1      44.100  37.463  32.694  1.00  0.00     0.124 S 
ATOM     47  O   UNL A   1      43.760  38.131  31.441  1.00  0.00    -0.237 OA
ATOM     48  O   UNL A   1      43.083  37.539  33.740  1.00  0.00    -0.237 OA
ATOM     49  O   UNL A   1      45.474  37.657  33.149  1.00  0.00    -0.744 OA
ENDBRANCH  45  46
ENDBRANCH  26  40
BRANCH  27  50
ATOM     50  C   UNL A   1      42.562  23.758  27.910  1.00  0.00    -0.014 A 
ATOM     51  C   UNL A   1      42.717  23.562  26.527  1.00  0.00     0.010 A 
ATOM     52  C   UNL A   1      42.233  22.658  28.725  1.00  0.00     0.010 A 
ATOM     53  C   UNL A   1      42.519  22.296  25.969  1.00  0.00     0.020 A 
ATOM     54  C   UNL A   1      42.069  21.385  28.175  1.00  0.00     0.020 A 
ATOM     55  C   UNL A   1      42.194  21.216  26.796  1.00  0.00     0.054 A 
BRANCH  55  56
ATOM     56  S   UNL A   1      41.967  19.578  26.052  1.00  0.00     0.124 S 
ATOM     57  O   UNL A   1      40.540  19.581  25.746  1.00  0.00    -0.237 OA
ATOM     58  O   UNL A   1      42.862  19.627  24.899  1.00  0.00    -0.237 OA
ATOM     59  O   UNL A   1      42.380  18.661  27.112  1.00  0.00    -0.744 OA
ENDBRANCH  55  56
ENDBRANCH  27  50
BRANCH  39  60
ATOM     60  C   UNL A   1      48.080  27.273  30.328  1.00  0.00    -0.014 A 
ATOM     61  C   UNL A   1      48.998  27.617  29.320  1.00  0.00     0.010 A 
ATOM     62  C   UNL A   1      48.546  26.654  31.502  1.00  0.00     0.010 A 
ATOM     63  C   UNL A   1      50.356  27.332  29.477  1.00  0.00     0.020 A 
ATOM     64  C   UNL A   1      49.907  26.393  31.674  1.00  0.00     0.020 A 
ATOM     65  C   UNL A   1      50.803  26.727  30.656  1.00  0.00     0.054 A 
BRANCH  65  66
ATOM     66  S   UNL A   1      52.580  26.433  30.864  1.00  0.00     0.124 S 
ATOM     67  O   UNL A   1      53.001  26.130  29.498  1.00  0.00    -0.237 OA
ATOM     68  O   UNL A   1      53.055  27.708  31.399  1.00  0.00    -0.237 OA
ATOM     69  O   UNL A   1      52.640  25.311  31.797  1.00  0.00    -0.744 OA
ENDBRANCH  65  66
ENDBRANCH  39  60
ENDBRANCH  13  14
ENDBRANCH   6   8
ENDBRANCH   3   4
ENDBRANCH   2   3
ENDBRANCH   1   2
BRANCH   1  70
ATOM     70  C   UNL A   1      30.657  26.387  25.881  1.00  0.00     0.002 C 
BRANCH  70  71
ATOM     71  C   UNL A   1      30.481  26.974  24.478  1.00  0.00     0.021 C 
BRANCH  71  72
ATOM     72  C   UNL A   1      30.531  25.952  23.348  1.00  0.00     0.116 C 
BRANCH  72  73
ATOM     73  N   UNL A   1      31.346  26.407  22.231  1.00  0.00    -0.352 N 
ATOM     74  C   UNL A   1      32.645  26.084  21.928  1.00  0.00     0.251 C 
ATOM     75  H   UNL A   1      30.906  27.030  21.610  1.00  0.00     0.163 HD
ATOM     76  O   UNL A   1      33.255  26.688  21.053  1.00  0.00    -0.269 OA
BRANCH  74  77
ATOM     77  C   UNL A   1      33.314  25.001  22.677  1.00  0.00     0.040 A 
ATOM     78  C   UNL A   1      33.553  23.764  22.062  1.00  0.00     0.016 A 
ATOM     79  C   UNL A   1      33.677  25.211  24.008  1.00  0.00     0.019 A 
ATOM     80  C   UNL A   1      34.066  22.695  22.795  1.00  0.00     0.027 A 
ATOM     81  C   UNL A   1      34.237  24.148  24.706  1.00  0.00    -0.022 A 
ATOM     82  C   UNL A   1      34.434  22.892  24.113  1.00  0.00     0.047 A 
ATOM     83  C   UNL A   1      34.604  24.131  26.155  1.00  0.00     0.059 C 
ATOM     84  N   UNL A   1      34.982  22.003  25.057  1.00  0.00    -0.306 N 
ATOM     85  C   UNL A   1      35.241  22.748  26.299  1.00  0.00     0.131 C 
BRANCH  84  86
ATOM     86  C   UNL A   1      35.271  20.643  25.012  1.00  0.00     0.276 C 
ATOM     87  O   UNL A   1      36.441  20.257  25.064  1.00  0.00    -0.267 OA
BRANCH  86  88
ATOM     88  C   UNL A   1      34.208  19.681  24.956  1.00  0.00     0.123 A 
ATOM     89  C   UNL A   1      34.147  18.390  24.464  1.00  0.00     0.055 A 
ATOM     90  N   UNL A   1      32.990  19.896  25.541  1.00  0.00    -0.273 N 
ATOM     91  C   UNL A   1      32.816  17.985  24.673  1.00  0.00     0.135 A 
ATOM     92  N   UNL A   1      32.101  18.915  25.309  1.00  0.00    -0.183 NA
ATOM     93  H   UNL A   1      32.783  20.693  26.082  1.00  0.00     0.190 HD
ENDBRANCH  86  88
ENDBRANCH  84  86
ENDBRANCH  74  77
ENDBRANCH  72  73
ENDBRANCH  71  72
ENDBRANCH  70  71
ENDBRANCH   1  70
TORSDOF 18
ENDMDL
MODEL 2
REMARK VINA RESULT:     -10.9      1.079      8.137
REMARK SMILES O=C(NCCCCCCNC(=O)c1ccc2c(c1)CCN2C(=O)c1ccn[nH]1)c1ccc(-c2c3nc(c(-c4ccc(S(=O)(=O)[O-])cc4)c4ccc([nH]4)c(-c4ccc(S(=O)(=O)[O-])cc4)c4nc(c(-c5ccc(S(=O)(=O)[O-])cc5)c5ccc2[nH]5)C=C4)C=C3)cc1
REMARK SMILES IDX 6 1 5 2 4 3 3 4 1 5 2 6 29 8 30 9 88 10 31 11 87 12 32 13
REMARK SMILES IDX 33 14 34 15 81 16 35 17 86 18 80 19 82 20 36 21 85 22 79 23
REMARK SMILES IDX 78 24 37 26 67 27 48 28 66 29 49 30 52 31 65 32 83 33 50 34
REMARK SMILES IDX 51 35 64 37 84 38 53 39 38 40 39 41 47 42 40 43 46 44 41 45
REMARK SMILES IDX 42 46 43 47 44 48 45 49 68 50 69 51 77 52 70 53 76 54 71 55
REMARK SMILES IDX 72 56 73 57 74 58 75 59 54 60 55 61 63 62 56 63 62 64 57 65
REMARK SMILES IDX 58 66 59 67 60 68 61 69 7 70 8 71 9 72 10 73 11 74 12 76
REMARK SMILES IDX 13 77 14 78 18 79 15 80 17 81 16 82 19 83 21 84 20 85 22 86
REMARK SMILES IDX 23 87 24 88 25 89 28 90 26 91 27 92
REMARK H PARENT 3 7 82 25 52 36 10 75 28 93
REMARK Flexibility Score: inf
ROOT
ATOM      1  C   UNL A   1      31.647  27.225  26.638  1.00  0.00     0.002 C 
ENDROOT
BRANCH   1   2
ATOM      2  C   UNL A   1      32.817  27.977  26.002  1.00  0.00     0.021 C 
BRANCH   2   3
ATOM      3  C   UNL A   1      33.896  28.422  26.979  1.00  0.00     0.116 C 
BRANCH   3   4
ATOM      4  N   UNL A   1      33.714  29.799  27.407  1.00  0.00    -0.352 N 
ATOM      5  O   UNL A   1      34.191  31.676  28.560  1.00  0.00    -0.269 OA
ATOM      6  C   UNL A   1      34.575  30.598  28.115  1.00  0.00     0.251 C 
ATOM      7  H   UNL A   1      32.856  30.214  27.155  1.00  0.00     0.163 HD
BRANCH   6   8
ATOM      8  C   UNL A   1      35.962  30.146  28.348  1.00  0.00     0.039 A 
ATOM      9  C   UNL A   1      36.927  30.276  27.345  1.00  0.00     0.014 A 
ATOM     10  C   UNL A   1      36.305  29.607  29.591  1.00  0.00     0.014 A 
ATOM     11  C   UNL A   1      38.209  29.776  27.548  1.00  0.00     0.010 A 
ATOM     12  C   UNL A   1      37.614  29.176  29.820  1.00  0.00     0.010 A 
ATOM     13  C   UNL A   1      38.574  29.252  28.798  1.00  0.00    -0.014 A 
BRANCH  13  14
ATOM     14  C   UNL A   1      39.994  28.913  29.061  1.00  0.00     0.031 A 
ATOM     15  C   UNL A   1      40.572  27.589  28.651  1.00  0.00     0.074 A 
ATOM     16  C   UNL A   1      40.753  29.822  29.704  1.00  0.00     0.049 A 
ATOM     17  N   UNL A   1      41.782  27.131  28.845  1.00  0.00    -0.248 NA
ATOM     18  C   UNL A   1      39.684  26.655  27.940  1.00  0.00     0.031 C 
ATOM     19  C   UNL A   1      40.287  31.137  30.162  1.00  0.00     0.029 A 
ATOM     20  N   UNL A   1      42.068  29.787  30.091  1.00  0.00    -0.354 N 
ATOM     21  C   UNL A   1      41.797  25.849  28.309  1.00  0.00     0.074 A 
ATOM     22  C   UNL A   1      40.472  25.598  27.784  1.00  0.00     0.031 C 
ATOM     23  C   UNL A   1      41.303  31.787  30.745  1.00  0.00     0.029 A 
ATOM     24  C   UNL A   1      42.470  30.914  30.769  1.00  0.00     0.049 A 
ATOM     25  H   UNL A   1      42.667  29.029  29.901  1.00  0.00     0.167 HD
ATOM     26  C   UNL A   1      42.825  24.968  28.266  1.00  0.00     0.031 A 
ATOM     27  C   UNL A   1      43.633  31.203  31.381  1.00  0.00     0.031 A 
ATOM     28  C   UNL A   1      44.141  25.237  28.787  1.00  0.00     0.049 A 
ATOM     29  C   UNL A   1      44.738  30.187  31.352  1.00  0.00     0.074 A 
ATOM     30  C   UNL A   1      45.268  24.436  28.725  1.00  0.00     0.029 A 
ATOM     31  N   UNL A   1      44.502  26.382  29.484  1.00  0.00    -0.354 N 
ATOM     32  N   UNL A   1      44.758  29.015  30.764  1.00  0.00    -0.248 NA
ATOM     33  C   UNL A   1      45.973  30.528  32.069  1.00  0.00     0.031 C 
ATOM     34  C   UNL A   1      46.289  25.063  29.444  1.00  0.00     0.029 A 
ATOM     35  C   UNL A   1      45.819  26.284  29.900  1.00  0.00     0.049 A 
ATOM     36  H   UNL A   1      43.910  27.149  29.656  1.00  0.00     0.167 HD
ATOM     37  C   UNL A   1      46.011  28.480  31.034  1.00  0.00     0.074 A 
ATOM     38  C   UNL A   1      46.730  29.469  31.812  1.00  0.00     0.031 C 
ATOM     39  C   UNL A   1      46.518  27.276  30.677  1.00  0.00     0.031 A 
BRANCH  26  40
ATOM     40  C   UNL A   1      42.578  23.608  27.666  1.00  0.00    -0.014 A 
ATOM     41  C   UNL A   1      42.912  23.323  26.330  1.00  0.00     0.010 A 
ATOM     42  C   UNL A   1      42.098  22.570  28.487  1.00  0.00     0.010 A 
ATOM     43  C   UNL A   1      42.755  22.028  25.824  1.00  0.00     0.020 A 
ATOM     44  C   UNL A   1      41.962  21.271  27.992  1.00  0.00     0.020 A 
ATOM     45  C   UNL A   1      42.284  21.010  26.660  1.00  0.00     0.054 A 
BRANCH  45  46
ATOM     46  S   UNL A   1      42.145  19.328  25.991  1.00  0.00     0.124 S 
ATOM     47  O   UNL A   1      40.710  19.221  25.741  1.00  0.00    -0.237 OA
ATOM     48  O   UNL A   1      42.986  19.389  24.798  1.00  0.00    -0.237 OA
ATOM     49  O   UNL A   1      42.654  18.481  27.067  1.00  0.00    -0.744 OA
ENDBRANCH  45  46
ENDBRANCH  26  40
BRANCH  27  50
ATOM     50  C   UNL A   1      43.782  32.483  32.124  1.00  0.00    -0.014 A 
ATOM     51  C   UNL A   1      44.273  33.635  31.485  1.00  0.00     0.010 A 
ATOM     52  C   UNL A   1      43.428  32.553  33.485  1.00  0.00     0.010 A 
ATOM     53  C   UNL A   1      44.431  34.824  32.202  1.00  0.00     0.020 A 
ATOM     54  C   UNL A   1      43.552  33.749  34.195  1.00  0.00     0.020 A 
ATOM     55  C   UNL A   1      44.072  34.873  33.553  1.00  0.00     0.054 A 
BRANCH  55  56
ATOM     56  S   UNL A   1      44.262  36.434  34.456  1.00  0.00     0.124 S 
ATOM     57  O   UNL A   1      44.491  35.968  35.819  1.00  0.00    -0.237 OA
ATOM     58  O   UNL A   1      45.413  37.044  33.793  1.00  0.00    -0.237 OA
ATOM     59  O   UNL A   1      42.991  37.117  34.230  1.00  0.00    -0.744 OA
ENDBRANCH  55  56
ENDBRANCH  27  50
BRANCH  39  60
ATOM     60  C   UNL A   1      47.923  26.962  31.114  1.00  0.00    -0.014 A 
ATOM     61  C   UNL A   1      49.027  27.380  30.350  1.00  0.00     0.010 A 
ATOM     62  C   UNL A   1      48.141  26.301  32.336  1.00  0.00     0.010 A 
ATOM     63  C   UNL A   1      50.326  27.129  30.795  1.00  0.00     0.020 A 
ATOM     64  C   UNL A   1      49.439  26.073  32.798  1.00  0.00     0.020 A 
ATOM     65  C   UNL A   1      50.524  26.481  32.019  1.00  0.00     0.054 A 
BRANCH  65  66
ATOM     66  S   UNL A   1      52.222  26.231  32.606  1.00  0.00     0.124 S 
ATOM     67  O   UNL A   1      52.618  25.022  31.888  1.00  0.00    -0.237 OA
ATOM     68  O   UNL A   1      52.891  27.460  32.185  1.00  0.00    -0.237 OA
ATOM     69  O   UNL A   1      52.070  26.075  34.051  1.00  0.00    -0.744 OA
ENDBRANCH  65  66
ENDBRANCH  39  60
ENDBRANCH  13  14
ENDBRANCH   6   8
ENDBRANCH   3   4
ENDBRANCH   2   3
ENDBRANCH   1   2
BRANCH   1  70
ATOM     70  C   UNL A   1      30.767  26.438  25.664  1.00  0.00     0.002 C 
BRANCH  70  71
ATOM     71  C   UNL A   1      30.399  27.175  24.374  1.00  0.00     0.021 C 
BRANCH  71  72
ATOM     72  C   UNL A   1      30.609  26.369  23.097  1.00  0.00     0.116 C 
BRANCH  72  73
ATOM     73  N   UNL A   1      31.803  26.784  22.375  1.00  0.00    -0.352 N 
ATOM     74  C   UNL A   1      33.017  26.150  22.285  1.00  0.00     0.251 C 
ATOM     75  H   UNL A   1      31.729  27.634  21.885  1.00  0.00     0.163 HD
ATOM     76  O   UNL A   1      33.985  26.713  21.786  1.00  0.00    -0.269 OA
BRANCH  74  77
ATOM     77  C   UNL A   1      33.154  24.775  22.809  1.00  0.00     0.040 A 
ATOM     78  C   UNL A   1      32.166  23.819  22.537  1.00  0.00     0.016 A 
ATOM     79  C   UNL A   1      34.259  24.449  23.597  1.00  0.00     0.019 A 
ATOM     80  C   UNL A   1      32.219  22.557  23.130  1.00  0.00     0.027 A 
ATOM     81  C   UNL A   1      34.319  23.169  24.134  1.00  0.00    -0.022 A 
ATOM     82  C   UNL A   1      33.311  22.221  23.909  1.00  0.00     0.047 A 
ATOM     83  C   UNL A   1      35.357  22.650  25.076  1.00  0.00     0.059 C 
ATOM     84  N   UNL A   1      33.616  21.031  24.598  1.00  0.00    -0.306 N 
ATOM     85  C   UNL A   1      34.938  21.186  25.224  1.00  0.00     0.131 C 
BRANCH  84  86
ATOM     86  C   UNL A   1      32.915  19.844  24.783  1.00  0.00     0.276 C 
ATOM     87  O   UNL A   1      31.890  19.831  25.468  1.00  0.00    -0.267 OA
BRANCH  86  88
ATOM     88  C   UNL A   1      33.353  18.640  24.136  1.00  0.00     0.123 A 
ATOM     89  C   UNL A   1      34.492  17.869  24.280  1.00  0.00     0.055 A 
ATOM     90  N   UNL A   1      32.565  17.949  23.256  1.00  0.00    -0.273 N 
ATOM     91  C   UNL A   1      34.348  16.832  23.339  1.00  0.00     0.135 A 
ATOM     92  N   UNL A   1      33.183  16.895  22.695  1.00  0.00    -0.183 NA
ATOM     93  H   UNL A   1      31.635  18.200  23.052  1.00  0.00     0.190 HD
ENDBRANCH  86  88
ENDBRANCH  84  86
ENDBRANCH  74  77
ENDBRANCH  72  73
ENDBRANCH  71  72
ENDBRANCH  70  71
ENDBRANCH   1  70
TORSDOF 18
ENDMDL
MODEL 3
REMARK VINA RESULT:     -10.4      2.991      8.839
REMARK SMILES O=C(NCCCCCCNC(=O)c1ccc2c(c1)CCN2C(=O)c1ccn[nH]1)c1ccc(-c2c3nc(c(-c4ccc(S(=O)(=O)[O-])cc4)c4ccc([nH]4)c(-c4ccc(S(=O)(=O)[O-])cc4)c4nc(c(-c5ccc(S(=O)(=O)[O-])cc5)c5ccc2[nH]5)C=C4)C=C3)cc1
REMARK SMILES IDX 6 1 5 2 4 3 3 4 1 5 2 6 29 8 30 9 88 10 31 11 87 12 32 13
REMARK SMILES IDX 33 14 34 15 81 16 35 17 86 18 80 19 82 20 36 21 85 22 79 23
REMARK SMILES IDX 78 24 37 26 67 27 48 28 66 29 49 30 52 31 65 32 83 33 50 34
REMARK SMILES IDX 51 35 64 37 84 38 53 39 38 40 39 41 47 42 40 43 46 44 41 45
REMARK SMILES IDX 42 46 43 47 44 48 45 49 68 50 69 51 77 52 70 53 76 54 71 55
REMARK SMILES IDX 72 56 73 57 74 58 75 59 54 60 55 61 63 62 56 63 62 64 57 65
REMARK SMILES IDX 58 66 59 67 60 68 61 69 7 70 8 71 9 72 10 73 11 74 12 76
REMARK SMILES IDX 13 77 14 78 18 79 15 80 17 81 16 82 19 83 21 84 20 85 22 86
REMARK SMILES IDX 23 87 24 88 25 89 28 90 26 91 27 92
REMARK H PARENT 3 7 82 25 52 36 10 75 28 93
REMARK Flexibility Score: inf
ROOT
ATOM      1  C   UNL A   1      34.734  32.449  28.744  1.00  0.00     0.002 C 
ENDROOT
BRANCH   1   2
ATOM      2  C   UNL A   1      35.966  33.353  28.826  1.00  0.00     0.021 C 
BRANCH   2   3
ATOM      3  C   UNL A   1      36.934  33.011  29.950  1.00  0.00     0.116 C 
BRANCH   3   4
ATOM      4  N   UNL A   1      36.443  31.930  30.787  1.00  0.00    -0.352 N 
ATOM      5  O   UNL A   1      36.297  29.808  31.535  1.00  0.00    -0.269 OA
ATOM      6  C   UNL A   1      36.942  30.661  30.930  1.00  0.00     0.251 C 
ATOM      7  H   UNL A   1      35.643  32.136  31.325  1.00  0.00     0.163 HD
BRANCH   6   8
ATOM      8  C   UNL A   1      38.255  30.324  30.341  1.00  0.00     0.039 A 
ATOM      9  C   UNL A   1      39.379  30.170  31.157  1.00  0.00     0.014 A 
ATOM     10  C   UNL A   1      38.356  30.140  28.959  1.00  0.00     0.014 A 
ATOM     11  C   UNL A   1      40.624  29.931  30.584  1.00  0.00     0.010 A 
ATOM     12  C   UNL A   1      39.594  29.823  28.393  1.00  0.00     0.010 A 
ATOM     13  C   UNL A   1      40.738  29.722  29.201  1.00  0.00    -0.014 A 
BRANCH  13  14
ATOM     14  C   UNL A   1      42.031  29.268  28.635  1.00  0.00     0.031 A 
ATOM     15  C   UNL A   1      42.238  27.849  28.191  1.00  0.00     0.074 A 
ATOM     16  C   UNL A   1      43.034  30.165  28.551  1.00  0.00     0.049 A 
ATOM     17  N   UNL A   1      43.320  27.292  27.713  1.00  0.00    -0.248 NA
ATOM     18  C   UNL A   1      41.091  26.933  28.301  1.00  0.00     0.031 C 
ATOM     19  C   UNL A   1      42.947  31.569  28.969  1.00  0.00     0.029 A 
ATOM     20  N   UNL A   1      44.321  30.039  28.095  1.00  0.00    -0.354 N 
ATOM     21  C   UNL A   1      42.999  25.959  27.490  1.00  0.00     0.074 A 
ATOM     22  C   UNL A   1      41.620  25.786  27.891  1.00  0.00     0.031 C 
ATOM     23  C   UNL A   1      44.117  32.175  28.731  1.00  0.00     0.029 A 
ATOM     24  C   UNL A   1      45.059  31.193  28.212  1.00  0.00     0.049 A 
ATOM     25  H   UNL A   1      44.681  29.202  27.719  1.00  0.00     0.167 HD
ATOM     26  C   UNL A   1      43.790  24.974  27.000  1.00  0.00     0.031 A 
ATOM     27  C   UNL A   1      46.362  31.430  27.969  1.00  0.00     0.031 A 
ATOM     28  C   UNL A   1      45.161  25.165  26.600  1.00  0.00     0.049 A 
ATOM     29  C   UNL A   1      47.221  30.306  27.468  1.00  0.00     0.074 A 
ATOM     30  C   UNL A   1      46.021  24.246  26.023  1.00  0.00     0.029 A 
ATOM     31  N   UNL A   1      45.878  26.342  26.752  1.00  0.00    -0.354 N 
ATOM     32  N   UNL A   1      46.875  29.073  27.183  1.00  0.00    -0.248 NA
ATOM     33  C   UNL A   1      48.644  30.600  27.258  1.00  0.00     0.031 C 
ATOM     34  C   UNL A   1      47.277  24.845  25.893  1.00  0.00     0.029 A 
ATOM     35  C   UNL A   1      47.184  26.158  26.328  1.00  0.00     0.049 A 
ATOM     36  H   UNL A   1      45.514  27.184  27.108  1.00  0.00     0.167 HD
ATOM     37  C   UNL A   1      48.037  28.446  26.752  1.00  0.00     0.074 A 
ATOM     38  C   UNL A   1      49.088  29.442  26.786  1.00  0.00     0.031 C 
ATOM     39  C   UNL A   1      48.219  27.159  26.371  1.00  0.00     0.031 A 
BRANCH  26  40
ATOM     40  C   UNL A   1      43.220  23.584  26.894  1.00  0.00    -0.014 A 
ATOM     41  C   UNL A   1      42.903  22.830  28.037  1.00  0.00     0.010 A 
ATOM     42  C   UNL A   1      42.899  23.067  25.624  1.00  0.00     0.010 A 
ATOM     43  C   UNL A   1      42.292  21.578  27.912  1.00  0.00     0.020 A 
ATOM     44  C   UNL A   1      42.267  21.827  25.495  1.00  0.00     0.020 A 
ATOM     45  C   UNL A   1      41.975  21.086  26.640  1.00  0.00     0.054 A 
BRANCH  45  46
ATOM     46  S   UNL A   1      41.130  19.484  26.511  1.00  0.00     0.124 S 
ATOM     47  O   UNL A   1      40.970  19.115  27.915  1.00  0.00    -0.237 OA
ATOM     48  O   UNL A   1      39.897  19.830  25.810  1.00  0.00    -0.237 OA
ATOM     49  O   UNL A   1      42.065  18.657  25.753  1.00  0.00    -0.744 OA
ENDBRANCH  45  46
ENDBRANCH  26  40
BRANCH  27  50
ATOM     50  C   UNL A   1      46.938  32.771  28.260  1.00  0.00    -0.014 A 
ATOM     51  C   UNL A   1      47.352  33.112  29.559  1.00  0.00     0.010 A 
ATOM     52  C   UNL A   1      47.077  33.716  27.226  1.00  0.00     0.010 A 
ATOM     53  C   UNL A   1      47.869  34.384  29.822  1.00  0.00     0.020 A 
ATOM     54  C   UNL A   1      47.625  34.975  27.478  1.00  0.00     0.020 A 
ATOM     55  C   UNL A   1      48.000  35.308  28.780  1.00  0.00     0.054 A 
BRANCH  55  56
ATOM     56  S   UNL A   1      48.697  36.943  29.141  1.00  0.00     0.124 S 
ATOM     57  O   UNL A   1      50.098  36.625  29.394  1.00  0.00    -0.237 OA
ATOM     58  O   UNL A   1      48.428  37.680  27.908  1.00  0.00    -0.237 OA
ATOM     59  O   UNL A   1      47.934  37.391  30.304  1.00  0.00    -0.744 OA
ENDBRANCH  55  56
ENDBRANCH  27  50
BRANCH  39  60
ATOM     60  C   UNL A   1      49.604  26.754  25.948  1.00  0.00    -0.014 A 
ATOM     61  C   UNL A   1      50.071  27.027  24.651  1.00  0.00     0.010 A 
ATOM     62  C   UNL A   1      50.470  26.156  26.881  1.00  0.00     0.010 A 
ATOM     63  C   UNL A   1      51.378  26.693  24.288  1.00  0.00     0.020 A 
ATOM     64  C   UNL A   1      51.786  25.847  26.530  1.00  0.00     0.020 A 
ATOM     65  C   UNL A   1      52.229  26.111  25.232  1.00  0.00     0.054 A 
BRANCH  65  66
ATOM     66  S   UNL A   1      53.942  25.753  24.756  1.00  0.00     0.124 S 
ATOM     67  O   UNL A   1      53.979  24.294  24.821  1.00  0.00    -0.237 OA
ATOM     68  O   UNL A   1      54.027  26.324  23.413  1.00  0.00    -0.237 OA
ATOM     69  O   UNL A   1      54.736  26.442  25.771  1.00  0.00    -0.744 OA
ENDBRANCH  65  66
ENDBRANCH  39  60
ENDBRANCH  13  14
ENDBRANCH   6   8
ENDBRANCH   3   4
ENDBRANCH   2   3
ENDBRANCH   1   2
BRANCH   1  70
ATOM     70  C   UNL A   1      34.737  31.443  27.591  1.00  0.00     0.002 C 
BRANCH  70  71
ATOM     71  C   UNL A   1      34.716  29.970  28.007  1.00  0.00     0.021 C 
BRANCH  71  72
ATOM     72  C   UNL A   1      34.953  28.983  26.870  1.00  0.00     0.116 C 
BRANCH  72  73
ATOM     73  N   UNL A   1      34.089  29.242  25.727  1.00  0.00    -0.352 N 
ATOM     74  C   UNL A   1      33.374  28.347  24.971  1.00  0.00     0.251 C 
ATOM     75  H   UNL A   1      34.006  30.186  25.462  1.00  0.00     0.163 HD
ATOM     76  O   UNL A   1      32.834  28.697  23.927  1.00  0.00    -0.269 OA
BRANCH  74  77
ATOM     77  C   UNL A   1      33.269  26.943  25.420  1.00  0.00     0.040 A 
ATOM     78  C   UNL A   1      34.409  26.128  25.449  1.00  0.00     0.016 A 
ATOM     79  C   UNL A   1      32.023  26.432  25.785  1.00  0.00     0.019 A 
ATOM     80  C   UNL A   1      34.301  24.770  25.747  1.00  0.00     0.027 A 
ATOM     81  C   UNL A   1      31.947  25.088  26.131  1.00  0.00    -0.022 A 
ATOM     82  C   UNL A   1      33.073  24.253  26.116  1.00  0.00     0.047 A 
ATOM     83  C   UNL A   1      30.704  24.325  26.457  1.00  0.00     0.059 C 
ATOM     84  N   UNL A   1      32.697  22.945  26.476  1.00  0.00    -0.306 N 
ATOM     85  C   UNL A   1      31.271  22.955  26.835  1.00  0.00     0.131 C 
BRANCH  84  86
ATOM     86  C   UNL A   1      33.397  21.743  26.519  1.00  0.00     0.276 C 
ATOM     87  O   UNL A   1      34.288  21.576  27.355  1.00  0.00    -0.267 OA
BRANCH  86  88
ATOM     88  C   UNL A   1      33.052  20.674  25.625  1.00  0.00     0.123 A 
ATOM     89  C   UNL A   1      32.915  20.621  24.250  1.00  0.00     0.055 A 
ATOM     90  N   UNL A   1      32.891  19.383  26.049  1.00  0.00    -0.273 N 
ATOM     91  C   UNL A   1      32.528  19.296  23.977  1.00  0.00     0.135 A 
ATOM     92  N   UNL A   1      32.489  18.545  25.078  1.00  0.00    -0.183 NA
ATOM     93  H   UNL A   1      33.053  19.095  26.977  1.00  0.00     0.190 HD
ENDBRANCH  86  88
ENDBRANCH  84  86
ENDBRANCH  74  77
ENDBRANCH  72  73
ENDBRANCH  71  72
ENDBRANCH  70  71
ENDBRANCH   1  70
TORSDOF 18
ENDMDL
