MODEL 1
REMARK VINA RESULT:     -12.0      0.000      0.000
REMARK SMILES Cc1c(C[NH2+]C2CCCCC2)c(C(=O)NCCCCCCNC(=O)c2ccc(-c3c4nc(c(-c5ccc(S(=O)(=O)[O-])cc5)c5ccc([nH]5)c(-c5ccc(S(=O)(=O)[O-])cc5)c5nc(c(-c6ccc(S(=O)(=O)[O-])cc6)c6ccc3[nH]6)C=C5)C=C4)cc2)c(C)n1Cc1ccccc1
REMARK SMILES IDX 18 1 17 2 16 3 15 4 13 5 14 6 12 8 1 9 2 10 3 11 87 12 85 13
REMARK SMILES IDX 86 14 4 15 5 16 6 19 7 20 11 21 8 22 10 23 9 24 88 25 89 26
REMARK SMILES IDX 90 27 94 28 91 29 93 30 92 31 19 32 20 33 21 34 22 35 23 36
REMARK SMILES IDX 24 38 25 39 26 40 84 41 27 42 83 43 28 44 29 45 30 46 77 47
REMARK SMILES IDX 31 48 82 49 76 50 78 51 32 52 81 53 75 54 74 55 33 57 63 58
REMARK SMILES IDX 44 59 62 60 45 61 48 62 61 63 79 64 46 65 47 66 60 68 80 69
REMARK SMILES IDX 49 70 34 71 35 72 43 73 36 74 42 75 37 76 38 77 39 78 40 79
REMARK SMILES IDX 41 80 64 81 65 82 73 83 66 84 72 85 67 86 68 87 69 88 70 89
REMARK SMILES IDX 71 90 50 91 51 92 59 93 52 94 58 95 53 96 54 97 55 98 56 99
REMARK SMILES IDX 57 100
REMARK H PARENT 15 7 5 17 5 18 22 37 78 56 48 67
REMARK Flexibility Score: inf
ROOT
ATOM      1  C   UNL A   1      38.173  24.057  26.159  1.00  0.00     0.002 C 
ENDROOT
BRANCH   1   2
ATOM      2  C   UNL A   1      36.810  23.391  25.972  1.00  0.00     0.021 C 
BRANCH   2   3
ATOM      3  C   UNL A   1      35.716  24.204  25.296  1.00  0.00     0.116 C 
BRANCH   3   4
ATOM      4  N   UNL A   1      35.383  23.808  23.949  1.00  0.00    -0.352 N 
ATOM      5  C   UNL A   1      34.148  23.606  23.361  1.00  0.00     0.253 C 
ATOM      6  O   UNL A   1      34.175  23.187  22.202  1.00  0.00    -0.269 OA
ATOM      7  H   UNL A   1      36.155  23.658  23.357  1.00  0.00     0.163 HD
BRANCH   5   8
ATOM      8  C   UNL A   1      32.890  23.775  24.121  1.00  0.00     0.069 A 
ATOM      9  C   UNL A   1      30.449  23.071  26.887  1.00  0.00     0.065 C 
ATOM     10  C   UNL A   1      31.305  23.555  25.765  1.00  0.00     0.025 A 
ATOM     11  C   UNL A   1      32.427  22.930  25.208  1.00  0.00     0.040 A 
ATOM     12  N   UNL A   1      31.126  24.746  25.082  1.00  0.00    -0.343 N 
ATOM     13  C   UNL A   1      31.796  24.613  23.873  1.00  0.00     0.028 A 
ATOM     14  C   UNL A   1      31.320  25.263  22.616  1.00  0.00     0.065 C 
BRANCH  11  15
ATOM     15  C   UNL A   1      33.042  21.628  25.675  1.00  0.00     0.300 C 
BRANCH  15  16
ATOM     16  N   UNL A   1      32.224  20.508  25.204  1.00  0.00    -0.340 N 
ATOM     17  H   UNL A   1      31.902  20.718  24.259  1.00  0.00     0.346 HD
ATOM     18  H   UNL A   1      31.452  20.404  25.862  1.00  0.00     0.346 HD
BRANCH  16  19
ATOM     19  C   UNL A   1      32.941  19.229  25.176  1.00  0.00     0.182 C 
ATOM     20  C   UNL A   1      32.236  18.209  24.266  1.00  0.00     0.065 C 
ATOM     21  C   UNL A   1      34.380  19.475  24.684  1.00  0.00     0.065 C 
ATOM     22  C   UNL A   1      33.035  16.911  24.130  1.00  0.00     0.006 C 
ATOM     23  C   UNL A   1      35.172  18.172  24.553  1.00  0.00     0.006 C 
ATOM     24  C   UNL A   1      34.460  17.170  23.650  1.00  0.00     0.000 C 
ENDBRANCH  16  19
ENDBRANCH  15  16
ENDBRANCH  11  15
BRANCH  12  25
ATOM     25  C   UNL A   1      30.227  25.855  25.439  1.00  0.00     0.157 C 
BRANCH  25  26
ATOM     26  C   UNL A   1      30.924  27.156  25.810  1.00  0.00    -0.028 A 
ATOM     27  C   UNL A   1      31.091  28.173  24.855  1.00  0.00     0.005 A 
ATOM     28  C   UNL A   1      31.520  27.347  27.067  1.00  0.00     0.005 A 
ATOM     29  C   UNL A   1      31.820  29.333  25.153  1.00  0.00     0.000 A 
ATOM     30  C   UNL A   1      32.238  28.509  27.370  1.00  0.00     0.000 A 
ATOM     31  C   UNL A   1      32.389  29.502  26.411  1.00  0.00     0.000 A 
ENDBRANCH  25  26
ENDBRANCH  12  25
ENDBRANCH   5   8
ENDBRANCH   3   4
ENDBRANCH   2   3
ENDBRANCH   1   2
BRANCH   1  32
ATOM     32  C   UNL A   1      39.206  23.353  27.050  1.00  0.00     0.002 C 
BRANCH  32  33
ATOM     33  C   UNL A   1      39.935  22.095  26.527  1.00  0.00     0.021 C 
BRANCH  33  34
ATOM     34  C   UNL A   1      40.927  21.333  27.439  1.00  0.00     0.116 C 
BRANCH  34  35
ATOM     35  N   UNL A   1      42.265  21.205  26.917  1.00  0.00    -0.352 N 
ATOM     36  C   UNL A   1      43.187  22.177  26.569  1.00  0.00     0.251 C 
ATOM     37  H   UNL A   1      42.572  20.279  26.788  1.00  0.00     0.163 HD
ATOM     38  O   UNL A   1      44.218  21.758  26.038  1.00  0.00    -0.269 OA
BRANCH  36  39
ATOM     39  C   UNL A   1      42.946  23.679  26.620  1.00  0.00     0.039 A 
ATOM     40  C   UNL A   1      42.870  24.210  27.890  1.00  0.00     0.014 A 
ATOM     41  C   UNL A   1      42.572  24.573  25.594  1.00  0.00     0.014 A 
ATOM     42  C   UNL A   1      42.507  25.572  28.108  1.00  0.00     0.010 A 
ATOM     43  C   UNL A   1      42.093  25.967  25.849  1.00  0.00     0.010 A 
ATOM     44  C   UNL A   1      42.022  26.532  27.139  1.00  0.00    -0.014 A 
BRANCH  44  45
ATOM     45  C   UNL A   1      41.218  27.870  27.759  1.00  0.00     0.031 A 
ATOM     46  C   UNL A   1      42.308  28.879  27.822  1.00  0.00     0.074 A 
ATOM     47  C   UNL A   1      40.071  28.413  28.373  1.00  0.00     0.049 A 
ATOM     48  N   UNL A   1      43.321  28.597  28.580  1.00  0.00    -0.248 NA
ATOM     49  C   UNL A   1      42.555  29.911  26.813  1.00  0.00     0.031 C 
ATOM     50  C   UNL A   1      38.834  27.745  28.816  1.00  0.00     0.029 A 
ATOM     51  N   UNL A   1      39.744  29.765  28.782  1.00  0.00    -0.354 N 
ATOM     52  C   UNL A   1      44.318  29.478  28.276  1.00  0.00     0.074 A 
ATOM     53  C   UNL A   1      43.836  30.192  27.096  1.00  0.00     0.031 C 
ATOM     54  C   UNL A   1      37.886  28.638  29.250  1.00  0.00     0.029 A 
ATOM     55  C   UNL A   1      38.384  30.017  29.225  1.00  0.00     0.049 A 
ATOM     56  H   UNL A   1      40.417  30.483  28.761  1.00  0.00     0.167 HD
ATOM     57  C   UNL A   1      45.056  29.923  29.330  1.00  0.00     0.031 A 
ATOM     58  C   UNL A   1      37.744  31.199  29.637  1.00  0.00     0.031 A 
ATOM     59  C   UNL A   1      44.527  31.182  29.789  1.00  0.00     0.049 A 
ATOM     60  C   UNL A   1      38.806  32.005  30.260  1.00  0.00     0.074 A 
ATOM     61  C   UNL A   1      44.135  32.322  29.115  1.00  0.00     0.029 A 
ATOM     62  N   UNL A   1      43.822  31.152  30.979  1.00  0.00    -0.354 N 
ATOM     63  N   UNL A   1      39.276  31.706  31.432  1.00  0.00    -0.248 NA
ATOM     64  C   UNL A   1      39.280  33.266  29.698  1.00  0.00     0.031 C 
ATOM     65  C   UNL A   1      42.854  32.605  29.639  1.00  0.00     0.029 A 
ATOM     66  C   UNL A   1      42.685  31.920  30.839  1.00  0.00     0.049 A 
ATOM     67  H   UNL A   1      44.088  30.664  31.791  1.00  0.00     0.167 HD
ATOM     68  C   UNL A   1      40.443  32.405  31.479  1.00  0.00     0.074 A 
ATOM     69  C   UNL A   1      40.251  33.526  30.577  1.00  0.00     0.031 C 
ATOM     70  C   UNL A   1      41.574  31.700  31.739  1.00  0.00     0.031 A 
BRANCH  57  71
ATOM     71  C   UNL A   1      45.523  28.839  30.281  1.00  0.00    -0.014 A 
ATOM     72  C   UNL A   1      44.575  28.154  31.051  1.00  0.00     0.010 A 
ATOM     73  C   UNL A   1      46.890  28.521  30.473  1.00  0.00     0.010 A 
ATOM     74  C   UNL A   1      44.986  27.212  32.005  1.00  0.00     0.020 A 
ATOM     75  C   UNL A   1      47.307  27.612  31.444  1.00  0.00     0.020 A 
ATOM     76  C   UNL A   1      46.349  26.956  32.205  1.00  0.00     0.054 A 
BRANCH  76  77
ATOM     77  S   UNL A   1      46.839  25.778  33.490  1.00  0.00     0.124 S 
ATOM     78  O   UNL A   1      45.688  24.882  33.561  1.00  0.00    -0.237 OA
ATOM     79  O   UNL A   1      48.046  25.193  32.924  1.00  0.00    -0.237 OA
ATOM     80  O   UNL A   1      47.031  26.612  34.682  1.00  0.00    -0.744 OA
ENDBRANCH  76  77
ENDBRANCH  57  71
BRANCH  58  81
ATOM     81  C   UNL A   1      36.376  31.929  29.959  1.00  0.00    -0.014 A 
ATOM     82  C   UNL A   1      35.862  31.935  31.309  1.00  0.00     0.010 A 
ATOM     83  C   UNL A   1      35.840  32.951  29.155  1.00  0.00     0.010 A 
ATOM     84  C   UNL A   1      35.015  32.943  31.848  1.00  0.00     0.020 A 
ATOM     85  C   UNL A   1      34.954  33.956  29.680  1.00  0.00     0.020 A 
ATOM     86  C   UNL A   1      34.585  33.977  31.032  1.00  0.00     0.054 A 
BRANCH  86  87
ATOM     87  S   UNL A   1      33.679  35.394  31.778  1.00  0.00     0.124 S 
ATOM     88  O   UNL A   1      34.667  35.984  32.678  1.00  0.00    -0.237 OA
ATOM     89  O   UNL A   1      33.331  36.207  30.614  1.00  0.00    -0.237 OA
ATOM     90  O   UNL A   1      32.538  34.764  32.441  1.00  0.00    -0.744 OA
ENDBRANCH  86  87
ENDBRANCH  58  81
BRANCH  70  91
ATOM     91  C   UNL A   1      41.487  30.590  32.782  1.00  0.00    -0.014 A 
ATOM     92  C   UNL A   1      41.669  30.768  34.174  1.00  0.00     0.010 A 
ATOM     93  C   UNL A   1      41.289  29.272  32.333  1.00  0.00     0.010 A 
ATOM     94  C   UNL A   1      41.748  29.683  35.060  1.00  0.00     0.020 A 
ATOM     95  C   UNL A   1      41.316  28.183  33.218  1.00  0.00     0.020 A 
ATOM     96  C   UNL A   1      41.588  28.391  34.571  1.00  0.00     0.054 A 
BRANCH  96  97
ATOM     97  S   UNL A   1      41.776  26.991  35.712  1.00  0.00     0.124 S 
ATOM     98  O   UNL A   1      41.253  27.539  36.962  1.00  0.00    -0.237 OA
ATOM     99  O   UNL A   1      40.950  25.955  35.098  1.00  0.00    -0.237 OA
ATOM    100  O   UNL A   1      43.214  26.734  35.713  1.00  0.00    -0.744 OA
ENDBRANCH  96  97
ENDBRANCH  70  91
ENDBRANCH  44  45
ENDBRANCH  36  39
ENDBRANCH  34  35
ENDBRANCH  33  34
ENDBRANCH  32  33
ENDBRANCH   1  32
TORSDOF 21
ENDMDL
MODEL 2
REMARK VINA RESULT:     -11.8      3.842      9.004
REMARK SMILES Cc1c(C[NH2+]C2CCCCC2)c(C(=O)NCCCCCCNC(=O)c2ccc(-c3c4nc(c(-c5ccc(S(=O)(=O)[O-])cc5)c5ccc([nH]5)c(-c5ccc(S(=O)(=O)[O-])cc5)c5nc(c(-c6ccc(S(=O)(=O)[O-])cc6)c6ccc3[nH]6)C=C5)C=C4)cc2)c(C)n1Cc1ccccc1
REMARK SMILES IDX 18 1 17 2 16 3 15 4 13 5 14 6 12 8 1 9 2 10 3 11 87 12 85 13
REMARK SMILES IDX 86 14 4 15 5 16 6 19 7 20 11 21 8 22 10 23 9 24 88 25 89 26
REMARK SMILES IDX 90 27 94 28 91 29 93 30 92 31 19 32 20 33 21 34 22 35 23 36
REMARK SMILES IDX 24 38 25 39 26 40 84 41 27 42 83 43 28 44 29 45 30 46 77 47
REMARK SMILES IDX 31 48 82 49 76 50 78 51 32 52 81 53 75 54 74 55 33 57 63 58
REMARK SMILES IDX 44 59 62 60 45 61 48 62 61 63 79 64 46 65 47 66 60 68 80 69
REMARK SMILES IDX 49 70 34 71 35 72 43 73 36 74 42 75 37 76 38 77 39 78 40 79
REMARK SMILES IDX 41 80 64 81 65 82 73 83 66 84 72 85 67 86 68 87 69 88 70 89
REMARK SMILES IDX 71 90 50 91 51 92 59 93 52 94 58 95 53 96 54 97 55 98 56 99
REMARK SMILES IDX 57 100
REMARK H PARENT 15 7 5 17 5 18 22 37 78 56 48 67
REMARK Flexibility Score: inf
ROOT
ATOM      1  C   UNL A   1      35.625  31.361  28.422  1.00  0.00     0.002 C 
ENDROOT
BRANCH   1   2
ATOM      2  C   UNL A   1      34.473  30.748  27.626  1.00  0.00     0.021 C 
BRANCH   2   3
ATOM      3  C   UNL A   1      34.415  29.231  27.528  1.00  0.00     0.116 C 
BRANCH   3   4
ATOM      4  N   UNL A   1      33.188  28.621  27.982  1.00  0.00    -0.352 N 
ATOM      5  C   UNL A   1      32.218  27.938  27.271  1.00  0.00     0.253 C 
ATOM      6  O   UNL A   1      31.228  27.595  27.920  1.00  0.00    -0.269 OA
ATOM      7  H   UNL A   1      33.015  28.704  28.947  1.00  0.00     0.163 HD
BRANCH   5   8
ATOM      8  C   UNL A   1      32.323  27.740  25.809  1.00  0.00     0.069 A 
ATOM      9  C   UNL A   1      33.394  25.980  22.668  1.00  0.00     0.065 C 
ATOM     10  C   UNL A   1      32.806  26.781  23.781  1.00  0.00     0.025 A 
ATOM     11  C   UNL A   1      33.155  26.756  25.136  1.00  0.00     0.040 A 
ATOM     12  N   UNL A   1      31.777  27.697  23.646  1.00  0.00    -0.343 N 
ATOM     13  C   UNL A   1      31.838  28.528  24.758  1.00  0.00     0.028 A 
ATOM     14  C   UNL A   1      31.462  29.971  24.703  1.00  0.00     0.065 C 
BRANCH  11  15
ATOM     15  C   UNL A   1      34.193  25.856  25.770  1.00  0.00     0.300 C 
BRANCH  15  16
ATOM     16  N   UNL A   1      33.653  24.499  25.888  1.00  0.00    -0.340 N 
ATOM     17  H   UNL A   1      32.975  24.355  25.140  1.00  0.00     0.346 HD
ATOM     18  H   UNL A   1      33.230  24.425  26.814  1.00  0.00     0.346 HD
BRANCH  16  19
ATOM     19  C   UNL A   1      34.675  23.451  25.796  1.00  0.00     0.182 C 
ATOM     20  C   UNL A   1      34.422  22.524  24.595  1.00  0.00     0.065 C 
ATOM     21  C   UNL A   1      36.060  24.114  25.674  1.00  0.00     0.065 C 
ATOM     22  C   UNL A   1      35.544  21.500  24.413  1.00  0.00     0.006 C 
ATOM     23  C   UNL A   1      37.175  23.082  25.495  1.00  0.00     0.006 C 
ATOM     24  C   UNL A   1      36.911  22.170  24.302  1.00  0.00     0.000 C 
ENDBRANCH  16  19
ENDBRANCH  15  16
ENDBRANCH  11  15
BRANCH  12  25
ATOM     25  C   UNL A   1      30.922  27.915  22.468  1.00  0.00     0.157 C 
BRANCH  25  26
ATOM     26  C   UNL A   1      29.441  28.092  22.769  1.00  0.00    -0.028 A 
ATOM     27  C   UNL A   1      28.782  29.286  22.430  1.00  0.00     0.005 A 
ATOM     28  C   UNL A   1      28.710  27.133  23.488  1.00  0.00     0.005 A 
ATOM     29  C   UNL A   1      27.445  29.503  22.794  1.00  0.00     0.000 A 
ATOM     30  C   UNL A   1      27.372  27.342  23.841  1.00  0.00     0.000 A 
ATOM     31  C   UNL A   1      26.740  28.528  23.495  1.00  0.00     0.000 A 
ENDBRANCH  25  26
ENDBRANCH  12  25
ENDBRANCH   5   8
ENDBRANCH   3   4
ENDBRANCH   2   3
ENDBRANCH   1   2
BRANCH   1  32
ATOM     32  C   UNL A   1      36.146  32.740  27.995  1.00  0.00     0.002 C 
BRANCH  32  33
ATOM     33  C   UNL A   1      35.346  34.008  28.368  1.00  0.00     0.021 C 
BRANCH  33  34
ATOM     34  C   UNL A   1      34.309  33.967  29.517  1.00  0.00     0.116 C 
BRANCH  34  35
ATOM     35  N   UNL A   1      34.659  34.734  30.686  1.00  0.00    -0.352 N 
ATOM     36  C   UNL A   1      35.568  34.465  31.695  1.00  0.00     0.251 C 
ATOM     37  H   UNL A   1      34.175  35.586  30.783  1.00  0.00     0.163 HD
ATOM     38  O   UNL A   1      35.565  35.265  32.633  1.00  0.00    -0.269 OA
BRANCH  36  39
ATOM     39  C   UNL A   1      36.402  33.197  31.813  1.00  0.00     0.039 A 
ATOM     40  C   UNL A   1      37.674  33.290  31.286  1.00  0.00     0.014 A 
ATOM     41  C   UNL A   1      36.018  31.888  32.174  1.00  0.00     0.014 A 
ATOM     42  C   UNL A   1      38.525  32.150  31.191  1.00  0.00     0.010 A 
ATOM     43  C   UNL A   1      36.887  30.688  31.970  1.00  0.00     0.010 A 
ATOM     44  C   UNL A   1      38.193  30.764  31.445  1.00  0.00    -0.014 A 
BRANCH  44  45
ATOM     45  C   UNL A   1      39.229  29.620  30.782  1.00  0.00     0.031 A 
ATOM     46  C   UNL A   1      40.172  29.373  31.905  1.00  0.00     0.074 A 
ATOM     47  C   UNL A   1      39.697  28.929  29.646  1.00  0.00     0.049 A 
ATOM     48  N   UNL A   1      40.862  30.389  32.320  1.00  0.00    -0.248 NA
ATOM     49  C   UNL A   1      40.080  28.257  32.847  1.00  0.00     0.031 C 
ATOM     50  C   UNL A   1      39.299  29.060  28.233  1.00  0.00     0.029 A 
ATOM     51  N   UNL A   1      40.712  27.906  29.489  1.00  0.00    -0.354 N 
ATOM     52  C   UNL A   1      41.426  30.041  33.513  1.00  0.00     0.074 A 
ATOM     53  C   UNL A   1      40.814  28.757  33.852  1.00  0.00     0.031 C 
ATOM     54  C   UNL A   1      39.890  28.113  27.435  1.00  0.00     0.029 A 
ATOM     55  C   UNL A   1      40.820  27.267  28.189  1.00  0.00     0.049 A 
ATOM     56  H   UNL A   1      41.304  27.654  30.234  1.00  0.00     0.167 HD
ATOM     57  C   UNL A   1      42.692  30.492  33.723  1.00  0.00     0.031 A 
ATOM     58  C   UNL A   1      41.651  26.231  27.728  1.00  0.00     0.031 A 
ATOM     59  C   UNL A   1      43.634  29.468  33.351  1.00  0.00     0.049 A 
ATOM     60  C   UNL A   1      42.892  26.368  28.507  1.00  0.00     0.074 A 
ATOM     61  C   UNL A   1      43.684  28.114  33.619  1.00  0.00     0.029 A 
ATOM     62  N   UNL A   1      44.326  29.673  32.171  1.00  0.00    -0.354 N 
ATOM     63  N   UNL A   1      43.738  27.321  28.259  1.00  0.00    -0.248 NA
ATOM     64  C   UNL A   1      43.337  25.372  29.476  1.00  0.00     0.031 C 
ATOM     65  C   UNL A   1      43.894  27.523  32.353  1.00  0.00     0.029 A 
ATOM     66  C   UNL A   1      44.357  28.489  31.463  1.00  0.00     0.049 A 
ATOM     67  H   UNL A   1      44.730  30.523  31.883  1.00  0.00     0.167 HD
ATOM     68  C   UNL A   1      44.507  27.344  29.381  1.00  0.00     0.074 A 
ATOM     69  C   UNL A   1      44.427  26.000  29.924  1.00  0.00     0.031 C 
ATOM     70  C   UNL A   1      44.603  28.528  30.039  1.00  0.00     0.031 A 
BRANCH  57  71
ATOM     71  C   UNL A   1      42.907  31.956  33.397  1.00  0.00    -0.014 A 
ATOM     72  C   UNL A   1      43.330  32.312  32.110  1.00  0.00     0.010 A 
ATOM     73  C   UNL A   1      42.757  32.989  34.356  1.00  0.00     0.010 A 
ATOM     74  C   UNL A   1      43.625  33.649  31.807  1.00  0.00     0.020 A 
ATOM     75  C   UNL A   1      43.083  34.314  34.071  1.00  0.00     0.020 A 
ATOM     76  C   UNL A   1      43.513  34.639  32.792  1.00  0.00     0.054 A 
BRANCH  76  77
ATOM     77  S   UNL A   1      43.965  36.343  32.376  1.00  0.00     0.124 S 
ATOM     78  O   UNL A   1      45.410  36.353  32.587  1.00  0.00    -0.237 OA
ATOM     79  O   UNL A   1      43.541  36.440  30.986  1.00  0.00    -0.237 OA
ATOM     80  O   UNL A   1      43.207  37.155  33.335  1.00  0.00    -0.744 OA
ENDBRANCH  76  77
ENDBRANCH  57  71
BRANCH  58  81
ATOM     81  C   UNL A   1      41.946  25.167  26.593  1.00  0.00    -0.014 A 
ATOM     82  C   UNL A   1      42.986  25.417  25.623  1.00  0.00     0.010 A 
ATOM     83  C   UNL A   1      41.603  23.807  26.704  1.00  0.00     0.010 A 
ATOM     84  C   UNL A   1      43.716  24.404  24.939  1.00  0.00     0.020 A 
ATOM     85  C   UNL A   1      42.310  22.776  25.990  1.00  0.00     0.020 A 
ATOM     86  C   UNL A   1      43.393  23.074  25.152  1.00  0.00     0.054 A 
BRANCH  86  87
ATOM     87  S   UNL A   1      44.474  21.763  24.447  1.00  0.00     0.124 S 
ATOM     88  O   UNL A   1      45.740  21.963  25.147  1.00  0.00    -0.237 OA
ATOM     89  O   UNL A   1      43.760  20.534  24.788  1.00  0.00    -0.237 OA
ATOM     90  O   UNL A   1      44.504  22.070  23.017  1.00  0.00    -0.744 OA
ENDBRANCH  86  87
ENDBRANCH  58  81
BRANCH  70  91
ATOM     91  C   UNL A   1      44.720  29.794  29.196  1.00  0.00    -0.014 A 
ATOM     92  C   UNL A   1      43.628  30.583  28.761  1.00  0.00     0.010 A 
ATOM     93  C   UNL A   1      45.995  30.173  28.742  1.00  0.00     0.010 A 
ATOM     94  C   UNL A   1      43.787  31.634  27.845  1.00  0.00     0.020 A 
ATOM     95  C   UNL A   1      46.171  31.255  27.865  1.00  0.00     0.020 A 
ATOM     96  C   UNL A   1      45.061  31.953  27.388  1.00  0.00     0.054 A 
BRANCH  96  97
ATOM     97  S   UNL A   1      45.244  33.259  26.140  1.00  0.00     0.124 S 
ATOM     98  O   UNL A   1      46.696  33.337  25.984  1.00  0.00    -0.237 OA
ATOM     99  O   UNL A   1      44.528  32.716  24.989  1.00  0.00    -0.237 OA
ATOM    100  O   UNL A   1      44.636  34.429  26.769  1.00  0.00    -0.744 OA
ENDBRANCH  96  97
ENDBRANCH  70  91
ENDBRANCH  44  45
ENDBRANCH  36  39
ENDBRANCH  34  35
ENDBRANCH  33  34
ENDBRANCH  32  33
ENDBRANCH   1  32
TORSDOF 21
ENDMDL
MODEL 3
REMARK VINA RESULT:     -11.7      1.752      2.716
REMARK SMILES Cc1c(C[NH2+]C2CCCCC2)c(C(=O)NCCCCCCNC(=O)c2ccc(-c3c4nc(c(-c5ccc(S(=O)(=O)[O-])cc5)c5ccc([nH]5)c(-c5ccc(S(=O)(=O)[O-])cc5)c5nc(c(-c6ccc(S(=O)(=O)[O-])cc6)c6ccc3[nH]6)C=C5)C=C4)cc2)c(C)n1Cc1ccccc1
REMARK SMILES IDX 18 1 17 2 16 3 15 4 13 5 14 6 12 8 1 9 2 10 3 11 87 12 85 13
REMARK SMILES IDX 86 14 4 15 5 16 6 19 7 20 11 21 8 22 10 23 9 24 88 25 89 26
REMARK SMILES IDX 90 27 94 28 91 29 93 30 92 31 19 32 20 33 21 34 22 35 23 36
REMARK SMILES IDX 24 38 25 39 26 40 84 41 27 42 83 43 28 44 29 45 30 46 77 47
REMARK SMILES IDX 31 48 82 49 76 50 78 51 32 52 81 53 75 54 74 55 33 57 63 58
REMARK SMILES IDX 44 59 62 60 45 61 48 62 61 63 79 64 46 65 47 66 60 68 80 69
REMARK SMILES IDX 49 70 34 71 35 72 43 73 36 74 42 75 37 76 38 77 39 78 40 79
REMARK SMILES IDX 41 80 64 81 65 82 73 83 66 84 72 85 67 86 68 87 69 88 70 89
REMARK SMILES IDX 71 90 50 91 51 92 59 93 52 94 58 95 53 96 54 97 55 98 56 99
REMARK SMILES IDX 57 100
REMARK H PARENT 15 7 5 17 5 18 22 37 78 56 48 67
REMARK Flexibility Score: inf
ROOT
ATOM      1  C   UNL A   1      35.060  23.230  26.974  1.00  0.00     0.002 C 
ENDROOT
BRANCH   1   2
ATOM      2  C   UNL A   1      33.850  22.654  27.707  1.00  0.00     0.021 C 
BRANCH   2   3
ATOM      3  C   UNL A   1      32.723  22.078  26.861  1.00  0.00     0.116 C 
BRANCH   3   4
ATOM      4  N   UNL A   1      31.409  22.615  27.120  1.00  0.00    -0.352 N 
ATOM      5  C   UNL A   1      30.721  23.630  26.481  1.00  0.00     0.253 C 
ATOM      6  O   UNL A   1      29.634  23.929  26.979  1.00  0.00    -0.269 OA
ATOM      7  H   UNL A   1      30.927  22.192  27.867  1.00  0.00     0.163 HD
BRANCH   5   8
ATOM      8  C   UNL A   1      31.313  24.375  25.349  1.00  0.00     0.069 A 
ATOM      9  C   UNL A   1      32.300  24.930  21.768  1.00  0.00     0.065 C 
ATOM     10  C   UNL A   1      31.926  24.943  23.212  1.00  0.00     0.025 A 
ATOM     11  C   UNL A   1      31.535  23.860  24.009  1.00  0.00     0.040 A 
ATOM     12  N   UNL A   1      31.893  26.069  24.017  1.00  0.00    -0.343 N 
ATOM     13  C   UNL A   1      31.956  25.619  25.330  1.00  0.00     0.028 A 
ATOM     14  C   UNL A   1      32.636  26.392  26.410  1.00  0.00     0.065 C 
BRANCH  11  15
ATOM     15  C   UNL A   1      31.363  22.430  23.543  1.00  0.00     0.300 C 
BRANCH  15  16
ATOM     16  N   UNL A   1      32.649  21.733  23.631  1.00  0.00    -0.340 N 
ATOM     17  H   UNL A   1      33.162  22.102  24.431  1.00  0.00     0.346 HD
ATOM     18  H   UNL A   1      33.137  21.893  22.750  1.00  0.00     0.346 HD
BRANCH  16  19
ATOM     19  C   UNL A   1      32.518  20.281  23.794  1.00  0.00     0.182 C 
ATOM     20  C   UNL A   1      32.263  19.584  22.447  1.00  0.00     0.065 C 
ATOM     21  C   UNL A   1      33.805  19.734  24.440  1.00  0.00     0.065 C 
ATOM     22  C   UNL A   1      32.245  18.060  22.582  1.00  0.00     0.006 C 
ATOM     23  C   UNL A   1      33.777  18.210  24.574  1.00  0.00     0.006 C 
ATOM     24  C   UNL A   1      33.522  17.534  23.231  1.00  0.00     0.000 C 
ENDBRANCH  16  19
ENDBRANCH  15  16
ENDBRANCH  11  15
BRANCH  12  25
ATOM     25  C   UNL A   1      31.999  27.474  23.593  1.00  0.00     0.157 C 
BRANCH  25  26
ATOM     26  C   UNL A   1      30.698  28.105  23.120  1.00  0.00    -0.028 A 
ATOM     27  C   UNL A   1      30.713  29.297  22.376  1.00  0.00     0.005 A 
ATOM     28  C   UNL A   1      29.445  27.596  23.497  1.00  0.00     0.005 A 
ATOM     29  C   UNL A   1      29.520  29.944  22.022  1.00  0.00     0.000 A 
ATOM     30  C   UNL A   1      28.254  28.233  23.134  1.00  0.00     0.000 A 
ATOM     31  C   UNL A   1      28.292  29.410  22.398  1.00  0.00     0.000 A 
ENDBRANCH  25  26
ENDBRANCH  12  25
ENDBRANCH   5   8
ENDBRANCH   3   4
ENDBRANCH   2   3
ENDBRANCH   1   2
BRANCH   1  32
ATOM     32  C   UNL A   1      34.920  23.538  25.476  1.00  0.00     0.002 C 
BRANCH  32  33
ATOM     33  C   UNL A   1      35.933  22.940  24.475  1.00  0.00     0.021 C 
BRANCH  33  34
ATOM     34  C   UNL A   1      37.445  23.241  24.620  1.00  0.00     0.116 C 
BRANCH  34  35
ATOM     35  N   UNL A   1      38.217  22.208  25.263  1.00  0.00    -0.352 N 
ATOM     36  C   UNL A   1      39.206  22.297  26.227  1.00  0.00     0.251 C 
ATOM     37  H   UNL A   1      38.006  21.291  24.970  1.00  0.00     0.163 HD
ATOM     38  O   UNL A   1      39.770  21.235  26.503  1.00  0.00    -0.269 OA
BRANCH  36  39
ATOM     39  C   UNL A   1      39.756  23.592  26.807  1.00  0.00     0.039 A 
ATOM     40  C   UNL A   1      38.980  24.158  27.798  1.00  0.00     0.014 A 
ATOM     41  C   UNL A   1      40.807  24.417  26.352  1.00  0.00     0.014 A 
ATOM     42  C   UNL A   1      39.283  25.441  28.340  1.00  0.00     0.010 A 
ATOM     43  C   UNL A   1      41.046  25.804  26.860  1.00  0.00     0.010 A 
ATOM     44  C   UNL A   1      40.272  26.393  27.880  1.00  0.00    -0.014 A 
BRANCH  44  45
ATOM     45  C   UNL A   1      40.063  27.982  28.385  1.00  0.00     0.031 A 
ATOM     46  C   UNL A   1      41.399  28.571  28.101  1.00  0.00     0.074 A 
ATOM     47  C   UNL A   1      39.291  28.939  29.073  1.00  0.00     0.049 A 
ATOM     48  N   UNL A   1      42.409  28.051  28.725  1.00  0.00    -0.248 NA
ATOM     49  C   UNL A   1      41.737  29.345  26.906  1.00  0.00     0.031 C 
ATOM     50  C   UNL A   1      38.028  28.773  29.815  1.00  0.00     0.029 A 
ATOM     51  N   UNL A   1      39.486  30.359  29.294  1.00  0.00    -0.354 N 
ATOM     52  C   UNL A   1      43.544  28.511  28.121  1.00  0.00     0.074 A 
ATOM     53  C   UNL A   1      43.072  29.212  26.928  1.00  0.00     0.031 C 
ATOM     54  C   UNL A   1      37.510  29.973  30.236  1.00  0.00     0.029 A 
ATOM     55  C   UNL A   1      38.390  31.096  29.899  1.00  0.00     0.049 A 
ATOM     56  H   UNL A   1      40.326  30.804  29.044  1.00  0.00     0.167 HD
ATOM     57  C   UNL A   1      44.583  28.797  28.953  1.00  0.00     0.031 A 
ATOM     58  C   UNL A   1      38.243  32.461  30.202  1.00  0.00     0.031 A 
ATOM     59  C   UNL A   1      44.572  30.201  29.270  1.00  0.00     0.049 A 
ATOM     60  C   UNL A   1      39.605  32.930  30.501  1.00  0.00     0.074 A 
ATOM     61  C   UNL A   1      44.419  31.327  28.483  1.00  0.00     0.029 A 
ATOM     62  N   UNL A   1      44.153  30.538  30.544  1.00  0.00    -0.354 N 
ATOM     63  N   UNL A   1      40.192  32.621  31.617  1.00  0.00    -0.248 NA
ATOM     64  C   UNL A   1      40.316  33.891  29.665  1.00  0.00     0.031 C 
ATOM     65  C   UNL A   1      43.423  32.076  29.150  1.00  0.00     0.029 A 
ATOM     66  C   UNL A   1      43.303  31.620  30.460  1.00  0.00     0.049 A 
ATOM     67  H   UNL A   1      44.417  30.080  31.375  1.00  0.00     0.167 HD
ATOM     68  C   UNL A   1      41.500  32.891  31.358  1.00  0.00     0.074 A 
ATOM     69  C   UNL A   1      41.479  33.907  30.321  1.00  0.00     0.031 C 
ATOM     70  C   UNL A   1      42.388  31.882  31.549  1.00  0.00     0.031 A 
BRANCH  57  71
ATOM     71  C   UNL A   1      44.880  27.729  29.986  1.00  0.00    -0.014 A 
ATOM     72  C   UNL A   1      43.884  27.373  30.904  1.00  0.00     0.010 A 
ATOM     73  C   UNL A   1      46.148  27.108  30.109  1.00  0.00     0.010 A 
ATOM     74  C   UNL A   1      44.160  26.456  31.928  1.00  0.00     0.020 A 
ATOM     75  C   UNL A   1      46.440  26.223  31.146  1.00  0.00     0.020 A 
ATOM     76  C   UNL A   1      45.439  25.897  32.051  1.00  0.00     0.054 A 
BRANCH  76  77
ATOM     77  S   UNL A   1      45.771  24.766  33.426  1.00  0.00     0.124 S 
ATOM     78  O   UNL A   1      47.228  24.670  33.419  1.00  0.00    -0.237 OA
ATOM     79  O   UNL A   1      45.204  25.486  34.558  1.00  0.00    -0.237 OA
ATOM     80  O   UNL A   1      45.081  23.529  33.043  1.00  0.00    -0.744 OA
ENDBRANCH  76  77
ENDBRANCH  57  71
BRANCH  58  81
ATOM     81  C   UNL A   1      37.262  33.635  30.609  1.00  0.00    -0.014 A 
ATOM     82  C   UNL A   1      36.020  33.819  29.894  1.00  0.00     0.010 A 
ATOM     83  C   UNL A   1      37.266  34.236  31.881  1.00  0.00     0.010 A 
ATOM     84  C   UNL A   1      34.849  34.411  30.444  1.00  0.00     0.020 A 
ATOM     85  C   UNL A   1      36.097  34.870  32.434  1.00  0.00     0.020 A 
ATOM     86  C   UNL A   1      34.883  34.910  31.736  1.00  0.00     0.054 A 
BRANCH  86  87
ATOM     87  S   UNL A   1      33.318  35.469  32.525  1.00  0.00     0.124 S 
ATOM     88  O   UNL A   1      32.623  36.153  31.438  1.00  0.00    -0.237 OA
ATOM     89  O   UNL A   1      32.709  34.215  32.964  1.00  0.00    -0.237 OA
ATOM     90  O   UNL A   1      33.770  36.337  33.612  1.00  0.00    -0.744 OA
ENDBRANCH  86  87
ENDBRANCH  58  81
BRANCH  70  91
ATOM     91  C   UNL A   1      42.181  30.985  32.766  1.00  0.00    -0.014 A 
ATOM     92  C   UNL A   1      42.634  31.276  34.075  1.00  0.00     0.010 A 
ATOM     93  C   UNL A   1      41.566  29.736  32.572  1.00  0.00     0.010 A 
ATOM     94  C   UNL A   1      42.566  30.334  35.113  1.00  0.00     0.020 A 
ATOM     95  C   UNL A   1      41.446  28.805  33.616  1.00  0.00     0.020 A 
ATOM     96  C   UNL A   1      41.985  29.093  34.870  1.00  0.00     0.054 A 
BRANCH  96  97
ATOM     97  S   UNL A   1      41.978  27.853  36.197  1.00  0.00     0.124 S 
ATOM     98  O   UNL A   1      42.120  26.603  35.452  1.00  0.00    -0.237 OA
ATOM     99  O   UNL A   1      43.137  28.228  37.002  1.00  0.00    -0.237 OA
ATOM    100  O   UNL A   1      40.678  28.037  36.837  1.00  0.00    -0.744 OA
ENDBRANCH  96  97
ENDBRANCH  70  91
ENDBRANCH  44  45
ENDBRANCH  36  39
ENDBRANCH  34  35
ENDBRANCH  33  34
ENDBRANCH  32  33
ENDBRANCH   1  32
TORSDOF 21
ENDMDL
