MODEL 1
REMARK VINA RESULT:     -10.3      0.000      0.000
REMARK SMILES C[C@H]1[C@H](C(=O)NCCCCCCNC(=O)c2ccc(-c3c4nc(c(-c5ccc(S(=O)(=O)[O-])cc5)c5ccc([nH]5)c(-c5ccc(S(=O)(=O)[O-])cc5)c5nc(c(-c6ccc(S(=O)(=O)[O-])cc6)c6ccc3[nH]6)C=C5)C=C4)cc2)CCN1S(=O)(=O)C(F)(F)F
REMARK SMILES IDX 10 1 9 2 8 3 7 4 6 5 4 6 5 7 3 9 1 10 2 11 78 12 76 13 77 14
REMARK SMILES IDX 79 15 80 16 81 17 82 18 83 19 84 20 85 21 11 22 12 23 13 24
REMARK SMILES IDX 14 25 15 27 16 28 17 29 75 30 18 31 74 32 19 33 20 34 21 35
REMARK SMILES IDX 68 36 22 37 73 38 67 39 69 40 23 41 72 42 66 43 65 44 24 46
REMARK SMILES IDX 54 47 35 48 53 49 36 50 39 51 52 52 70 53 37 54 38 55 51 57
REMARK SMILES IDX 71 58 40 59 25 60 26 61 34 62 27 63 33 64 28 65 29 66 30 67
REMARK SMILES IDX 31 68 32 69 55 70 56 71 64 72 57 73 63 74 58 75 59 76 60 77
REMARK SMILES IDX 61 78 62 79 41 80 42 81 50 82 43 83 49 84 44 85 45 86 46 87
REMARK SMILES IDX 47 88 48 89
REMARK H PARENT 6 8 13 26 69 45 39 56
REMARK Flexibility Score: inf
ROOT
ATOM      1  C   UNL A   1      31.872  28.315  25.040  1.00  0.00     0.002 C 
ENDROOT
BRANCH   1   2
ATOM      2  C   UNL A   1      31.289  27.666  23.778  1.00  0.00     0.002 C 
BRANCH   2   3
ATOM      3  C   UNL A   1      29.867  27.120  23.928  1.00  0.00     0.021 C 
BRANCH   3   4
ATOM      4  C   UNL A   1      29.800  25.601  24.077  1.00  0.00     0.116 C 
BRANCH   4   5
ATOM      5  N   UNL A   1      30.028  25.168  25.441  1.00  0.00    -0.356 N 
ATOM      6  C   UNL A   1      30.826  24.181  25.932  1.00  0.00     0.224 C 
ATOM      7  O   UNL A   1      30.853  24.030  27.157  1.00  0.00    -0.275 OA
ATOM      8  H   UNL A   1      29.525  25.669  26.123  1.00  0.00     0.163 HD
BRANCH   6   9
ATOM      9  C   UNL A   1      31.658  23.263  25.040  1.00  0.00     0.098 C 
ATOM     10  C   UNL A   1      33.365  24.437  23.602  1.00  0.00     0.026 C 
ATOM     11  C   UNL A   1      33.124  23.699  24.920  1.00  0.00     0.082 C 
ATOM     12  N   UNL A   1      33.940  22.450  24.891  1.00  0.00    -0.190 NA
ATOM     13  C   UNL A   1      31.692  21.801  25.455  1.00  0.00     0.032 C 
ATOM     14  C   UNL A   1      33.007  21.286  24.889  1.00  0.00     0.104 C 
BRANCH  12  15
ATOM     15  S   UNL A   1      35.295  22.274  25.933  1.00  0.00     0.314 S 
ATOM     16  O   UNL A   1      35.809  23.620  26.139  1.00  0.00    -0.203 OA
ATOM     17  O   UNL A   1      34.792  21.542  27.081  1.00  0.00    -0.203 OA
BRANCH  15  18
ATOM     18  C   UNL A   1      36.578  21.252  25.017  1.00  0.00     0.511 C 
ATOM     19  F   UNL A   1      36.200  19.954  24.865  1.00  0.00    -0.155 F 
ATOM     20  F   UNL A   1      36.823  21.736  23.763  1.00  0.00    -0.155 F 
ATOM     21  F   UNL A   1      37.779  21.255  25.663  1.00  0.00    -0.155 F 
ENDBRANCH  15  18
ENDBRANCH  12  15
ENDBRANCH   6   9
ENDBRANCH   4   5
ENDBRANCH   3   4
ENDBRANCH   2   3
ENDBRANCH   1   2
BRANCH   1  22
ATOM     22  C   UNL A   1      32.787  27.422  25.885  1.00  0.00     0.021 C 
BRANCH  22  23
ATOM     23  C   UNL A   1      34.010  28.122  26.472  1.00  0.00     0.116 C 
BRANCH  23  24
ATOM     24  N   UNL A   1      33.711  29.485  26.883  1.00  0.00    -0.352 N 
ATOM     25  C   UNL A   1      34.420  30.339  27.690  1.00  0.00     0.251 C 
ATOM     26  H   UNL A   1      32.870  29.853  26.526  1.00  0.00     0.163 HD
ATOM     27  O   UNL A   1      33.890  31.370  28.096  1.00  0.00    -0.269 OA
BRANCH  25  28
ATOM     28  C   UNL A   1      35.811  30.021  28.079  1.00  0.00     0.039 A 
ATOM     29  C   UNL A   1      36.071  29.626  29.393  1.00  0.00     0.014 A 
ATOM     30  C   UNL A   1      36.862  30.149  27.165  1.00  0.00     0.014 A 
ATOM     31  C   UNL A   1      37.376  29.305  29.778  1.00  0.00     0.010 A 
ATOM     32  C   UNL A   1      38.151  29.767  27.531  1.00  0.00     0.010 A 
ATOM     33  C   UNL A   1      38.422  29.345  28.841  1.00  0.00    -0.014 A 
BRANCH  33  34
ATOM     34  C   UNL A   1      39.803  28.945  29.215  1.00  0.00     0.031 A 
ATOM     35  C   UNL A   1      40.715  29.917  29.910  1.00  0.00     0.074 A 
ATOM     36  C   UNL A   1      40.255  27.722  28.871  1.00  0.00     0.049 A 
ATOM     37  N   UNL A   1      41.966  29.767  30.265  1.00  0.00    -0.248 NA
ATOM     38  C   UNL A   1      40.157  31.242  30.231  1.00  0.00     0.031 C 
ATOM     39  C   UNL A   1      39.481  26.702  28.162  1.00  0.00     0.029 A 
ATOM     40  N   UNL A   1      41.480  27.133  29.066  1.00  0.00    -0.354 N 
ATOM     41  C   UNL A   1      42.348  30.975  30.835  1.00  0.00     0.074 A 
ATOM     42  C   UNL A   1      41.211  31.865  30.736  1.00  0.00     0.031 C 
ATOM     43  C   UNL A   1      40.240  25.604  28.004  1.00  0.00     0.029 A 
ATOM     44  C   UNL A   1      41.565  25.857  28.563  1.00  0.00     0.049 A 
ATOM     45  H   UNL A   1      42.226  27.583  29.525  1.00  0.00     0.167 HD
ATOM     46  C   UNL A   1      43.532  31.311  31.403  1.00  0.00     0.031 A 
ATOM     47  C   UNL A   1      42.594  24.988  28.545  1.00  0.00     0.031 A 
ATOM     48  C   UNL A   1      44.658  30.421  31.504  1.00  0.00     0.049 A 
ATOM     49  C   UNL A   1      43.903  25.388  29.168  1.00  0.00     0.074 A 
ATOM     50  C   UNL A   1      45.882  30.649  32.109  1.00  0.00     0.029 A 
ATOM     51  N   UNL A   1      44.703  29.136  30.985  1.00  0.00    -0.354 N 
ATOM     52  N   UNL A   1      44.223  26.514  29.759  1.00  0.00    -0.248 NA
ATOM     53  C   UNL A   1      44.985  24.394  29.132  1.00  0.00     0.031 C 
ATOM     54  C   UNL A   1      46.684  29.519  31.913  1.00  0.00     0.029 A 
ATOM     55  C   UNL A   1      45.940  28.567  31.234  1.00  0.00     0.049 A 
ATOM     56  H   UNL A   1      43.963  28.694  30.509  1.00  0.00     0.167 HD
ATOM     57  C   UNL A   1      45.537  26.356  30.186  1.00  0.00     0.074 A 
ATOM     58  C   UNL A   1      45.945  25.020  29.799  1.00  0.00     0.031 C 
ATOM     59  C   UNL A   1      46.334  27.238  30.838  1.00  0.00     0.031 A 
BRANCH  46  60
ATOM     60  C   UNL A   1      43.668  32.707  31.953  1.00  0.00    -0.014 A 
ATOM     61  C   UNL A   1      43.972  33.794  31.112  1.00  0.00     0.010 A 
ATOM     62  C   UNL A   1      43.460  32.941  33.324  1.00  0.00     0.010 A 
ATOM     63  C   UNL A   1      44.110  35.079  31.639  1.00  0.00     0.020 A 
ATOM     64  C   UNL A   1      43.570  34.233  33.850  1.00  0.00     0.020 A 
ATOM     65  C   UNL A   1      43.914  35.291  33.006  1.00  0.00     0.054 A 
BRANCH  65  66
ATOM     66  S   UNL A   1      44.090  36.973  33.662  1.00  0.00     0.124 S 
ATOM     67  O   UNL A   1      45.051  36.775  34.744  1.00  0.00    -0.237 OA
ATOM     68  O   UNL A   1      44.590  37.717  32.507  1.00  0.00    -0.237 OA
ATOM     69  O   UNL A   1      42.738  37.324  34.087  1.00  0.00    -0.744 OA
ENDBRANCH  65  66
ENDBRANCH  46  60
BRANCH  47  70
ATOM     70  C   UNL A   1      42.419  23.645  27.926  1.00  0.00    -0.014 A 
ATOM     71  C   UNL A   1      42.732  23.441  26.570  1.00  0.00     0.010 A 
ATOM     72  C   UNL A   1      41.957  22.561  28.693  1.00  0.00     0.010 A 
ATOM     73  C   UNL A   1      42.573  22.180  25.989  1.00  0.00     0.020 A 
ATOM     74  C   UNL A   1      41.823  21.291  28.122  1.00  0.00     0.020 A 
ATOM     75  C   UNL A   1      42.123  21.112  26.770  1.00  0.00     0.054 A 
BRANCH  75  76
ATOM     76  S   UNL A   1      41.979  19.470  26.009  1.00  0.00     0.124 S 
ATOM     77  O   UNL A   1      40.546  19.378  25.754  1.00  0.00    -0.237 OA
ATOM     78  O   UNL A   1      42.826  19.597  24.826  1.00  0.00    -0.237 OA
ATOM     79  O   UNL A   1      42.493  18.571  27.039  1.00  0.00    -0.744 OA
ENDBRANCH  75  76
ENDBRANCH  47  70
BRANCH  59  80
ATOM     80  C   UNL A   1      47.720  26.779  31.203  1.00  0.00    -0.014 A 
ATOM     81  C   UNL A   1      47.972  26.115  32.417  1.00  0.00     0.010 A 
ATOM     82  C   UNL A   1      48.777  26.967  30.293  1.00  0.00     0.010 A 
ATOM     83  C   UNL A   1      49.261  25.674  32.728  1.00  0.00     0.020 A 
ATOM     84  C   UNL A   1      50.062  26.504  30.588  1.00  0.00     0.020 A 
ATOM     85  C   UNL A   1      50.298  25.872  31.810  1.00  0.00     0.054 A 
BRANCH  85  86
ATOM     86  S   UNL A   1      51.953  25.250  32.215  1.00  0.00     0.124 S 
ATOM     87  O   UNL A   1      52.743  25.731  31.086  1.00  0.00    -0.237 OA
ATOM     88  O   UNL A   1      52.232  25.894  33.497  1.00  0.00    -0.237 OA
ATOM     89  O   UNL A   1      51.773  23.801  32.279  1.00  0.00    -0.744 OA
ENDBRANCH  85  86
ENDBRANCH  59  80
ENDBRANCH  33  34
ENDBRANCH  25  28
ENDBRANCH  23  24
ENDBRANCH  22  23
ENDBRANCH   1  22
TORSDOF 18
ENDMDL
MODEL 2
REMARK VINA RESULT:     -10.0      3.334      9.312
REMARK SMILES C[C@H]1[C@H](C(=O)NCCCCCCNC(=O)c2ccc(-c3c4nc(c(-c5ccc(S(=O)(=O)[O-])cc5)c5ccc([nH]5)c(-c5ccc(S(=O)(=O)[O-])cc5)c5nc(c(-c6ccc(S(=O)(=O)[O-])cc6)c6ccc3[nH]6)C=C5)C=C4)cc2)CCN1S(=O)(=O)C(F)(F)F
REMARK SMILES IDX 10 1 9 2 8 3 7 4 6 5 4 6 5 7 3 9 1 10 2 11 78 12 76 13 77 14
REMARK SMILES IDX 79 15 80 16 81 17 82 18 83 19 84 20 85 21 11 22 12 23 13 24
REMARK SMILES IDX 14 25 15 27 16 28 17 29 75 30 18 31 74 32 19 33 20 34 21 35
REMARK SMILES IDX 68 36 22 37 73 38 67 39 69 40 23 41 72 42 66 43 65 44 24 46
REMARK SMILES IDX 54 47 35 48 53 49 36 50 39 51 52 52 70 53 37 54 38 55 51 57
REMARK SMILES IDX 71 58 40 59 25 60 26 61 34 62 27 63 33 64 28 65 29 66 30 67
REMARK SMILES IDX 31 68 32 69 55 70 56 71 64 72 57 73 63 74 58 75 59 76 60 77
REMARK SMILES IDX 61 78 62 79 41 80 42 81 50 82 43 83 49 84 44 85 45 86 46 87
REMARK SMILES IDX 47 88 48 89
REMARK H PARENT 6 8 13 26 69 45 39 56
REMARK Flexibility Score: inf
ROOT
ATOM      1  C   UNL A   1      35.119  21.957  24.723  1.00  0.00     0.002 C 
ENDROOT
BRANCH   1   2
ATOM      2  C   UNL A   1      33.596  21.892  24.555  1.00  0.00     0.002 C 
BRANCH   2   3
ATOM      3  C   UNL A   1      32.813  21.606  25.839  1.00  0.00     0.021 C 
BRANCH   3   4
ATOM      4  C   UNL A   1      33.080  22.606  26.962  1.00  0.00     0.116 C 
BRANCH   4   5
ATOM      5  N   UNL A   1      32.010  23.573  27.108  1.00  0.00    -0.356 N 
ATOM      6  C   UNL A   1      31.719  24.685  26.379  1.00  0.00     0.224 C 
ATOM      7  O   UNL A   1      30.722  25.334  26.710  1.00  0.00    -0.275 OA
ATOM      8  H   UNL A   1      31.394  23.397  27.855  1.00  0.00     0.163 HD
BRANCH   6   9
ATOM      9  C   UNL A   1      32.572  25.157  25.205  1.00  0.00     0.098 C 
ATOM     10  C   UNL A   1      31.610  24.663  22.926  1.00  0.00     0.026 C 
ATOM     11  C   UNL A   1      31.744  25.707  24.037  1.00  0.00     0.082 C 
ATOM     12  N   UNL A   1      32.508  26.861  23.479  1.00  0.00    -0.190 NA
ATOM     13  C   UNL A   1      33.598  26.230  25.529  1.00  0.00     0.032 C 
ATOM     14  C   UNL A   1      33.805  26.955  24.208  1.00  0.00     0.104 C 
BRANCH  12  15
ATOM     15  S   UNL A   1      31.730  28.370  23.214  1.00  0.00     0.314 S 
ATOM     16  O   UNL A   1      32.646  29.145  22.390  1.00  0.00    -0.203 OA
ATOM     17  O   UNL A   1      30.428  28.030  22.668  1.00  0.00    -0.203 OA
BRANCH  15  18
ATOM     18  C   UNL A   1      31.541  29.205  24.886  1.00  0.00     0.511 C 
ATOM     19  F   UNL A   1      30.638  30.223  24.863  1.00  0.00    -0.155 F 
ATOM     20  F   UNL A   1      31.123  28.335  25.852  1.00  0.00    -0.155 F 
ATOM     21  F   UNL A   1      32.724  29.718  25.329  1.00  0.00    -0.155 F 
ENDBRANCH  15  18
ENDBRANCH  12  15
ENDBRANCH   6   9
ENDBRANCH   4   5
ENDBRANCH   3   4
ENDBRANCH   2   3
ENDBRANCH   1   2
BRANCH   1  22
ATOM     22  C   UNL A   1      35.746  23.347  24.568  1.00  0.00     0.021 C 
BRANCH  22  23
ATOM     23  C   UNL A   1      36.687  23.761  25.697  1.00  0.00     0.116 C 
BRANCH  23  24
ATOM     24  N   UNL A   1      37.770  22.807  25.879  1.00  0.00    -0.352 N 
ATOM     25  C   UNL A   1      39.054  23.004  26.323  1.00  0.00     0.251 C 
ATOM     26  H   UNL A   1      37.548  21.876  25.648  1.00  0.00     0.163 HD
ATOM     27  O   UNL A   1      39.883  22.107  26.194  1.00  0.00    -0.269 OA
BRANCH  25  28
ATOM     28  C   UNL A   1      39.443  24.288  26.945  1.00  0.00     0.039 A 
ATOM     29  C   UNL A   1      39.022  24.561  28.249  1.00  0.00     0.014 A 
ATOM     30  C   UNL A   1      40.185  25.236  26.236  1.00  0.00     0.014 A 
ATOM     31  C   UNL A   1      39.392  25.761  28.862  1.00  0.00     0.010 A 
ATOM     32  C   UNL A   1      40.608  26.403  26.869  1.00  0.00     0.010 A 
ATOM     33  C   UNL A   1      40.213  26.679  28.187  1.00  0.00    -0.014 A 
BRANCH  33  34
ATOM     34  C   UNL A   1      40.670  27.930  28.845  1.00  0.00     0.031 A 
ATOM     35  C   UNL A   1      42.049  28.017  29.439  1.00  0.00     0.074 A 
ATOM     36  C   UNL A   1      39.818  28.968  28.962  1.00  0.00     0.049 A 
ATOM     37  N   UNL A   1      42.604  29.003  30.097  1.00  0.00    -0.248 NA
ATOM     38  C   UNL A   1      42.913  26.833  29.292  1.00  0.00     0.031 C 
ATOM     39  C   UNL A   1      38.442  28.994  28.461  1.00  0.00     0.029 A 
ATOM     40  N   UNL A   1      39.982  30.199  29.545  1.00  0.00    -0.354 N 
ATOM     41  C   UNL A   1      43.870  28.557  30.456  1.00  0.00     0.074 A 
ATOM     42  C   UNL A   1      43.985  27.194  29.983  1.00  0.00     0.031 C 
ATOM     43  C   UNL A   1      37.897  30.191  28.737  1.00  0.00     0.029 A 
ATOM     44  C   UNL A   1      38.867  31.000  29.468  1.00  0.00     0.049 A 
ATOM     45  H   UNL A   1      40.820  30.483  29.978  1.00  0.00     0.167 HD
ATOM     46  C   UNL A   1      44.854  29.224  31.107  1.00  0.00     0.031 A 
ATOM     47  C   UNL A   1      38.645  32.243  29.938  1.00  0.00     0.031 A 
ATOM     48  C   UNL A   1      44.737  30.580  31.571  1.00  0.00     0.049 A 
ATOM     49  C   UNL A   1      39.748  32.958  30.670  1.00  0.00     0.074 A 
ATOM     50  C   UNL A   1      45.696  31.363  32.192  1.00  0.00     0.029 A 
ATOM     51  N   UNL A   1      43.593  31.358  31.469  1.00  0.00    -0.354 N 
ATOM     52  N   UNL A   1      40.960  32.541  30.942  1.00  0.00    -0.248 NA
ATOM     53  C   UNL A   1      39.453  34.316  31.146  1.00  0.00     0.031 C 
ATOM     54  C   UNL A   1      45.115  32.595  32.511  1.00  0.00     0.029 A 
ATOM     55  C   UNL A   1      43.813  32.601  32.038  1.00  0.00     0.049 A 
ATOM     56  H   UNL A   1      42.749  31.067  31.055  1.00  0.00     0.167 HD
ATOM     57  C   UNL A   1      41.583  33.595  31.603  1.00  0.00     0.074 A 
ATOM     58  C   UNL A   1      40.617  34.673  31.673  1.00  0.00     0.031 C 
ATOM     59  C   UNL A   1      42.840  33.663  32.106  1.00  0.00     0.031 A 
BRANCH  46  60
ATOM     60  C   UNL A   1      46.143  28.487  31.360  1.00  0.00    -0.014 A 
ATOM     61  C   UNL A   1      47.204  28.539  30.437  1.00  0.00     0.010 A 
ATOM     62  C   UNL A   1      46.309  27.756  32.551  1.00  0.00     0.010 A 
ATOM     63  C   UNL A   1      48.388  27.838  30.679  1.00  0.00     0.020 A 
ATOM     64  C   UNL A   1      47.503  27.076  32.808  1.00  0.00     0.020 A 
ATOM     65  C   UNL A   1      48.528  27.106  31.861  1.00  0.00     0.054 A 
BRANCH  65  66
ATOM     66  S   UNL A   1      50.080  26.213  32.153  1.00  0.00     0.124 S 
ATOM     67  O   UNL A   1      49.792  24.908  31.561  1.00  0.00    -0.237 OA
ATOM     68  O   UNL A   1      51.058  27.025  31.432  1.00  0.00    -0.237 OA
ATOM     69  O   UNL A   1      50.218  26.221  33.606  1.00  0.00    -0.744 OA
ENDBRANCH  65  66
ENDBRANCH  46  60
BRANCH  47  70
ATOM     70  C   UNL A   1      37.325  32.894  29.715  1.00  0.00    -0.014 A 
ATOM     71  C   UNL A   1      36.937  33.290  28.422  1.00  0.00     0.010 A 
ATOM     72  C   UNL A   1      36.443  33.105  30.790  1.00  0.00     0.010 A 
ATOM     73  C   UNL A   1      35.696  33.898  28.211  1.00  0.00     0.020 A 
ATOM     74  C   UNL A   1      35.190  33.687  30.578  1.00  0.00     0.020 A 
ATOM     75  C   UNL A   1      34.828  34.089  29.290  1.00  0.00     0.054 A 
BRANCH  75  76
ATOM     76  S   UNL A   1      33.199  34.827  28.983  1.00  0.00     0.124 S 
ATOM     77  O   UNL A   1      32.653  33.942  27.959  1.00  0.00    -0.237 OA
ATOM     78  O   UNL A   1      32.564  34.746  30.295  1.00  0.00    -0.237 OA
ATOM     79  O   UNL A   1      33.517  36.181  28.537  1.00  0.00    -0.744 OA
ENDBRANCH  75  76
ENDBRANCH  47  70
BRANCH  59  80
ATOM     80  C   UNL A   1      43.257  34.956  32.753  1.00  0.00    -0.014 A 
ATOM     81  C   UNL A   1      43.834  35.995  32.000  1.00  0.00     0.010 A 
ATOM     82  C   UNL A   1      43.019  35.155  34.125  1.00  0.00     0.010 A 
ATOM     83  C   UNL A   1      44.191  37.198  32.614  1.00  0.00     0.020 A 
ATOM     84  C   UNL A   1      43.351  36.366  34.738  1.00  0.00     0.020 A 
ATOM     85  C   UNL A   1      43.947  37.376  33.980  1.00  0.00     0.054 A 
BRANCH  85  86
ATOM     86  S   UNL A   1      44.378  38.963  34.745  1.00  0.00     0.124 S 
ATOM     87  O   UNL A   1      43.418  39.870  34.124  1.00  0.00    -0.237 OA
ATOM     88  O   UNL A   1      44.167  38.701  36.167  1.00  0.00    -0.237 OA
ATOM     89  O   UNL A   1      45.772  39.168  34.356  1.00  0.00    -0.744 OA
ENDBRANCH  85  86
ENDBRANCH  59  80
ENDBRANCH  33  34
ENDBRANCH  25  28
ENDBRANCH  23  24
ENDBRANCH  22  23
ENDBRANCH   1  22
TORSDOF 18
ENDMDL
MODEL 3
REMARK VINA RESULT:      -9.8      2.582      3.170
REMARK SMILES C[C@H]1[C@H](C(=O)NCCCCCCNC(=O)c2ccc(-c3c4nc(c(-c5ccc(S(=O)(=O)[O-])cc5)c5ccc([nH]5)c(-c5ccc(S(=O)(=O)[O-])cc5)c5nc(c(-c6ccc(S(=O)(=O)[O-])cc6)c6ccc3[nH]6)C=C5)C=C4)cc2)CCN1S(=O)(=O)C(F)(F)F
REMARK SMILES IDX 10 1 9 2 8 3 7 4 6 5 4 6 5 7 3 9 1 10 2 11 78 12 76 13 77 14
REMARK SMILES IDX 79 15 80 16 81 17 82 18 83 19 84 20 85 21 11 22 12 23 13 24
REMARK SMILES IDX 14 25 15 27 16 28 17 29 75 30 18 31 74 32 19 33 20 34 21 35
REMARK SMILES IDX 68 36 22 37 73 38 67 39 69 40 23 41 72 42 66 43 65 44 24 46
REMARK SMILES IDX 54 47 35 48 53 49 36 50 39 51 52 52 70 53 37 54 38 55 51 57
REMARK SMILES IDX 71 58 40 59 25 60 26 61 34 62 27 63 33 64 28 65 29 66 30 67
REMARK SMILES IDX 31 68 32 69 55 70 56 71 64 72 57 73 63 74 58 75 59 76 60 77
REMARK SMILES IDX 61 78 62 79 41 80 42 81 50 82 43 83 49 84 44 85 45 86 46 87
REMARK SMILES IDX 47 88 48 89
REMARK H PARENT 6 8 13 26 69 45 39 56
REMARK Flexibility Score: inf
ROOT
ATOM      1  C   UNL A   1      31.987  28.065  26.134  1.00  0.00     0.002 C 
ENDROOT
BRANCH   1   2
ATOM      2  C   UNL A   1      31.225  26.818  26.599  1.00  0.00     0.002 C 
BRANCH   2   3
ATOM      3  C   UNL A   1      30.247  26.236  25.576  1.00  0.00     0.021 C 
BRANCH   3   4
ATOM      4  C   UNL A   1      29.866  24.781  25.841  1.00  0.00     0.116 C 
BRANCH   4   5
ATOM      5  N   UNL A   1      30.707  24.163  26.846  1.00  0.00    -0.356 N 
ATOM      6  C   UNL A   1      31.691  23.231  26.721  1.00  0.00     0.224 C 
ATOM      7  O   UNL A   1      32.276  22.882  27.752  1.00  0.00    -0.275 OA
ATOM      8  H   UNL A   1      30.541  24.466  27.767  1.00  0.00     0.163 HD
BRANCH   6   9
ATOM      9  C   UNL A   1      32.078  22.602  25.386  1.00  0.00     0.098 C 
ATOM     10  C   UNL A   1      32.488  24.245  23.516  1.00  0.00     0.026 C 
ATOM     11  C   UNL A   1      33.136  23.408  24.620  1.00  0.00     0.082 C 
ATOM     12  N   UNL A   1      34.035  22.415  23.962  1.00  0.00    -0.190 NA
ATOM     13  C   UNL A   1      32.611  21.181  25.460  1.00  0.00     0.032 C 
ATOM     14  C   UNL A   1      33.492  21.051  24.226  1.00  0.00     0.104 C 
BRANCH  12  15
ATOM     15  S   UNL A   1      35.740  22.545  24.125  1.00  0.00     0.314 S 
ATOM     16  O   UNL A   1      36.199  21.222  24.518  1.00  0.00    -0.203 OA
ATOM     17  O   UNL A   1      36.197  23.088  22.859  1.00  0.00    -0.203 OA
BRANCH  15  18
ATOM     18  C   UNL A   1      36.078  23.760  25.517  1.00  0.00     0.511 C 
ATOM     19  F   UNL A   1      37.406  24.001  25.689  1.00  0.00    -0.155 F 
ATOM     20  F   UNL A   1      35.486  24.971  25.301  1.00  0.00    -0.155 F 
ATOM     21  F   UNL A   1      35.589  23.310  26.708  1.00  0.00    -0.155 F 
ENDBRANCH  15  18
ENDBRANCH  12  15
ENDBRANCH   6   9
ENDBRANCH   4   5
ENDBRANCH   3   4
ENDBRANCH   2   3
ENDBRANCH   1   2
BRANCH   1  22
ATOM     22  C   UNL A   1      33.324  27.803  25.431  1.00  0.00     0.021 C 
BRANCH  22  23
ATOM     23  C   UNL A   1      34.450  28.764  25.806  1.00  0.00     0.116 C 
BRANCH  23  24
ATOM     24  N   UNL A   1      33.940  30.038  26.289  1.00  0.00    -0.352 N 
ATOM     25  C   UNL A   1      34.319  30.785  27.376  1.00  0.00     0.251 C 
ATOM     26  H   UNL A   1      33.209  30.424  25.753  1.00  0.00     0.163 HD
ATOM     27  O   UNL A   1      33.614  31.722  27.742  1.00  0.00    -0.269 OA
BRANCH  25  28
ATOM     28  C   UNL A   1      35.561  30.462  28.110  1.00  0.00     0.039 A 
ATOM     29  C   UNL A   1      35.480  29.668  29.257  1.00  0.00     0.014 A 
ATOM     30  C   UNL A   1      36.795  30.972  27.697  1.00  0.00     0.014 A 
ATOM     31  C   UNL A   1      36.644  29.338  29.957  1.00  0.00     0.010 A 
ATOM     32  C   UNL A   1      37.961  30.589  28.357  1.00  0.00     0.010 A 
ATOM     33  C   UNL A   1      37.897  29.772  29.496  1.00  0.00    -0.014 A 
BRANCH  33  34
ATOM     34  C   UNL A   1      39.150  29.378  30.189  1.00  0.00     0.031 A 
ATOM     35  C   UNL A   1      39.591  30.098  31.433  1.00  0.00     0.074 A 
ATOM     36  C   UNL A   1      39.923  28.407  29.661  1.00  0.00     0.049 A 
ATOM     37  N   UNL A   1      40.678  29.931  32.144  1.00  0.00    -0.248 NA
ATOM     38  C   UNL A   1      38.705  31.162  31.935  1.00  0.00     0.031 C 
ATOM     39  C   UNL A   1      39.625  27.658  28.439  1.00  0.00     0.029 A 
ATOM     40  N   UNL A   1      41.123  27.890  30.083  1.00  0.00    -0.354 N 
ATOM     41  C   UNL A   1      40.616  30.873  33.163  1.00  0.00     0.074 A 
ATOM     42  C   UNL A   1      39.407  31.641  32.953  1.00  0.00     0.031 C 
ATOM     43  C   UNL A   1      40.602  26.761  28.223  1.00  0.00     0.029 A 
ATOM     44  C   UNL A   1      41.614  26.899  29.267  1.00  0.00     0.049 A 
ATOM     45  H   UNL A   1      41.588  28.199  30.894  1.00  0.00     0.167 HD
ATOM     46  C   UNL A   1      41.477  31.073  34.190  1.00  0.00     0.031 A 
ATOM     47  C   UNL A   1      42.753  26.184  29.342  1.00  0.00     0.031 A 
ATOM     48  C   UNL A   1      42.674  30.303  34.399  1.00  0.00     0.049 A 
ATOM     49  C   UNL A   1      43.701  26.433  30.483  1.00  0.00     0.074 A 
ATOM     50  C   UNL A   1      43.584  30.392  35.439  1.00  0.00     0.029 A 
ATOM     51  N   UNL A   1      43.134  29.306  33.552  1.00  0.00    -0.354 N 
ATOM     52  N   UNL A   1      43.592  27.287  31.473  1.00  0.00    -0.248 NA
ATOM     53  C   UNL A   1      44.920  25.614  30.522  1.00  0.00     0.031 C 
ATOM     54  C   UNL A   1      44.618  29.483  35.194  1.00  0.00     0.029 A 
ATOM     55  C   UNL A   1      44.325  28.789  34.031  1.00  0.00     0.049 A 
ATOM     56  H   UNL A   1      42.680  29.010  32.730  1.00  0.00     0.167 HD
ATOM     57  C   UNL A   1      44.717  27.091  32.266  1.00  0.00     0.074 A 
ATOM     58  C   UNL A   1      45.485  26.028  31.649  1.00  0.00     0.031 C 
ATOM     59  C   UNL A   1      45.082  27.734  33.403  1.00  0.00     0.031 A 
BRANCH  46  60
ATOM     60  C   UNL A   1      41.153  32.176  35.164  1.00  0.00    -0.014 A 
ATOM     61  C   UNL A   1      41.664  33.475  34.986  1.00  0.00     0.010 A 
ATOM     62  C   UNL A   1      40.303  31.918  36.255  1.00  0.00     0.010 A 
ATOM     63  C   UNL A   1      41.368  34.484  35.906  1.00  0.00     0.020 A 
ATOM     64  C   UNL A   1      39.983  32.934  37.162  1.00  0.00     0.020 A 
ATOM     65  C   UNL A   1      40.533  34.205  36.992  1.00  0.00     0.054 A 
BRANCH  65  66
ATOM     66  S   UNL A   1      40.157  35.537  38.166  1.00  0.00     0.124 S 
ATOM     67  O   UNL A   1      40.002  36.686  37.276  1.00  0.00    -0.237 OA
ATOM     68  O   UNL A   1      38.929  35.066  38.803  1.00  0.00    -0.237 OA
ATOM     69  O   UNL A   1      41.330  35.576  39.034  1.00  0.00    -0.744 OA
ENDBRANCH  65  66
ENDBRANCH  46  60
BRANCH  47  70
ATOM     70  C   UNL A   1      43.051  25.153  28.311  1.00  0.00    -0.014 A 
ATOM     71  C   UNL A   1      43.902  25.451  27.232  1.00  0.00     0.010 A 
ATOM     72  C   UNL A   1      42.501  23.862  28.413  1.00  0.00     0.010 A 
ATOM     73  C   UNL A   1      44.186  24.482  26.265  1.00  0.00     0.020 A 
ATOM     74  C   UNL A   1      42.804  22.882  27.464  1.00  0.00     0.020 A 
ATOM     75  C   UNL A   1      43.638  23.202  26.389  1.00  0.00     0.054 A 
BRANCH  75  76
ATOM     76  S   UNL A   1      44.067  21.943  25.155  1.00  0.00     0.124 S 
ATOM     77  O   UNL A   1      45.463  21.666  25.476  1.00  0.00    -0.237 OA
ATOM     78  O   UNL A   1      43.122  20.871  25.456  1.00  0.00    -0.237 OA
ATOM     79  O   UNL A   1      43.839  22.623  23.881  1.00  0.00    -0.744 OA
ENDBRANCH  75  76
ENDBRANCH  47  70
BRANCH  59  80
ATOM     80  C   UNL A   1      46.354  27.289  34.072  1.00  0.00    -0.014 A 
ATOM     81  C   UNL A   1      46.351  26.258  35.030  1.00  0.00     0.010 A 
ATOM     82  C   UNL A   1      47.577  27.873  33.698  1.00  0.00     0.010 A 
ATOM     83  C   UNL A   1      47.546  25.841  35.622  1.00  0.00     0.020 A 
ATOM     84  C   UNL A   1      48.777  27.440  34.268  1.00  0.00     0.020 A 
ATOM     85  C   UNL A   1      48.752  26.435  35.237  1.00  0.00     0.054 A 
BRANCH  85  86
ATOM     86  S   UNL A   1      50.294  25.845  35.987  1.00  0.00     0.124 S 
ATOM     87  O   UNL A   1      49.810  24.844  36.932  1.00  0.00    -0.237 OA
ATOM     88  O   UNL A   1      51.029  25.320  34.838  1.00  0.00    -0.237 OA
ATOM     89  O   UNL A   1      50.869  27.046  36.589  1.00  0.00    -0.744 OA
ENDBRANCH  85  86
ENDBRANCH  59  80
ENDBRANCH  33  34
ENDBRANCH  25  28
ENDBRANCH  23  24
ENDBRANCH  22  23
ENDBRANCH   1  22
TORSDOF 18
ENDMDL
