MODEL 1
REMARK VINA RESULT:     -12.2      0.000      0.000
REMARK SMILES O=C(NCCCCCCNC(=O)c1nccnc1C(=O)Nc1n[nH]c2ncccc12)c1ccc(-c2c3nc(c(-c4ccc(S(=O)(=O)[O-])cc4)c4ccc([nH]4)c(-c4ccc(S(=O)(=O)[O-])cc4)c4nc(c(-c5ccc(S(=O)(=O)[O-])cc5)c5ccc2[nH]5)C=C4)C=C3)cc1
REMARK SMILES IDX 6 1 5 2 4 3 3 4 1 5 2 6 31 8 32 9 90 10 33 11 89 12 34 13
REMARK SMILES IDX 35 14 36 15 83 16 37 17 88 18 82 19 84 20 38 21 87 22 81 23
REMARK SMILES IDX 80 24 39 26 69 27 50 28 68 29 51 30 54 31 67 32 85 33 52 34
REMARK SMILES IDX 53 35 66 37 86 38 55 39 40 40 41 41 49 42 42 43 48 44 43 45
REMARK SMILES IDX 44 46 45 47 46 48 47 49 70 50 71 51 79 52 72 53 78 54 73 55
REMARK SMILES IDX 74 56 75 57 76 58 77 59 56 60 57 61 65 62 58 63 64 64 59 65
REMARK SMILES IDX 60 66 61 67 62 68 63 69 7 70 8 71 9 72 10 73 11 74 12 76
REMARK SMILES IDX 13 77 14 78 18 79 15 80 17 81 16 82 19 83 20 84 21 85 22 87
REMARK SMILES IDX 23 88 30 89 24 90 25 91 29 92 26 94 28 95 27 96
REMARK H PARENT 3 7 84 25 54 36 10 75 21 86 24 93
REMARK Flexibility Score: inf
ROOT
ATOM      1  C   UNL A   1      34.288  23.983  26.033  1.00  0.00     0.002 C 
ENDROOT
BRANCH   1   2
ATOM      2  C   UNL A   1      35.420  23.035  25.648  1.00  0.00     0.021 C 
BRANCH   2   3
ATOM      3  C   UNL A   1      36.784  23.692  25.609  1.00  0.00     0.116 C 
BRANCH   3   4
ATOM      4  N   UNL A   1      37.824  22.732  25.926  1.00  0.00    -0.352 N 
ATOM      5  O   UNL A   1      39.975  22.122  26.224  1.00  0.00    -0.269 OA
ATOM      6  C   UNL A   1      39.106  22.980  26.357  1.00  0.00     0.251 C 
ATOM      7  H   UNL A   1      37.582  21.783  25.818  1.00  0.00     0.163 HD
BRANCH   6   8
ATOM      8  C   UNL A   1      39.427  24.283  26.980  1.00  0.00     0.039 A 
ATOM      9  C   UNL A   1      39.084  24.526  28.312  1.00  0.00     0.014 A 
ATOM     10  C   UNL A   1      40.131  25.248  26.254  1.00  0.00     0.014 A 
ATOM     11  C   UNL A   1      39.325  25.767  28.881  1.00  0.00     0.010 A 
ATOM     12  C   UNL A   1      40.485  26.453  26.869  1.00  0.00     0.010 A 
ATOM     13  C   UNL A   1      40.087  26.719  28.188  1.00  0.00    -0.014 A 
BRANCH  13  14
ATOM     14  C   UNL A   1      40.595  27.899  28.929  1.00  0.00     0.031 A 
ATOM     15  C   UNL A   1      41.953  27.901  29.566  1.00  0.00     0.074 A 
ATOM     16  C   UNL A   1      39.786  28.975  29.026  1.00  0.00     0.049 A 
ATOM     17  N   UNL A   1      42.517  28.842  30.277  1.00  0.00    -0.248 NA
ATOM     18  C   UNL A   1      42.782  26.699  29.394  1.00  0.00     0.031 C 
ATOM     19  C   UNL A   1      38.439  29.073  28.449  1.00  0.00     0.029 A 
ATOM     20  N   UNL A   1      39.968  30.189  29.636  1.00  0.00    -0.354 N 
ATOM     21  C   UNL A   1      43.751  28.339  30.666  1.00  0.00     0.074 A 
ATOM     22  C   UNL A   1      43.853  27.003  30.117  1.00  0.00     0.031 C 
ATOM     23  C   UNL A   1      37.937  30.289  28.698  1.00  0.00     0.029 A 
ATOM     24  C   UNL A   1      38.878  31.023  29.530  1.00  0.00     0.049 A 
ATOM     25  H   UNL A   1      40.797  30.440  30.103  1.00  0.00     0.167 HD
ATOM     26  C   UNL A   1      44.704  28.940  31.419  1.00  0.00     0.031 A 
ATOM     27  C   UNL A   1      38.637  32.227  30.078  1.00  0.00     0.031 A 
ATOM     28  C   UNL A   1      44.579  30.269  31.961  1.00  0.00     0.049 A 
ATOM     29  C   UNL A   1      39.692  32.842  30.950  1.00  0.00     0.074 A 
ATOM     30  C   UNL A   1      45.511  30.988  32.689  1.00  0.00     0.029 A 
ATOM     31  N   UNL A   1      43.451  31.071  31.854  1.00  0.00    -0.354 N 
ATOM     32  N   UNL A   1      40.883  32.379  31.244  1.00  0.00    -0.248 NA
ATOM     33  C   UNL A   1      39.373  34.135  31.568  1.00  0.00     0.031 C 
ATOM     34  C   UNL A   1      44.919  32.189  33.091  1.00  0.00     0.029 A 
ATOM     35  C   UNL A   1      43.646  32.256  32.546  1.00  0.00     0.049 A 
ATOM     36  H   UNL A   1      42.633  30.834  31.361  1.00  0.00     0.167 HD
ATOM     37  C   UNL A   1      41.464  33.334  32.069  1.00  0.00     0.074 A 
ATOM     38  C   UNL A   1      40.503  34.411  32.203  1.00  0.00     0.031 C 
ATOM     39  C   UNL A   1      42.679  33.317  32.668  1.00  0.00     0.031 A 
BRANCH  26  40
ATOM     40  C   UNL A   1      45.950  28.160  31.748  1.00  0.00    -0.014 A 
ATOM     41  C   UNL A   1      46.030  27.348  32.893  1.00  0.00     0.010 A 
ATOM     42  C   UNL A   1      47.029  28.172  30.842  1.00  0.00     0.010 A 
ATOM     43  C   UNL A   1      47.175  26.582  33.138  1.00  0.00     0.020 A 
ATOM     44  C   UNL A   1      48.163  27.386  31.068  1.00  0.00     0.020 A 
ATOM     45  C   UNL A   1      48.232  26.603  32.221  1.00  0.00     0.054 A 
BRANCH  45  46
ATOM     46  S   UNL A   1      49.681  25.560  32.543  1.00  0.00     0.124 S 
ATOM     47  O   UNL A   1      50.045  25.127  31.197  1.00  0.00    -0.237 OA
ATOM     48  O   UNL A   1      50.610  26.493  33.175  1.00  0.00    -0.237 OA
ATOM     49  O   UNL A   1      49.166  24.508  33.418  1.00  0.00    -0.744 OA
ENDBRANCH  45  46
ENDBRANCH  26  40
BRANCH  27  50
ATOM     50  C   UNL A   1      37.322  32.892  29.867  1.00  0.00    -0.014 A 
ATOM     51  C   UNL A   1      37.075  33.654  28.713  1.00  0.00     0.010 A 
ATOM     52  C   UNL A   1      36.302  32.761  30.830  1.00  0.00     0.010 A 
ATOM     53  C   UNL A   1      35.845  34.297  28.540  1.00  0.00     0.020 A 
ATOM     54  C   UNL A   1      35.059  33.369  30.643  1.00  0.00     0.020 A 
ATOM     55  C   UNL A   1      34.846  34.150  29.507  1.00  0.00     0.054 A 
BRANCH  55  56
ATOM     56  S   UNL A   1      33.253  34.978  29.250  1.00  0.00     0.124 S 
ATOM     57  O   UNL A   1      32.676  34.944  30.591  1.00  0.00    -0.237 OA
ATOM     58  O   UNL A   1      33.659  36.296  28.768  1.00  0.00    -0.237 OA
ATOM     59  O   UNL A   1      32.586  34.137  28.259  1.00  0.00    -0.744 OA
ENDBRANCH  55  56
ENDBRANCH  27  50
BRANCH  39  60
ATOM     60  C   UNL A   1      43.053  34.511  33.503  1.00  0.00    -0.014 A 
ATOM     61  C   UNL A   1      42.770  34.555  34.880  1.00  0.00     0.010 A 
ATOM     62  C   UNL A   1      43.763  35.573  32.913  1.00  0.00     0.010 A 
ATOM     63  C   UNL A   1      43.176  35.647  35.648  1.00  0.00     0.020 A 
ATOM     64  C   UNL A   1      44.201  36.652  33.685  1.00  0.00     0.020 A 
ATOM     65  C   UNL A   1      43.897  36.684  35.048  1.00  0.00     0.054 A 
BRANCH  65  66
ATOM     66  S   UNL A   1      44.479  38.052  36.085  1.00  0.00     0.124 S 
ATOM     67  O   UNL A   1      43.751  37.822  37.330  1.00  0.00    -0.237 OA
ATOM     68  O   UNL A   1      45.919  37.815  36.146  1.00  0.00    -0.237 OA
ATOM     69  O   UNL A   1      44.080  39.246  35.342  1.00  0.00    -0.744 OA
ENDBRANCH  65  66
ENDBRANCH  39  60
ENDBRANCH  13  14
ENDBRANCH   6   8
ENDBRANCH   3   4
ENDBRANCH   2   3
ENDBRANCH   1   2
BRANCH   1  70
ATOM     70  C   UNL A   1      34.243  25.359  25.329  1.00  0.00     0.002 C 
BRANCH  70  71
ATOM     71  C   UNL A   1      34.087  26.871  26.214  1.00  0.00     0.021 C 
BRANCH  71  72
ATOM     72  C   UNL A   1      32.346  27.971  26.979  1.00  0.00     0.116 C 
BRANCH  72  73
ATOM     73  N   UNL A   1      31.469  29.167  26.359  1.00  0.00    -0.351 N 
ATOM     74  C   UNL A   1      31.335  29.557  25.043  1.00  0.00     0.272 C 
ATOM     75  H   UNL A   1      30.955  29.695  27.011  1.00  0.00     0.163 HD
ATOM     76  O   UNL A   1      30.754  30.586  24.722  1.00  0.00    -0.267 OA
BRANCH  74  77
ATOM     77  C   UNL A   1      31.895  28.645  24.033  1.00  0.00     0.159 A 
ATOM     78  N   UNL A   1      33.213  28.914  23.748  1.00  0.00    -0.247 NA
ATOM     79  C   UNL A   1      31.135  27.732  23.315  1.00  0.00     0.159 A 
ATOM     80  C   UNL A   1      33.752  28.218  22.732  1.00  0.00     0.132 A 
ATOM     81  N   UNL A   1      31.707  27.040  22.277  1.00  0.00    -0.247 NA
ATOM     82  C   UNL A   1      33.012  27.300  22.013  1.00  0.00     0.132 A 
BRANCH  79  83
ATOM     83  C   UNL A   1      29.734  27.316  23.631  1.00  0.00     0.277 C 
ATOM     84  O   UNL A   1      28.824  28.021  23.184  1.00  0.00    -0.267 OA
ATOM     85  N   UNL A   1      29.382  26.184  24.333  1.00  0.00    -0.303 N 
ATOM     86  H   UNL A   1      28.416  25.991  24.338  1.00  0.00     0.172 HD
BRANCH  85  87
ATOM     87  C   UNL A   1      30.146  25.283  25.025  1.00  0.00     0.164 A 
ATOM     88  N   UNL A   1      30.003  25.240  26.363  1.00  0.00    -0.155 NA
ATOM     89  C   UNL A   1      30.990  24.272  24.519  1.00  0.00     0.063 A 
ATOM     90  N   UNL A   1      30.346  23.994  26.807  1.00  0.00    -0.259 N 
ATOM     91  C   UNL A   1      30.920  23.188  25.866  1.00  0.00     0.157 A 
ATOM     92  C   UNL A   1      31.783  23.712  23.023  1.00  0.00     0.017 A 
ATOM     93  H   UNL A   1      30.191  23.701  27.734  1.00  0.00     0.192 HD
ATOM     94  N   UNL A   1      31.400  21.516  25.790  1.00  0.00    -0.237 NA
ATOM     95  C   UNL A   1      32.360  22.037  22.868  1.00  0.00     0.021 A 
ATOM     96  C   UNL A   1      32.187  20.991  24.267  1.00  0.00     0.113 A 
ENDBRANCH  85  87
ENDBRANCH  79  83
ENDBRANCH  74  77
ENDBRANCH  72  73
ENDBRANCH  71  72
ENDBRANCH  70  71
ENDBRANCH   1  70
TORSDOF 18
ENDMDL
MODEL 2
REMARK VINA RESULT:     -12.1      0.465      7.989
REMARK SMILES O=C(NCCCCCCNC(=O)c1nccnc1C(=O)Nc1n[nH]c2ncccc12)c1ccc(-c2c3nc(c(-c4ccc(S(=O)(=O)[O-])cc4)c4ccc([nH]4)c(-c4ccc(S(=O)(=O)[O-])cc4)c4nc(c(-c5ccc(S(=O)(=O)[O-])cc5)c5ccc2[nH]5)C=C4)C=C3)cc1
REMARK SMILES IDX 6 1 5 2 4 3 3 4 1 5 2 6 31 8 32 9 90 10 33 11 89 12 34 13
REMARK SMILES IDX 35 14 36 15 83 16 37 17 88 18 82 19 84 20 38 21 87 22 81 23
REMARK SMILES IDX 80 24 39 26 69 27 50 28 68 29 51 30 54 31 67 32 85 33 52 34
REMARK SMILES IDX 53 35 66 37 86 38 55 39 40 40 41 41 49 42 42 43 48 44 43 45
REMARK SMILES IDX 44 46 45 47 46 48 47 49 70 50 71 51 79 52 72 53 78 54 73 55
REMARK SMILES IDX 74 56 75 57 76 58 77 59 56 60 57 61 65 62 58 63 64 64 59 65
REMARK SMILES IDX 60 66 61 67 62 68 63 69 7 70 8 71 9 72 10 73 11 74 12 76
REMARK SMILES IDX 13 77 14 78 18 79 15 80 17 81 16 82 19 83 20 84 21 85 22 87
REMARK SMILES IDX 23 88 30 89 24 90 25 91 29 92 26 94 28 95 27 96
REMARK H PARENT 3 7 84 25 54 36 10 75 21 86 24 93
REMARK Flexibility Score: inf
ROOT
ATOM      1  C   UNL A   1      34.620  23.896  25.722  1.00  0.00     0.002 C 
ENDROOT
BRANCH   1   2
ATOM      2  C   UNL A   1      35.719  23.052  25.083  1.00  0.00     0.021 C 
BRANCH   2   3
ATOM      3  C   UNL A   1      37.090  23.694  25.130  1.00  0.00     0.116 C 
BRANCH   3   4
ATOM      4  N   UNL A   1      38.094  22.730  25.540  1.00  0.00    -0.352 N 
ATOM      5  O   UNL A   1      40.198  22.122  26.075  1.00  0.00    -0.269 OA
ATOM      6  C   UNL A   1      39.312  22.970  26.130  1.00  0.00     0.251 C 
ATOM      7  H   UNL A   1      37.874  21.784  25.374  1.00  0.00     0.163 HD
BRANCH   6   8
ATOM      8  C   UNL A   1      39.544  24.254  26.827  1.00  0.00     0.039 A 
ATOM      9  C   UNL A   1      39.121  24.421  28.148  1.00  0.00     0.014 A 
ATOM     10  C   UNL A   1      40.244  25.280  26.186  1.00  0.00     0.014 A 
ATOM     11  C   UNL A   1      39.278  25.642  28.784  1.00  0.00     0.010 A 
ATOM     12  C   UNL A   1      40.514  26.468  26.873  1.00  0.00     0.010 A 
ATOM     13  C   UNL A   1      40.035  26.655  28.179  1.00  0.00    -0.014 A 
BRANCH  13  14
ATOM     14  C   UNL A   1      40.453  27.818  28.998  1.00  0.00     0.031 A 
ATOM     15  C   UNL A   1      39.539  28.985  29.227  1.00  0.00     0.074 A 
ATOM     16  C   UNL A   1      41.696  27.803  29.523  1.00  0.00     0.049 A 
ATOM     17  N   UNL A   1      39.778  30.089  29.886  1.00  0.00    -0.248 NA
ATOM     18  C   UNL A   1      38.191  28.915  28.640  1.00  0.00     0.031 C 
ATOM     19  C   UNL A   1      42.670  26.717  29.352  1.00  0.00     0.029 A 
ATOM     20  N   UNL A   1      42.358  28.714  30.304  1.00  0.00    -0.354 N 
ATOM     21  C   UNL A   1      38.628  30.860  29.769  1.00  0.00     0.074 A 
ATOM     22  C   UNL A   1      37.691  30.100  28.968  1.00  0.00     0.031 C 
ATOM     23  C   UNL A   1      43.783  27.008  30.039  1.00  0.00     0.029 A 
ATOM     24  C   UNL A   1      43.642  28.335  30.618  1.00  0.00     0.049 A 
ATOM     25  H   UNL A   1      41.953  29.557  30.612  1.00  0.00     0.167 HD
ATOM     26  C   UNL A   1      38.387  32.091  30.280  1.00  0.00     0.031 A 
ATOM     27  C   UNL A   1      44.622  28.997  31.260  1.00  0.00     0.031 A 
ATOM     28  C   UNL A   1      39.337  32.833  31.070  1.00  0.00     0.049 A 
ATOM     29  C   UNL A   1      44.339  30.380  31.767  1.00  0.00     0.074 A 
ATOM     30  C   UNL A   1      39.168  34.064  31.679  1.00  0.00     0.029 A 
ATOM     31  N   UNL A   1      40.636  32.427  31.343  1.00  0.00    -0.354 N 
ATOM     32  N   UNL A   1      43.219  31.060  31.709  1.00  0.00    -0.248 NA
ATOM     33  C   UNL A   1      45.447  31.087  32.420  1.00  0.00     0.031 C 
ATOM     34  C   UNL A   1      40.387  34.439  32.251  1.00  0.00     0.029 A 
ATOM     35  C   UNL A   1      41.294  33.407  32.069  1.00  0.00     0.049 A 
ATOM     36  H   UNL A   1      41.032  31.571  31.062  1.00  0.00     0.167 HD
ATOM     37  C   UNL A   1      43.484  32.272  32.335  1.00  0.00     0.074 A 
ATOM     38  C   UNL A   1      44.860  32.218  32.787  1.00  0.00     0.031 C 
ATOM     39  C   UNL A   1      42.664  33.336  32.512  1.00  0.00     0.031 A 
BRANCH  26  40
ATOM     40  C   UNL A   1      37.066  32.746  29.970  1.00  0.00    -0.014 A 
ATOM     41  C   UNL A   1      35.992  32.703  30.876  1.00  0.00     0.010 A 
ATOM     42  C   UNL A   1      36.932  33.498  28.786  1.00  0.00     0.010 A 
ATOM     43  C   UNL A   1      34.800  33.379  30.592  1.00  0.00     0.020 A 
ATOM     44  C   UNL A   1      35.753  34.198  28.512  1.00  0.00     0.020 A 
ATOM     45  C   UNL A   1      34.691  34.125  29.413  1.00  0.00     0.054 A 
BRANCH  45  46
ATOM     46  S   UNL A   1      33.150  35.029  29.099  1.00  0.00     0.124 S 
ATOM     47  O   UNL A   1      32.508  34.190  28.091  1.00  0.00    -0.237 OA
ATOM     48  O   UNL A   1      32.510  35.032  30.413  1.00  0.00    -0.237 OA
ATOM     49  O   UNL A   1      33.602  36.336  28.626  1.00  0.00    -0.744 OA
ENDBRANCH  45  46
ENDBRANCH  26  40
BRANCH  27  50
ATOM     50  C   UNL A   1      45.970  28.381  31.398  1.00  0.00    -0.014 A 
ATOM     51  C   UNL A   1      46.961  28.587  30.422  1.00  0.00     0.010 A 
ATOM     52  C   UNL A   1      46.271  27.582  32.517  1.00  0.00     0.010 A 
ATOM     53  C   UNL A   1      48.214  27.980  30.549  1.00  0.00     0.020 A 
ATOM     54  C   UNL A   1      47.534  27.006  32.668  1.00  0.00     0.020 A 
ATOM     55  C   UNL A   1      48.491  27.193  31.671  1.00  0.00     0.054 A 
BRANCH  55  56
ATOM     56  S   UNL A   1      50.131  26.433  31.822  1.00  0.00     0.124 S 
ATOM     57  O   UNL A   1      50.832  26.998  30.673  1.00  0.00    -0.237 OA
ATOM     58  O   UNL A   1      50.576  26.903  33.131  1.00  0.00    -0.237 OA
ATOM     59  O   UNL A   1      49.853  25.000  31.743  1.00  0.00    -0.744 OA
ENDBRANCH  55  56
ENDBRANCH  27  50
BRANCH  39  60
ATOM     60  C   UNL A   1      43.223  34.522  33.249  1.00  0.00    -0.014 A 
ATOM     61  C   UNL A   1      43.239  34.565  34.654  1.00  0.00     0.010 A 
ATOM     62  C   UNL A   1      43.805  35.577  32.523  1.00  0.00     0.010 A 
ATOM     63  C   UNL A   1      43.813  35.649  35.320  1.00  0.00     0.020 A 
ATOM     64  C   UNL A   1      44.410  36.647  33.184  1.00  0.00     0.020 A 
ATOM     65  C   UNL A   1      44.403  36.679  34.580  1.00  0.00     0.054 A 
BRANCH  65  66
ATOM     66  S   UNL A   1      45.210  38.037  35.471  1.00  0.00     0.124 S 
ATOM     67  O   UNL A   1      45.429  37.448  36.789  1.00  0.00    -0.237 OA
ATOM     68  O   UNL A   1      46.415  38.266  34.677  1.00  0.00    -0.237 OA
ATOM     69  O   UNL A   1      44.225  39.116  35.427  1.00  0.00    -0.744 OA
ENDBRANCH  65  66
ENDBRANCH  39  60
ENDBRANCH  13  14
ENDBRANCH   6   8
ENDBRANCH   3   4
ENDBRANCH   2   3
ENDBRANCH   1   2
BRANCH   1  70
ATOM     70  C   UNL A   1      34.380  25.308  25.139  1.00  0.00     0.002 C 
BRANCH  70  71
ATOM     71  C   UNL A   1      34.151  26.725  26.156  1.00  0.00     0.021 C 
BRANCH  71  72
ATOM     72  C   UNL A   1      32.352  27.741  26.905  1.00  0.00     0.116 C 
BRANCH  72  73
ATOM     73  N   UNL A   1      31.491  28.971  26.331  1.00  0.00    -0.351 N 
ATOM     74  C   UNL A   1      31.346  29.399  25.028  1.00  0.00     0.272 C 
ATOM     75  H   UNL A   1      30.998  29.492  27.005  1.00  0.00     0.163 HD
ATOM     76  O   UNL A   1      30.781  30.448  24.743  1.00  0.00    -0.267 OA
BRANCH  74  77
ATOM     77  C   UNL A   1      31.872  28.504  23.986  1.00  0.00     0.159 A 
ATOM     78  N   UNL A   1      33.176  28.787  23.653  1.00  0.00    -0.247 NA
ATOM     79  C   UNL A   1      31.091  27.595  23.286  1.00  0.00     0.159 A 
ATOM     80  C   UNL A   1      33.679  28.107  22.608  1.00  0.00     0.132 A 
ATOM     81  N   UNL A   1      31.626  26.920  22.218  1.00  0.00    -0.247 NA
ATOM     82  C   UNL A   1      32.919  27.193  21.906  1.00  0.00     0.132 A 
BRANCH  79  83
ATOM     83  C   UNL A   1      29.707  27.165  23.651  1.00  0.00     0.277 C 
ATOM     84  O   UNL A   1      28.773  27.855  23.229  1.00  0.00    -0.267 OA
ATOM     85  N   UNL A   1      29.391  26.034  24.373  1.00  0.00    -0.303 N 
ATOM     86  H   UNL A   1      28.429  25.829  24.411  1.00  0.00     0.172 HD
BRANCH  85  87
ATOM     87  C   UNL A   1      30.189  25.148  25.045  1.00  0.00     0.164 A 
ATOM     88  N   UNL A   1      30.072  25.096  26.385  1.00  0.00    -0.155 NA
ATOM     89  C   UNL A   1      31.045  24.158  24.518  1.00  0.00     0.063 A 
ATOM     90  N   UNL A   1      30.452  23.856  26.817  1.00  0.00    -0.259 N 
ATOM     91  C   UNL A   1      31.026  23.067  25.861  1.00  0.00     0.157 A 
ATOM     92  C   UNL A   1      31.822  23.624  23.005  1.00  0.00     0.017 A 
ATOM     93  H   UNL A   1      30.321  23.555  27.745  1.00  0.00     0.192 HD
ATOM     94  N   UNL A   1      31.542  21.406  25.767  1.00  0.00    -0.237 NA
ATOM     95  C   UNL A   1      32.434  21.963  22.831  1.00  0.00     0.021 A 
ATOM     96  C   UNL A   1      32.311  20.906  24.227  1.00  0.00     0.113 A 
ENDBRANCH  85  87
ENDBRANCH  79  83
ENDBRANCH  74  77
ENDBRANCH  72  73
ENDBRANCH  71  72
ENDBRANCH  70  71
ENDBRANCH   1  70
TORSDOF 18
ENDMDL
MODEL 3
REMARK VINA RESULT:     -12.0      3.470      8.242
REMARK SMILES O=C(NCCCCCCNC(=O)c1nccnc1C(=O)Nc1n[nH]c2ncccc12)c1ccc(-c2c3nc(c(-c4ccc(S(=O)(=O)[O-])cc4)c4ccc([nH]4)c(-c4ccc(S(=O)(=O)[O-])cc4)c4nc(c(-c5ccc(S(=O)(=O)[O-])cc5)c5ccc2[nH]5)C=C4)C=C3)cc1
REMARK SMILES IDX 6 1 5 2 4 3 3 4 1 5 2 6 31 8 32 9 90 10 33 11 89 12 34 13
REMARK SMILES IDX 35 14 36 15 83 16 37 17 88 18 82 19 84 20 38 21 87 22 81 23
REMARK SMILES IDX 80 24 39 26 69 27 50 28 68 29 51 30 54 31 67 32 85 33 52 34
REMARK SMILES IDX 53 35 66 37 86 38 55 39 40 40 41 41 49 42 42 43 48 44 43 45
REMARK SMILES IDX 44 46 45 47 46 48 47 49 70 50 71 51 79 52 72 53 78 54 73 55
REMARK SMILES IDX 74 56 75 57 76 58 77 59 56 60 57 61 65 62 58 63 64 64 59 65
REMARK SMILES IDX 60 66 61 67 62 68 63 69 7 70 8 71 9 72 10 73 11 74 12 76
REMARK SMILES IDX 13 77 14 78 18 79 15 80 17 81 16 82 19 83 20 84 21 85 22 87
REMARK SMILES IDX 23 88 30 89 24 90 25 91 29 92 26 94 28 95 27 96
REMARK H PARENT 3 7 84 25 54 36 10 75 21 86 24 93
REMARK Flexibility Score: inf
ROOT
ATOM      1  C   UNL A   1      31.776  30.737  26.227  1.00  0.00     0.002 C 
ENDROOT
BRANCH   1   2
ATOM      2  C   UNL A   1      31.550  32.152  26.753  1.00  0.00     0.021 C 
BRANCH   2   3
ATOM      3  C   UNL A   1      32.752  32.743  27.458  1.00  0.00     0.116 C 
BRANCH   3   4
ATOM      4  N   UNL A   1      32.573  34.167  27.670  1.00  0.00    -0.352 N 
ATOM      5  O   UNL A   1      32.565  36.024  28.948  1.00  0.00    -0.269 OA
ATOM      6  C   UNL A   1      33.089  34.948  28.676  1.00  0.00     0.251 C 
ATOM      7  H   UNL A   1      32.009  34.632  27.010  1.00  0.00     0.163 HD
BRANCH   6   8
ATOM      8  C   UNL A   1      34.277  34.481  29.426  1.00  0.00     0.039 A 
ATOM      9  C   UNL A   1      34.129  33.934  30.703  1.00  0.00     0.014 A 
ATOM     10  C   UNL A   1      35.541  34.531  28.831  1.00  0.00     0.014 A 
ATOM     11  C   UNL A   1      35.244  33.556  31.434  1.00  0.00     0.010 A 
ATOM     12  C   UNL A   1      36.650  34.031  29.521  1.00  0.00     0.010 A 
ATOM     13  C   UNL A   1      36.507  33.537  30.827  1.00  0.00    -0.014 A 
BRANCH  13  14
ATOM     14  C   UNL A   1      37.619  32.838  31.517  1.00  0.00     0.031 A 
ATOM     15  C   UNL A   1      38.233  31.593  30.951  1.00  0.00     0.074 A 
ATOM     16  C   UNL A   1      38.054  33.352  32.687  1.00  0.00     0.049 A 
ATOM     17  N   UNL A   1      39.183  30.851  31.459  1.00  0.00    -0.248 NA
ATOM     18  C   UNL A   1      37.719  31.110  29.660  1.00  0.00     0.031 C 
ATOM     19  C   UNL A   1      37.517  34.557  33.331  1.00  0.00     0.029 A 
ATOM     20  N   UNL A   1      39.041  32.938  33.543  1.00  0.00    -0.354 N 
ATOM     21  C   UNL A   1      39.360  29.797  30.570  1.00  0.00     0.074 A 
ATOM     22  C   UNL A   1      38.413  29.992  29.493  1.00  0.00     0.031 C 
ATOM     23  C   UNL A   1      38.204  34.805  34.453  1.00  0.00     0.029 A 
ATOM     24  C   UNL A   1      39.164  33.731  34.661  1.00  0.00     0.049 A 
ATOM     25  H   UNL A   1      39.608  32.152  33.374  1.00  0.00     0.167 HD
ATOM     26  C   UNL A   1      40.230  28.762  30.658  1.00  0.00     0.031 A 
ATOM     27  C   UNL A   1      39.927  33.590  35.759  1.00  0.00     0.031 A 
ATOM     28  C   UNL A   1      41.160  28.585  31.744  1.00  0.00     0.049 A 
ATOM     29  C   UNL A   1      40.842  32.404  35.848  1.00  0.00     0.074 A 
ATOM     30  C   UNL A   1      42.121  27.600  31.897  1.00  0.00     0.029 A 
ATOM     31  N   UNL A   1      41.235  29.394  32.870  1.00  0.00    -0.354 N 
ATOM     32  N   UNL A   1      41.046  31.459  34.962  1.00  0.00    -0.248 NA
ATOM     33  C   UNL A   1      41.624  32.259  37.082  1.00  0.00     0.031 C 
ATOM     34  C   UNL A   1      42.720  27.765  33.149  1.00  0.00     0.029 A 
ATOM     35  C   UNL A   1      42.191  28.899  33.744  1.00  0.00     0.049 A 
ATOM     36  H   UNL A   1      40.690  30.198  33.026  1.00  0.00     0.167 HD
ATOM     37  C   UNL A   1      41.995  30.615  35.525  1.00  0.00     0.074 A 
ATOM     38  C   UNL A   1      42.343  31.178  36.814  1.00  0.00     0.031 C 
ATOM     39  C   UNL A   1      42.525  29.474  35.023  1.00  0.00     0.031 A 
BRANCH  26  40
ATOM     40  C   UNL A   1      40.197  27.709  29.582  1.00  0.00    -0.014 A 
ATOM     41  C   UNL A   1      41.119  27.711  28.521  1.00  0.00     0.010 A 
ATOM     42  C   UNL A   1      39.279  26.646  29.687  1.00  0.00     0.010 A 
ATOM     43  C   UNL A   1      41.109  26.682  27.573  1.00  0.00     0.020 A 
ATOM     44  C   UNL A   1      39.284  25.601  28.759  1.00  0.00     0.020 A 
ATOM     45  C   UNL A   1      40.193  25.631  27.701  1.00  0.00     0.054 A 
BRANCH  45  46
ATOM     46  S   UNL A   1      40.239  24.287  26.483  1.00  0.00     0.124 S 
ATOM     47  O   UNL A   1      40.517  23.127  27.326  1.00  0.00    -0.237 OA
ATOM     48  O   UNL A   1      38.898  24.336  25.906  1.00  0.00    -0.237 OA
ATOM     49  O   UNL A   1      41.319  24.673  25.578  1.00  0.00    -0.744 OA
ENDBRANCH  45  46
ENDBRANCH  26  40
BRANCH  27  50
ATOM     50  C   UNL A   1      39.807  34.562  36.880  1.00  0.00    -0.014 A 
ATOM     51  C   UNL A   1      39.041  34.260  38.019  1.00  0.00     0.010 A 
ATOM     52  C   UNL A   1      40.468  35.803  36.812  1.00  0.00     0.010 A 
ATOM     53  C   UNL A   1      38.912  35.194  39.051  1.00  0.00     0.020 A 
ATOM     54  C   UNL A   1      40.376  36.723  37.859  1.00  0.00     0.020 A 
ATOM     55  C   UNL A   1      39.581  36.419  38.964  1.00  0.00     0.054 A 
BRANCH  55  56
ATOM     56  S   UNL A   1      39.415  37.605  40.326  1.00  0.00     0.124 S 
ATOM     57  O   UNL A   1      40.809  37.875  40.663  1.00  0.00    -0.237 OA
ATOM     58  O   UNL A   1      38.688  38.705  39.697  1.00  0.00    -0.237 OA
ATOM     59  O   UNL A   1      38.659  36.863  41.334  1.00  0.00    -0.744 OA
ENDBRANCH  55  56
ENDBRANCH  27  50
BRANCH  39  60
ATOM     60  C   UNL A   1      43.558  28.767  35.858  1.00  0.00    -0.014 A 
ATOM     61  C   UNL A   1      43.213  27.677  36.676  1.00  0.00     0.010 A 
ATOM     62  C   UNL A   1      44.907  29.157  35.764  1.00  0.00     0.010 A 
ATOM     63  C   UNL A   1      44.196  27.000  37.399  1.00  0.00     0.020 A 
ATOM     64  C   UNL A   1      45.898  28.460  36.459  1.00  0.00     0.020 A 
ATOM     65  C   UNL A   1      45.534  27.390  37.278  1.00  0.00     0.054 A 
BRANCH  65  66
ATOM     66  S   UNL A   1      46.799  26.443  38.168  1.00  0.00     0.124 S 
ATOM     67  O   UNL A   1      47.787  27.471  38.478  1.00  0.00    -0.237 OA
ATOM     68  O   UNL A   1      46.057  25.918  39.311  1.00  0.00    -0.237 OA
ATOM     69  O   UNL A   1      47.229  25.439  37.196  1.00  0.00    -0.744 OA
ENDBRANCH  65  66
ENDBRANCH  39  60
ENDBRANCH  13  14
ENDBRANCH   6   8
ENDBRANCH   3   4
ENDBRANCH   2   3
ENDBRANCH   1   2
BRANCH   1  70
ATOM     70  C   UNL A   1      32.377  29.703  27.207  1.00  0.00     0.002 C 
BRANCH  70  71
ATOM     71  C   UNL A   1      31.652  28.124  27.479  1.00  0.00     0.021 C 
BRANCH  71  72
ATOM     72  C   UNL A   1      31.808  26.212  26.408  1.00  0.00     0.116 C 
BRANCH  72  73
ATOM     73  N   UNL A   1      31.172  24.764  26.690  1.00  0.00    -0.351 N 
ATOM     74  C   UNL A   1      31.594  23.526  26.252  1.00  0.00     0.272 C 
ATOM     75  H   UNL A   1      30.367  24.759  27.257  1.00  0.00     0.163 HD
ATOM     76  O   UNL A   1      30.928  22.512  26.413  1.00  0.00    -0.267 OA
BRANCH  74  77
ATOM     77  C   UNL A   1      32.918  23.479  25.610  1.00  0.00     0.159 A 
ATOM     78  N   UNL A   1      33.949  23.586  26.514  1.00  0.00    -0.247 NA
ATOM     79  C   UNL A   1      33.108  23.505  24.236  1.00  0.00     0.159 A 
ATOM     80  C   UNL A   1      35.183  23.696  25.991  1.00  0.00     0.132 A 
ATOM     81  N   UNL A   1      34.378  23.626  23.728  1.00  0.00    -0.247 NA
ATOM     82  C   UNL A   1      35.391  23.716  24.626  1.00  0.00     0.132 A 
BRANCH  79  83
ATOM     83  C   UNL A   1      32.052  23.292  23.200  1.00  0.00     0.277 C 
ATOM     84  O   UNL A   1      31.848  22.130  22.836  1.00  0.00    -0.267 OA
ATOM     85  N   UNL A   1      31.258  24.281  22.661  1.00  0.00    -0.303 N 
ATOM     86  H   UNL A   1      30.526  23.951  22.090  1.00  0.00     0.172 HD
BRANCH  85  87
ATOM     87  C   UNL A   1      31.313  25.643  22.785  1.00  0.00     0.164 A 
ATOM     88  N   UNL A   1      32.459  26.256  22.434  1.00  0.00    -0.155 NA
ATOM     89  C   UNL A   1      30.274  26.541  23.109  1.00  0.00     0.063 A 
ATOM     90  N   UNL A   1      32.181  27.543  22.067  1.00  0.00    -0.259 N 
ATOM     91  C   UNL A   1      30.903  27.948  22.323  1.00  0.00     0.157 A 
ATOM     92  C   UNL A   1      28.614  26.605  23.758  1.00  0.00     0.017 A 
ATOM     93  H   UNL A   1      32.851  28.131  21.650  1.00  0.00     0.192 HD
ATOM     94  N   UNL A   1      29.949  29.357  21.951  1.00  0.00    -0.237 NA
ATOM     95  C   UNL A   1      27.580  28.024  23.480  1.00  0.00     0.021 A 
ATOM     96  C   UNL A   1      28.284  29.380  22.615  1.00  0.00     0.113 A 
ENDBRANCH  85  87
ENDBRANCH  79  83
ENDBRANCH  74  77
ENDBRANCH  72  73
ENDBRANCH  71  72
ENDBRANCH  70  71
ENDBRANCH   1  70
TORSDOF 18
ENDMDL
