MODEL 1
REMARK VINA RESULT:     -11.2      0.000      0.000
REMARK SMILES NC(=O)[C@@H]1CCC[N@@H+]1[C@@H](C(=O)NCCCCCCNC(=O)c1ccc(-c2c3nc(c(-c4ccc(S(=O)(=O)[O-])cc4)c4ccc([nH]4)c(-c4ccc(S(=O)(=O)[O-])cc4)c4nc(c(-c5ccc(S(=O)(=O)[O-])cc5)c5ccc2[nH]5)C=C4)C=C3)cc1)c1c[nH]c2cc(OCc3ccccc3)ccc12
REMARK SMILES IDX 15 1 14 2 13 3 12 4 10 5 11 6 9 8 8 9 4 10 5 11 6 12 7 13
REMARK SMILES IDX 2 15 1 16 3 19 82 20 83 21 98 22 84 23 85 24 97 25 86 27
REMARK SMILES IDX 96 28 87 29 88 30 89 31 90 32 91 33 95 34 92 35 94 36 93 37
REMARK SMILES IDX 16 38 17 39 18 40 19 41 20 42 21 44 22 45 23 46 81 47 24 48
REMARK SMILES IDX 80 49 25 50 26 51 27 52 74 53 28 54 79 55 73 56 75 57 29 58
REMARK SMILES IDX 78 59 72 60 71 61 30 63 60 64 41 65 59 66 42 67 45 68 58 69
REMARK SMILES IDX 76 70 43 71 44 72 57 74 77 75 46 76 31 77 32 78 40 79 33 80
REMARK SMILES IDX 39 81 34 82 35 83 36 84 37 85 38 86 61 87 62 88 70 89 63 90
REMARK SMILES IDX 69 91 64 92 65 93 66 94 67 95 68 96 47 97 48 98 56 99 49 100
REMARK SMILES IDX 55 101 50 102 51 103 52 104 53 105 54 106
REMARK H PARENT 12 7 8 14 1 17 1 18 84 26 19 43 75 62 45 73
REMARK Flexibility Score: inf
ROOT
ATOM      1  C   UNL A   1      32.683  29.282  25.808  1.00  0.00     0.002 C 
ENDROOT
BRANCH   1   2
ATOM      2  C   UNL A   1      32.464  27.769  25.904  1.00  0.00     0.021 C 
BRANCH   2   3
ATOM      3  C   UNL A   1      33.740  26.919  25.755  1.00  0.00     0.116 C 
BRANCH   3   4
ATOM      4  N   UNL A   1      33.924  26.397  24.413  1.00  0.00    -0.351 N 
ATOM      5  C   UNL A   1      34.039  25.184  23.800  1.00  0.00     0.283 C 
ATOM      6  O   UNL A   1      34.183  25.342  22.580  1.00  0.00    -0.268 OA
ATOM      7  H   UNL A   1      33.983  27.128  23.757  1.00  0.00     0.163 HD
BRANCH   5   8
ATOM      8  C   UNL A   1      33.882  23.756  24.463  1.00  0.00     0.308 C 
BRANCH   8   9
ATOM      9  N   UNL A   1      34.776  22.598  23.986  1.00  0.00    -0.311 N 
ATOM     10  C   UNL A   1      35.298  21.581  24.935  1.00  0.00     0.275 C 
ATOM     11  C   UNL A   1      36.507  22.241  25.586  1.00  0.00     0.081 C 
ATOM     12  C   UNL A   1      37.080  23.115  24.488  1.00  0.00     0.068 C 
ATOM     13  C   UNL A   1      36.075  22.953  23.371  1.00  0.00     0.264 C 
ATOM     14  H   UNL A   1      34.036  22.247  23.378  1.00  0.00     0.349 HD
BRANCH  10  15
ATOM     15  C   UNL A   1      34.320  20.719  25.717  1.00  0.00     0.275 C 
ATOM     16  N   UNL A   1      34.026  21.152  26.982  1.00  0.00    -0.365 N 
ATOM     17  H   UNL A   1      33.401  20.642  27.546  1.00  0.00     0.159 HD
ATOM     18  H   UNL A   1      34.442  21.975  27.330  1.00  0.00     0.159 HD
ATOM     19  O   UNL A   1      33.733  19.772  25.242  1.00  0.00    -0.268 OA
ENDBRANCH  10  15
ENDBRANCH   8   9
BRANCH   8  20
ATOM     20  C   UNL A   1      32.375  23.211  24.404  1.00  0.00     0.044 A 
ATOM     21  C   UNL A   1      31.888  22.224  23.545  1.00  0.00     0.094 A 
ATOM     22  C   UNL A   1      31.144  23.893  24.731  1.00  0.00     0.009 A 
ATOM     23  N   UNL A   1      30.982  22.928  22.764  1.00  0.00    -0.361 N 
ATOM     24  C   UNL A   1      30.534  24.009  23.484  1.00  0.00     0.050 A 
ATOM     25  C   UNL A   1      30.587  24.640  25.786  1.00  0.00     0.015 A 
ATOM     26  H   UNL A   1      30.708  22.693  21.849  1.00  0.00     0.166 HD
ATOM     27  C   UNL A   1      29.805  25.146  23.141  1.00  0.00     0.073 A 
ATOM     28  C   UNL A   1      29.664  25.661  25.503  1.00  0.00     0.047 A 
ATOM     29  C   UNL A   1      29.395  25.988  24.180  1.00  0.00     0.121 A 
BRANCH  29  30
ATOM     30  O   UNL A   1      28.862  27.186  23.782  1.00  0.00    -0.489 OA
BRANCH  30  31
ATOM     31  C   UNL A   1      29.721  28.061  23.052  1.00  0.00     0.265 C 
BRANCH  31  32
ATOM     32  C   UNL A   1      29.184  29.474  22.941  1.00  0.00    -0.011 A 
ATOM     33  C   UNL A   1      28.313  29.800  21.895  1.00  0.00     0.007 A 
ATOM     34  C   UNL A   1      29.530  30.489  23.845  1.00  0.00     0.007 A 
ATOM     35  C   UNL A   1      27.848  31.108  21.740  1.00  0.00     0.000 A 
ATOM     36  C   UNL A   1      29.094  31.799  23.679  1.00  0.00     0.000 A 
ATOM     37  C   UNL A   1      28.253  32.110  22.620  1.00  0.00     0.000 A 
ENDBRANCH  31  32
ENDBRANCH  30  31
ENDBRANCH  29  30
ENDBRANCH   8  20
ENDBRANCH   5   8
ENDBRANCH   3   4
ENDBRANCH   2   3
ENDBRANCH   1   2
BRANCH   1  38
ATOM     38  C   UNL A   1      31.919  30.044  26.893  1.00  0.00     0.002 C 
BRANCH  38  39
ATOM     39  C   UNL A   1      31.932  31.574  26.755  1.00  0.00     0.021 C 
BRANCH  39  40
ATOM     40  C   UNL A   1      33.168  32.264  27.326  1.00  0.00     0.116 C 
BRANCH  40  41
ATOM     41  N   UNL A   1      32.867  33.633  27.719  1.00  0.00    -0.352 N 
ATOM     42  C   UNL A   1      33.351  34.327  28.794  1.00  0.00     0.251 C 
ATOM     43  H   UNL A   1      32.236  34.119  27.141  1.00  0.00     0.163 HD
ATOM     44  O   UNL A   1      32.774  35.343  29.194  1.00  0.00    -0.269 OA
BRANCH  42  45
ATOM     45  C   UNL A   1      34.575  33.854  29.467  1.00  0.00     0.039 A 
ATOM     46  C   UNL A   1      35.822  34.313  29.038  1.00  0.00     0.014 A 
ATOM     47  C   UNL A   1      34.479  32.945  30.526  1.00  0.00     0.014 A 
ATOM     48  C   UNL A   1      36.975  33.890  29.701  1.00  0.00     0.010 A 
ATOM     49  C   UNL A   1      35.623  32.573  31.224  1.00  0.00     0.010 A 
ATOM     50  C   UNL A   1      36.884  33.033  30.812  1.00  0.00    -0.014 A 
BRANCH  50  51
ATOM     51  C   UNL A   1      38.098  32.590  31.543  1.00  0.00     0.031 A 
ATOM     52  C   UNL A   1      38.952  31.486  30.978  1.00  0.00     0.074 A 
ATOM     53  C   UNL A   1      38.400  33.144  32.734  1.00  0.00     0.049 A 
ATOM     54  N   UNL A   1      40.014  30.921  31.492  1.00  0.00    -0.248 NA
ATOM     55  C   UNL A   1      38.550  30.931  29.674  1.00  0.00     0.031 C 
ATOM     56  C   UNL A   1      37.626  34.191  33.403  1.00  0.00     0.029 A 
ATOM     57  N   UNL A   1      39.437  32.896  33.598  1.00  0.00    -0.354 N 
ATOM     58  C   UNL A   1      40.402  29.946  30.581  1.00  0.00     0.074 A 
ATOM     59  C   UNL A   1      39.431  29.955  29.510  1.00  0.00     0.031 C 
ATOM     60  C   UNL A   1      38.225  34.509  34.563  1.00  0.00     0.029 A 
ATOM     61  C   UNL A   1      39.401  33.664  34.739  1.00  0.00     0.049 A 
ATOM     62  H   UNL A   1      40.141  32.232  33.418  1.00  0.00     0.167 HD
ATOM     63  C   UNL A   1      41.483  29.132  30.620  1.00  0.00     0.031 A 
ATOM     64  C   UNL A   1      40.217  33.676  35.811  1.00  0.00     0.031 A 
ATOM     65  C   UNL A   1      42.452  29.130  31.684  1.00  0.00     0.049 A 
ATOM     66  C   UNL A   1      41.402  32.748  35.838  1.00  0.00     0.074 A 
ATOM     67  C   UNL A   1      43.600  28.368  31.801  1.00  0.00     0.029 A 
ATOM     68  N   UNL A   1      42.389  29.935  32.812  1.00  0.00    -0.354 N 
ATOM     69  N   UNL A   1      41.782  31.870  34.939  1.00  0.00    -0.248 NA
ATOM     70  C   UNL A   1      42.278  32.821  37.016  1.00  0.00     0.031 C 
ATOM     71  C   UNL A   1      44.208  28.678  33.021  1.00  0.00     0.029 A 
ATOM     72  C   UNL A   1      43.470  29.676  33.637  1.00  0.00     0.049 A 
ATOM     73  H   UNL A   1      41.680  30.592  32.999  1.00  0.00     0.167 HD
ATOM     74  C   UNL A   1      42.956  31.310  35.430  1.00  0.00     0.074 A 
ATOM     75  C   UNL A   1      43.233  31.960  36.694  1.00  0.00     0.031 C 
ATOM     76  C   UNL A   1      43.735  30.342  34.887  1.00  0.00     0.031 A 
BRANCH  63  77
ATOM     77  C   UNL A   1      41.687  28.182  29.469  1.00  0.00    -0.014 A 
ATOM     78  C   UNL A   1      40.981  26.967  29.404  1.00  0.00     0.010 A 
ATOM     79  C   UNL A   1      42.543  28.533  28.409  1.00  0.00     0.010 A 
ATOM     80  C   UNL A   1      41.145  26.109  28.315  1.00  0.00     0.020 A 
ATOM     81  C   UNL A   1      42.688  27.690  27.303  1.00  0.00     0.020 A 
ATOM     82  C   UNL A   1      41.996  26.477  27.268  1.00  0.00     0.054 A 
BRANCH  82  83
ATOM     83  S   UNL A   1      42.149  25.365  25.844  1.00  0.00     0.124 S 
ATOM     84  O   UNL A   1      40.846  24.705  25.835  1.00  0.00    -0.237 OA
ATOM     85  O   UNL A   1      42.392  26.291  24.740  1.00  0.00    -0.237 OA
ATOM     86  O   UNL A   1      43.280  24.507  26.193  1.00  0.00    -0.744 OA
ENDBRANCH  82  83
ENDBRANCH  63  77
BRANCH  64  87
ATOM     87  C   UNL A   1      39.943  34.593  36.953  1.00  0.00    -0.014 A 
ATOM     88  C   UNL A   1      40.487  35.889  36.982  1.00  0.00     0.010 A 
ATOM     89  C   UNL A   1      39.149  34.163  38.032  1.00  0.00     0.010 A 
ATOM     90  C   UNL A   1      40.276  36.723  38.085  1.00  0.00     0.020 A 
ATOM     91  C   UNL A   1      38.909  35.004  39.122  1.00  0.00     0.020 A 
ATOM     92  C   UNL A   1      39.491  36.273  39.150  1.00  0.00     0.054 A 
BRANCH  92  93
ATOM     93  S   UNL A   1      39.218  37.374  40.565  1.00  0.00     0.124 S 
ATOM     94  O   UNL A   1      40.554  37.913  40.793  1.00  0.00    -0.237 OA
ATOM     95  O   UNL A   1      38.233  38.319  40.045  1.00  0.00    -0.237 OA
ATOM     96  O   UNL A   1      38.719  36.476  41.605  1.00  0.00    -0.744 OA
ENDBRANCH  92  93
ENDBRANCH  64  87
BRANCH  76  97
ATOM     97  C   UNL A   1      44.985  29.957  35.632  1.00  0.00    -0.014 A 
ATOM     98  C   UNL A   1      45.013  28.840  36.484  1.00  0.00     0.010 A 
ATOM     99  C   UNL A   1      46.165  30.696  35.429  1.00  0.00     0.010 A 
ATOM    100  C   UNL A   1      46.192  28.487  37.146  1.00  0.00     0.020 A 
ATOM    101  C   UNL A   1      47.352  30.329  36.066  1.00  0.00     0.020 A 
ATOM    102  C   UNL A   1      47.354  29.234  36.932  1.00  0.00     0.054 A 
BRANCH 102 103
ATOM    103  S   UNL A   1      48.882  28.728  37.768  1.00  0.00     0.124 S 
ATOM    104  O   UNL A   1      49.733  29.901  37.583  1.00  0.00    -0.237 OA
ATOM    105  O   UNL A   1      48.434  28.488  39.138  1.00  0.00    -0.237 OA
ATOM    106  O   UNL A   1      49.299  27.534  37.037  1.00  0.00    -0.744 OA
ENDBRANCH 102 103
ENDBRANCH  76  97
ENDBRANCH  50  51
ENDBRANCH  42  45
ENDBRANCH  40  41
ENDBRANCH  39  40
ENDBRANCH  38  39
ENDBRANCH   1  38
TORSDOF 22
ENDMDL
MODEL 2
REMARK VINA RESULT:     -11.1      5.281      9.605
REMARK SMILES NC(=O)[C@@H]1CCC[N@@H+]1[C@@H](C(=O)NCCCCCCNC(=O)c1ccc(-c2c3nc(c(-c4ccc(S(=O)(=O)[O-])cc4)c4ccc([nH]4)c(-c4ccc(S(=O)(=O)[O-])cc4)c4nc(c(-c5ccc(S(=O)(=O)[O-])cc5)c5ccc2[nH]5)C=C4)C=C3)cc1)c1c[nH]c2cc(OCc3ccccc3)ccc12
REMARK SMILES IDX 15 1 14 2 13 3 12 4 10 5 11 6 9 8 8 9 4 10 5 11 6 12 7 13
REMARK SMILES IDX 2 15 1 16 3 19 82 20 83 21 98 22 84 23 85 24 97 25 86 27
REMARK SMILES IDX 96 28 87 29 88 30 89 31 90 32 91 33 95 34 92 35 94 36 93 37
REMARK SMILES IDX 16 38 17 39 18 40 19 41 20 42 21 44 22 45 23 46 81 47 24 48
REMARK SMILES IDX 80 49 25 50 26 51 27 52 74 53 28 54 79 55 73 56 75 57 29 58
REMARK SMILES IDX 78 59 72 60 71 61 30 63 60 64 41 65 59 66 42 67 45 68 58 69
REMARK SMILES IDX 76 70 43 71 44 72 57 74 77 75 46 76 31 77 32 78 40 79 33 80
REMARK SMILES IDX 39 81 34 82 35 83 36 84 37 85 38 86 61 87 62 88 70 89 63 90
REMARK SMILES IDX 69 91 64 92 65 93 66 94 67 95 68 96 47 97 48 98 56 99 49 100
REMARK SMILES IDX 55 101 50 102 51 103 52 104 53 105 54 106
REMARK H PARENT 12 7 8 14 1 17 1 18 84 26 19 43 75 62 45 73
REMARK Flexibility Score: inf
ROOT
ATOM      1  C   UNL A   1      35.630  21.450  24.766  1.00  0.00     0.002 C 
ENDROOT
BRANCH   1   2
ATOM      2  C   UNL A   1      34.408  21.989  25.516  1.00  0.00     0.021 C 
BRANCH   2   3
ATOM      3  C   UNL A   1      34.509  23.464  25.947  1.00  0.00     0.116 C 
BRANCH   3   4
ATOM      4  N   UNL A   1      33.277  23.978  26.517  1.00  0.00    -0.351 N 
ATOM      5  C   UNL A   1      32.449  25.047  26.351  1.00  0.00     0.283 C 
ATOM      6  O   UNL A   1      31.499  24.970  27.143  1.00  0.00    -0.268 OA
ATOM      7  H   UNL A   1      32.944  23.383  27.227  1.00  0.00     0.163 HD
BRANCH   5   8
ATOM      8  C   UNL A   1      32.547  26.175  25.246  1.00  0.00     0.308 C 
BRANCH   8   9
ATOM      9  N   UNL A   1      32.102  27.609  25.584  1.00  0.00    -0.311 N 
ATOM     10  C   UNL A   1      32.788  28.791  25.001  1.00  0.00     0.275 C 
ATOM     11  C   UNL A   1      34.034  28.979  25.857  1.00  0.00     0.081 C 
ATOM     12  C   UNL A   1      33.598  28.533  27.239  1.00  0.00     0.068 C 
ATOM     13  C   UNL A   1      32.193  28.029  27.001  1.00  0.00     0.264 C 
ATOM     14  H   UNL A   1      31.176  27.439  25.191  1.00  0.00     0.349 HD
BRANCH  10  15
ATOM     15  C   UNL A   1      32.799  28.977  23.492  1.00  0.00     0.275 C 
ATOM     16  N   UNL A   1      31.644  29.474  22.947  1.00  0.00    -0.365 N 
ATOM     17  H   UNL A   1      31.581  29.619  21.975  1.00  0.00     0.159 HD
ATOM     18  H   UNL A   1      30.877  29.684  23.528  1.00  0.00     0.159 HD
ATOM     19  O   UNL A   1      33.783  28.818  22.804  1.00  0.00    -0.268 OA
ENDBRANCH  10  15
ENDBRANCH   8   9
BRANCH   8  20
ATOM     20  C   UNL A   1      31.785  25.779  23.892  1.00  0.00     0.044 A 
ATOM     21  C   UNL A   1      30.437  26.009  23.606  1.00  0.00     0.094 A 
ATOM     22  C   UNL A   1      32.058  24.698  22.972  1.00  0.00     0.009 A 
ATOM     23  N   UNL A   1      29.929  24.720  23.510  1.00  0.00    -0.361 N 
ATOM     24  C   UNL A   1      30.950  23.875  23.150  1.00  0.00     0.050 A 
ATOM     25  C   UNL A   1      33.139  24.165  22.246  1.00  0.00     0.015 A 
ATOM     26  H   UNL A   1      28.994  24.458  23.673  1.00  0.00     0.166 HD
ATOM     27  C   UNL A   1      31.071  22.487  23.120  1.00  0.00     0.073 A 
ATOM     28  C   UNL A   1      33.193  22.784  21.992  1.00  0.00     0.047 A 
ATOM     29  C   UNL A   1      32.231  21.951  22.551  1.00  0.00     0.121 A 
BRANCH  29  30
ATOM     30  O   UNL A   1      32.395  20.603  22.725  1.00  0.00    -0.489 OA
BRANCH  30  31
ATOM     31  C   UNL A   1      32.188  20.094  24.043  1.00  0.00     0.265 C 
BRANCH  31  32
ATOM     32  C   UNL A   1      32.690  18.675  24.224  1.00  0.00    -0.011 A 
ATOM     33  C   UNL A   1      32.600  18.068  25.481  1.00  0.00     0.007 A 
ATOM     34  C   UNL A   1      33.256  17.933  23.178  1.00  0.00     0.007 A 
ATOM     35  C   UNL A   1      33.105  16.782  25.687  1.00  0.00     0.000 A 
ATOM     36  C   UNL A   1      33.787  16.664  23.382  1.00  0.00     0.000 A 
ATOM     37  C   UNL A   1      33.715  16.088  24.643  1.00  0.00     0.000 A 
ENDBRANCH  31  32
ENDBRANCH  30  31
ENDBRANCH  29  30
ENDBRANCH   8  20
ENDBRANCH   5   8
ENDBRANCH   3   4
ENDBRANCH   2   3
ENDBRANCH   1   2
BRANCH   1  38
ATOM     38  C   UNL A   1      36.944  21.904  25.404  1.00  0.00     0.002 C 
BRANCH  38  39
ATOM     39  C   UNL A   1      38.128  20.940  25.229  1.00  0.00     0.021 C 
BRANCH  39  40
ATOM     40  C   UNL A   1      39.332  21.228  26.120  1.00  0.00     0.116 C 
BRANCH  40  41
ATOM     41  N   UNL A   1      40.339  20.184  25.992  1.00  0.00    -0.352 N 
ATOM     42  C   UNL A   1      41.695  20.329  25.883  1.00  0.00     0.251 C 
ATOM     43  H   UNL A   1      40.002  19.259  25.981  1.00  0.00     0.163 HD
ATOM     44  O   UNL A   1      42.390  19.404  25.454  1.00  0.00    -0.269 OA
BRANCH  42  45
ATOM     45  C   UNL A   1      42.319  21.601  26.291  1.00  0.00     0.039 A 
ATOM     46  C   UNL A   1      42.561  22.590  25.337  1.00  0.00     0.014 A 
ATOM     47  C   UNL A   1      42.667  21.806  27.631  1.00  0.00     0.014 A 
ATOM     48  C   UNL A   1      43.118  23.808  25.734  1.00  0.00     0.010 A 
ATOM     49  C   UNL A   1      43.165  23.040  28.034  1.00  0.00     0.010 A 
ATOM     50  C   UNL A   1      43.406  24.049  27.089  1.00  0.00    -0.014 A 
BRANCH  50  51
ATOM     51  C   UNL A   1      43.979  25.345  27.534  1.00  0.00     0.031 A 
ATOM     52  C   UNL A   1      45.451  25.611  27.366  1.00  0.00     0.074 A 
ATOM     53  C   UNL A   1      43.186  26.257  28.131  1.00  0.00     0.049 A 
ATOM     54  N   UNL A   1      46.149  26.652  27.742  1.00  0.00    -0.248 NA
ATOM     55  C   UNL A   1      46.249  24.561  26.708  1.00  0.00     0.031 C 
ATOM     56  C   UNL A   1      41.753  26.096  28.386  1.00  0.00     0.029 A 
ATOM     57  N   UNL A   1      43.475  27.497  28.640  1.00  0.00    -0.354 N 
ATOM     58  C   UNL A   1      47.461  26.381  27.372  1.00  0.00     0.074 A 
ATOM     59  C   UNL A   1      47.475  25.056  26.795  1.00  0.00     0.031 C 
ATOM     60  C   UNL A   1      41.286  27.204  28.986  1.00  0.00     0.029 A 
ATOM     61  C   UNL A   1      42.390  28.136  29.193  1.00  0.00     0.049 A 
ATOM     62  H   UNL A   1      44.376  27.894  28.611  1.00  0.00     0.167 HD
ATOM     63  C   UNL A   1      48.552  27.175  27.481  1.00  0.00     0.031 A 
ATOM     64  C   UNL A   1      42.297  29.331  29.808  1.00  0.00     0.031 A 
ATOM     65  C   UNL A   1      48.534  28.496  28.050  1.00  0.00     0.049 A 
ATOM     66  C   UNL A   1      43.530  30.186  29.932  1.00  0.00     0.074 A 
ATOM     67  C   UNL A   1      49.579  29.393  28.175  1.00  0.00     0.029 A 
ATOM     68  N   UNL A   1      47.411  29.112  28.582  1.00  0.00    -0.354 N 
ATOM     69  N   UNL A   1      44.752  29.934  29.526  1.00  0.00    -0.248 NA
ATOM     70  C   UNL A   1      43.369  31.493  30.584  1.00  0.00     0.031 C 
ATOM     71  C   UNL A   1      49.100  30.535  28.825  1.00  0.00     0.029 A 
ATOM     72  C   UNL A   1      47.742  30.372  29.051  1.00  0.00     0.049 A 
ATOM     73  H   UNL A   1      46.513  28.713  28.621  1.00  0.00     0.167 HD
ATOM     74  C   UNL A   1      45.498  31.063  29.846  1.00  0.00     0.074 A 
ATOM     75  C   UNL A   1      44.586  32.006  30.462  1.00  0.00     0.031 C 
ATOM     76  C   UNL A   1      46.819  31.300  29.652  1.00  0.00     0.031 A 
BRANCH  63  77
ATOM     77  C   UNL A   1      49.862  26.641  26.959  1.00  0.00    -0.014 A 
ATOM     78  C   UNL A   1      50.774  26.005  27.820  1.00  0.00     0.010 A 
ATOM     79  C   UNL A   1      50.157  26.718  25.586  1.00  0.00     0.010 A 
ATOM     80  C   UNL A   1      51.968  25.478  27.323  1.00  0.00     0.020 A 
ATOM     81  C   UNL A   1      51.338  26.167  25.080  1.00  0.00     0.020 A 
ATOM     82  C   UNL A   1      52.242  25.559  25.955  1.00  0.00     0.054 A 
BRANCH  82  83
ATOM     83  S   UNL A   1      53.777  24.820  25.333  1.00  0.00     0.124 S 
ATOM     84  O   UNL A   1      54.053  25.642  24.157  1.00  0.00    -0.237 OA
ATOM     85  O   UNL A   1      54.694  25.001  26.455  1.00  0.00    -0.237 OA
ATOM     86  O   UNL A   1      53.407  23.435  25.051  1.00  0.00    -0.744 OA
ENDBRANCH  82  83
ENDBRANCH  63  77
BRANCH  64  87
ATOM     87  C   UNL A   1      40.992  29.792  30.360  1.00  0.00    -0.014 A 
ATOM     88  C   UNL A   1      40.675  29.598  31.716  1.00  0.00     0.010 A 
ATOM     89  C   UNL A   1      40.048  30.412  29.521  1.00  0.00     0.010 A 
ATOM     90  C   UNL A   1      39.424  29.979  32.213  1.00  0.00     0.020 A 
ATOM     91  C   UNL A   1      38.810  30.823  30.021  1.00  0.00     0.020 A 
ATOM     92  C   UNL A   1      38.498  30.586  31.361  1.00  0.00     0.054 A 
BRANCH  92  93
ATOM     93  S   UNL A   1      36.887  31.084  32.029  1.00  0.00     0.124 S 
ATOM     94  O   UNL A   1      36.311  31.824  30.911  1.00  0.00    -0.237 OA
ATOM     95  O   UNL A   1      36.259  29.801  32.332  1.00  0.00    -0.237 OA
ATOM     96  O   UNL A   1      37.236  31.888  33.198  1.00  0.00    -0.744 OA
ENDBRANCH  92  93
ENDBRANCH  64  87
BRANCH  76  97
ATOM     97  C   UNL A   1      47.351  32.645  30.067  1.00  0.00    -0.014 A 
ATOM     98  C   UNL A   1      47.889  32.854  31.348  1.00  0.00     0.010 A 
ATOM     99  C   UNL A   1      47.363  33.701  29.137  1.00  0.00     0.010 A 
ATOM    100  C   UNL A   1      48.400  34.105  31.704  1.00  0.00     0.020 A 
ATOM    101  C   UNL A   1      47.900  34.944  29.479  1.00  0.00     0.020 A 
ATOM    102  C   UNL A   1      48.403  35.142  30.766  1.00  0.00     0.054 A 
BRANCH 102 103
ATOM    103  S   UNL A   1      49.113  36.742  31.238  1.00  0.00     0.124 S 
ATOM    104  O   UNL A   1      48.498  37.646  30.269  1.00  0.00    -0.237 OA
ATOM    105  O   UNL A   1      48.662  36.900  32.618  1.00  0.00    -0.237 OA
ATOM    106  O   UNL A   1      50.552  36.544  31.078  1.00  0.00    -0.744 OA
ENDBRANCH 102 103
ENDBRANCH  76  97
ENDBRANCH  50  51
ENDBRANCH  42  45
ENDBRANCH  40  41
ENDBRANCH  39  40
ENDBRANCH  38  39
ENDBRANCH   1  38
TORSDOF 22
ENDMDL
MODEL 3
REMARK VINA RESULT:     -11.1      5.315     11.430
REMARK SMILES NC(=O)[C@@H]1CCC[N@@H+]1[C@@H](C(=O)NCCCCCCNC(=O)c1ccc(-c2c3nc(c(-c4ccc(S(=O)(=O)[O-])cc4)c4ccc([nH]4)c(-c4ccc(S(=O)(=O)[O-])cc4)c4nc(c(-c5ccc(S(=O)(=O)[O-])cc5)c5ccc2[nH]5)C=C4)C=C3)cc1)c1c[nH]c2cc(OCc3ccccc3)ccc12
REMARK SMILES IDX 15 1 14 2 13 3 12 4 10 5 11 6 9 8 8 9 4 10 5 11 6 12 7 13
REMARK SMILES IDX 2 15 1 16 3 19 82 20 83 21 98 22 84 23 85 24 97 25 86 27
REMARK SMILES IDX 96 28 87 29 88 30 89 31 90 32 91 33 95 34 92 35 94 36 93 37
REMARK SMILES IDX 16 38 17 39 18 40 19 41 20 42 21 44 22 45 23 46 81 47 24 48
REMARK SMILES IDX 80 49 25 50 26 51 27 52 74 53 28 54 79 55 73 56 75 57 29 58
REMARK SMILES IDX 78 59 72 60 71 61 30 63 60 64 41 65 59 66 42 67 45 68 58 69
REMARK SMILES IDX 76 70 43 71 44 72 57 74 77 75 46 76 31 77 32 78 40 79 33 80
REMARK SMILES IDX 39 81 34 82 35 83 36 84 37 85 38 86 61 87 62 88 70 89 63 90
REMARK SMILES IDX 69 91 64 92 65 93 66 94 67 95 68 96 47 97 48 98 56 99 49 100
REMARK SMILES IDX 55 101 50 102 51 103 52 104 53 105 54 106
REMARK H PARENT 12 7 8 14 1 17 1 18 84 26 19 43 75 62 45 73
REMARK Flexibility Score: inf
ROOT
ATOM      1  C   UNL A   1      36.133  22.945  24.653  1.00  0.00     0.002 C 
ENDROOT
BRANCH   1   2
ATOM      2  C   UNL A   1      35.561  23.959  25.648  1.00  0.00     0.021 C 
BRANCH   2   3
ATOM      3  C   UNL A   1      34.320  24.725  25.152  1.00  0.00     0.116 C 
BRANCH   3   4
ATOM      4  N   UNL A   1      34.322  24.946  23.717  1.00  0.00    -0.351 N 
ATOM      5  C   UNL A   1      33.478  25.427  22.761  1.00  0.00     0.283 C 
ATOM      6  O   UNL A   1      34.030  25.384  21.653  1.00  0.00    -0.268 OA
ATOM      7  H   UNL A   1      35.179  24.668  23.321  1.00  0.00     0.163 HD
BRANCH   5   8
ATOM      8  C   UNL A   1      32.055  26.083  22.980  1.00  0.00     0.308 C 
BRANCH   8   9
ATOM      9  N   UNL A   1      31.920  27.313  23.895  1.00  0.00    -0.311 N 
ATOM     10  C   UNL A   1      31.793  28.684  23.337  1.00  0.00     0.275 C 
ATOM     11  C   UNL A   1      33.219  29.099  22.996  1.00  0.00     0.081 C 
ATOM     12  C   UNL A   1      34.060  28.418  24.059  1.00  0.00     0.068 C 
ATOM     13  C   UNL A   1      33.043  27.598  24.817  1.00  0.00     0.264 C 
ATOM     14  H   UNL A   1      31.052  26.952  24.290  1.00  0.00     0.349 HD
BRANCH  10  15
ATOM     15  C   UNL A   1      30.610  29.018  22.441  1.00  0.00     0.275 C 
ATOM     16  N   UNL A   1      30.774  30.104  21.623  1.00  0.00    -0.365 N 
ATOM     17  H   UNL A   1      30.048  30.378  21.017  1.00  0.00     0.159 HD
ATOM     18  H   UNL A   1      31.618  30.611  21.640  1.00  0.00     0.159 HD
ATOM     19  O   UNL A   1      29.622  28.324  22.349  1.00  0.00    -0.268 OA
ENDBRANCH  10  15
ENDBRANCH   8   9
BRANCH   8  20
ATOM     20  C   UNL A   1      30.960  25.027  23.488  1.00  0.00     0.044 A 
ATOM     21  C   UNL A   1      29.926  25.280  24.391  1.00  0.00     0.094 A 
ATOM     22  C   UNL A   1      31.069  23.592  23.624  1.00  0.00     0.009 A 
ATOM     23  N   UNL A   1      30.266  24.473  25.468  1.00  0.00    -0.361 N 
ATOM     24  C   UNL A   1      31.023  23.424  25.005  1.00  0.00     0.050 A 
ATOM     25  C   UNL A   1      31.453  22.475  22.858  1.00  0.00     0.015 A 
ATOM     26  H   UNL A   1      30.008  24.627  26.405  1.00  0.00     0.166 HD
ATOM     27  C   UNL A   1      31.797  22.455  25.640  1.00  0.00     0.073 A 
ATOM     28  C   UNL A   1      32.039  21.367  23.490  1.00  0.00     0.047 A 
ATOM     29  C   UNL A   1      32.328  21.431  24.848  1.00  0.00     0.121 A 
BRANCH  29  30
ATOM     30  O   UNL A   1      33.239  20.624  25.476  1.00  0.00    -0.489 OA
BRANCH  30  31
ATOM     31  C   UNL A   1      34.042  19.790  24.641  1.00  0.00     0.265 C 
BRANCH  31  32
ATOM     32  C   UNL A   1      33.802  18.309  24.865  1.00  0.00    -0.011 A 
ATOM     33  C   UNL A   1      34.666  17.376  24.281  1.00  0.00     0.007 A 
ATOM     34  C   UNL A   1      32.735  17.823  25.634  1.00  0.00     0.007 A 
ATOM     35  C   UNL A   1      34.434  16.006  24.427  1.00  0.00     0.000 A 
ATOM     36  C   UNL A   1      32.483  16.461  25.759  1.00  0.00     0.000 A 
ATOM     37  C   UNL A   1      33.333  15.549  25.150  1.00  0.00     0.000 A 
ENDBRANCH  31  32
ENDBRANCH  30  31
ENDBRANCH  29  30
ENDBRANCH   8  20
ENDBRANCH   5   8
ENDBRANCH   3   4
ENDBRANCH   2   3
ENDBRANCH   1   2
BRANCH   1  38
ATOM     38  C   UNL A   1      36.621  21.670  25.344  1.00  0.00     0.002 C 
BRANCH  38  39
ATOM     39  C   UNL A   1      38.058  21.247  25.006  1.00  0.00     0.021 C 
BRANCH  39  40
ATOM     40  C   UNL A   1      39.052  21.362  26.158  1.00  0.00     0.116 C 
BRANCH  40  41
ATOM     41  N   UNL A   1      39.967  20.229  26.173  1.00  0.00    -0.352 N 
ATOM     42  C   UNL A   1      41.335  20.249  26.126  1.00  0.00     0.251 C 
ATOM     43  H   UNL A   1      39.550  19.339  26.223  1.00  0.00     0.163 HD
ATOM     44  O   UNL A   1      41.964  19.234  25.815  1.00  0.00    -0.269 OA
BRANCH  42  45
ATOM     45  C   UNL A   1      42.049  21.496  26.457  1.00  0.00     0.039 A 
ATOM     46  C   UNL A   1      42.324  22.424  25.451  1.00  0.00     0.014 A 
ATOM     47  C   UNL A   1      42.451  21.737  27.775  1.00  0.00     0.014 A 
ATOM     48  C   UNL A   1      42.968  23.619  25.776  1.00  0.00     0.010 A 
ATOM     49  C   UNL A   1      43.037  22.954  28.107  1.00  0.00     0.010 A 
ATOM     50  C   UNL A   1      43.312  23.902  27.110  1.00  0.00    -0.014 A 
BRANCH  50  51
ATOM     51  C   UNL A   1      43.978  25.177  27.478  1.00  0.00     0.031 A 
ATOM     52  C   UNL A   1      43.189  26.270  28.148  1.00  0.00     0.074 A 
ATOM     53  C   UNL A   1      45.275  25.368  27.163  1.00  0.00     0.049 A 
ATOM     54  N   UNL A   1      43.574  27.472  28.493  1.00  0.00    -0.248 NA
ATOM     55  C   UNL A   1      41.776  25.983  28.453  1.00  0.00     0.031 C 
ATOM     56  C   UNL A   1      46.132  24.400  26.477  1.00  0.00     0.029 A 
ATOM     57  N   UNL A   1      46.096  26.447  27.373  1.00  0.00    -0.354 N 
ATOM     58  C   UNL A   1      42.456  28.082  29.049  1.00  0.00     0.074 A 
ATOM     59  C   UNL A   1      41.362  27.142  28.944  1.00  0.00     0.031 C 
ATOM     60  C   UNL A   1      47.363  24.921  26.339  1.00  0.00     0.029 A 
ATOM     61  C   UNL A   1      47.373  26.272  26.891  1.00  0.00     0.049 A 
ATOM     62  H   UNL A   1      45.800  27.269  27.826  1.00  0.00     0.167 HD
ATOM     63  C   UNL A   1      42.354  29.306  29.618  1.00  0.00     0.031 A 
ATOM     64  C   UNL A   1      48.428  27.110  26.883  1.00  0.00     0.031 A 
ATOM     65  C   UNL A   1      43.446  30.237  29.727  1.00  0.00     0.049 A 
ATOM     66  C   UNL A   1      48.283  28.473  27.507  1.00  0.00     0.074 A 
ATOM     67  C   UNL A   1      43.454  31.488  30.316  1.00  0.00     0.029 A 
ATOM     68  N   UNL A   1      44.727  30.014  29.243  1.00  0.00    -0.354 N 
ATOM     69  N   UNL A   1      47.230  29.011  28.076  1.00  0.00    -0.248 NA
ATOM     70  C   UNL A   1      49.471  29.337  27.500  1.00  0.00     0.031 C 
ATOM     71  C   UNL A   1      44.726  32.043  30.148  1.00  0.00     0.029 A 
ATOM     72  C   UNL A   1      45.528  31.112  29.506  1.00  0.00     0.049 A 
ATOM     73  H   UNL A   1      45.021  29.197  28.780  1.00  0.00     0.167 HD
ATOM     74  C   UNL A   1      47.639  30.263  28.521  1.00  0.00     0.074 A 
ATOM     75  C   UNL A   1      49.039  30.395  28.172  1.00  0.00     0.031 C 
ATOM     76  C   UNL A   1      46.922  31.220  29.160  1.00  0.00     0.031 A 
BRANCH  63  77
ATOM     77  C   UNL A   1      41.016  29.708  30.183  1.00  0.00    -0.014 A 
ATOM     78  C   UNL A   1      39.975  30.132  29.336  1.00  0.00     0.010 A 
ATOM     79  C   UNL A   1      40.773  29.600  31.564  1.00  0.00     0.010 A 
ATOM     80  C   UNL A   1      38.725  30.465  29.862  1.00  0.00     0.020 A 
ATOM     81  C   UNL A   1      39.514  29.906  32.091  1.00  0.00     0.020 A 
ATOM     82  C   UNL A   1      38.501  30.346  31.237  1.00  0.00     0.054 A 
BRANCH  82  83
ATOM     83  S   UNL A   1      36.852  30.738  31.882  1.00  0.00     0.124 S 
ATOM     84  O   UNL A   1      36.610  32.060  31.311  1.00  0.00    -0.237 OA
ATOM     85  O   UNL A   1      36.032  29.658  31.338  1.00  0.00    -0.237 OA
ATOM     86  O   UNL A   1      37.031  30.710  33.333  1.00  0.00    -0.744 OA
ENDBRANCH  82  83
ENDBRANCH  63  77
BRANCH  64  87
ATOM     87  C   UNL A   1      49.715  26.691  26.262  1.00  0.00    -0.014 A 
ATOM     88  C   UNL A   1      50.653  25.935  26.988  1.00  0.00     0.010 A 
ATOM     89  C   UNL A   1      50.019  27.066  24.941  1.00  0.00     0.010 A 
ATOM     90  C   UNL A   1      51.885  25.597  26.419  1.00  0.00     0.020 A 
ATOM     91  C   UNL A   1      51.237  26.703  24.358  1.00  0.00     0.020 A 
ATOM     92  C   UNL A   1      52.170  25.986  25.108  1.00  0.00     0.054 A 
BRANCH  92  93
ATOM     93  S   UNL A   1      53.769  25.526  24.384  1.00  0.00     0.124 S 
ATOM     94  O   UNL A   1      54.682  26.448  25.053  1.00  0.00    -0.237 OA
ATOM     95  O   UNL A   1      53.895  24.122  24.763  1.00  0.00    -0.237 OA
ATOM     96  O   UNL A   1      53.576  25.762  22.955  1.00  0.00    -0.744 OA
ENDBRANCH  92  93
ENDBRANCH  64  87
BRANCH  76  97
ATOM     97  C   UNL A   1      47.646  32.477  29.563  1.00  0.00    -0.014 A 
ATOM     98  C   UNL A   1      48.494  32.504  30.683  1.00  0.00     0.010 A 
ATOM     99  C   UNL A   1      47.517  33.633  28.770  1.00  0.00     0.010 A 
ATOM    100  C   UNL A   1      49.176  33.675  31.023  1.00  0.00     0.020 A 
ATOM    101  C   UNL A   1      48.220  34.796  29.091  1.00  0.00     0.020 A 
ATOM    102  C   UNL A   1      49.034  34.814  30.224  1.00  0.00     0.054 A 
BRANCH 102 103
ATOM    103  S   UNL A   1      49.965  36.308  30.662  1.00  0.00     0.124 S 
ATOM    104  O   UNL A   1      49.887  36.298  32.120  1.00  0.00    -0.237 OA
ATOM    105  O   UNL A   1      51.287  36.037  30.102  1.00  0.00    -0.237 OA
ATOM    106  O   UNL A   1      49.225  37.383  30.006  1.00  0.00    -0.744 OA
ENDBRANCH 102 103
ENDBRANCH  76  97
ENDBRANCH  50  51
ENDBRANCH  42  45
ENDBRANCH  40  41
ENDBRANCH  39  40
ENDBRANCH  38  39
ENDBRANCH   1  38
TORSDOF 22
ENDMDL
