MODEL 1
REMARK VINA RESULT:      -8.5      0.000      0.000
REMARK SMILES CCc1cccc(-c2ccc([C@@H](C)C(=O)NCCCCCCNC(=O)c3ccc(-c4c5nc(c(-c6ccc(S(=O)(=O)[O-])cc6)c6ccc([nH]6)c(-c6ccc(S(=O)(=O)[O-])cc6)c6nc(c(-c7ccc(S(=O)(=O)[O-])cc7)c7ccc4[nH]7)C=C6)C=C5)cc3)cc2)c1
REMARK SMILES IDX 19 1 18 2 17 3 16 4 14 5 15 6 12 8 13 9 11 10 8 11 9 12
REMARK SMILES IDX 87 13 10 14 86 15 7 16 3 17 4 18 88 19 5 20 6 21 2 22 1 23
REMARK SMILES IDX 20 24 21 25 22 26 23 27 24 28 25 30 26 31 27 32 85 33 28 34
REMARK SMILES IDX 84 35 29 36 30 37 31 38 78 39 32 40 83 41 77 42 79 43 33 44
REMARK SMILES IDX 82 45 76 46 75 47 34 49 64 50 45 51 63 52 46 53 49 54 62 55
REMARK SMILES IDX 80 56 47 57 48 58 61 60 81 61 50 62 35 63 36 64 44 65 37 66
REMARK SMILES IDX 43 67 38 68 39 69 40 70 41 71 42 72 65 73 66 74 74 75 67 76
REMARK SMILES IDX 73 77 68 78 69 79 70 80 71 81 72 82 51 83 52 84 60 85 53 86
REMARK SMILES IDX 59 87 54 88 55 89 56 90 57 91 58 92
REMARK H PARENT 16 7 23 29 79 48 49 59
REMARK Flexibility Score: inf
ROOT
ATOM      1  C   UNL A   1      36.355  33.318  31.845  1.00  0.00     0.002 C 
ENDROOT
BRANCH   1   2
ATOM      2  C   UNL A   1      36.260  33.320  33.374  1.00  0.00     0.021 C 
BRANCH   2   3
ATOM      3  C   UNL A   1      37.607  33.495  34.078  1.00  0.00     0.116 C 
BRANCH   3   4
ATOM      4  N   UNL A   1      37.834  32.461  35.068  1.00  0.00    -0.356 N 
ATOM      5  C   UNL A   1      38.183  31.152  34.940  1.00  0.00     0.227 C 
ATOM      6  O   UNL A   1      38.216  30.486  35.982  1.00  0.00    -0.274 OA
ATOM      7  H   UNL A   1      37.712  32.758  35.998  1.00  0.00     0.163 HD
BRANCH   5   8
ATOM      8  C   UNL A   1      38.543  30.494  33.598  1.00  0.00     0.105 C 
ATOM      9  C   UNL A   1      37.381  29.759  32.929  1.00  0.00     0.023 C 
BRANCH   8  10
ATOM     10  C   UNL A   1      39.877  29.764  33.620  1.00  0.00    -0.036 A 
ATOM     11  C   UNL A   1      42.377  28.397  33.869  1.00  0.00    -0.018 A 
ATOM     12  C   UNL A   1      41.284  27.820  33.204  1.00  0.00     0.009 A 
ATOM     13  C   UNL A   1      42.200  29.696  34.370  1.00  0.00     0.009 A 
ATOM     14  C   UNL A   1      40.070  28.502  33.054  1.00  0.00     0.005 A 
ATOM     15  C   UNL A   1      40.970  30.359  34.267  1.00  0.00     0.005 A 
BRANCH  11  16
ATOM     16  C   UNL A   1      43.649  27.657  34.043  1.00  0.00    -0.018 A 
ATOM     17  C   UNL A   1      44.928  25.552  33.976  1.00  0.00    -0.048 A 
ATOM     18  C   UNL A   1      46.088  26.252  34.315  1.00  0.00     0.004 A 
ATOM     19  C   UNL A   1      43.726  26.268  33.824  1.00  0.00     0.012 A 
ATOM     20  C   UNL A   1      46.042  27.624  34.538  1.00  0.00     0.001 A 
ATOM     21  C   UNL A   1      44.835  28.315  34.415  1.00  0.00     0.009 A 
BRANCH  17  22
ATOM     22  C   UNL A   1      44.957  24.060  33.747  1.00  0.00     0.032 C 
ATOM     23  C   UNL A   1      44.399  23.660  32.387  1.00  0.00     0.009 C 
ENDBRANCH  17  22
ENDBRANCH  11  16
ENDBRANCH   8  10
ENDBRANCH   5   8
ENDBRANCH   3   4
ENDBRANCH   2   3
ENDBRANCH   1   2
BRANCH   1  24
ATOM     24  C   UNL A   1      35.148  32.708  31.119  1.00  0.00     0.002 C 
BRANCH  24  25
ATOM     25  C   UNL A   1      34.606  33.523  29.940  1.00  0.00     0.021 C 
BRANCH  25  26
ATOM     26  C   UNL A   1      34.989  32.987  28.562  1.00  0.00     0.116 C 
BRANCH  26  27
ATOM     27  N   UNL A   1      34.135  31.880  28.157  1.00  0.00    -0.352 N 
ATOM     28  C   UNL A   1      34.466  30.584  27.847  1.00  0.00     0.251 C 
ATOM     29  H   UNL A   1      33.176  32.093  28.097  1.00  0.00     0.163 HD
ATOM     30  O   UNL A   1      33.647  29.860  27.290  1.00  0.00    -0.269 OA
BRANCH  28  31
ATOM     31  C   UNL A   1      35.812  30.065  28.174  1.00  0.00     0.039 A 
ATOM     32  C   UNL A   1      36.814  30.112  27.201  1.00  0.00     0.014 A 
ATOM     33  C   UNL A   1      36.077  29.511  29.429  1.00  0.00     0.014 A 
ATOM     34  C   UNL A   1      38.102  29.667  27.511  1.00  0.00     0.010 A 
ATOM     35  C   UNL A   1      37.375  29.123  29.756  1.00  0.00     0.010 A 
ATOM     36  C   UNL A   1      38.402  29.204  28.803  1.00  0.00    -0.014 A 
BRANCH  36  37
ATOM     37  C   UNL A   1      39.785  28.831  29.190  1.00  0.00     0.031 A 
ATOM     38  C   UNL A   1      40.687  29.833  29.855  1.00  0.00     0.074 A 
ATOM     39  C   UNL A   1      40.258  27.613  28.857  1.00  0.00     0.049 A 
ATOM     40  N   UNL A   1      41.949  29.717  30.180  1.00  0.00    -0.248 NA
ATOM     41  C   UNL A   1      40.100  31.144  30.177  1.00  0.00     0.031 C 
ATOM     42  C   UNL A   1      39.493  26.567  28.173  1.00  0.00     0.029 A 
ATOM     43  N   UNL A   1      41.500  27.056  29.032  1.00  0.00    -0.354 N 
ATOM     44  C   UNL A   1      42.314  30.943  30.724  1.00  0.00     0.074 A 
ATOM     45  C   UNL A   1      41.149  31.800  30.651  1.00  0.00     0.031 C 
ATOM     46  C   UNL A   1      40.279  25.493  27.997  1.00  0.00     0.029 A 
ATOM     47  C   UNL A   1      41.612  25.788  28.513  1.00  0.00     0.049 A 
ATOM     48  H   UNL A   1      42.240  27.520  29.485  1.00  0.00     0.167 HD
ATOM     49  C   UNL A   1      43.507  31.317  31.245  1.00  0.00     0.031 A 
ATOM     50  C   UNL A   1      42.672  24.960  28.438  1.00  0.00     0.031 A 
ATOM     51  C   UNL A   1      44.662  30.459  31.318  1.00  0.00     0.049 A 
ATOM     52  C   UNL A   1      43.991  25.403  29.004  1.00  0.00     0.074 A 
ATOM     53  C   UNL A   1      45.892  30.720  31.896  1.00  0.00     0.029 A 
ATOM     54  N   UNL A   1      44.733  29.181  30.785  1.00  0.00    -0.354 N 
ATOM     55  N   UNL A   1      44.295  26.537  29.589  1.00  0.00    -0.248 NA
ATOM     56  C   UNL A   1      45.110  24.455  28.903  1.00  0.00     0.031 C 
ATOM     57  C   UNL A   1      46.727  29.623  31.658  1.00  0.00     0.029 A 
ATOM     58  C   UNL A   1      45.999  28.656  30.983  1.00  0.00     0.049 A 
ATOM     59  H   UNL A   1      43.993  28.715  30.333  1.00  0.00     0.167 HD
ATOM     60  C   UNL A   1      45.638  26.437  29.934  1.00  0.00     0.074 A 
ATOM     61  C   UNL A   1      46.080  25.122  29.513  1.00  0.00     0.031 C 
ATOM     62  C   UNL A   1      46.432  27.353  30.540  1.00  0.00     0.031 A 
BRANCH  49  63
ATOM     63  C   UNL A   1      43.630  32.728  31.761  1.00  0.00    -0.014 A 
ATOM     64  C   UNL A   1      43.884  33.804  30.892  1.00  0.00     0.010 A 
ATOM     65  C   UNL A   1      43.459  32.985  33.135  1.00  0.00     0.010 A 
ATOM     66  C   UNL A   1      44.014  35.103  31.391  1.00  0.00     0.020 A 
ATOM     67  C   UNL A   1      43.560  34.286  33.635  1.00  0.00     0.020 A 
ATOM     68  C   UNL A   1      43.857  35.335  32.762  1.00  0.00     0.054 A 
BRANCH  68  69
ATOM     69  S   UNL A   1      44.025  37.031  33.382  1.00  0.00     0.124 S 
ATOM     70  O   UNL A   1      42.679  37.303  33.880  1.00  0.00    -0.237 OA
ATOM     71  O   UNL A   1      45.058  36.898  34.406  1.00  0.00    -0.237 OA
ATOM     72  O   UNL A   1      44.418  37.795  32.201  1.00  0.00    -0.744 OA
ENDBRANCH  68  69
ENDBRANCH  49  63
BRANCH  50  73
ATOM     73  C   UNL A   1      42.520  23.628  27.790  1.00  0.00    -0.014 A 
ATOM     74  C   UNL A   1      42.792  23.463  26.423  1.00  0.00     0.010 A 
ATOM     75  C   UNL A   1      42.142  22.508  28.553  1.00  0.00     0.010 A 
ATOM     76  C   UNL A   1      42.688  22.202  25.827  1.00  0.00     0.020 A 
ATOM     77  C   UNL A   1      42.062  21.242  27.968  1.00  0.00     0.020 A 
ATOM     78  C   UNL A   1      42.330  21.098  26.606  1.00  0.00     0.054 A 
BRANCH  78  79
ATOM     79  S   UNL A   1      42.280  19.459  25.829  1.00  0.00     0.124 S 
ATOM     80  O   UNL A   1      42.672  18.588  26.932  1.00  0.00    -0.237 OA
ATOM     81  O   UNL A   1      40.887  19.355  25.403  1.00  0.00    -0.237 OA
ATOM     82  O   UNL A   1      43.250  19.568  24.740  1.00  0.00    -0.744 OA
ENDBRANCH  78  79
ENDBRANCH  50  73
BRANCH  62  83
ATOM     83  C   UNL A   1      47.867  26.969  30.785  1.00  0.00    -0.014 A 
ATOM     84  C   UNL A   1      48.903  27.522  30.011  1.00  0.00     0.010 A 
ATOM     85  C   UNL A   1      48.188  26.095  31.839  1.00  0.00     0.010 A 
ATOM     86  C   UNL A   1      50.235  27.187  30.273  1.00  0.00     0.020 A 
ATOM     87  C   UNL A   1      49.521  25.780  32.120  1.00  0.00     0.020 A 
ATOM     88  C   UNL A   1      50.535  26.320  31.327  1.00  0.00     0.054 A 
BRANCH  88  89
ATOM     89  S   UNL A   1      52.275  25.946  31.679  1.00  0.00     0.124 S 
ATOM     90  O   UNL A   1      52.199  24.568  32.155  1.00  0.00    -0.237 OA
ATOM     91  O   UNL A   1      52.911  26.128  30.377  1.00  0.00    -0.237 OA
ATOM     92  O   UNL A   1      52.644  26.936  32.690  1.00  0.00    -0.744 OA
ENDBRANCH  88  89
ENDBRANCH  62  83
ENDBRANCH  36  37
ENDBRANCH  28  31
ENDBRANCH  26  27
ENDBRANCH  25  26
ENDBRANCH  24  25
ENDBRANCH   1  24
TORSDOF 19
ENDMDL
MODEL 2
REMARK VINA RESULT:      -7.7      4.659     11.176
REMARK SMILES CCc1cccc(-c2ccc([C@@H](C)C(=O)NCCCCCCNC(=O)c3ccc(-c4c5nc(c(-c6ccc(S(=O)(=O)[O-])cc6)c6ccc([nH]6)c(-c6ccc(S(=O)(=O)[O-])cc6)c6nc(c(-c7ccc(S(=O)(=O)[O-])cc7)c7ccc4[nH]7)C=C6)C=C5)cc3)cc2)c1
REMARK SMILES IDX 19 1 18 2 17 3 16 4 14 5 15 6 12 8 13 9 11 10 8 11 9 12
REMARK SMILES IDX 87 13 10 14 86 15 7 16 3 17 4 18 88 19 5 20 6 21 2 22 1 23
REMARK SMILES IDX 20 24 21 25 22 26 23 27 24 28 25 30 26 31 27 32 85 33 28 34
REMARK SMILES IDX 84 35 29 36 30 37 31 38 78 39 32 40 83 41 77 42 79 43 33 44
REMARK SMILES IDX 82 45 76 46 75 47 34 49 64 50 45 51 63 52 46 53 49 54 62 55
REMARK SMILES IDX 80 56 47 57 48 58 61 60 81 61 50 62 35 63 36 64 44 65 37 66
REMARK SMILES IDX 43 67 38 68 39 69 40 70 41 71 42 72 65 73 66 74 74 75 67 76
REMARK SMILES IDX 73 77 68 78 69 79 70 80 71 81 72 82 51 83 52 84 60 85 53 86
REMARK SMILES IDX 59 87 54 88 55 89 56 90 57 91 58 92
REMARK H PARENT 16 7 23 29 79 48 49 59
REMARK Flexibility Score: inf
ROOT
ATOM      1  C   UNL A   1      33.959  27.874  25.029  1.00  0.00     0.002 C 
ENDROOT
BRANCH   1   2
ATOM      2  C   UNL A   1      33.968  28.825  23.829  1.00  0.00     0.021 C 
BRANCH   2   3
ATOM      3  C   UNL A   1      32.724  28.720  22.944  1.00  0.00     0.116 C 
BRANCH   3   4
ATOM      4  N   UNL A   1      31.642  29.547  23.437  1.00  0.00    -0.356 N 
ATOM      5  C   UNL A   1      30.304  29.319  23.530  1.00  0.00     0.227 C 
ATOM      6  O   UNL A   1      29.609  30.266  23.919  1.00  0.00    -0.274 OA
ATOM      7  H   UNL A   1      31.925  30.431  23.763  1.00  0.00     0.163 HD
BRANCH   5   8
ATOM      8  C   UNL A   1      29.644  27.971  23.197  1.00  0.00     0.105 C 
ATOM      9  C   UNL A   1      28.116  27.991  23.251  1.00  0.00     0.023 C 
BRANCH   8  10
ATOM     10  C   UNL A   1      30.326  26.784  23.859  1.00  0.00    -0.036 A 
ATOM     11  C   UNL A   1      31.781  24.605  25.007  1.00  0.00    -0.018 A 
ATOM     12  C   UNL A   1      31.175  25.589  25.804  1.00  0.00     0.009 A 
ATOM     13  C   UNL A   1      31.603  24.716  23.619  1.00  0.00     0.009 A 
ATOM     14  C   UNL A   1      30.435  26.637  25.244  1.00  0.00     0.005 A 
ATOM     15  C   UNL A   1      30.908  25.793  23.055  1.00  0.00     0.005 A 
BRANCH  11  16
ATOM     16  C   UNL A   1      32.581  23.513  25.608  1.00  0.00    -0.018 A 
ATOM     17  C   UNL A   1      33.096  21.115  25.840  1.00  0.00    -0.048 A 
ATOM     18  C   UNL A   1      34.145  21.428  26.708  1.00  0.00     0.004 A 
ATOM     19  C   UNL A   1      32.340  22.163  25.285  1.00  0.00     0.012 A 
ATOM     20  C   UNL A   1      34.405  22.752  27.046  1.00  0.00     0.001 A 
ATOM     21  C   UNL A   1      33.625  23.779  26.511  1.00  0.00     0.009 A 
BRANCH  17  22
ATOM     22  C   UNL A   1      32.789  19.682  25.476  1.00  0.00     0.032 C 
ATOM     23  C   UNL A   1      32.761  19.447  23.971  1.00  0.00     0.009 C 
ENDBRANCH  17  22
ENDBRANCH  11  16
ENDBRANCH   8  10
ENDBRANCH   5   8
ENDBRANCH   3   4
ENDBRANCH   2   3
ENDBRANCH   1   2
BRANCH   1  24
ATOM     24  C   UNL A   1      33.435  28.481  26.338  1.00  0.00     0.002 C 
BRANCH  24  25
ATOM     25  C   UNL A   1      34.237  29.668  26.883  1.00  0.00     0.021 C 
BRANCH  25  26
ATOM     26  C   UNL A   1      35.545  29.291  27.576  1.00  0.00     0.116 C 
BRANCH  26  27
ATOM     27  N   UNL A   1      35.524  29.631  28.991  1.00  0.00    -0.352 N 
ATOM     28  C   UNL A   1      36.538  29.603  29.916  1.00  0.00     0.251 C 
ATOM     29  H   UNL A   1      34.650  29.927  29.336  1.00  0.00     0.163 HD
ATOM     30  O   UNL A   1      36.278  29.688  31.111  1.00  0.00    -0.269 OA
BRANCH  28  31
ATOM     31  C   UNL A   1      37.942  29.461  29.472  1.00  0.00     0.039 A 
ATOM     32  C   UNL A   1      38.924  29.149  30.415  1.00  0.00     0.014 A 
ATOM     33  C   UNL A   1      38.290  29.660  28.133  1.00  0.00     0.014 A 
ATOM     34  C   UNL A   1      40.247  28.966  30.002  1.00  0.00     0.010 A 
ATOM     35  C   UNL A   1      39.597  29.420  27.714  1.00  0.00     0.010 A 
ATOM     36  C   UNL A   1      40.587  29.064  28.643  1.00  0.00    -0.014 A 
BRANCH  36  37
ATOM     37  C   UNL A   1      41.960  28.766  28.164  1.00  0.00     0.031 A 
ATOM     38  C   UNL A   1      42.340  27.368  27.761  1.00  0.00     0.074 A 
ATOM     39  C   UNL A   1      42.891  29.741  28.182  1.00  0.00     0.049 A 
ATOM     40  N   UNL A   1      43.511  26.903  27.408  1.00  0.00    -0.248 NA
ATOM     41  C   UNL A   1      41.270  26.358  27.778  1.00  0.00     0.031 C 
ATOM     42  C   UNL A   1      42.655  31.128  28.591  1.00  0.00     0.029 A 
ATOM     43  N   UNL A   1      44.226  29.710  27.864  1.00  0.00    -0.354 N 
ATOM     44  C   UNL A   1      43.325  25.544  27.182  1.00  0.00     0.074 A 
ATOM     45  C   UNL A   1      41.937  25.254  27.473  1.00  0.00     0.031 C 
ATOM     46  C   UNL A   1      43.804  31.816  28.489  1.00  0.00     0.029 A 
ATOM     47  C   UNL A   1      44.863  30.913  28.052  1.00  0.00     0.049 A 
ATOM     48  H   UNL A   1      44.683  28.904  27.534  1.00  0.00     0.167 HD
ATOM     49  C   UNL A   1      44.227  24.624  26.760  1.00  0.00     0.031 A 
ATOM     50  C   UNL A   1      46.160  31.252  27.911  1.00  0.00     0.031 A 
ATOM     51  C   UNL A   1      45.605  24.920  26.468  1.00  0.00     0.049 A 
ATOM     52  C   UNL A   1      47.146  30.212  27.462  1.00  0.00     0.074 A 
ATOM     53  C   UNL A   1      46.577  24.073  25.963  1.00  0.00     0.029 A 
ATOM     54  N   UNL A   1      46.211  26.151  26.667  1.00  0.00    -0.354 N 
ATOM     55  N   UNL A   1      46.935  28.949  27.175  1.00  0.00    -0.248 NA
ATOM     56  C   UNL A   1      48.544  30.640  27.316  1.00  0.00     0.031 C 
ATOM     57  C   UNL A   1      47.786  24.777  25.916  1.00  0.00     0.029 A 
ATOM     58  C   UNL A   1      47.554  26.077  26.335  1.00  0.00     0.049 A 
ATOM     59  H   UNL A   1      45.754  26.959  26.996  1.00  0.00     0.167 HD
ATOM     60  C   UNL A   1      48.171  28.433  26.805  1.00  0.00     0.074 A 
ATOM     61  C   UNL A   1      49.120  29.526  26.883  1.00  0.00     0.031 C 
ATOM     62  C   UNL A   1      48.492  27.168  26.438  1.00  0.00     0.031 A 
BRANCH  49  63
ATOM     63  C   UNL A   1      43.751  23.202  26.608  1.00  0.00    -0.014 A 
ATOM     64  C   UNL A   1      43.895  22.510  25.392  1.00  0.00     0.010 A 
ATOM     65  C   UNL A   1      43.178  22.538  27.709  1.00  0.00     0.010 A 
ATOM     66  C   UNL A   1      43.430  21.198  25.265  1.00  0.00     0.020 A 
ATOM     67  C   UNL A   1      42.738  21.216  27.594  1.00  0.00     0.020 A 
ATOM     68  C   UNL A   1      42.848  20.561  26.366  1.00  0.00     0.054 A 
BRANCH  68  69
ATOM     69  S   UNL A   1      42.259  18.856  26.174  1.00  0.00     0.124 S 
ATOM     70  O   UNL A   1      43.146  18.348  25.129  1.00  0.00    -0.237 OA
ATOM     71  O   UNL A   1      42.470  18.292  27.505  1.00  0.00    -0.237 OA
ATOM     72  O   UNL A   1      40.861  19.014  25.781  1.00  0.00    -0.744 OA
ENDBRANCH  68  69
ENDBRANCH  49  63
BRANCH  50  73
ATOM     73  C   UNL A   1      46.592  32.645  28.210  1.00  0.00    -0.014 A 
ATOM     74  C   UNL A   1      46.579  33.628  27.206  1.00  0.00     0.010 A 
ATOM     75  C   UNL A   1      46.979  33.003  29.514  1.00  0.00     0.010 A 
ATOM     76  C   UNL A   1      46.946  34.945  27.501  1.00  0.00     0.020 A 
ATOM     77  C   UNL A   1      47.321  34.323  29.818  1.00  0.00     0.020 A 
ATOM     78  C   UNL A   1      47.309  35.285  28.807  1.00  0.00     0.054 A 
BRANCH  78  79
ATOM     79  S   UNL A   1      47.703  37.016  29.183  1.00  0.00     0.124 S 
ATOM     80  O   UNL A   1      46.387  37.643  29.141  1.00  0.00    -0.237 OA
ATOM     81  O   UNL A   1      48.317  36.919  30.505  1.00  0.00    -0.237 OA
ATOM     82  O   UNL A   1      48.616  37.398  28.107  1.00  0.00    -0.744 OA
ENDBRANCH  78  79
ENDBRANCH  50  73
BRANCH  62  83
ATOM     83  C   UNL A   1      49.931  26.892  26.095  1.00  0.00    -0.014 A 
ATOM     84  C   UNL A   1      50.832  26.438  27.075  1.00  0.00     0.010 A 
ATOM     85  C   UNL A   1      50.373  27.028  24.766  1.00  0.00     0.010 A 
ATOM     86  C   UNL A   1      52.156  26.148  26.736  1.00  0.00     0.020 A 
ATOM     87  C   UNL A   1      51.689  26.713  24.419  1.00  0.00     0.020 A 
ATOM     88  C   UNL A   1      52.576  26.285  25.410  1.00  0.00     0.054 A 
BRANCH  88  89
ATOM     89  S   UNL A   1      54.285  25.849  24.987  1.00  0.00     0.124 S 
ATOM     90  O   UNL A   1      54.403  26.366  23.628  1.00  0.00    -0.237 OA
ATOM     91  O   UNL A   1      55.057  26.563  26.002  1.00  0.00    -0.237 OA
ATOM     92  O   UNL A   1      54.311  24.393  25.106  1.00  0.00    -0.744 OA
ENDBRANCH  88  89
ENDBRANCH  62  83
ENDBRANCH  36  37
ENDBRANCH  28  31
ENDBRANCH  26  27
ENDBRANCH  25  26
ENDBRANCH  24  25
ENDBRANCH   1  24
TORSDOF 19
ENDMDL
MODEL 3
REMARK VINA RESULT:      -7.6      4.364      7.936
REMARK SMILES CCc1cccc(-c2ccc([C@@H](C)C(=O)NCCCCCCNC(=O)c3ccc(-c4c5nc(c(-c6ccc(S(=O)(=O)[O-])cc6)c6ccc([nH]6)c(-c6ccc(S(=O)(=O)[O-])cc6)c6nc(c(-c7ccc(S(=O)(=O)[O-])cc7)c7ccc4[nH]7)C=C6)C=C5)cc3)cc2)c1
REMARK SMILES IDX 19 1 18 2 17 3 16 4 14 5 15 6 12 8 13 9 11 10 8 11 9 12
REMARK SMILES IDX 87 13 10 14 86 15 7 16 3 17 4 18 88 19 5 20 6 21 2 22 1 23
REMARK SMILES IDX 20 24 21 25 22 26 23 27 24 28 25 30 26 31 27 32 85 33 28 34
REMARK SMILES IDX 84 35 29 36 30 37 31 38 78 39 32 40 83 41 77 42 79 43 33 44
REMARK SMILES IDX 82 45 76 46 75 47 34 49 64 50 45 51 63 52 46 53 49 54 62 55
REMARK SMILES IDX 80 56 47 57 48 58 61 60 81 61 50 62 35 63 36 64 44 65 37 66
REMARK SMILES IDX 43 67 38 68 39 69 40 70 41 71 42 72 65 73 66 74 74 75 67 76
REMARK SMILES IDX 73 77 68 78 69 79 70 80 71 81 72 82 51 83 52 84 60 85 53 86
REMARK SMILES IDX 59 87 54 88 55 89 56 90 57 91 58 92
REMARK H PARENT 16 7 23 29 79 48 49 59
REMARK Flexibility Score: inf
ROOT
ATOM      1  C   UNL A   1      33.747  27.071  23.284  1.00  0.00     0.002 C 
ENDROOT
BRANCH   1   2
ATOM      2  C   UNL A   1      33.581  28.543  22.894  1.00  0.00     0.021 C 
BRANCH   2   3
ATOM      3  C   UNL A   1      32.265  28.850  22.177  1.00  0.00     0.116 C 
BRANCH   3   4
ATOM      4  N   UNL A   1      31.364  29.615  23.015  1.00  0.00    -0.356 N 
ATOM      5  C   UNL A   1      30.077  29.387  23.396  1.00  0.00     0.227 C 
ATOM      6  O   UNL A   1      29.532  30.282  24.055  1.00  0.00    -0.274 OA
ATOM      7  H   UNL A   1      31.750  30.447  23.370  1.00  0.00     0.163 HD
BRANCH   5   8
ATOM      8  C   UNL A   1      29.305  28.100  23.065  1.00  0.00     0.105 C 
ATOM      9  C   UNL A   1      27.785  28.248  23.126  1.00  0.00     0.023 C 
BRANCH   8  10
ATOM     10  C   UNL A   1      29.888  26.859  23.725  1.00  0.00    -0.036 A 
ATOM     11  C   UNL A   1      31.161  24.567  24.868  1.00  0.00    -0.018 A 
ATOM     12  C   UNL A   1      30.626  25.589  25.667  1.00  0.00     0.009 A 
ATOM     13  C   UNL A   1      31.003  24.701  23.480  1.00  0.00     0.009 A 
ATOM     14  C   UNL A   1      29.974  26.696  25.109  1.00  0.00     0.005 A 
ATOM     15  C   UNL A   1      30.398  25.832  22.918  1.00  0.00     0.005 A 
BRANCH  11  16
ATOM     16  C   UNL A   1      31.869  23.412  25.468  1.00  0.00    -0.018 A 
ATOM     17  C   UNL A   1      32.562  21.049  25.387  1.00  0.00    -0.048 A 
ATOM     18  C   UNL A   1      33.270  21.221  26.579  1.00  0.00     0.004 A 
ATOM     19  C   UNL A   1      31.887  22.154  24.835  1.00  0.00     0.012 A 
ATOM     20  C   UNL A   1      33.269  22.452  27.226  1.00  0.00     0.001 A 
ATOM     21  C   UNL A   1      32.567  23.530  26.682  1.00  0.00     0.009 A 
BRANCH  17  22
ATOM     22  C   UNL A   1      32.538  19.715  24.680  1.00  0.00     0.032 C 
ATOM     23  C   UNL A   1      33.912  19.060  24.610  1.00  0.00     0.009 C 
ENDBRANCH  17  22
ENDBRANCH  11  16
ENDBRANCH   8  10
ENDBRANCH   5   8
ENDBRANCH   3   4
ENDBRANCH   2   3
ENDBRANCH   1   2
BRANCH   1  24
ATOM     24  C   UNL A   1      33.874  26.807  24.791  1.00  0.00     0.002 C 
BRANCH  24  25
ATOM     25  C   UNL A   1      33.333  27.915  25.703  1.00  0.00     0.021 C 
BRANCH  25  26
ATOM     26  C   UNL A   1      34.393  28.626  26.542  1.00  0.00     0.116 C 
BRANCH  26  27
ATOM     27  N   UNL A   1      34.087  30.039  26.713  1.00  0.00    -0.352 N 
ATOM     28  C   UNL A   1      34.600  30.946  27.607  1.00  0.00     0.251 C 
ATOM     29  H   UNL A   1      33.412  30.398  26.093  1.00  0.00     0.163 HD
ATOM     30  O   UNL A   1      34.046  32.029  27.764  1.00  0.00    -0.269 OA
BRANCH  28  31
ATOM     31  C   UNL A   1      35.812  30.614  28.386  1.00  0.00     0.039 A 
ATOM     32  C   UNL A   1      35.702  29.756  29.483  1.00  0.00     0.014 A 
ATOM     33  C   UNL A   1      37.051  31.169  28.050  1.00  0.00     0.014 A 
ATOM     34  C   UNL A   1      36.847  29.397  30.200  1.00  0.00     0.010 A 
ATOM     35  C   UNL A   1      38.198  30.765  28.728  1.00  0.00     0.010 A 
ATOM     36  C   UNL A   1      38.109  29.870  29.805  1.00  0.00    -0.014 A 
BRANCH  36  37
ATOM     37  C   UNL A   1      39.351  29.417  30.480  1.00  0.00     0.031 A 
ATOM     38  C   UNL A   1      39.871  30.145  31.688  1.00  0.00     0.074 A 
ATOM     39  C   UNL A   1      40.060  28.403  29.945  1.00  0.00     0.049 A 
ATOM     40  N   UNL A   1      40.982  29.951  32.351  1.00  0.00    -0.248 NA
ATOM     41  C   UNL A   1      39.045  31.247  32.207  1.00  0.00     0.031 C 
ATOM     42  C   UNL A   1      39.682  27.644  28.750  1.00  0.00     0.029 A 
ATOM     43  N   UNL A   1      41.256  27.848  30.326  1.00  0.00    -0.354 N 
ATOM     44  C   UNL A   1      41.001  30.918  33.349  1.00  0.00     0.074 A 
ATOM     45  C   UNL A   1      39.807  31.720  33.181  1.00  0.00     0.031 C 
ATOM     46  C   UNL A   1      40.621  26.716  28.503  1.00  0.00     0.029 A 
ATOM     47  C   UNL A   1      41.687  26.844  29.492  1.00  0.00     0.049 A 
ATOM     48  H   UNL A   1      41.759  28.141  31.120  1.00  0.00     0.167 HD
ATOM     49  C   UNL A   1      41.923  31.114  34.322  1.00  0.00     0.031 A 
ATOM     50  C   UNL A   1      42.822  26.117  29.504  1.00  0.00     0.031 A 
ATOM     51  C   UNL A   1      43.107  30.311  34.486  1.00  0.00     0.049 A 
ATOM     52  C   UNL A   1      43.841  26.365  30.580  1.00  0.00     0.074 A 
ATOM     53  C   UNL A   1      44.062  30.382  35.485  1.00  0.00     0.029 A 
ATOM     54  N   UNL A   1      43.505  29.301  33.623  1.00  0.00    -0.354 N 
ATOM     55  N   UNL A   1      43.802  27.231  31.565  1.00  0.00    -0.248 NA
ATOM     56  C   UNL A   1      45.055  25.538  30.549  1.00  0.00     0.031 C 
ATOM     57  C   UNL A   1      45.069  29.456  35.192  1.00  0.00     0.029 A 
ATOM     58  C   UNL A   1      44.713  28.769  34.043  1.00  0.00     0.049 A 
ATOM     59  H   UNL A   1      43.003  29.006  32.830  1.00  0.00     0.167 HD
ATOM     60  C   UNL A   1      44.981  27.048  32.277  1.00  0.00     0.074 A 
ATOM     61  C   UNL A   1      45.701  25.973  31.623  1.00  0.00     0.031 C 
ATOM     62  C   UNL A   1      45.429  27.713  33.370  1.00  0.00     0.031 A 
BRANCH  49  63
ATOM     63  C   UNL A   1      41.696  32.259  35.276  1.00  0.00    -0.014 A 
ATOM     64  C   UNL A   1      41.009  32.073  36.490  1.00  0.00     0.010 A 
ATOM     65  C   UNL A   1      42.204  33.534  34.967  1.00  0.00     0.010 A 
ATOM     66  C   UNL A   1      40.792  33.150  37.353  1.00  0.00     0.020 A 
ATOM     67  C   UNL A   1      42.013  34.609  35.842  1.00  0.00     0.020 A 
ATOM     68  C   UNL A   1      41.290  34.414  37.020  1.00  0.00     0.054 A 
BRANCH  68  69
ATOM     69  S   UNL A   1      40.998  35.793  38.161  1.00  0.00     0.124 S 
ATOM     70  O   UNL A   1      40.416  35.110  39.314  1.00  0.00    -0.237 OA
ATOM     71  O   UNL A   1      42.339  36.333  38.362  1.00  0.00    -0.237 OA
ATOM     72  O   UNL A   1      40.082  36.663  37.427  1.00  0.00    -0.744 OA
ENDBRANCH  68  69
ENDBRANCH  49  63
BRANCH  50  73
ATOM     73  C   UNL A   1      43.050  25.092  28.449  1.00  0.00    -0.014 A 
ATOM     74  C   UNL A   1      43.717  25.427  27.259  1.00  0.00     0.010 A 
ATOM     75  C   UNL A   1      42.636  23.763  28.652  1.00  0.00     0.010 A 
ATOM     76  C   UNL A   1      43.965  24.451  26.288  1.00  0.00     0.020 A 
ATOM     77  C   UNL A   1      42.906  22.779  27.697  1.00  0.00     0.020 A 
ATOM     78  C   UNL A   1      43.564  23.132  26.517  1.00  0.00     0.054 A 
BRANCH  78  79
ATOM     79  S   UNL A   1      43.969  21.868  25.280  1.00  0.00     0.124 S 
ATOM     80  O   UNL A   1      43.726  22.577  24.029  1.00  0.00    -0.237 OA
ATOM     81  O   UNL A   1      45.367  21.570  25.580  1.00  0.00    -0.237 OA
ATOM     82  O   UNL A   1      43.032  20.785  25.580  1.00  0.00    -0.744 OA
ENDBRANCH  78  79
ENDBRANCH  50  73
BRANCH  62  83
ATOM     83  C   UNL A   1      46.763  27.300  33.932  1.00  0.00    -0.014 A 
ATOM     84  C   UNL A   1      46.857  26.268  34.883  1.00  0.00     0.010 A 
ATOM     85  C   UNL A   1      47.940  27.908  33.460  1.00  0.00     0.010 A 
ATOM     86  C   UNL A   1      48.104  25.868  35.369  1.00  0.00     0.020 A 
ATOM     87  C   UNL A   1      49.191  27.491  33.924  1.00  0.00     0.020 A 
ATOM     88  C   UNL A   1      49.263  26.480  34.885  1.00  0.00     0.054 A 
BRANCH  88  89
ATOM     89  S   UNL A   1      50.872  25.904  35.492  1.00  0.00     0.124 S 
ATOM     90  O   UNL A   1      50.530  25.383  36.812  1.00  0.00    -0.237 OA
ATOM     91  O   UNL A   1      51.249  24.902  34.499  1.00  0.00    -0.237 OA
ATOM     92  O   UNL A   1      51.696  27.111  35.492  1.00  0.00    -0.744 OA
ENDBRANCH  88  89
ENDBRANCH  62  83
ENDBRANCH  36  37
ENDBRANCH  28  31
ENDBRANCH  26  27
ENDBRANCH  25  26
ENDBRANCH  24  25
ENDBRANCH   1  24
TORSDOF 19
ENDMDL
