MODEL 1
REMARK VINA RESULT:     -10.2      0.000      0.000
REMARK SMILES O=C(NCCCCCCNC(=O)[C@H]1CCC[N@@H+]1Cc1ccccc1[N+](=O)[O-])c1ccc(-c2c3nc(c(-c4ccc(S(=O)(=O)[O-])cc4)c4ccc([nH]4)c(-c4ccc(S(=O)(=O)[O-])cc4)c4nc(c(-c5ccc(S(=O)(=O)[O-])cc5)c5ccc2[nH]5)C=C4)C=C3)cc1
REMARK SMILES IDX 6 1 5 2 4 3 3 4 1 5 2 6 28 8 29 9 87 10 30 11 86 12 31 13
REMARK SMILES IDX 32 14 33 15 80 16 34 17 85 18 79 19 81 20 35 21 84 22 78 23
REMARK SMILES IDX 77 24 36 26 66 27 47 28 65 29 48 30 51 31 64 32 82 33 49 34
REMARK SMILES IDX 50 35 63 37 83 38 52 39 37 40 38 41 46 42 39 43 45 44 40 45
REMARK SMILES IDX 41 46 42 47 43 48 44 49 67 50 68 51 76 52 69 53 75 54 70 55
REMARK SMILES IDX 71 56 72 57 73 58 74 59 53 60 54 61 62 62 55 63 61 64 56 65
REMARK SMILES IDX 57 66 58 67 59 68 60 69 7 70 8 71 9 72 10 73 11 74 12 76
REMARK SMILES IDX 13 77 14 78 17 79 15 80 16 81 18 83 19 84 20 85 24 86 21 87
REMARK SMILES IDX 23 88 22 89 25 90 26 91 27 92
REMARK H PARENT 3 7 81 25 51 36 10 75 17 82
REMARK Flexibility Score: inf
ROOT
ATOM      1  C   UNL A   1      39.786  22.670  26.910  1.00  0.00     0.002 C 
ENDROOT
BRANCH   1   2
ATOM      2  C   UNL A   1      39.792  21.346  26.147  1.00  0.00     0.021 C 
BRANCH   2   3
ATOM      3  C   UNL A   1      40.270  20.150  26.959  1.00  0.00     0.116 C 
BRANCH   3   4
ATOM      4  N   UNL A   1      41.288  19.382  26.262  1.00  0.00    -0.352 N 
ATOM      5  O   UNL A   1      43.144  19.086  25.014  1.00  0.00    -0.269 OA
ATOM      6  C   UNL A   1      42.476  19.822  25.727  1.00  0.00     0.251 C 
ATOM      7  H   UNL A   1      41.102  18.422  26.159  1.00  0.00     0.163 HD
BRANCH   6   8
ATOM      8  C   UNL A   1      42.925  21.203  26.010  1.00  0.00     0.039 A 
ATOM      9  C   UNL A   1      43.002  22.147  24.984  1.00  0.00     0.014 A 
ATOM     10  C   UNL A   1      43.276  21.550  27.317  1.00  0.00     0.014 A 
ATOM     11  C   UNL A   1      43.543  23.402  25.238  1.00  0.00     0.010 A 
ATOM     12  C   UNL A   1      43.745  22.839  27.587  1.00  0.00     0.010 A 
ATOM     13  C   UNL A   1      43.901  23.768  26.546  1.00  0.00    -0.014 A 
BRANCH  13  14
ATOM     14  C   UNL A   1      44.351  25.157  26.814  1.00  0.00     0.031 A 
ATOM     15  C   UNL A   1      45.780  25.570  26.608  1.00  0.00     0.074 A 
ATOM     16  C   UNL A   1      43.440  26.050  27.246  1.00  0.00     0.049 A 
ATOM     17  N   UNL A   1      46.326  26.746  26.789  1.00  0.00    -0.248 NA
ATOM     18  C   UNL A   1      46.718  24.536  26.145  1.00  0.00     0.031 C 
ATOM     19  C   UNL A   1      42.025  25.756  27.499  1.00  0.00     0.029 A 
ATOM     20  N   UNL A   1      43.557  27.383  27.541  1.00  0.00    -0.354 N 
ATOM     21  C   UNL A   1      47.675  26.591  26.487  1.00  0.00     0.074 A 
ATOM     22  C   UNL A   1      47.866  25.202  26.128  1.00  0.00     0.031 C 
ATOM     23  C   UNL A   1      41.401  26.880  27.873  1.00  0.00     0.029 A 
ATOM     24  C   UNL A   1      42.379  27.959  27.950  1.00  0.00     0.049 A 
ATOM     25  H   UNL A   1      44.404  27.880  27.467  1.00  0.00     0.167 HD
ATOM     26  C   UNL A   1      48.658  27.523  26.508  1.00  0.00     0.031 A 
ATOM     27  C   UNL A   1      42.112  29.211  28.365  1.00  0.00     0.031 A 
ATOM     28  C   UNL A   1      48.457  28.902  26.874  1.00  0.00     0.049 A 
ATOM     29  C   UNL A   1      43.222  30.218  28.397  1.00  0.00     0.074 A 
ATOM     30  C   UNL A   1      49.383  29.932  26.890  1.00  0.00     0.029 A 
ATOM     31  N   UNL A   1      47.253  29.443  27.301  1.00  0.00    -0.354 N 
ATOM     32  N   UNL A   1      44.481  30.062  28.062  1.00  0.00    -0.248 NA
ATOM     33  C   UNL A   1      42.879  31.568  28.861  1.00  0.00     0.031 C 
ATOM     34  C   UNL A   1      48.750  31.082  27.375  1.00  0.00     0.029 A 
ATOM     35  C   UNL A   1      47.417  30.783  27.608  1.00  0.00     0.049 A 
ATOM     36  H   UNL A   1      46.406  28.946  27.375  1.00  0.00     0.167 HD
ATOM     37  C   UNL A   1      45.079  31.300  28.263  1.00  0.00     0.074 A 
ATOM     38  C   UNL A   1      44.039  32.197  28.728  1.00  0.00     0.031 C 
ATOM     39  C   UNL A   1      46.373  31.659  28.082  1.00  0.00     0.031 A 
BRANCH  26  40
ATOM     40  C   UNL A   1      50.052  27.073  26.155  1.00  0.00    -0.014 A 
ATOM     41  C   UNL A   1      50.933  26.584  27.135  1.00  0.00     0.010 A 
ATOM     42  C   UNL A   1      50.474  27.104  24.812  1.00  0.00     0.010 A 
ATOM     43  C   UNL A   1      52.226  26.179  26.787  1.00  0.00     0.020 A 
ATOM     44  C   UNL A   1      51.757  26.677  24.456  1.00  0.00     0.020 A 
ATOM     45  C   UNL A   1      52.632  26.235  25.450  1.00  0.00     0.054 A 
BRANCH  45  46
ATOM     46  S   UNL A   1      54.314  25.701  25.027  1.00  0.00     0.124 S 
ATOM     47  O   UNL A   1      54.512  26.338  23.728  1.00  0.00    -0.237 OA
ATOM     48  O   UNL A   1      55.110  26.249  26.121  1.00  0.00    -0.237 OA
ATOM     49  O   UNL A   1      54.219  24.244  24.999  1.00  0.00    -0.744 OA
ENDBRANCH  45  46
ENDBRANCH  26  40
BRANCH  27  50
ATOM     50  C   UNL A   1      40.732  29.557  28.799  1.00  0.00    -0.014 A 
ATOM     51  C   UNL A   1      39.694  29.679  27.862  1.00  0.00     0.010 A 
ATOM     52  C   UNL A   1      40.444  29.708  30.169  1.00  0.00     0.010 A 
ATOM     53  C   UNL A   1      38.389  29.952  28.287  1.00  0.00     0.020 A 
ATOM     54  C   UNL A   1      39.137  29.954  30.598  1.00  0.00     0.020 A 
ATOM     55  C   UNL A   1      38.119  30.082  29.652  1.00  0.00     0.054 A 
BRANCH  55  56
ATOM     56  S   UNL A   1      36.408  30.362  30.185  1.00  0.00     0.124 S 
ATOM     57  O   UNL A   1      36.386  31.806  30.387  1.00  0.00    -0.237 OA
ATOM     58  O   UNL A   1      35.637  29.870  29.046  1.00  0.00    -0.237 OA
ATOM     59  O   UNL A   1      36.293  29.555  31.398  1.00  0.00    -0.744 OA
ENDBRANCH  55  56
ENDBRANCH  27  50
BRANCH  39  60
ATOM     60  C   UNL A   1      46.733  33.091  28.371  1.00  0.00    -0.014 A 
ATOM     61  C   UNL A   1      47.229  33.476  29.629  1.00  0.00     0.010 A 
ATOM     62  C   UNL A   1      46.609  34.056  27.355  1.00  0.00     0.010 A 
ATOM     63  C   UNL A   1      47.569  34.808  29.875  1.00  0.00     0.020 A 
ATOM     64  C   UNL A   1      46.972  35.385  27.590  1.00  0.00     0.020 A 
ATOM     65  C   UNL A   1      47.437  35.755  28.854  1.00  0.00     0.054 A 
BRANCH  65  66
ATOM     66  S   UNL A   1      47.922  37.471  29.184  1.00  0.00     0.124 S 
ATOM     67  O   UNL A   1      49.348  37.333  29.466  1.00  0.00    -0.237 OA
ATOM     68  O   UNL A   1      47.592  38.145  27.930  1.00  0.00    -0.237 OA
ATOM     69  O   UNL A   1      47.094  37.851  30.326  1.00  0.00    -0.744 OA
ENDBRANCH  65  66
ENDBRANCH  39  60
ENDBRANCH  13  14
ENDBRANCH   6   8
ENDBRANCH   3   4
ENDBRANCH   2   3
ENDBRANCH   1   2
BRANCH   1  70
ATOM     70  C   UNL A   1      38.769  23.702  26.412  1.00  0.00     0.002 C 
BRANCH  70  71
ATOM     71  C   UNL A   1      37.591  23.135  25.608  1.00  0.00     0.021 C 
BRANCH  71  72
ATOM     72  C   UNL A   1      36.226  23.711  25.977  1.00  0.00     0.116 C 
BRANCH  72  73
ATOM     73  N   UNL A   1      35.465  22.764  26.762  1.00  0.00    -0.351 N 
ATOM     74  C   UNL A   1      34.253  22.189  26.547  1.00  0.00     0.278 C 
ATOM     75  H   UNL A   1      35.903  22.486  27.599  1.00  0.00     0.163 HD
ATOM     76  O   UNL A   1      33.819  21.471  27.453  1.00  0.00    -0.268 OA
BRANCH  74  77
ATOM     77  C   UNL A   1      33.518  22.377  25.198  1.00  0.00     0.274 C 
ATOM     78  C   UNL A   1      32.322  21.430  25.190  1.00  0.00     0.081 C 
ATOM     79  N   UNL A   1      32.932  23.733  25.113  1.00  0.00    -0.321 N 
ATOM     80  C   UNL A   1      31.186  22.235  25.804  1.00  0.00     0.068 C 
ATOM     81  C   UNL A   1      31.672  23.679  25.858  1.00  0.00     0.263 C 
ATOM     82  H   UNL A   1      33.572  24.403  25.538  1.00  0.00     0.349 HD
BRANCH  79  83
ATOM     83  C   UNL A   1      32.848  24.333  23.773  1.00  0.00     0.307 C 
BRANCH  83  84
ATOM     84  C   UNL A   1      33.164  25.811  23.633  1.00  0.00     0.084 A 
ATOM     85  C   UNL A   1      33.600  26.511  24.777  1.00  0.00     0.017 A 
ATOM     86  C   UNL A   1      33.102  26.539  22.430  1.00  0.00     0.278 A 
ATOM     87  C   UNL A   1      34.021  27.843  24.704  1.00  0.00     0.001 A 
ATOM     88  C   UNL A   1      33.546  27.871  22.345  1.00  0.00     0.086 A 
ATOM     89  C   UNL A   1      34.016  28.515  23.486  1.00  0.00     0.007 A 
BRANCH  86  90
ATOM     90  N   UNL A   1      32.532  25.972  21.217  1.00  0.00     0.063 N 
ATOM     91  O   UNL A   1      33.276  25.272  20.514  1.00  0.00    -0.258 OA
ATOM     92  O   UNL A   1      31.361  26.265  20.944  1.00  0.00    -0.258 OA
ENDBRANCH  86  90
ENDBRANCH  83  84
ENDBRANCH  79  83
ENDBRANCH  74  77
ENDBRANCH  72  73
ENDBRANCH  71  72
ENDBRANCH  70  71
ENDBRANCH   1  70
TORSDOF 19
ENDMDL
MODEL 2
REMARK VINA RESULT:     -10.1      3.914      9.586
REMARK SMILES O=C(NCCCCCCNC(=O)[C@H]1CCC[N@@H+]1Cc1ccccc1[N+](=O)[O-])c1ccc(-c2c3nc(c(-c4ccc(S(=O)(=O)[O-])cc4)c4ccc([nH]4)c(-c4ccc(S(=O)(=O)[O-])cc4)c4nc(c(-c5ccc(S(=O)(=O)[O-])cc5)c5ccc2[nH]5)C=C4)C=C3)cc1
REMARK SMILES IDX 6 1 5 2 4 3 3 4 1 5 2 6 28 8 29 9 87 10 30 11 86 12 31 13
REMARK SMILES IDX 32 14 33 15 80 16 34 17 85 18 79 19 81 20 35 21 84 22 78 23
REMARK SMILES IDX 77 24 36 26 66 27 47 28 65 29 48 30 51 31 64 32 82 33 49 34
REMARK SMILES IDX 50 35 63 37 83 38 52 39 37 40 38 41 46 42 39 43 45 44 40 45
REMARK SMILES IDX 41 46 42 47 43 48 44 49 67 50 68 51 76 52 69 53 75 54 70 55
REMARK SMILES IDX 71 56 72 57 73 58 74 59 53 60 54 61 62 62 55 63 61 64 56 65
REMARK SMILES IDX 57 66 58 67 59 68 60 69 7 70 8 71 9 72 10 73 11 74 12 76
REMARK SMILES IDX 13 77 14 78 17 79 15 80 16 81 18 83 19 84 20 85 24 86 21 87
REMARK SMILES IDX 23 88 22 89 25 90 26 91 27 92
REMARK H PARENT 3 7 81 25 51 36 10 75 17 82
REMARK Flexibility Score: inf
ROOT
ATOM      1  C   UNL A   1      31.561  28.215  26.169  1.00  0.00     0.002 C 
ENDROOT
BRANCH   1   2
ATOM      2  C   UNL A   1      32.819  27.376  26.385  1.00  0.00     0.021 C 
BRANCH   2   3
ATOM      3  C   UNL A   1      34.066  28.181  26.721  1.00  0.00     0.116 C 
BRANCH   3   4
ATOM      4  N   UNL A   1      33.764  29.572  27.009  1.00  0.00    -0.352 N 
ATOM      5  O   UNL A   1      34.032  31.564  28.035  1.00  0.00    -0.269 OA
ATOM      6  C   UNL A   1      34.506  30.478  27.731  1.00  0.00     0.251 C 
ATOM      7  H   UNL A   1      32.918  29.911  26.639  1.00  0.00     0.163 HD
BRANCH   6   8
ATOM      8  C   UNL A   1      35.877  30.113  28.151  1.00  0.00     0.039 A 
ATOM      9  C   UNL A   1      36.954  30.287  27.278  1.00  0.00     0.014 A 
ATOM     10  C   UNL A   1      36.080  29.587  29.428  1.00  0.00     0.014 A 
ATOM     11  C   UNL A   1      38.214  29.824  27.637  1.00  0.00     0.010 A 
ATOM     12  C   UNL A   1      37.364  29.197  29.818  1.00  0.00     0.010 A 
ATOM     13  C   UNL A   1      38.438  29.293  28.918  1.00  0.00    -0.014 A 
BRANCH  13  14
ATOM     14  C   UNL A   1      39.818  28.930  29.324  1.00  0.00     0.031 A 
ATOM     15  C   UNL A   1      40.673  29.874  30.120  1.00  0.00     0.074 A 
ATOM     16  C   UNL A   1      40.291  27.721  28.965  1.00  0.00     0.049 A 
ATOM     17  N   UNL A   1      41.894  29.700  30.559  1.00  0.00    -0.248 NA
ATOM     18  C   UNL A   1      40.091  31.180  30.465  1.00  0.00     0.031 C 
ATOM     19  C   UNL A   1      39.555  26.729  28.176  1.00  0.00     0.029 A 
ATOM     20  N   UNL A   1      41.493  27.114  29.220  1.00  0.00    -0.354 N 
ATOM     21  C   UNL A   1      42.238  30.880  31.210  1.00  0.00     0.074 A 
ATOM     22  C   UNL A   1      41.101  31.769  31.093  1.00  0.00     0.031 C 
ATOM     23  C   UNL A   1      40.304  25.626  28.044  1.00  0.00     0.029 A 
ATOM     24  C   UNL A   1      41.596  25.855  28.681  1.00  0.00     0.049 A 
ATOM     25  H   UNL A   1      42.214  27.540  29.739  1.00  0.00     0.167 HD
ATOM     26  C   UNL A   1      43.394  31.188  31.846  1.00  0.00     0.031 A 
ATOM     27  C   UNL A   1      42.621  24.983  28.676  1.00  0.00     0.031 A 
ATOM     28  C   UNL A   1      44.522  30.298  31.951  1.00  0.00     0.049 A 
ATOM     29  C   UNL A   1      43.896  25.357  29.369  1.00  0.00     0.074 A 
ATOM     30  C   UNL A   1      45.724  30.504  32.606  1.00  0.00     0.029 A 
ATOM     31  N   UNL A   1      44.594  29.038  31.374  1.00  0.00    -0.354 N 
ATOM     32  N   UNL A   1      44.183  26.460  30.020  1.00  0.00    -0.248 NA
ATOM     33  C   UNL A   1      44.984  24.373  29.331  1.00  0.00     0.031 C 
ATOM     34  C   UNL A   1      46.541  29.391  32.384  1.00  0.00     0.029 A 
ATOM     35  C   UNL A   1      45.828  28.466  31.636  1.00  0.00     0.049 A 
ATOM     36  H   UNL A   1      43.874  28.613  30.855  1.00  0.00     0.167 HD
ATOM     37  C   UNL A   1      45.484  26.297  30.481  1.00  0.00     0.074 A 
ATOM     38  C   UNL A   1      45.917  24.982  30.052  1.00  0.00     0.031 C 
ATOM     39  C   UNL A   1      46.249  27.160  31.192  1.00  0.00     0.031 A 
BRANCH  26  40
ATOM     40  C   UNL A   1      43.510  32.563  32.452  1.00  0.00    -0.014 A 
ATOM     41  C   UNL A   1      44.006  33.650  31.711  1.00  0.00     0.010 A 
ATOM     42  C   UNL A   1      43.080  32.779  33.775  1.00  0.00     0.010 A 
ATOM     43  C   UNL A   1      44.112  34.916  32.294  1.00  0.00     0.020 A 
ATOM     44  C   UNL A   1      43.162  34.049  34.355  1.00  0.00     0.020 A 
ATOM     45  C   UNL A   1      43.697  35.105  33.616  1.00  0.00     0.054 A 
BRANCH  45  46
ATOM     46  S   UNL A   1      43.845  36.760  34.347  1.00  0.00     0.124 S 
ATOM     47  O   UNL A   1      45.289  36.876  34.533  1.00  0.00    -0.237 OA
ATOM     48  O   UNL A   1      43.276  37.621  33.314  1.00  0.00    -0.237 OA
ATOM     49  O   UNL A   1      43.063  36.667  35.577  1.00  0.00    -0.744 OA
ENDBRANCH  45  46
ENDBRANCH  26  40
BRANCH  27  50
ATOM     50  C   UNL A   1      42.471  23.684  27.967  1.00  0.00    -0.014 A 
ATOM     51  C   UNL A   1      42.915  23.533  26.643  1.00  0.00     0.010 A 
ATOM     52  C   UNL A   1      41.932  22.573  28.643  1.00  0.00     0.010 A 
ATOM     53  C   UNL A   1      42.819  22.293  26.005  1.00  0.00     0.020 A 
ATOM     54  C   UNL A   1      41.859  21.326  28.016  1.00  0.00     0.020 A 
ATOM     55  C   UNL A   1      42.296  21.197  26.697  1.00  0.00     0.054 A 
BRANCH  55  56
ATOM     56  S   UNL A   1      42.249  19.581  25.875  1.00  0.00     0.124 S 
ATOM     57  O   UNL A   1      42.572  18.674  26.971  1.00  0.00    -0.237 OA
ATOM     58  O   UNL A   1      40.875  19.516  25.383  1.00  0.00    -0.237 OA
ATOM     59  O   UNL A   1      43.268  19.698  24.834  1.00  0.00    -0.744 OA
ENDBRANCH  55  56
ENDBRANCH  27  50
BRANCH  39  60
ATOM     60  C   UNL A   1      47.632  26.700  31.566  1.00  0.00    -0.014 A 
ATOM     61  C   UNL A   1      47.873  26.041  32.784  1.00  0.00     0.010 A 
ATOM     62  C   UNL A   1      48.695  26.897  30.666  1.00  0.00     0.010 A 
ATOM     63  C   UNL A   1      49.162  25.611  33.109  1.00  0.00     0.020 A 
ATOM     64  C   UNL A   1      49.980  26.446  30.978  1.00  0.00     0.020 A 
ATOM     65  C   UNL A   1      50.208  25.818  32.204  1.00  0.00     0.054 A 
BRANCH  65  66
ATOM     66  S   UNL A   1      51.865  25.215  32.629  1.00  0.00     0.124 S 
ATOM     67  O   UNL A   1      51.786  23.810  32.240  1.00  0.00    -0.237 OA
ATOM     68  O   UNL A   1      52.733  26.049  31.802  1.00  0.00    -0.237 OA
ATOM     69  O   UNL A   1      51.962  25.459  34.067  1.00  0.00    -0.744 OA
ENDBRANCH  65  66
ENDBRANCH  39  60
ENDBRANCH  13  14
ENDBRANCH   6   8
ENDBRANCH   3   4
ENDBRANCH   2   3
ENDBRANCH   1   2
BRANCH   1  70
ATOM     70  C   UNL A   1      31.031  28.234  24.731  1.00  0.00     0.002 C 
BRANCH  70  71
ATOM     71  C   UNL A   1      31.727  29.219  23.782  1.00  0.00     0.021 C 
BRANCH  71  72
ATOM     72  C   UNL A   1      32.928  28.646  23.031  1.00  0.00     0.116 C 
BRANCH  72  73
ATOM     73  N   UNL A   1      32.498  27.712  22.015  1.00  0.00    -0.351 N 
ATOM     74  C   UNL A   1      32.386  26.358  22.030  1.00  0.00     0.278 C 
ATOM     75  H   UNL A   1      32.239  28.131  21.162  1.00  0.00     0.163 HD
ATOM     76  O   UNL A   1      32.066  25.823  20.964  1.00  0.00    -0.268 OA
BRANCH  74  77
ATOM     77  C   UNL A   1      32.577  25.564  23.346  1.00  0.00     0.274 C 
ATOM     78  C   UNL A   1      31.435  24.559  23.446  1.00  0.00     0.081 C 
ATOM     79  N   UNL A   1      33.805  24.742  23.280  1.00  0.00    -0.321 N 
ATOM     80  C   UNL A   1      31.951  23.313  22.740  1.00  0.00     0.068 C 
ATOM     81  C   UNL A   1      33.446  23.534  22.535  1.00  0.00     0.263 C 
ATOM     82  H   UNL A   1      34.533  25.263  22.790  1.00  0.00     0.349 HD
BRANCH  79  83
ATOM     83  C   UNL A   1      34.516  24.515  24.547  1.00  0.00     0.307 C 
BRANCH  83  84
ATOM     84  C   UNL A   1      35.338  23.246  24.685  1.00  0.00     0.084 A 
ATOM     85  C   UNL A   1      36.459  23.083  23.845  1.00  0.00     0.017 A 
ATOM     86  C   UNL A   1      35.098  22.229  25.627  1.00  0.00     0.278 A 
ATOM     87  C   UNL A   1      37.330  21.998  23.991  1.00  0.00     0.001 A 
ATOM     88  C   UNL A   1      35.983  21.149  25.795  1.00  0.00     0.086 A 
ATOM     89  C   UNL A   1      37.106  21.045  24.979  1.00  0.00     0.007 A 
BRANCH  86  90
ATOM     90  N   UNL A   1      33.896  22.210  26.449  1.00  0.00     0.063 N 
ATOM     91  O   UNL A   1      34.041  22.382  27.668  1.00  0.00    -0.258 OA
ATOM     92  O   UNL A   1      32.821  21.974  25.884  1.00  0.00    -0.258 OA
ENDBRANCH  86  90
ENDBRANCH  83  84
ENDBRANCH  79  83
ENDBRANCH  74  77
ENDBRANCH  72  73
ENDBRANCH  71  72
ENDBRANCH  70  71
ENDBRANCH   1  70
TORSDOF 19
ENDMDL
MODEL 3
REMARK VINA RESULT:     -10.0      2.425      9.011
REMARK SMILES O=C(NCCCCCCNC(=O)[C@H]1CCC[N@@H+]1Cc1ccccc1[N+](=O)[O-])c1ccc(-c2c3nc(c(-c4ccc(S(=O)(=O)[O-])cc4)c4ccc([nH]4)c(-c4ccc(S(=O)(=O)[O-])cc4)c4nc(c(-c5ccc(S(=O)(=O)[O-])cc5)c5ccc2[nH]5)C=C4)C=C3)cc1
REMARK SMILES IDX 6 1 5 2 4 3 3 4 1 5 2 6 28 8 29 9 87 10 30 11 86 12 31 13
REMARK SMILES IDX 32 14 33 15 80 16 34 17 85 18 79 19 81 20 35 21 84 22 78 23
REMARK SMILES IDX 77 24 36 26 66 27 47 28 65 29 48 30 51 31 64 32 82 33 49 34
REMARK SMILES IDX 50 35 63 37 83 38 52 39 37 40 38 41 46 42 39 43 45 44 40 45
REMARK SMILES IDX 41 46 42 47 43 48 44 49 67 50 68 51 76 52 69 53 75 54 70 55
REMARK SMILES IDX 71 56 72 57 73 58 74 59 53 60 54 61 62 62 55 63 61 64 56 65
REMARK SMILES IDX 57 66 58 67 59 68 60 69 7 70 8 71 9 72 10 73 11 74 12 76
REMARK SMILES IDX 13 77 14 78 17 79 15 80 16 81 18 83 19 84 20 85 24 86 21 87
REMARK SMILES IDX 23 88 22 89 25 90 26 91 27 92
REMARK H PARENT 3 7 81 25 51 36 10 75 17 82
REMARK Flexibility Score: inf
ROOT
ATOM      1  C   UNL A   1      35.159  24.148  24.409  1.00  0.00     0.002 C 
ENDROOT
BRANCH   1   2
ATOM      2  C   UNL A   1      36.500  23.423  24.505  1.00  0.00     0.021 C 
BRANCH   2   3
ATOM      3  C   UNL A   1      37.067  23.326  25.915  1.00  0.00     0.116 C 
BRANCH   3   4
ATOM      4  N   UNL A   1      37.932  22.171  26.083  1.00  0.00    -0.352 N 
ATOM      5  O   UNL A   1      39.898  21.096  26.346  1.00  0.00    -0.269 OA
ATOM      6  C   UNL A   1      39.266  22.140  26.417  1.00  0.00     0.251 C 
ATOM      7  H   UNL A   1      37.507  21.295  25.939  1.00  0.00     0.163 HD
BRANCH   6   8
ATOM      8  C   UNL A   1      39.928  23.392  26.844  1.00  0.00     0.039 A 
ATOM      9  C   UNL A   1      40.783  23.399  27.949  1.00  0.00     0.014 A 
ATOM     10  C   UNL A   1      39.685  24.569  26.132  1.00  0.00     0.014 A 
ATOM     11  C   UNL A   1      41.300  24.602  28.414  1.00  0.00     0.010 A 
ATOM     12  C   UNL A   1      40.270  25.765  26.554  1.00  0.00     0.010 A 
ATOM     13  C   UNL A   1      41.066  25.795  27.711  1.00  0.00    -0.014 A 
BRANCH  13  14
ATOM     14  C   UNL A   1      41.737  27.043  28.152  1.00  0.00     0.031 A 
ATOM     15  C   UNL A   1      40.954  28.197  28.710  1.00  0.00     0.074 A 
ATOM     16  C   UNL A   1      43.077  27.119  28.046  1.00  0.00     0.049 A 
ATOM     17  N   UNL A   1      41.394  29.350  29.145  1.00  0.00    -0.248 NA
ATOM     18  C   UNL A   1      39.493  28.045  28.783  1.00  0.00     0.031 C 
ATOM     19  C   UNL A   1      43.940  26.064  27.503  1.00  0.00     0.029 A 
ATOM     20  N   UNL A   1      43.952  28.113  28.395  1.00  0.00    -0.354 N 
ATOM     21  C   UNL A   1      40.266  30.071  29.524  1.00  0.00     0.074 A 
ATOM     22  C   UNL A   1      39.120  29.230  29.248  1.00  0.00     0.031 C 
ATOM     23  C   UNL A   1      45.219  26.453  27.589  1.00  0.00     0.029 A 
ATOM     24  C   UNL A   1      45.265  27.805  28.133  1.00  0.00     0.049 A 
ATOM     25  H   UNL A   1      43.668  28.967  28.795  1.00  0.00     0.167 HD
ATOM     26  C   UNL A   1      40.198  31.317  30.052  1.00  0.00     0.031 A 
ATOM     27  C   UNL A   1      46.386  28.534  28.288  1.00  0.00     0.031 A 
ATOM     28  C   UNL A   1      41.345  32.148  30.316  1.00  0.00     0.049 A 
ATOM     29  C   UNL A   1      46.280  29.917  28.856  1.00  0.00     0.074 A 
ATOM     30  C   UNL A   1      41.382  33.410  30.884  1.00  0.00     0.029 A 
ATOM     31  N   UNL A   1      42.656  31.807  30.018  1.00  0.00    -0.354 N 
ATOM     32  N   UNL A   1      45.208  30.562  29.251  1.00  0.00    -0.248 NA
ATOM     33  C   UNL A   1      47.531  30.671  29.001  1.00  0.00     0.031 C 
ATOM     34  C   UNL A   1      42.709  33.853  30.883  1.00  0.00     0.029 A 
ATOM     35  C   UNL A   1      43.507  32.844  30.366  1.00  0.00     0.049 A 
ATOM     36  H   UNL A   1      42.941  30.954  29.619  1.00  0.00     0.167 HD
ATOM     37  C   UNL A   1      45.657  31.796  29.704  1.00  0.00     0.074 A 
ATOM     38  C   UNL A   1      47.099  31.797  29.554  1.00  0.00     0.031 C 
ATOM     39  C   UNL A   1      44.939  32.834  30.198  1.00  0.00     0.031 A 
BRANCH  26  40
ATOM     40  C   UNL A   1      38.829  31.873  30.350  1.00  0.00    -0.014 A 
ATOM     41  C   UNL A   1      38.131  32.645  29.405  1.00  0.00     0.010 A 
ATOM     42  C   UNL A   1      38.215  31.585  31.584  1.00  0.00     0.010 A 
ATOM     43  C   UNL A   1      36.865  33.158  29.704  1.00  0.00     0.020 A 
ATOM     44  C   UNL A   1      36.938  32.076  31.878  1.00  0.00     0.020 A 
ATOM     45  C   UNL A   1      36.280  32.876  30.943  1.00  0.00     0.054 A 
BRANCH  45  46
ATOM     46  S   UNL A   1      34.636  33.553  31.304  1.00  0.00     0.124 S 
ATOM     47  O   UNL A   1      34.101  32.560  32.232  1.00  0.00    -0.237 OA
ATOM     48  O   UNL A   1      34.945  34.854  31.890  1.00  0.00    -0.237 OA
ATOM     49  O   UNL A   1      33.985  33.601  29.997  1.00  0.00    -0.744 OA
ENDBRANCH  45  46
ENDBRANCH  26  40
BRANCH  27  50
ATOM     50  C   UNL A   1      47.693  27.959  27.873  1.00  0.00    -0.014 A 
ATOM     51  C   UNL A   1      48.202  28.187  26.585  1.00  0.00     0.010 A 
ATOM     52  C   UNL A   1      48.463  27.225  28.797  1.00  0.00     0.010 A 
ATOM     53  C   UNL A   1      49.458  27.687  26.224  1.00  0.00     0.020 A 
ATOM     54  C   UNL A   1      49.728  26.747  28.448  1.00  0.00     0.020 A 
ATOM     55  C   UNL A   1      50.214  26.975  27.160  1.00  0.00     0.054 A 
BRANCH  55  56
ATOM     56  S   UNL A   1      51.870  26.400  26.695  1.00  0.00     0.124 S 
ATOM     57  O   UNL A   1      52.668  26.815  27.843  1.00  0.00    -0.237 OA
ATOM     58  O   UNL A   1      51.674  24.960  26.547  1.00  0.00    -0.237 OA
ATOM     59  O   UNL A   1      52.141  27.114  25.449  1.00  0.00    -0.744 OA
ENDBRANCH  55  56
ENDBRANCH  27  50
BRANCH  39  60
ATOM     60  C   UNL A   1      45.707  34.054  30.628  1.00  0.00    -0.014 A 
ATOM     61  C   UNL A   1      45.944  35.115  29.737  1.00  0.00     0.010 A 
ATOM     62  C   UNL A   1      46.163  34.154  31.955  1.00  0.00     0.010 A 
ATOM     63  C   UNL A   1      46.649  36.245  30.158  1.00  0.00     0.020 A 
ATOM     64  C   UNL A   1      46.847  35.294  32.386  1.00  0.00     0.020 A 
ATOM     65  C   UNL A   1      47.098  36.326  31.480  1.00  0.00     0.054 A 
BRANCH  65  66
ATOM     66  S   UNL A   1      47.976  37.820  32.016  1.00  0.00     0.124 S 
ATOM     67  O   UNL A   1      49.220  37.728  31.260  1.00  0.00    -0.237 OA
ATOM     68  O   UNL A   1      47.069  38.890  31.606  1.00  0.00    -0.237 OA
ATOM     69  O   UNL A   1      48.109  37.643  33.461  1.00  0.00    -0.744 OA
ENDBRANCH  65  66
ENDBRANCH  39  60
ENDBRANCH  13  14
ENDBRANCH   6   8
ENDBRANCH   3   4
ENDBRANCH   2   3
ENDBRANCH   1   2
BRANCH   1  70
ATOM     70  C   UNL A   1      34.413  24.315  25.737  1.00  0.00     0.002 C 
BRANCH  70  71
ATOM     71  C   UNL A   1      33.630  25.625  25.895  1.00  0.00     0.021 C 
BRANCH  71  72
ATOM     72  C   UNL A   1      33.912  26.674  24.822  1.00  0.00     0.116 C 
BRANCH  72  73
ATOM     73  N   UNL A   1      33.496  27.986  25.267  1.00  0.00    -0.351 N 
ATOM     74  C   UNL A   1      32.330  28.663  25.100  1.00  0.00     0.278 C 
ATOM     75  H   UNL A   1      34.178  28.474  25.782  1.00  0.00     0.163 HD
ATOM     76  O   UNL A   1      32.302  29.820  25.531  1.00  0.00    -0.268 OA
BRANCH  74  77
ATOM     77  C   UNL A   1      31.096  27.968  24.474  1.00  0.00     0.274 C 
ATOM     78  C   UNL A   1      30.056  29.046  24.189  1.00  0.00     0.081 C 
ATOM     79  N   UNL A   1      31.437  27.406  23.148  1.00  0.00    -0.321 N 
ATOM     80  C   UNL A   1      30.371  29.528  22.781  1.00  0.00     0.068 C 
ATOM     81  C   UNL A   1      31.361  28.522  22.203  1.00  0.00     0.263 C 
ATOM     82  H   UNL A   1      32.381  27.024  23.178  1.00  0.00     0.349 HD
BRANCH  79  83
ATOM     83  C   UNL A   1      30.721  26.186  22.745  1.00  0.00     0.307 C 
BRANCH  83  84
ATOM     84  C   UNL A   1      31.482  24.873  22.769  1.00  0.00     0.084 A 
ATOM     85  C   UNL A   1      31.085  23.889  23.697  1.00  0.00     0.017 A 
ATOM     86  C   UNL A   1      32.535  24.535  21.897  1.00  0.00     0.278 A 
ATOM     87  C   UNL A   1      31.660  22.613  23.702  1.00  0.00     0.001 A 
ATOM     88  C   UNL A   1      33.100  23.248  21.881  1.00  0.00     0.086 A 
ATOM     89  C   UNL A   1      32.650  22.286  22.780  1.00  0.00     0.007 A 
BRANCH  86  90
ATOM     90  N   UNL A   1      33.130  25.512  20.997  1.00  0.00     0.063 N 
ATOM     91  O   UNL A   1      33.884  26.359  21.498  1.00  0.00    -0.258 OA
ATOM     92  O   UNL A   1      32.806  25.463  19.804  1.00  0.00    -0.258 OA
ENDBRANCH  86  90
ENDBRANCH  83  84
ENDBRANCH  79  83
ENDBRANCH  74  77
ENDBRANCH  72  73
ENDBRANCH  71  72
ENDBRANCH  70  71
ENDBRANCH   1  70
TORSDOF 19
ENDMDL
