MODEL 1
REMARK VINA RESULT:     -11.4      0.000      0.000
REMARK SMILES O=C(NCCCCCCNC(=O)c1sccc1S(=O)(=O)Nc1ccc(Cn2cncn2)cc1)c1ccc(-c2c3nc(c(-c4ccc(S(=O)(=O)[O-])cc4)c4ccc([nH]4)c(-c4ccc(S(=O)(=O)[O-])cc4)c4nc(c(-c5ccc(S(=O)(=O)[O-])cc5)c5ccc2[nH]5)C=C4)C=C3)cc1
REMARK SMILES IDX 7 1 6 2 5 3 4 4 3 5 1 6 2 7 34 9 35 10 93 11 36 12 92 13
REMARK SMILES IDX 37 14 38 15 39 16 86 17 40 18 91 19 85 20 87 21 41 22 90 23
REMARK SMILES IDX 84 24 83 25 42 27 72 28 53 29 71 30 54 31 57 32 70 33 88 34
REMARK SMILES IDX 55 35 56 36 69 38 89 39 58 40 43 41 44 42 52 43 45 44 51 45
REMARK SMILES IDX 46 46 47 47 48 48 49 49 50 50 73 51 74 52 82 53 75 54 81 55
REMARK SMILES IDX 76 56 77 57 78 58 79 59 80 60 59 61 60 62 68 63 61 64 67 65
REMARK SMILES IDX 62 66 63 67 64 68 65 69 66 70 8 71 9 72 10 73 11 74 12 76
REMARK SMILES IDX 13 77 14 78 17 79 15 80 16 81 18 82 19 83 20 84 21 85 22 87
REMARK SMILES IDX 23 88 33 89 24 90 32 91 25 92 26 93 27 94 28 95 31 96 29 97
REMARK SMILES IDX 30 98
REMARK H PARENT 3 8 87 26 57 37 10 75 21 86
REMARK Flexibility Score: inf
ROOT
ATOM      1  C   UNL A   1      33.841  31.402  27.611  1.00  0.00     0.002 C 
ENDROOT
BRANCH   1   2
ATOM      2  C   UNL A   1      33.386  32.635  28.401  1.00  0.00     0.002 C 
BRANCH   2   3
ATOM      3  C   UNL A   1      34.318  33.849  28.331  1.00  0.00     0.021 C 
BRANCH   3   4
ATOM      4  C   UNL A   1      34.261  34.761  29.554  1.00  0.00     0.116 C 
BRANCH   4   5
ATOM      5  N   UNL A   1      33.833  34.094  30.761  1.00  0.00    -0.352 N 
ATOM      6  O   UNL A   1      33.782  32.937  32.639  1.00  0.00    -0.269 OA
ATOM      7  C   UNL A   1      34.434  33.233  31.635  1.00  0.00     0.251 C 
ATOM      8  H   UNL A   1      32.904  34.306  31.009  1.00  0.00     0.163 HD
BRANCH   7   9
ATOM      9  C   UNL A   1      35.764  32.602  31.422  1.00  0.00     0.039 A 
ATOM     10  C   UNL A   1      36.996  33.259  31.446  1.00  0.00     0.014 A 
ATOM     11  C   UNL A   1      35.746  31.216  31.180  1.00  0.00     0.014 A 
ATOM     12  C   UNL A   1      38.171  32.569  31.164  1.00  0.00     0.010 A 
ATOM     13  C   UNL A   1      36.918  30.518  30.917  1.00  0.00     0.010 A 
ATOM     14  C   UNL A   1      38.129  31.204  30.886  1.00  0.00    -0.014 A 
BRANCH  14  15
ATOM     15  C   UNL A   1      39.398  30.491  30.762  1.00  0.00     0.031 A 
ATOM     16  C   UNL A   1      40.144  30.331  32.046  1.00  0.00     0.074 A 
ATOM     17  C   UNL A   1      39.800  29.869  29.636  1.00  0.00     0.049 A 
ATOM     18  N   UNL A   1      41.334  30.744  32.344  1.00  0.00    -0.248 NA
ATOM     19  C   UNL A   1      39.423  29.720  33.176  1.00  0.00     0.031 C 
ATOM     20  C   UNL A   1      39.044  29.679  28.397  1.00  0.00     0.029 A 
ATOM     21  N   UNL A   1      40.941  29.159  29.412  1.00  0.00    -0.354 N 
ATOM     22  C   UNL A   1      41.586  30.285  33.636  1.00  0.00     0.074 A 
ATOM     23  C   UNL A   1      40.333  29.791  34.146  1.00  0.00     0.031 C 
ATOM     24  C   UNL A   1      39.638  28.713  27.659  1.00  0.00     0.029 A 
ATOM     25  C   UNL A   1      40.879  28.319  28.306  1.00  0.00     0.049 A 
ATOM     26  H   UNL A   1      41.739  29.233  29.984  1.00  0.00     0.167 HD
ATOM     27  C   UNL A   1      42.848  30.151  34.133  1.00  0.00     0.031 A 
ATOM     28  C   UNL A   1      41.746  27.324  27.988  1.00  0.00     0.031 A 
ATOM     29  C   UNL A   1      43.816  30.887  33.370  1.00  0.00     0.049 A 
ATOM     30  C   UNL A   1      43.006  27.578  28.726  1.00  0.00     0.074 A 
ATOM     31  C   UNL A   1      43.999  32.219  33.063  1.00  0.00     0.029 A 
ATOM     32  N   UNL A   1      44.586  30.184  32.475  1.00  0.00    -0.354 N 
ATOM     33  N   UNL A   1      43.785  28.596  28.491  1.00  0.00    -0.248 NA
ATOM     34  C   UNL A   1      43.185  26.943  30.020  1.00  0.00     0.031 C 
ATOM     35  C   UNL A   1      44.456  32.224  31.713  1.00  0.00     0.029 A 
ATOM     36  C   UNL A   1      44.585  30.895  31.302  1.00  0.00     0.049 A 
ATOM     37  H   UNL A   1      45.049  29.332  32.643  1.00  0.00     0.167 HD
ATOM     38  C   UNL A   1      44.237  28.994  29.739  1.00  0.00     0.074 A 
ATOM     39  C   UNL A   1      43.912  27.881  30.630  1.00  0.00     0.031 C 
ATOM     40  C   UNL A   1      44.585  30.291  29.986  1.00  0.00     0.031 A 
BRANCH  27  41
ATOM     41  C   UNL A   1      43.240  29.059  35.097  1.00  0.00    -0.014 A 
ATOM     42  C   UNL A   1      44.314  29.269  35.987  1.00  0.00     0.010 A 
ATOM     43  C   UNL A   1      42.764  27.737  34.971  1.00  0.00     0.010 A 
ATOM     44  C   UNL A   1      44.907  28.200  36.674  1.00  0.00     0.020 A 
ATOM     45  C   UNL A   1      43.318  26.673  35.684  1.00  0.00     0.020 A 
ATOM     46  C   UNL A   1      44.409  26.906  36.510  1.00  0.00     0.054 A 
BRANCH  46  47
ATOM     47  S   UNL A   1      45.238  25.521  37.329  1.00  0.00     0.124 S 
ATOM     48  O   UNL A   1      46.586  25.606  36.777  1.00  0.00    -0.237 OA
ATOM     49  O   UNL A   1      45.105  25.871  38.740  1.00  0.00    -0.237 OA
ATOM     50  O   UNL A   1      44.458  24.358  36.906  1.00  0.00    -0.744 OA
ENDBRANCH  46  47
ENDBRANCH  27  41
BRANCH  28  51
ATOM     51  C   UNL A   1      41.439  26.008  27.368  1.00  0.00    -0.014 A 
ATOM     52  C   UNL A   1      42.452  25.058  27.136  1.00  0.00     0.010 A 
ATOM     53  C   UNL A   1      40.101  25.575  27.268  1.00  0.00     0.010 A 
ATOM     54  C   UNL A   1      42.136  23.711  26.875  1.00  0.00     0.020 A 
ATOM     55  C   UNL A   1      39.779  24.240  27.002  1.00  0.00     0.020 A 
ATOM     56  C   UNL A   1      40.800  23.307  26.831  1.00  0.00     0.054 A 
BRANCH  56  57
ATOM     57  S   UNL A   1      40.400  21.540  26.679  1.00  0.00     0.124 S 
ATOM     58  O   UNL A   1      38.986  21.571  26.318  1.00  0.00    -0.237 OA
ATOM     59  O   UNL A   1      41.312  21.096  25.628  1.00  0.00    -0.237 OA
ATOM     60  O   UNL A   1      40.689  21.006  28.009  1.00  0.00    -0.744 OA
ENDBRANCH  56  57
ENDBRANCH  28  51
BRANCH  40  61
ATOM     61  C   UNL A   1      44.742  31.233  28.814  1.00  0.00    -0.014 A 
ATOM     62  C   UNL A   1      45.590  30.985  27.716  1.00  0.00     0.010 A 
ATOM     63  C   UNL A   1      43.880  32.342  28.754  1.00  0.00     0.010 A 
ATOM     64  C   UNL A   1      45.593  31.840  26.603  1.00  0.00     0.020 A 
ATOM     65  C   UNL A   1      43.864  33.186  27.641  1.00  0.00     0.020 A 
ATOM     66  C   UNL A   1      44.727  32.937  26.575  1.00  0.00     0.054 A 
BRANCH  66  67
ATOM     67  S   UNL A   1      44.697  34.015  25.114  1.00  0.00     0.124 S 
ATOM     68  O   UNL A   1      43.586  34.916  25.407  1.00  0.00    -0.237 OA
ATOM     69  O   UNL A   1      46.025  34.626  25.135  1.00  0.00    -0.237 OA
ATOM     70  O   UNL A   1      44.469  33.092  24.004  1.00  0.00    -0.744 OA
ENDBRANCH  66  67
ENDBRANCH  40  61
ENDBRANCH  14  15
ENDBRANCH   7   9
ENDBRANCH   4   5
ENDBRANCH   3   4
ENDBRANCH   2   3
ENDBRANCH   1   2
BRANCH   1  71
ATOM     71  C   UNL A   1      32.760  30.742  26.742  1.00  0.00     0.021 C 
BRANCH  71  72
ATOM     72  C   UNL A   1      33.102  29.326  26.301  1.00  0.00     0.116 C 
BRANCH  72  73
ATOM     73  N   UNL A   1      33.713  29.350  24.991  1.00  0.00    -0.351 N 
ATOM     74  C   UNL A   1      33.327  28.741  23.832  1.00  0.00     0.262 C 
ATOM     75  H   UNL A   1      34.534  29.890  24.925  1.00  0.00     0.163 HD
ATOM     76  O   UNL A   1      34.163  28.719  22.925  1.00  0.00    -0.268 OA
BRANCH  74  77
ATOM     77  C   UNL A   1      32.041  28.092  23.749  1.00  0.00     0.112 A 
ATOM     78  S   UNL A   1      30.759  29.139  23.232  1.00  0.00    -0.137 S 
ATOM     79  C   UNL A   1      31.562  26.823  24.026  1.00  0.00     0.111 A 
ATOM     80  C   UNL A   1      29.615  27.885  23.238  1.00  0.00     0.067 A 
ATOM     81  C   UNL A   1      30.168  26.705  23.669  1.00  0.00     0.035 A 
BRANCH  79  82
ATOM     82  S   UNL A   1      32.336  25.410  24.685  1.00  0.00     0.263 S 
ATOM     83  O   UNL A   1      33.145  25.973  25.748  1.00  0.00    -0.201 OA
ATOM     84  O   UNL A   1      31.198  24.566  24.985  1.00  0.00    -0.201 OA
BRANCH  82  85
ATOM     85  N   UNL A   1      33.331  24.475  23.753  1.00  0.00    -0.280 N 
ATOM     86  H   UNL A   1      34.056  24.943  23.279  1.00  0.00     0.180 HD
BRANCH  85  87
ATOM     87  C   UNL A   1      33.255  23.084  23.562  1.00  0.00     0.049 A 
ATOM     88  C   UNL A   1      33.978  22.312  24.473  1.00  0.00     0.027 A 
ATOM     89  C   UNL A   1      32.425  22.470  22.635  1.00  0.00     0.027 A 
ATOM     90  C   UNL A   1      33.685  20.964  24.633  1.00  0.00     0.008 A 
ATOM     91  C   UNL A   1      32.153  21.105  22.771  1.00  0.00     0.008 A 
ATOM     92  C   UNL A   1      32.710  20.364  23.828  1.00  0.00    -0.026 A 
BRANCH  92  93
ATOM     93  C   UNL A   1      32.151  19.008  24.184  1.00  0.00     0.181 C 
BRANCH  93  94
ATOM     94  N   UNL A   1      33.079  17.933  23.906  1.00  0.00    -0.249 N 
ATOM     95  C   UNL A   1      33.242  17.256  22.737  1.00  0.00     0.220 A 
ATOM     96  N   UNL A   1      33.998  17.552  24.815  1.00  0.00    -0.160 NA
ATOM     97  N   UNL A   1      34.222  16.392  22.861  1.00  0.00    -0.224 NA
ATOM     98  C   UNL A   1      34.646  16.598  24.144  1.00  0.00     0.246 A 
ENDBRANCH  93  94
ENDBRANCH  92  93
ENDBRANCH  85  87
ENDBRANCH  82  85
ENDBRANCH  79  82
ENDBRANCH  74  77
ENDBRANCH  72  73
ENDBRANCH  71  72
ENDBRANCH   1  71
TORSDOF 21
ENDMDL
MODEL 2
REMARK VINA RESULT:     -11.3      2.960      9.745
REMARK SMILES O=C(NCCCCCCNC(=O)c1sccc1S(=O)(=O)Nc1ccc(Cn2cncn2)cc1)c1ccc(-c2c3nc(c(-c4ccc(S(=O)(=O)[O-])cc4)c4ccc([nH]4)c(-c4ccc(S(=O)(=O)[O-])cc4)c4nc(c(-c5ccc(S(=O)(=O)[O-])cc5)c5ccc2[nH]5)C=C4)C=C3)cc1
REMARK SMILES IDX 7 1 6 2 5 3 4 4 3 5 1 6 2 7 34 9 35 10 93 11 36 12 92 13
REMARK SMILES IDX 37 14 38 15 39 16 86 17 40 18 91 19 85 20 87 21 41 22 90 23
REMARK SMILES IDX 84 24 83 25 42 27 72 28 53 29 71 30 54 31 57 32 70 33 88 34
REMARK SMILES IDX 55 35 56 36 69 38 89 39 58 40 43 41 44 42 52 43 45 44 51 45
REMARK SMILES IDX 46 46 47 47 48 48 49 49 50 50 73 51 74 52 82 53 75 54 81 55
REMARK SMILES IDX 76 56 77 57 78 58 79 59 80 60 59 61 60 62 68 63 61 64 67 65
REMARK SMILES IDX 62 66 63 67 64 68 65 69 66 70 8 71 9 72 10 73 11 74 12 76
REMARK SMILES IDX 13 77 14 78 17 79 15 80 16 81 18 82 19 83 20 84 21 85 22 87
REMARK SMILES IDX 23 88 33 89 24 90 32 91 25 92 26 93 27 94 28 95 31 96 29 97
REMARK SMILES IDX 30 98
REMARK H PARENT 3 8 87 26 57 37 10 75 21 86
REMARK Flexibility Score: inf
ROOT
ATOM      1  C   UNL A   1      38.400  21.355  25.918  1.00  0.00     0.002 C 
ENDROOT
BRANCH   1   2
ATOM      2  C   UNL A   1      39.928  21.464  25.836  1.00  0.00     0.002 C 
BRANCH   2   3
ATOM      3  C   UNL A   1      40.693  21.018  27.086  1.00  0.00     0.021 C 
BRANCH   3   4
ATOM      4  C   UNL A   1      41.853  20.064  26.811  1.00  0.00     0.116 C 
BRANCH   4   5
ATOM      5  N   UNL A   1      42.727  20.499  25.747  1.00  0.00    -0.352 N 
ATOM      6  O   UNL A   1      44.177  21.623  24.521  1.00  0.00    -0.269 OA
ATOM      7  C   UNL A   1      43.440  21.640  25.510  1.00  0.00     0.251 C 
ATOM      8  H   UNL A   1      42.832  19.826  25.036  1.00  0.00     0.163 HD
BRANCH   7   9
ATOM      9  C   UNL A   1      43.335  22.887  26.314  1.00  0.00     0.039 A 
ATOM     10  C   UNL A   1      43.818  23.068  27.611  1.00  0.00     0.014 A 
ATOM     11  C   UNL A   1      42.686  23.964  25.682  1.00  0.00     0.014 A 
ATOM     12  C   UNL A   1      43.598  24.264  28.288  1.00  0.00     0.010 A 
ATOM     13  C   UNL A   1      42.481  25.167  26.345  1.00  0.00     0.010 A 
ATOM     14  C   UNL A   1      42.917  25.306  27.659  1.00  0.00    -0.014 A 
BRANCH  14  15
ATOM     15  C   UNL A   1      42.857  26.595  28.344  1.00  0.00     0.031 A 
ATOM     16  C   UNL A   1      44.089  27.428  28.202  1.00  0.00     0.074 A 
ATOM     17  C   UNL A   1      41.739  27.090  28.911  1.00  0.00     0.049 A 
ATOM     18  N   UNL A   1      44.865  27.884  29.132  1.00  0.00    -0.248 NA
ATOM     19  C   UNL A   1      44.573  27.694  26.836  1.00  0.00     0.031 C 
ATOM     20  C   UNL A   1      40.386  26.531  28.864  1.00  0.00     0.029 A 
ATOM     21  N   UNL A   1      41.559  28.280  29.550  1.00  0.00    -0.354 N 
ATOM     22  C   UNL A   1      45.830  28.651  28.483  1.00  0.00     0.074 A 
ATOM     23  C   UNL A   1      45.688  28.383  27.075  1.00  0.00     0.031 C 
ATOM     24  C   UNL A   1      39.500  27.486  29.228  1.00  0.00     0.029 A 
ATOM     25  C   UNL A   1      40.228  28.667  29.661  1.00  0.00     0.049 A 
ATOM     26  H   UNL A   1      42.304  28.818  29.900  1.00  0.00     0.167 HD
ATOM     27  C   UNL A   1      46.553  29.615  29.121  1.00  0.00     0.031 A 
ATOM     28  C   UNL A   1      39.763  29.893  30.012  1.00  0.00     0.031 A 
ATOM     29  C   UNL A   1      46.508  29.474  30.549  1.00  0.00     0.049 A 
ATOM     30  C   UNL A   1      40.862  30.605  30.708  1.00  0.00     0.074 A 
ATOM     31  C   UNL A   1      46.890  28.493  31.440  1.00  0.00     0.029 A 
ATOM     32  N   UNL A   1      45.653  30.300  31.241  1.00  0.00    -0.354 N 
ATOM     33  N   UNL A   1      41.336  30.239  31.865  1.00  0.00    -0.248 NA
ATOM     34  C   UNL A   1      41.730  31.466  29.923  1.00  0.00     0.031 C 
ATOM     35  C   UNL A   1      45.875  28.491  32.441  1.00  0.00     0.029 A 
ATOM     36  C   UNL A   1      44.974  29.512  32.135  1.00  0.00     0.049 A 
ATOM     37  H   UNL A   1      45.550  31.270  31.119  1.00  0.00     0.167 HD
ATOM     38  C   UNL A   1      42.702  30.456  31.775  1.00  0.00     0.074 A 
ATOM     39  C   UNL A   1      42.873  31.301  30.593  1.00  0.00     0.031 C 
ATOM     40  C   UNL A   1      43.587  29.713  32.502  1.00  0.00     0.031 A 
BRANCH  27  41
ATOM     41  C   UNL A   1      46.999  30.890  28.449  1.00  0.00    -0.014 A 
ATOM     42  C   UNL A   1      48.374  31.125  28.245  1.00  0.00     0.010 A 
ATOM     43  C   UNL A   1      46.128  31.984  28.258  1.00  0.00     0.010 A 
ATOM     44  C   UNL A   1      48.852  32.401  27.913  1.00  0.00     0.020 A 
ATOM     45  C   UNL A   1      46.588  33.247  27.885  1.00  0.00     0.020 A 
ATOM     46  C   UNL A   1      47.954  33.456  27.745  1.00  0.00     0.054 A 
BRANCH  46  47
ATOM     47  S   UNL A   1      48.585  35.119  27.408  1.00  0.00     0.124 S 
ATOM     48  O   UNL A   1      49.651  35.243  28.397  1.00  0.00    -0.237 OA
ATOM     49  O   UNL A   1      49.017  35.010  26.017  1.00  0.00    -0.237 OA
ATOM     50  O   UNL A   1      47.421  35.977  27.627  1.00  0.00    -0.744 OA
ENDBRANCH  46  47
ENDBRANCH  27  41
BRANCH  28  51
ATOM     51  C   UNL A   1      38.565  30.601  29.488  1.00  0.00    -0.014 A 
ATOM     52  C   UNL A   1      37.329  29.940  29.351  1.00  0.00     0.010 A 
ATOM     53  C   UNL A   1      38.568  32.008  29.394  1.00  0.00     0.010 A 
ATOM     54  C   UNL A   1      36.134  30.666  29.188  1.00  0.00     0.020 A 
ATOM     55  C   UNL A   1      37.385  32.736  29.224  1.00  0.00     0.020 A 
ATOM     56  C   UNL A   1      36.168  32.062  29.147  1.00  0.00     0.054 A 
BRANCH  56  57
ATOM     57  S   UNL A   1      34.610  32.998  29.122  1.00  0.00     0.124 S 
ATOM     58  O   UNL A   1      34.160  32.889  30.507  1.00  0.00    -0.237 OA
ATOM     59  O   UNL A   1      35.044  34.327  28.700  1.00  0.00    -0.237 OA
ATOM     60  O   UNL A   1      33.792  32.279  28.147  1.00  0.00    -0.744 OA
ENDBRANCH  56  57
ENDBRANCH  28  51
BRANCH  40  61
ATOM     61  C   UNL A   1      43.054  28.842  33.618  1.00  0.00    -0.014 A 
ATOM     62  C   UNL A   1      42.438  27.592  33.411  1.00  0.00     0.010 A 
ATOM     63  C   UNL A   1      43.327  29.242  34.938  1.00  0.00     0.010 A 
ATOM     64  C   UNL A   1      42.080  26.779  34.498  1.00  0.00     0.020 A 
ATOM     65  C   UNL A   1      42.991  28.430  36.023  1.00  0.00     0.020 A 
ATOM     66  C   UNL A   1      42.360  27.206  35.799  1.00  0.00     0.054 A 
BRANCH  66  67
ATOM     67  S   UNL A   1      41.940  26.133  37.203  1.00  0.00     0.124 S 
ATOM     68  O   UNL A   1      42.993  26.444  38.165  1.00  0.00    -0.237 OA
ATOM     69  O   UNL A   1      40.600  26.587  37.568  1.00  0.00    -0.237 OA
ATOM     70  O   UNL A   1      41.996  24.785  36.639  1.00  0.00    -0.744 OA
ENDBRANCH  66  67
ENDBRANCH  40  61
ENDBRANCH  14  15
ENDBRANCH   7   9
ENDBRANCH   4   5
ENDBRANCH   3   4
ENDBRANCH   2   3
ENDBRANCH   1   2
BRANCH   1  71
ATOM     71  C   UNL A   1      37.635  22.665  25.676  1.00  0.00     0.021 C 
BRANCH  71  72
ATOM     72  C   UNL A   1      36.704  22.623  24.471  1.00  0.00     0.116 C 
BRANCH  72  73
ATOM     73  N   UNL A   1      36.092  21.318  24.366  1.00  0.00    -0.351 N 
ATOM     74  C   UNL A   1      34.864  20.891  24.782  1.00  0.00     0.262 C 
ATOM     75  H   UNL A   1      36.646  20.633  23.927  1.00  0.00     0.163 HD
ATOM     76  O   UNL A   1      34.690  19.670  24.797  1.00  0.00    -0.268 OA
BRANCH  74  77
ATOM     77  C   UNL A   1      33.888  21.842  25.255  1.00  0.00     0.112 A 
ATOM     78  S   UNL A   1      33.687  21.843  26.977  1.00  0.00    -0.137 S 
ATOM     79  C   UNL A   1      33.025  22.745  24.656  1.00  0.00     0.111 A 
ATOM     80  C   UNL A   1      32.575  23.125  26.935  1.00  0.00     0.067 A 
ATOM     81  C   UNL A   1      32.315  23.519  25.646  1.00  0.00     0.035 A 
BRANCH  79  82
ATOM     82  S   UNL A   1      32.689  23.092  22.984  1.00  0.00     0.263 S 
ATOM     83  O   UNL A   1      33.982  23.526  22.497  1.00  0.00    -0.201 OA
ATOM     84  O   UNL A   1      32.108  21.843  22.537  1.00  0.00    -0.201 OA
BRANCH  82  85
ATOM     85  N   UNL A   1      31.589  24.252  22.563  1.00  0.00    -0.280 N 
ATOM     86  H   UNL A   1      31.070  24.088  21.743  1.00  0.00     0.180 HD
BRANCH  85  87
ATOM     87  C   UNL A   1      31.314  25.448  23.250  1.00  0.00     0.049 A 
ATOM     88  C   UNL A   1      32.373  26.354  23.328  1.00  0.00     0.027 A 
ATOM     89  C   UNL A   1      30.056  25.807  23.713  1.00  0.00     0.027 A 
ATOM     90  C   UNL A   1      32.128  27.688  23.625  1.00  0.00     0.008 A 
ATOM     91  C   UNL A   1      29.814  27.143  24.047  1.00  0.00     0.008 A 
ATOM     92  C   UNL A   1      30.826  28.110  23.915  1.00  0.00    -0.026 A 
BRANCH  92  93
ATOM     93  C   UNL A   1      30.481  29.579  23.928  1.00  0.00     0.181 C 
BRANCH  93  94
ATOM     94  N   UNL A   1      29.355  29.894  23.075  1.00  0.00    -0.249 N 
ATOM     95  C   UNL A   1      28.198  30.522  23.423  1.00  0.00     0.220 A 
ATOM     96  N   UNL A   1      29.399  29.669  21.747  1.00  0.00    -0.160 NA
ATOM     97  N   UNL A   1      27.445  30.678  22.360  1.00  0.00    -0.224 NA
ATOM     98  C   UNL A   1      28.209  30.135  21.366  1.00  0.00     0.246 A 
ENDBRANCH  93  94
ENDBRANCH  92  93
ENDBRANCH  85  87
ENDBRANCH  82  85
ENDBRANCH  79  82
ENDBRANCH  74  77
ENDBRANCH  72  73
ENDBRANCH  71  72
ENDBRANCH   1  71
TORSDOF 21
ENDMDL
MODEL 3
REMARK VINA RESULT:     -11.3      2.451      4.699
REMARK SMILES O=C(NCCCCCCNC(=O)c1sccc1S(=O)(=O)Nc1ccc(Cn2cncn2)cc1)c1ccc(-c2c3nc(c(-c4ccc(S(=O)(=O)[O-])cc4)c4ccc([nH]4)c(-c4ccc(S(=O)(=O)[O-])cc4)c4nc(c(-c5ccc(S(=O)(=O)[O-])cc5)c5ccc2[nH]5)C=C4)C=C3)cc1
REMARK SMILES IDX 7 1 6 2 5 3 4 4 3 5 1 6 2 7 34 9 35 10 93 11 36 12 92 13
REMARK SMILES IDX 37 14 38 15 39 16 86 17 40 18 91 19 85 20 87 21 41 22 90 23
REMARK SMILES IDX 84 24 83 25 42 27 72 28 53 29 71 30 54 31 57 32 70 33 88 34
REMARK SMILES IDX 55 35 56 36 69 38 89 39 58 40 43 41 44 42 52 43 45 44 51 45
REMARK SMILES IDX 46 46 47 47 48 48 49 49 50 50 73 51 74 52 82 53 75 54 81 55
REMARK SMILES IDX 76 56 77 57 78 58 79 59 80 60 59 61 60 62 68 63 61 64 67 65
REMARK SMILES IDX 62 66 63 67 64 68 65 69 66 70 8 71 9 72 10 73 11 74 12 76
REMARK SMILES IDX 13 77 14 78 17 79 15 80 16 81 18 82 19 83 20 84 21 85 22 87
REMARK SMILES IDX 23 88 33 89 24 90 32 91 25 92 26 93 27 94 28 95 31 96 29 97
REMARK SMILES IDX 30 98
REMARK H PARENT 3 8 87 26 57 37 10 75 21 86
REMARK Flexibility Score: inf
ROOT
ATOM      1  C   UNL A   1      34.381  30.392  27.391  1.00  0.00     0.002 C 
ENDROOT
BRANCH   1   2
ATOM      2  C   UNL A   1      33.935  31.542  28.303  1.00  0.00     0.002 C 
BRANCH   2   3
ATOM      3  C   UNL A   1      34.407  32.939  27.888  1.00  0.00     0.021 C 
BRANCH   3   4
ATOM      4  C   UNL A   1      34.708  33.878  29.053  1.00  0.00     0.116 C 
BRANCH   4   5
ATOM      5  N   UNL A   1      34.229  33.398  30.328  1.00  0.00    -0.352 N 
ATOM      6  O   UNL A   1      34.090  32.486  32.333  1.00  0.00    -0.269 OA
ATOM      7  C   UNL A   1      34.763  32.607  31.307  1.00  0.00     0.251 C 
ATOM      8  H   UNL A   1      33.319  33.707  30.540  1.00  0.00     0.163 HD
BRANCH   7   9
ATOM      9  C   UNL A   1      36.042  31.857  31.185  1.00  0.00     0.039 A 
ATOM     10  C   UNL A   1      36.169  30.479  30.999  1.00  0.00     0.014 A 
ATOM     11  C   UNL A   1      37.211  32.635  31.267  1.00  0.00     0.014 A 
ATOM     12  C   UNL A   1      37.425  29.882  30.969  1.00  0.00     0.010 A 
ATOM     13  C   UNL A   1      38.469  32.047  31.217  1.00  0.00     0.010 A 
ATOM     14  C   UNL A   1      38.572  30.664  31.093  1.00  0.00    -0.014 A 
BRANCH  14  15
ATOM     15  C   UNL A   1      39.866  30.018  30.887  1.00  0.00     0.031 A 
ATOM     16  C   UNL A   1      40.694  29.885  32.125  1.00  0.00     0.074 A 
ATOM     17  C   UNL A   1      40.232  29.426  29.733  1.00  0.00     0.049 A 
ATOM     18  N   UNL A   1      41.876  30.355  32.357  1.00  0.00    -0.248 NA
ATOM     19  C   UNL A   1      40.071  29.230  33.288  1.00  0.00     0.031 C 
ATOM     20  C   UNL A   1      39.415  29.207  28.538  1.00  0.00     0.029 A 
ATOM     21  N   UNL A   1      41.393  28.776  29.436  1.00  0.00    -0.354 N 
ATOM     22  C   UNL A   1      42.226  29.900  33.627  1.00  0.00     0.074 A 
ATOM     23  C   UNL A   1      41.032  29.339  34.204  1.00  0.00     0.031 C 
ATOM     24  C   UNL A   1      40.013  28.279  27.757  1.00  0.00     0.029 A 
ATOM     25  C   UNL A   1      41.308  27.944  28.326  1.00  0.00     0.049 A 
ATOM     26  H   UNL A   1      42.218  28.886  29.961  1.00  0.00     0.167 HD
ATOM     27  C   UNL A   1      43.520  29.826  34.049  1.00  0.00     0.031 A 
ATOM     28  C   UNL A   1      42.203  26.996  27.948  1.00  0.00     0.031 A 
ATOM     29  C   UNL A   1      44.404  30.616  33.239  1.00  0.00     0.049 A 
ATOM     30  C   UNL A   1      43.491  27.308  28.614  1.00  0.00     0.074 A 
ATOM     31  C   UNL A   1      44.502  31.959  32.936  1.00  0.00     0.029 A 
ATOM     32  N   UNL A   1      45.154  29.960  32.293  1.00  0.00    -0.354 N 
ATOM     33  N   UNL A   1      44.202  28.365  28.345  1.00  0.00    -0.248 NA
ATOM     34  C   UNL A   1      43.777  26.672  29.889  1.00  0.00     0.031 C 
ATOM     35  C   UNL A   1      44.878  31.997  31.562  1.00  0.00     0.029 A 
ATOM     36  C   UNL A   1      45.050  30.680  31.130  1.00  0.00     0.049 A 
ATOM     37  H   UNL A   1      45.668  29.132  32.425  1.00  0.00     0.167 HD
ATOM     38  C   UNL A   1      44.706  28.776  29.569  1.00  0.00     0.074 A 
ATOM     39  C   UNL A   1      44.490  27.641  30.466  1.00  0.00     0.031 C 
ATOM     40  C   UNL A   1      45.002  30.087  29.810  1.00  0.00     0.031 A 
BRANCH  27  41
ATOM     41  C   UNL A   1      44.023  28.747  34.977  1.00  0.00    -0.014 A 
ATOM     42  C   UNL A   1      44.525  29.100  36.246  1.00  0.00     0.010 A 
ATOM     43  C   UNL A   1      44.268  27.430  34.536  1.00  0.00     0.010 A 
ATOM     44  C   UNL A   1      45.274  28.192  37.009  1.00  0.00     0.020 A 
ATOM     45  C   UNL A   1      44.974  26.505  35.306  1.00  0.00     0.020 A 
ATOM     46  C   UNL A   1      45.501  26.902  36.527  1.00  0.00     0.054 A 
BRANCH  46  47
ATOM     47  S   UNL A   1      46.545  25.767  37.475  1.00  0.00     0.124 S 
ATOM     48  O   UNL A   1      47.878  26.103  36.985  1.00  0.00    -0.237 OA
ATOM     49  O   UNL A   1      46.255  26.157  38.852  1.00  0.00    -0.237 OA
ATOM     50  O   UNL A   1      46.049  24.446  37.091  1.00  0.00    -0.744 OA
ENDBRANCH  46  47
ENDBRANCH  27  41
BRANCH  28  51
ATOM     51  C   UNL A   1      41.928  25.671  27.333  1.00  0.00    -0.014 A 
ATOM     52  C   UNL A   1      42.847  25.071  26.451  1.00  0.00     0.010 A 
ATOM     53  C   UNL A   1      40.886  24.866  27.839  1.00  0.00     0.010 A 
ATOM     54  C   UNL A   1      42.762  23.701  26.138  1.00  0.00     0.020 A 
ATOM     55  C   UNL A   1      40.791  23.506  27.527  1.00  0.00     0.020 A 
ATOM     56  C   UNL A   1      41.745  22.922  26.696  1.00  0.00     0.054 A 
BRANCH  56  57
ATOM     57  S   UNL A   1      41.748  21.123  26.438  1.00  0.00     0.124 S 
ATOM     58  O   UNL A   1      40.348  20.851  26.124  1.00  0.00    -0.237 OA
ATOM     59  O   UNL A   1      42.688  20.961  25.333  1.00  0.00    -0.237 OA
ATOM     60  O   UNL A   1      42.209  20.592  27.721  1.00  0.00    -0.744 OA
ENDBRANCH  56  57
ENDBRANCH  28  51
BRANCH  40  61
ATOM     61  C   UNL A   1      45.043  31.045  28.641  1.00  0.00    -0.014 A 
ATOM     62  C   UNL A   1      45.593  30.725  27.383  1.00  0.00     0.010 A 
ATOM     63  C   UNL A   1      44.359  32.266  28.780  1.00  0.00     0.010 A 
ATOM     64  C   UNL A   1      45.486  31.617  26.305  1.00  0.00     0.020 A 
ATOM     65  C   UNL A   1      44.232  33.149  27.705  1.00  0.00     0.020 A 
ATOM     66  C   UNL A   1      44.803  32.825  26.475  1.00  0.00     0.054 A 
BRANCH  66  67
ATOM     67  S   UNL A   1      44.622  33.956  25.066  1.00  0.00     0.124 S 
ATOM     68  O   UNL A   1      43.427  34.716  25.421  1.00  0.00    -0.237 OA
ATOM     69  O   UNL A   1      45.876  34.707  25.091  1.00  0.00    -0.237 OA
ATOM     70  O   UNL A   1      44.469  33.062  23.919  1.00  0.00    -0.744 OA
ENDBRANCH  66  67
ENDBRANCH  40  61
ENDBRANCH  14  15
ENDBRANCH   7   9
ENDBRANCH   4   5
ENDBRANCH   3   4
ENDBRANCH   2   3
ENDBRANCH   1   2
BRANCH   1  71
ATOM     71  C   UNL A   1      33.251  29.490  26.871  1.00  0.00     0.021 C 
BRANCH  71  72
ATOM     72  C   UNL A   1      33.675  28.049  26.626  1.00  0.00     0.116 C 
BRANCH  72  73
ATOM     73  N   UNL A   1      33.660  27.764  25.209  1.00  0.00    -0.351 N 
ATOM     74  C   UNL A   1      33.712  26.566  24.556  1.00  0.00     0.262 C 
ATOM     75  H   UNL A   1      33.603  28.555  24.626  1.00  0.00     0.163 HD
ATOM     76  O   UNL A   1      33.939  26.617  23.345  1.00  0.00    -0.268 OA
BRANCH  74  77
ATOM     77  C   UNL A   1      33.595  25.332  25.295  1.00  0.00     0.112 A 
ATOM     78  S   UNL A   1      35.111  24.539  25.579  1.00  0.00    -0.137 S 
ATOM     79  C   UNL A   1      32.545  24.590  25.808  1.00  0.00     0.111 A 
ATOM     80  C   UNL A   1      34.392  23.304  26.495  1.00  0.00     0.067 A 
ATOM     81  C   UNL A   1      33.029  23.450  26.550  1.00  0.00     0.035 A 
BRANCH  79  82
ATOM     82  S   UNL A   1      30.820  24.810  25.723  1.00  0.00     0.263 S 
ATOM     83  O   UNL A   1      30.327  23.490  26.062  1.00  0.00    -0.201 OA
ATOM     84  O   UNL A   1      30.623  25.930  26.619  1.00  0.00    -0.201 OA
BRANCH  82  85
ATOM     85  N   UNL A   1      30.092  25.258  24.308  1.00  0.00    -0.280 N 
ATOM     86  H   UNL A   1      30.060  24.579  23.596  1.00  0.00     0.180 HD
BRANCH  85  87
ATOM     87  C   UNL A   1      29.511  26.504  24.010  1.00  0.00     0.049 A 
ATOM     88  C   UNL A   1      30.396  27.489  23.569  1.00  0.00     0.027 A 
ATOM     89  C   UNL A   1      28.145  26.745  24.008  1.00  0.00     0.027 A 
ATOM     90  C   UNL A   1      29.917  28.604  22.893  1.00  0.00     0.008 A 
ATOM     91  C   UNL A   1      27.660  27.884  23.357  1.00  0.00     0.008 A 
ATOM     92  C   UNL A   1      28.540  28.772  22.715  1.00  0.00    -0.026 A 
BRANCH  92  93
ATOM     93  C   UNL A   1      28.012  29.784  21.728  1.00  0.00     0.181 C 
BRANCH  93  94
ATOM     94  N   UNL A   1      28.212  31.147  22.168  1.00  0.00    -0.249 N 
ATOM     95  C   UNL A   1      28.214  32.276  21.406  1.00  0.00     0.220 A 
ATOM     96  N   UNL A   1      28.319  31.451  23.476  1.00  0.00    -0.160 NA
ATOM     97  N   UNL A   1      28.369  33.327  22.176  1.00  0.00    -0.224 NA
ATOM     98  C   UNL A   1      28.440  32.779  23.425  1.00  0.00     0.246 A 
ENDBRANCH  93  94
ENDBRANCH  92  93
ENDBRANCH  85  87
ENDBRANCH  82  85
ENDBRANCH  79  82
ENDBRANCH  74  77
ENDBRANCH  72  73
ENDBRANCH  71  72
ENDBRANCH   1  71
TORSDOF 21
ENDMDL
