MODEL 1
REMARK VINA RESULT:     -10.7      0.000      0.000
REMARK SMILES CC(C)n1cncc1C[NH2+][C@@H]1CCC[C@H](C(=O)NCCCCCCNC(=O)c2ccc(-c3c4nc(c(-c5ccc(S(=O)(=O)[O-])cc5)c5ccc([nH]5)c(-c5ccc(S(=O)(=O)[O-])cc5)c5nc(c(-c6ccc(S(=O)(=O)[O-])cc6)c6ccc3[nH]6)C=C5)C=C4)cc2)C1
REMARK SMILES IDX 21 1 20 2 19 3 18 4 16 5 17 6 15 8 11 9 12 10 88 11 13 12
REMARK SMILES IDX 14 13 10 14 9 17 8 18 4 19 5 20 6 21 7 22 2 23 1 24 3 25
REMARK SMILES IDX 22 26 23 27 24 28 25 29 26 30 27 32 28 33 29 34 87 35 30 36
REMARK SMILES IDX 86 37 31 38 32 39 33 40 80 41 34 42 85 43 79 44 81 45 35 46
REMARK SMILES IDX 84 47 78 48 77 49 36 51 66 52 47 53 65 54 48 55 51 56 64 57
REMARK SMILES IDX 82 58 49 59 50 60 63 62 83 63 52 64 37 65 38 66 46 67 39 68
REMARK SMILES IDX 45 69 40 70 41 71 42 72 43 73 44 74 67 75 68 76 76 77 69 78
REMARK SMILES IDX 75 79 70 80 71 81 72 82 73 83 74 84 53 85 54 86 62 87 55 88
REMARK SMILES IDX 61 89 56 90 57 91 58 92 59 93 60 94
REMARK H PARENT 18 7 10 15 10 16 25 31 81 50 51 61
REMARK Flexibility Score: inf
ROOT
ATOM      1  C   UNL A   1      35.020  30.825  28.343  1.00  0.00     0.002 C 
ENDROOT
BRANCH   1   2
ATOM      2  C   UNL A   1      35.056  29.753  27.250  1.00  0.00     0.021 C 
BRANCH   2   3
ATOM      3  C   UNL A   1      33.773  29.613  26.434  1.00  0.00     0.116 C 
BRANCH   3   4
ATOM      4  N   UNL A   1      34.012  29.098  25.096  1.00  0.00    -0.356 N 
ATOM      5  C   UNL A   1      33.176  28.473  24.219  1.00  0.00     0.223 C 
ATOM      6  O   UNL A   1      33.613  28.214  23.093  1.00  0.00    -0.275 OA
ATOM      7  H   UNL A   1      34.932  29.222  24.768  1.00  0.00     0.163 HD
BRANCH   5   8
ATOM      8  C   UNL A   1      31.746  28.100  24.598  1.00  0.00     0.084 C 
ATOM      9  C   UNL A   1      30.356  26.205  25.701  1.00  0.00     0.183 C 
ATOM     10  C   UNL A   1      29.679  26.029  24.333  1.00  0.00     0.065 C 
ATOM     11  C   UNL A   1      31.720  26.900  25.561  1.00  0.00     0.078 C 
ATOM     12  C   UNL A   1      29.515  27.370  23.630  1.00  0.00     0.007 C 
ATOM     13  C   UNL A   1      30.865  28.000  23.348  1.00  0.00     0.014 C 
BRANCH   9  14
ATOM     14  N   UNL A   1      30.589  24.977  26.483  1.00  0.00    -0.339 N 
ATOM     15  H   UNL A   1      30.277  25.152  27.438  1.00  0.00     0.346 HD
ATOM     16  H   UNL A   1      30.071  24.243  26.000  1.00  0.00     0.346 HD
BRANCH  14  17
ATOM     17  C   UNL A   1      31.965  24.507  26.544  1.00  0.00     0.317 C 
BRANCH  17  18
ATOM     18  C   UNL A   1      32.100  23.196  25.855  1.00  0.00     0.093 A 
ATOM     19  N   UNL A   1      33.193  22.769  25.131  1.00  0.00    -0.327 N 
ATOM     20  C   UNL A   1      32.936  21.478  24.739  1.00  0.00     0.200 A 
ATOM     21  N   UNL A   1      31.752  21.070  25.128  1.00  0.00    -0.245 NA
ATOM     22  C   UNL A   1      31.228  22.124  25.825  1.00  0.00     0.140 A 
BRANCH  19  23
ATOM     23  C   UNL A   1      34.429  23.473  24.798  1.00  0.00     0.082 C 
ATOM     24  C   UNL A   1      35.434  23.512  25.950  1.00  0.00     0.031 C 
ATOM     25  C   UNL A   1      35.051  22.978  23.492  1.00  0.00     0.031 C 
ENDBRANCH  19  23
ENDBRANCH  17  18
ENDBRANCH  14  17
ENDBRANCH   9  14
ENDBRANCH   5   8
ENDBRANCH   3   4
ENDBRANCH   2   3
ENDBRANCH   1   2
BRANCH   1  26
ATOM     26  C   UNL A   1      35.330  32.260  27.898  1.00  0.00     0.002 C 
BRANCH  26  27
ATOM     27  C   UNL A   1      34.235  33.309  28.131  1.00  0.00     0.021 C 
BRANCH  27  28
ATOM     28  C   UNL A   1      34.725  34.635  28.701  1.00  0.00     0.116 C 
BRANCH  28  29
ATOM     29  N   UNL A   1      34.124  34.942  29.994  1.00  0.00    -0.352 N 
ATOM     30  C   UNL A   1      34.346  34.330  31.207  1.00  0.00     0.251 C 
ATOM     31  H   UNL A   1      33.476  35.682  30.001  1.00  0.00     0.163 HD
ATOM     32  O   UNL A   1      33.530  34.453  32.122  1.00  0.00    -0.269 OA
BRANCH  30  33
ATOM     33  C   UNL A   1      35.555  33.509  31.393  1.00  0.00     0.039 A 
ATOM     34  C   UNL A   1      35.450  32.129  31.573  1.00  0.00     0.014 A 
ATOM     35  C   UNL A   1      36.804  34.124  31.353  1.00  0.00     0.014 A 
ATOM     36  C   UNL A   1      36.612  31.358  31.616  1.00  0.00     0.010 A 
ATOM     37  C   UNL A   1      37.948  33.352  31.293  1.00  0.00     0.010 A 
ATOM     38  C   UNL A   1      37.866  31.968  31.446  1.00  0.00    -0.014 A 
BRANCH  38  39
ATOM     39  C   UNL A   1      39.068  31.137  31.314  1.00  0.00     0.031 A 
ATOM     40  C   UNL A   1      39.794  30.822  32.580  1.00  0.00     0.074 A 
ATOM     41  C   UNL A   1      39.419  30.474  30.192  1.00  0.00     0.049 A 
ATOM     42  N   UNL A   1      40.994  31.165  32.919  1.00  0.00    -0.248 NA
ATOM     43  C   UNL A   1      39.066  30.088  33.627  1.00  0.00     0.031 C 
ATOM     44  C   UNL A   1      38.674  30.369  28.933  1.00  0.00     0.029 A 
ATOM     45  N   UNL A   1      40.473  29.631  29.992  1.00  0.00    -0.354 N 
ATOM     46  C   UNL A   1      41.254  30.527  34.132  1.00  0.00     0.074 A 
ATOM     47  C   UNL A   1      39.988  30.005  34.588  1.00  0.00     0.031 C 
ATOM     48  C   UNL A   1      39.151  29.330  28.216  1.00  0.00     0.029 A 
ATOM     49  C   UNL A   1      40.340  28.820  28.873  1.00  0.00     0.049 A 
ATOM     50  H   UNL A   1      41.257  29.601  30.587  1.00  0.00     0.167 HD
ATOM     51  C   UNL A   1      42.523  30.282  34.569  1.00  0.00     0.031 A 
ATOM     52  C   UNL A   1      41.129  27.779  28.516  1.00  0.00     0.031 A 
ATOM     53  C   UNL A   1      43.507  31.020  33.821  1.00  0.00     0.049 A 
ATOM     54  C   UNL A   1      42.430  27.945  29.202  1.00  0.00     0.074 A 
ATOM     55  C   UNL A   1      43.745  32.354  33.554  1.00  0.00     0.029 A 
ATOM     56  N   UNL A   1      44.255  30.315  32.907  1.00  0.00    -0.354 N 
ATOM     57  N   UNL A   1      43.263  28.910  28.936  1.00  0.00    -0.248 NA
ATOM     58  C   UNL A   1      42.665  27.249  30.456  1.00  0.00     0.031 C 
ATOM     59  C   UNL A   1      44.232  32.381  32.213  1.00  0.00     0.029 A 
ATOM     60  C   UNL A   1      44.306  31.061  31.759  1.00  0.00     0.049 A 
ATOM     61  H   UNL A   1      44.675  29.436  33.051  1.00  0.00     0.167 HD
ATOM     62  C   UNL A   1      43.843  29.225  30.154  1.00  0.00     0.074 A 
ATOM     63  C   UNL A   1      43.544  28.084  31.015  1.00  0.00     0.031 C 
ATOM     64  C   UNL A   1      44.264  30.497  30.426  1.00  0.00     0.031 A 
BRANCH  51  65
ATOM     65  C   UNL A   1      42.913  29.081  35.407  1.00  0.00    -0.014 A 
ATOM     66  C   UNL A   1      43.776  29.267  36.509  1.00  0.00     0.010 A 
ATOM     67  C   UNL A   1      42.708  27.754  34.978  1.00  0.00     0.010 A 
ATOM     68  C   UNL A   1      44.468  28.191  37.085  1.00  0.00     0.020 A 
ATOM     69  C   UNL A   1      43.353  26.670  35.577  1.00  0.00     0.020 A 
ATOM     70  C   UNL A   1      44.266  26.901  36.597  1.00  0.00     0.054 A 
BRANCH  70  71
ATOM     71  S   UNL A   1      45.268  25.537  37.240  1.00  0.00     0.124 S 
ATOM     72  O   UNL A   1      46.518  26.216  37.569  1.00  0.00    -0.237 OA
ATOM     73  O   UNL A   1      44.477  25.078  38.379  1.00  0.00    -0.237 OA
ATOM     74  O   UNL A   1      45.334  24.605  36.118  1.00  0.00    -0.744 OA
ENDBRANCH  70  71
ENDBRANCH  51  65
BRANCH  52  75
ATOM     75  C   UNL A   1      40.749  26.542  27.795  1.00  0.00    -0.014 A 
ATOM     76  C   UNL A   1      41.614  25.964  26.851  1.00  0.00     0.010 A 
ATOM     77  C   UNL A   1      39.649  25.778  28.239  1.00  0.00     0.010 A 
ATOM     78  C   UNL A   1      41.430  24.640  26.423  1.00  0.00     0.020 A 
ATOM     79  C   UNL A   1      39.453  24.463  27.807  1.00  0.00     0.020 A 
ATOM     80  C   UNL A   1      40.363  23.889  26.923  1.00  0.00     0.054 A 
BRANCH  80  81
ATOM     81  S   UNL A   1      40.254  22.118  26.531  1.00  0.00     0.124 S 
ATOM     82  O   UNL A   1      40.366  21.500  27.849  1.00  0.00    -0.237 OA
ATOM     83  O   UNL A   1      38.946  22.015  25.891  1.00  0.00    -0.237 OA
ATOM     84  O   UNL A   1      41.393  21.894  25.641  1.00  0.00    -0.744 OA
ENDBRANCH  80  81
ENDBRANCH  52  75
BRANCH  64  85
ATOM     85  C   UNL A   1      44.434  31.459  29.272  1.00  0.00    -0.014 A 
ATOM     86  C   UNL A   1      43.467  32.410  28.895  1.00  0.00     0.010 A 
ATOM     87  C   UNL A   1      45.676  31.474  28.611  1.00  0.00     0.010 A 
ATOM     88  C   UNL A   1      43.716  33.315  27.853  1.00  0.00     0.020 A 
ATOM     89  C   UNL A   1      45.940  32.388  27.588  1.00  0.00     0.020 A 
ATOM     90  C   UNL A   1      44.951  33.294  27.201  1.00  0.00     0.054 A 
BRANCH  90  91
ATOM     91  S   UNL A   1      45.275  34.481  25.868  1.00  0.00     0.124 S 
ATOM     92  O   UNL A   1      44.128  34.287  24.985  1.00  0.00    -0.237 OA
ATOM     93  O   UNL A   1      45.316  35.760  26.574  1.00  0.00    -0.237 OA
ATOM     94  O   UNL A   1      46.558  34.046  25.318  1.00  0.00    -0.744 OA
ENDBRANCH  90  91
ENDBRANCH  64  85
ENDBRANCH  38  39
ENDBRANCH  30  33
ENDBRANCH  28  29
ENDBRANCH  27  28
ENDBRANCH  26  27
ENDBRANCH   1  26
TORSDOF 20
ENDMDL
MODEL 2
REMARK VINA RESULT:      -9.7      1.411      1.865
REMARK SMILES CC(C)n1cncc1C[NH2+][C@@H]1CCC[C@H](C(=O)NCCCCCCNC(=O)c2ccc(-c3c4nc(c(-c5ccc(S(=O)(=O)[O-])cc5)c5ccc([nH]5)c(-c5ccc(S(=O)(=O)[O-])cc5)c5nc(c(-c6ccc(S(=O)(=O)[O-])cc6)c6ccc3[nH]6)C=C5)C=C4)cc2)C1
REMARK SMILES IDX 21 1 20 2 19 3 18 4 16 5 17 6 15 8 11 9 12 10 88 11 13 12
REMARK SMILES IDX 14 13 10 14 9 17 8 18 4 19 5 20 6 21 7 22 2 23 1 24 3 25
REMARK SMILES IDX 22 26 23 27 24 28 25 29 26 30 27 32 28 33 29 34 87 35 30 36
REMARK SMILES IDX 86 37 31 38 32 39 33 40 80 41 34 42 85 43 79 44 81 45 35 46
REMARK SMILES IDX 84 47 78 48 77 49 36 51 66 52 47 53 65 54 48 55 51 56 64 57
REMARK SMILES IDX 82 58 49 59 50 60 63 62 83 63 52 64 37 65 38 66 46 67 39 68
REMARK SMILES IDX 45 69 40 70 41 71 42 72 43 73 44 74 67 75 68 76 76 77 69 78
REMARK SMILES IDX 75 79 70 80 71 81 72 82 73 83 74 84 53 85 54 86 62 87 55 88
REMARK SMILES IDX 61 89 56 90 57 91 58 92 59 93 60 94
REMARK H PARENT 18 7 10 15 10 16 25 31 81 50 51 61
REMARK Flexibility Score: inf
ROOT
ATOM      1  C   UNL A   1      35.885  31.309  28.483  1.00  0.00     0.002 C 
ENDROOT
BRANCH   1   2
ATOM      2  C   UNL A   1      34.777  30.878  27.518  1.00  0.00     0.021 C 
BRANCH   2   3
ATOM      3  C   UNL A   1      34.672  29.374  27.279  1.00  0.00     0.116 C 
BRANCH   3   4
ATOM      4  N   UNL A   1      33.419  28.815  27.759  1.00  0.00    -0.356 N 
ATOM      5  C   UNL A   1      32.381  28.245  27.085  1.00  0.00     0.223 C 
ATOM      6  O   UNL A   1      31.459  27.761  27.750  1.00  0.00    -0.275 OA
ATOM      7  H   UNL A   1      33.301  28.856  28.736  1.00  0.00     0.163 HD
BRANCH   5   8
ATOM      8  C   UNL A   1      32.342  28.197  25.560  1.00  0.00     0.084 C 
ATOM      9  C   UNL A   1      31.631  26.669  23.585  1.00  0.00     0.183 C 
ATOM     10  C   UNL A   1      33.121  26.614  23.211  1.00  0.00     0.065 C 
ATOM     11  C   UNL A   1      31.442  27.052  25.062  1.00  0.00     0.078 C 
ATOM     12  C   UNL A   1      33.805  27.943  23.500  1.00  0.00     0.007 C 
ATOM     13  C   UNL A   1      33.760  28.261  24.982  1.00  0.00     0.014 C 
BRANCH   9  14
ATOM     14  N   UNL A   1      30.851  25.437  23.367  1.00  0.00    -0.339 N 
ATOM     15  H   UNL A   1      29.878  25.707  23.218  1.00  0.00     0.346 HD
ATOM     16  H   UNL A   1      31.285  24.977  22.567  1.00  0.00     0.346 HD
BRANCH  14  17
ATOM     17  C   UNL A   1      30.882  24.461  24.445  1.00  0.00     0.317 C 
BRANCH  17  18
ATOM     18  C   UNL A   1      31.720  23.293  24.066  1.00  0.00     0.093 A 
ATOM     19  N   UNL A   1      32.716  22.726  24.834  1.00  0.00    -0.327 N 
ATOM     20  C   UNL A   1      33.176  21.627  24.150  1.00  0.00     0.200 A 
ATOM     21  N   UNL A   1      32.575  21.479  22.993  1.00  0.00    -0.245 NA
ATOM     22  C   UNL A   1      31.667  22.501  22.935  1.00  0.00     0.140 A 
BRANCH  19  23
ATOM     23  C   UNL A   1      33.242  23.133  26.134  1.00  0.00     0.082 C 
ATOM     24  C   UNL A   1      33.902  24.513  26.116  1.00  0.00     0.031 C 
ATOM     25  C   UNL A   1      32.213  22.989  27.255  1.00  0.00     0.031 C 
ENDBRANCH  19  23
ENDBRANCH  17  18
ENDBRANCH  14  17
ENDBRANCH   9  14
ENDBRANCH   5   8
ENDBRANCH   3   4
ENDBRANCH   2   3
ENDBRANCH   1   2
BRANCH   1  26
ATOM     26  C   UNL A   1      36.315  32.780  28.411  1.00  0.00     0.002 C 
BRANCH  26  27
ATOM     27  C   UNL A   1      35.616  33.754  29.369  1.00  0.00     0.021 C 
BRANCH  27  28
ATOM     28  C   UNL A   1      34.503  33.140  30.211  1.00  0.00     0.116 C 
BRANCH  28  29
ATOM     29  N   UNL A   1      34.406  33.748  31.534  1.00  0.00    -0.352 N 
ATOM     30  C   UNL A   1      35.096  33.418  32.678  1.00  0.00     0.251 C 
ATOM     31  H   UNL A   1      33.765  34.489  31.619  1.00  0.00     0.163 HD
ATOM     32  O   UNL A   1      34.671  33.767  33.780  1.00  0.00    -0.269 OA
BRANCH  30  33
ATOM     33  C   UNL A   1      36.333  32.626  32.575  1.00  0.00     0.039 A 
ATOM     34  C   UNL A   1      36.276  31.231  32.528  1.00  0.00     0.014 A 
ATOM     35  C   UNL A   1      37.557  33.286  32.491  1.00  0.00     0.014 A 
ATOM     36  C   UNL A   1      37.447  30.510  32.299  1.00  0.00     0.010 A 
ATOM     37  C   UNL A   1      38.697  32.580  32.163  1.00  0.00     0.010 A 
ATOM     38  C   UNL A   1      38.660  31.187  32.086  1.00  0.00    -0.014 A 
BRANCH  38  39
ATOM     39  C   UNL A   1      39.850  30.437  31.671  1.00  0.00     0.031 A 
ATOM     40  C   UNL A   1      40.842  30.129  32.743  1.00  0.00     0.074 A 
ATOM     41  C   UNL A   1      39.993  29.833  30.472  1.00  0.00     0.049 A 
ATOM     42  N   UNL A   1      42.066  30.535  32.840  1.00  0.00    -0.248 NA
ATOM     43  C   UNL A   1      40.391  29.318  33.885  1.00  0.00     0.031 C 
ATOM     44  C   UNL A   1      39.007  29.722  29.393  1.00  0.00     0.029 A 
ATOM     45  N   UNL A   1      41.026  29.064  30.021  1.00  0.00    -0.354 N 
ATOM     46  C   UNL A   1      42.609  29.877  33.943  1.00  0.00     0.074 A 
ATOM     47  C   UNL A   1      41.498  29.263  34.630  1.00  0.00     0.031 C 
ATOM     48  C   UNL A   1      39.379  28.738  28.547  1.00  0.00     0.029 A 
ATOM     49  C   UNL A   1      40.705  28.282  28.920  1.00  0.00     0.049 A 
ATOM     50  H   UNL A   1      41.918  29.064  30.438  1.00  0.00     0.167 HD
ATOM     51  C   UNL A   1      43.953  29.697  34.096  1.00  0.00     0.031 A 
ATOM     52  C   UNL A   1      41.456  27.304  28.362  1.00  0.00     0.031 A 
ATOM     53  C   UNL A   1      44.717  30.519  33.192  1.00  0.00     0.049 A 
ATOM     54  C   UNL A   1      42.861  27.528  28.769  1.00  0.00     0.074 A 
ATOM     55  C   UNL A   1      44.821  31.872  32.940  1.00  0.00     0.029 A 
ATOM     56  N   UNL A   1      45.293  29.890  32.114  1.00  0.00    -0.354 N 
ATOM     57  N   UNL A   1      43.567  28.551  28.378  1.00  0.00    -0.248 NA
ATOM     58  C   UNL A   1      43.392  26.810  29.914  1.00  0.00     0.031 C 
ATOM     59  C   UNL A   1      45.013  31.971  31.530  1.00  0.00     0.029 A 
ATOM     60  C   UNL A   1      45.061  30.674  31.014  1.00  0.00     0.049 A 
ATOM     61  H   UNL A   1      45.781  29.035  32.128  1.00  0.00     0.167 HD
ATOM     62  C   UNL A   1      44.372  28.864  29.462  1.00  0.00     0.074 A 
ATOM     63  C   UNL A   1      44.323  27.680  30.315  1.00  0.00     0.031 C 
ATOM     64  C   UNL A   1      44.770  30.150  29.695  1.00  0.00     0.031 A 
BRANCH  51  65
ATOM     65  C   UNL A   1      44.575  28.497  34.781  1.00  0.00    -0.014 A 
ATOM     66  C   UNL A   1      44.548  27.246  34.127  1.00  0.00     0.010 A 
ATOM     67  C   UNL A   1      44.910  28.490  36.150  1.00  0.00     0.010 A 
ATOM     68  C   UNL A   1      44.751  26.049  34.830  1.00  0.00     0.020 A 
ATOM     69  C   UNL A   1      45.164  27.308  36.848  1.00  0.00     0.020 A 
ATOM     70  C   UNL A   1      45.036  26.090  36.194  1.00  0.00     0.054 A 
BRANCH  70  71
ATOM     71  S   UNL A   1      45.152  24.544  37.128  1.00  0.00     0.124 S 
ATOM     72  O   UNL A   1      46.595  24.409  37.301  1.00  0.00    -0.237 OA
ATOM     73  O   UNL A   1      44.395  24.851  38.338  1.00  0.00    -0.237 OA
ATOM     74  O   UNL A   1      44.530  23.563  36.242  1.00  0.00    -0.744 OA
ENDBRANCH  70  71
ENDBRANCH  51  65
BRANCH  52  75
ATOM     75  C   UNL A   1      41.001  26.069  27.682  1.00  0.00    -0.014 A 
ATOM     76  C   UNL A   1      41.727  25.529  26.607  1.00  0.00     0.010 A 
ATOM     77  C   UNL A   1      39.999  25.269  28.271  1.00  0.00     0.010 A 
ATOM     78  C   UNL A   1      41.512  24.207  26.186  1.00  0.00     0.020 A 
ATOM     79  C   UNL A   1      39.771  23.956  27.849  1.00  0.00     0.020 A 
ATOM     80  C   UNL A   1      40.551  23.421  26.827  1.00  0.00     0.054 A 
BRANCH  80  81
ATOM     81  S   UNL A   1      40.426  21.654  26.420  1.00  0.00     0.124 S 
ATOM     82  O   UNL A   1      39.149  21.587  25.714  1.00  0.00    -0.237 OA
ATOM     83  O   UNL A   1      41.615  21.431  25.603  1.00  0.00    -0.237 OA
ATOM     84  O   UNL A   1      40.447  20.999  27.728  1.00  0.00    -0.744 OA
ENDBRANCH  80  81
ENDBRANCH  52  75
BRANCH  64  85
ATOM     85  C   UNL A   1      44.642  31.157  28.574  1.00  0.00    -0.014 A 
ATOM     86  C   UNL A   1      43.692  32.196  28.558  1.00  0.00     0.010 A 
ATOM     87  C   UNL A   1      45.600  31.114  27.544  1.00  0.00     0.010 A 
ATOM     88  C   UNL A   1      43.669  33.134  27.516  1.00  0.00     0.020 A 
ATOM     89  C   UNL A   1      45.597  32.059  26.515  1.00  0.00     0.020 A 
ATOM     90  C   UNL A   1      44.620  33.055  26.496  1.00  0.00     0.054 A 
BRANCH  90  91
ATOM     91  S   UNL A   1      44.598  34.284  25.162  1.00  0.00     0.124 S 
ATOM     92  O   UNL A   1      44.512  33.451  23.965  1.00  0.00    -0.237 OA
ATOM     93  O   UNL A   1      43.406  35.073  25.466  1.00  0.00    -0.237 OA
ATOM     94  O   UNL A   1      45.862  35.000  25.326  1.00  0.00    -0.744 OA
ENDBRANCH  90  91
ENDBRANCH  64  85
ENDBRANCH  38  39
ENDBRANCH  30  33
ENDBRANCH  28  29
ENDBRANCH  27  28
ENDBRANCH  26  27
ENDBRANCH   1  26
TORSDOF 20
ENDMDL
MODEL 3
REMARK VINA RESULT:      -9.4      2.754      7.071
REMARK SMILES CC(C)n1cncc1C[NH2+][C@@H]1CCC[C@H](C(=O)NCCCCCCNC(=O)c2ccc(-c3c4nc(c(-c5ccc(S(=O)(=O)[O-])cc5)c5ccc([nH]5)c(-c5ccc(S(=O)(=O)[O-])cc5)c5nc(c(-c6ccc(S(=O)(=O)[O-])cc6)c6ccc3[nH]6)C=C5)C=C4)cc2)C1
REMARK SMILES IDX 21 1 20 2 19 3 18 4 16 5 17 6 15 8 11 9 12 10 88 11 13 12
REMARK SMILES IDX 14 13 10 14 9 17 8 18 4 19 5 20 6 21 7 22 2 23 1 24 3 25
REMARK SMILES IDX 22 26 23 27 24 28 25 29 26 30 27 32 28 33 29 34 87 35 30 36
REMARK SMILES IDX 86 37 31 38 32 39 33 40 80 41 34 42 85 43 79 44 81 45 35 46
REMARK SMILES IDX 84 47 78 48 77 49 36 51 66 52 47 53 65 54 48 55 51 56 64 57
REMARK SMILES IDX 82 58 49 59 50 60 63 62 83 63 52 64 37 65 38 66 46 67 39 68
REMARK SMILES IDX 45 69 40 70 41 71 42 72 43 73 44 74 67 75 68 76 76 77 69 78
REMARK SMILES IDX 75 79 70 80 71 81 72 82 73 83 74 84 53 85 54 86 62 87 55 88
REMARK SMILES IDX 61 89 56 90 57 91 58 92 59 93 60 94
REMARK H PARENT 18 7 10 15 10 16 25 31 81 50 51 61
REMARK Flexibility Score: inf
ROOT
ATOM      1  C   UNL A   1      33.233  30.539  26.659  1.00  0.00     0.002 C 
ENDROOT
BRANCH   1   2
ATOM      2  C   UNL A   1      33.782  29.125  26.870  1.00  0.00     0.021 C 
BRANCH   2   3
ATOM      3  C   UNL A   1      34.363  28.461  25.624  1.00  0.00     0.116 C 
BRANCH   3   4
ATOM      4  N   UNL A   1      33.746  28.934  24.395  1.00  0.00    -0.356 N 
ATOM      5  C   UNL A   1      32.543  28.635  23.830  1.00  0.00     0.223 C 
ATOM      6  O   UNL A   1      32.215  29.254  22.812  1.00  0.00    -0.275 OA
ATOM      7  H   UNL A   1      34.290  29.578  23.886  1.00  0.00     0.163 HD
BRANCH   5   8
ATOM      8  C   UNL A   1      31.617  27.576  24.421  1.00  0.00     0.084 C 
ATOM      9  C   UNL A   1      31.366  25.005  24.686  1.00  0.00     0.183 C 
ATOM     10  C   UNL A   1      30.108  25.130  23.812  1.00  0.00     0.065 C 
ATOM     11  C   UNL A   1      32.309  26.202  24.478  1.00  0.00     0.078 C 
ATOM     12  C   UNL A   1      29.373  26.432  24.097  1.00  0.00     0.007 C 
ATOM     13  C   UNL A   1      30.240  27.627  23.751  1.00  0.00     0.014 C 
BRANCH   9  14
ATOM     14  N   UNL A   1      32.181  23.791  24.498  1.00  0.00    -0.339 N 
ATOM     15  H   UNL A   1      31.775  23.259  23.728  1.00  0.00     0.346 HD
ATOM     16  H   UNL A   1      33.130  24.123  24.324  1.00  0.00     0.346 HD
BRANCH  14  17
ATOM     17  C   UNL A   1      32.283  22.904  25.647  1.00  0.00     0.317 C 
BRANCH  17  18
ATOM     18  C   UNL A   1      33.453  21.997  25.504  1.00  0.00     0.093 A 
ATOM     19  N   UNL A   1      33.483  20.818  24.791  1.00  0.00    -0.327 N 
ATOM     20  C   UNL A   1      34.771  20.343  24.852  1.00  0.00     0.200 A 
ATOM     21  N   UNL A   1      35.545  21.111  25.580  1.00  0.00    -0.245 NA
ATOM     22  C   UNL A   1      34.741  22.142  25.983  1.00  0.00     0.140 A 
BRANCH  19  23
ATOM     23  C   UNL A   1      32.414  20.131  24.071  1.00  0.00     0.082 C 
ATOM     24  C   UNL A   1      32.210  20.652  22.647  1.00  0.00     0.031 C 
ATOM     25  C   UNL A   1      32.553  18.610  24.125  1.00  0.00     0.031 C 
ENDBRANCH  19  23
ENDBRANCH  17  18
ENDBRANCH  14  17
ENDBRANCH   9  14
ENDBRANCH   5   8
ENDBRANCH   3   4
ENDBRANCH   2   3
ENDBRANCH   1   2
BRANCH   1  26
ATOM     26  C   UNL A   1      31.751  30.750  26.995  1.00  0.00     0.002 C 
BRANCH  26  27
ATOM     27  C   UNL A   1      31.195  32.169  26.814  1.00  0.00     0.021 C 
BRANCH  27  28
ATOM     28  C   UNL A   1      32.249  33.253  26.629  1.00  0.00     0.116 C 
BRANCH  28  29
ATOM     29  N   UNL A   1      32.167  34.290  27.651  1.00  0.00    -0.352 N 
ATOM     30  C   UNL A   1      32.916  34.420  28.799  1.00  0.00     0.251 C 
ATOM     31  H   UNL A   1      31.490  34.988  27.501  1.00  0.00     0.163 HD
ATOM     32  O   UNL A   1      32.512  35.125  29.725  1.00  0.00    -0.269 OA
BRANCH  30  33
ATOM     33  C   UNL A   1      34.190  33.691  28.918  1.00  0.00     0.039 A 
ATOM     34  C   UNL A   1      35.153  33.783  27.911  1.00  0.00     0.014 A 
ATOM     35  C   UNL A   1      34.435  32.937  30.063  1.00  0.00     0.014 A 
ATOM     36  C   UNL A   1      36.400  33.191  28.107  1.00  0.00     0.010 A 
ATOM     37  C   UNL A   1      35.701  32.439  30.300  1.00  0.00     0.010 A 
ATOM     38  C   UNL A   1      36.687  32.540  29.318  1.00  0.00    -0.014 A 
BRANCH  38  39
ATOM     39  C   UNL A   1      38.052  32.075  29.590  1.00  0.00     0.031 A 
ATOM     40  C   UNL A   1      38.313  30.624  29.356  1.00  0.00     0.074 A 
ATOM     41  C   UNL A   1      39.106  32.889  29.812  1.00  0.00     0.049 A 
ATOM     42  N   UNL A   1      38.649  29.723  30.221  1.00  0.00    -0.248 NA
ATOM     43  C   UNL A   1      38.109  30.099  27.996  1.00  0.00     0.031 C 
ATOM     44  C   UNL A   1      39.145  34.353  29.753  1.00  0.00     0.029 A 
ATOM     45  N   UNL A   1      40.415  32.557  30.007  1.00  0.00    -0.354 N 
ATOM     46  C   UNL A   1      38.897  28.559  29.494  1.00  0.00     0.074 A 
ATOM     47  C   UNL A   1      38.406  28.808  28.160  1.00  0.00     0.031 C 
ATOM     48  C   UNL A   1      40.428  34.762  29.650  1.00  0.00     0.029 A 
ATOM     49  C   UNL A   1      41.297  33.613  29.820  1.00  0.00     0.049 A 
ATOM     50  H   UNL A   1      40.708  31.651  30.259  1.00  0.00     0.167 HD
ATOM     51  C   UNL A   1      39.683  27.553  29.976  1.00  0.00     0.031 A 
ATOM     52  C   UNL A   1      42.648  33.554  29.775  1.00  0.00     0.031 A 
ATOM     53  C   UNL A   1      39.939  27.692  31.386  1.00  0.00     0.049 A 
ATOM     54  C   UNL A   1      43.067  32.306  30.452  1.00  0.00     0.074 A 
ATOM     55  C   UNL A   1      39.163  27.771  32.525  1.00  0.00     0.029 A 
ATOM     56  N   UNL A   1      41.190  28.127  31.754  1.00  0.00    -0.354 N 
ATOM     57  N   UNL A   1      42.914  32.097  31.729  1.00  0.00    -0.248 NA
ATOM     58  C   UNL A   1      43.331  31.120  29.656  1.00  0.00     0.031 C 
ATOM     59  C   UNL A   1      39.848  28.689  33.376  1.00  0.00     0.029 A 
ATOM     60  C   UNL A   1      41.022  29.078  32.726  1.00  0.00     0.049 A 
ATOM     61  H   UNL A   1      42.048  27.815  31.385  1.00  0.00     0.167 HD
ATOM     62  C   UNL A   1      42.632  30.744  31.836  1.00  0.00     0.074 A 
ATOM     63  C   UNL A   1      43.042  30.176  30.556  1.00  0.00     0.031 C 
ATOM     64  C   UNL A   1      41.840  30.268  32.842  1.00  0.00     0.031 A 
BRANCH  51  65
ATOM     65  C   UNL A   1      40.546  26.662  29.106  1.00  0.00    -0.014 A 
ATOM     66  C   UNL A   1      39.956  25.549  28.468  1.00  0.00     0.010 A 
ATOM     67  C   UNL A   1      41.955  26.704  29.134  1.00  0.00     0.010 A 
ATOM     68  C   UNL A   1      40.735  24.492  27.974  1.00  0.00     0.020 A 
ATOM     69  C   UNL A   1      42.741  25.682  28.599  1.00  0.00     0.020 A 
ATOM     70  C   UNL A   1      42.124  24.559  28.064  1.00  0.00     0.054 A 
BRANCH  70  71
ATOM     71  S   UNL A   1      43.120  23.133  27.561  1.00  0.00     0.124 S 
ATOM     72  O   UNL A   1      43.273  22.417  28.823  1.00  0.00    -0.237 OA
ATOM     73  O   UNL A   1      42.266  22.489  26.566  1.00  0.00    -0.237 OA
ATOM     74  O   UNL A   1      44.338  23.740  27.030  1.00  0.00    -0.744 OA
ENDBRANCH  70  71
ENDBRANCH  51  65
BRANCH  52  75
ATOM     75  C   UNL A   1      43.580  34.398  28.992  1.00  0.00    -0.014 A 
ATOM     76  C   UNL A   1      44.812  34.804  29.533  1.00  0.00     0.010 A 
ATOM     77  C   UNL A   1      43.375  34.577  27.608  1.00  0.00     0.010 A 
ATOM     78  C   UNL A   1      45.833  35.299  28.706  1.00  0.00     0.020 A 
ATOM     79  C   UNL A   1      44.383  35.081  26.780  1.00  0.00     0.020 A 
ATOM     80  C   UNL A   1      45.619  35.411  27.330  1.00  0.00     0.054 A 
BRANCH  80  81
ATOM     81  S   UNL A   1      47.008  35.850  26.243  1.00  0.00     0.124 S 
ATOM     82  O   UNL A   1      46.875  34.878  25.161  1.00  0.00    -0.237 OA
ATOM     83  O   UNL A   1      46.710  37.235  25.890  1.00  0.00    -0.237 OA
ATOM     84  O   UNL A   1      48.181  35.672  27.097  1.00  0.00    -0.744 OA
ENDBRANCH  80  81
ENDBRANCH  52  75
BRANCH  64  85
ATOM     85  C   UNL A   1      41.581  31.159  34.037  1.00  0.00    -0.014 A 
ATOM     86  C   UNL A   1      42.498  31.348  35.087  1.00  0.00     0.010 A 
ATOM     87  C   UNL A   1      40.400  31.924  34.037  1.00  0.00     0.010 A 
ATOM     88  C   UNL A   1      42.220  32.238  36.135  1.00  0.00     0.020 A 
ATOM     89  C   UNL A   1      40.126  32.830  35.065  1.00  0.00     0.020 A 
ATOM     90  C   UNL A   1      41.030  32.971  36.119  1.00  0.00     0.054 A 
BRANCH  90  91
ATOM     91  S   UNL A   1      40.685  34.136  37.466  1.00  0.00     0.124 S 
ATOM     92  O   UNL A   1      39.226  34.153  37.505  1.00  0.00    -0.237 OA
ATOM     93  O   UNL A   1      41.338  33.510  38.614  1.00  0.00    -0.237 OA
ATOM     94  O   UNL A   1      41.305  35.381  37.016  1.00  0.00    -0.744 OA
ENDBRANCH  90  91
ENDBRANCH  64  85
ENDBRANCH  38  39
ENDBRANCH  30  33
ENDBRANCH  28  29
ENDBRANCH  27  28
ENDBRANCH  26  27
ENDBRANCH   1  26
TORSDOF 20
ENDMDL
