MODEL 1
REMARK VINA RESULT:     -10.5      0.000      0.000
REMARK SMILES O=C(NCCCCCCNC(=O)c1cccc(Oc2ncc([N+](=O)[O-])cc2Br)c1)c1ccc(-c2c3nc(c(-c4ccc(S(=O)(=O)[O-])cc4)c4ccc([nH]4)c(-c4ccc(S(=O)(=O)[O-])cc4)c4nc(c(-c5ccc(S(=O)(=O)[O-])cc5)c5ccc2[nH]5)C=C4)C=C3)cc1
REMARK SMILES IDX 6 1 5 2 4 3 3 4 1 5 2 6 30 8 31 9 89 10 32 11 88 12 33 13
REMARK SMILES IDX 34 14 35 15 82 16 36 17 87 18 81 19 83 20 37 21 86 22 80 23
REMARK SMILES IDX 79 24 38 26 68 27 49 28 67 29 50 30 53 31 66 32 84 33 51 34
REMARK SMILES IDX 52 35 65 37 85 38 54 39 39 40 40 41 48 42 41 43 47 44 42 45
REMARK SMILES IDX 43 46 44 47 45 48 46 49 69 50 70 51 78 52 71 53 77 54 72 55
REMARK SMILES IDX 73 56 74 57 75 58 76 59 55 60 56 61 64 62 57 63 63 64 58 65
REMARK SMILES IDX 59 66 60 67 61 68 62 69 7 70 8 71 9 72 10 73 11 74 12 76
REMARK SMILES IDX 13 77 14 78 29 79 15 80 17 81 16 82 18 83 19 84 20 85 27 86
REMARK SMILES IDX 21 87 26 88 28 89 22 90 23 91 24 92 25 93
REMARK H PARENT 3 7 83 25 53 36 10 75
REMARK Flexibility Score: inf
ROOT
ATOM      1  C   UNL A   1      35.292  23.337  26.716  1.00  0.00     0.002 C 
ENDROOT
BRANCH   1   2
ATOM      2  C   UNL A   1      35.593  23.426  25.220  1.00  0.00     0.021 C 
BRANCH   2   3
ATOM      3  C   UNL A   1      37.050  23.711  24.883  1.00  0.00     0.116 C 
BRANCH   3   4
ATOM      4  N   UNL A   1      37.933  22.641  25.314  1.00  0.00    -0.352 N 
ATOM      5  O   UNL A   1      39.812  21.760  26.199  1.00  0.00    -0.269 OA
ATOM      6  C   UNL A   1      39.072  22.732  26.073  1.00  0.00     0.251 C 
ATOM      7  H   UNL A   1      37.681  21.734  25.025  1.00  0.00     0.163 HD
BRANCH   6   8
ATOM      8  C   UNL A   1      39.402  24.015  26.729  1.00  0.00     0.039 A 
ATOM      9  C   UNL A   1      38.977  24.267  28.037  1.00  0.00     0.014 A 
ATOM     10  C   UNL A   1      40.157  24.964  26.036  1.00  0.00     0.014 A 
ATOM     11  C   UNL A   1      39.221  25.506  28.615  1.00  0.00     0.010 A 
ATOM     12  C   UNL A   1      40.473  26.178  26.651  1.00  0.00     0.010 A 
ATOM     13  C   UNL A   1      40.006  26.458  27.945  1.00  0.00    -0.014 A 
BRANCH  13  14
ATOM     14  C   UNL A   1      40.456  27.668  28.674  1.00  0.00     0.031 A 
ATOM     15  C   UNL A   1      39.543  28.839  28.899  1.00  0.00     0.074 A 
ATOM     16  C   UNL A   1      41.729  27.694  29.118  1.00  0.00     0.049 A 
ATOM     17  N   UNL A   1      39.805  29.973  29.495  1.00  0.00    -0.248 NA
ATOM     18  C   UNL A   1      38.165  28.731  28.392  1.00  0.00     0.031 C 
ATOM     19  C   UNL A   1      42.707  26.614  28.935  1.00  0.00     0.029 A 
ATOM     20  N   UNL A   1      42.425  28.651  29.809  1.00  0.00    -0.354 N 
ATOM     21  C   UNL A   1      38.640  30.726  29.414  1.00  0.00     0.074 A 
ATOM     22  C   UNL A   1      37.667  29.921  28.706  1.00  0.00     0.031 C 
ATOM     23  C   UNL A   1      43.861  26.959  29.519  1.00  0.00     0.029 A 
ATOM     24  C   UNL A   1      43.734  28.309  30.052  1.00  0.00     0.049 A 
ATOM     25  H   UNL A   1      42.025  29.502  30.102  1.00  0.00     0.167 HD
ATOM     26  C   UNL A   1      38.414  31.976  29.885  1.00  0.00     0.031 A 
ATOM     27  C   UNL A   1      44.738  29.014  30.603  1.00  0.00     0.031 A 
ATOM     28  C   UNL A   1      39.395  32.760  30.592  1.00  0.00     0.049 A 
ATOM     29  C   UNL A   1      44.463  30.413  31.075  1.00  0.00     0.074 A 
ATOM     30  C   UNL A   1      39.236  34.008  31.173  1.00  0.00     0.029 A 
ATOM     31  N   UNL A   1      40.715  32.389  30.798  1.00  0.00    -0.354 N 
ATOM     32  N   UNL A   1      43.329  31.071  31.069  1.00  0.00    -0.248 NA
ATOM     33  C   UNL A   1      45.599  31.165  31.621  1.00  0.00     0.031 C 
ATOM     34  C   UNL A   1      40.478  34.421  31.664  1.00  0.00     0.029 A 
ATOM     35  C   UNL A   1      41.395  33.405  31.450  1.00  0.00     0.049 A 
ATOM     36  H   UNL A   1      41.111  31.530  30.524  1.00  0.00     0.167 HD
ATOM     37  C   UNL A   1      43.616  32.316  31.615  1.00  0.00     0.074 A 
ATOM     38  C   UNL A   1      45.019  32.303  31.974  1.00  0.00     0.031 C 
ATOM     39  C   UNL A   1      42.794  33.378  31.793  1.00  0.00     0.031 A 
BRANCH  26  40
ATOM     40  C   UNL A   1      37.070  32.607  29.636  1.00  0.00    -0.014 A 
ATOM     41  C   UNL A   1      36.008  32.449  30.543  1.00  0.00     0.010 A 
ATOM     42  C   UNL A   1      36.911  33.480  28.542  1.00  0.00     0.010 A 
ATOM     43  C   UNL A   1      34.811  33.148  30.357  1.00  0.00     0.020 A 
ATOM     44  C   UNL A   1      35.723  34.196  28.365  1.00  0.00     0.020 A 
ATOM     45  C   UNL A   1      34.679  34.023  29.273  1.00  0.00     0.054 A 
BRANCH  45  46
ATOM     46  S   UNL A   1      33.142  34.975  29.105  1.00  0.00     0.124 S 
ATOM     47  O   UNL A   1      32.407  34.191  28.116  1.00  0.00    -0.237 OA
ATOM     48  O   UNL A   1      32.598  34.942  30.461  1.00  0.00    -0.237 OA
ATOM     49  O   UNL A   1      33.593  36.286  28.650  1.00  0.00    -0.744 OA
ENDBRANCH  45  46
ENDBRANCH  26  40
BRANCH  27  50
ATOM     50  C   UNL A   1      46.108  28.436  30.671  1.00  0.00    -0.014 A 
ATOM     51  C   UNL A   1      47.024  28.623  29.624  1.00  0.00     0.010 A 
ATOM     52  C   UNL A   1      46.496  27.677  31.792  1.00  0.00     0.010 A 
ATOM     53  C   UNL A   1      48.289  28.030  29.678  1.00  0.00     0.020 A 
ATOM     54  C   UNL A   1      47.771  27.114  31.867  1.00  0.00     0.020 A 
ATOM     55  C   UNL A   1      48.652  27.276  30.799  1.00  0.00     0.054 A 
BRANCH  55  56
ATOM     56  S   UNL A   1      50.300  26.522  30.853  1.00  0.00     0.124 S 
ATOM     57  O   UNL A   1      49.979  25.102  30.941  1.00  0.00    -0.237 OA
ATOM     58  O   UNL A   1      50.890  26.961  29.590  1.00  0.00    -0.237 OA
ATOM     59  O   UNL A   1      50.904  27.106  32.049  1.00  0.00    -0.744 OA
ENDBRANCH  55  56
ENDBRANCH  27  50
BRANCH  39  60
ATOM     60  C   UNL A   1      43.391  34.613  32.409  1.00  0.00    -0.014 A 
ATOM     61  C   UNL A   1      43.834  35.678  31.605  1.00  0.00     0.010 A 
ATOM     62  C   UNL A   1      43.458  34.734  33.809  1.00  0.00     0.010 A 
ATOM     63  C   UNL A   1      44.354  36.835  32.189  1.00  0.00     0.020 A 
ATOM     64  C   UNL A   1      43.949  35.902  34.397  1.00  0.00     0.020 A 
ATOM     65  C   UNL A   1      44.404  36.940  33.583  1.00  0.00     0.054 A 
BRANCH  65  66
ATOM     66  S   UNL A   1      45.028  38.478  34.315  1.00  0.00     0.124 S 
ATOM     67  O   UNL A   1      46.044  37.985  35.239  1.00  0.00    -0.237 OA
ATOM     68  O   UNL A   1      45.533  39.203  33.151  1.00  0.00    -0.237 OA
ATOM     69  O   UNL A   1      43.847  39.066  34.944  1.00  0.00    -0.744 OA
ENDBRANCH  65  66
ENDBRANCH  39  60
ENDBRANCH  13  14
ENDBRANCH   6   8
ENDBRANCH   3   4
ENDBRANCH   2   3
ENDBRANCH   1   2
BRANCH   1  70
ATOM     70  C   UNL A   1      34.073  22.487  27.086  1.00  0.00     0.002 C 
BRANCH  70  71
ATOM     71  C   UNL A   1      34.059  21.071  26.505  1.00  0.00     0.021 C 
BRANCH  71  72
ATOM     72  C   UNL A   1      32.948  20.808  25.494  1.00  0.00     0.116 C 
BRANCH  72  73
ATOM     73  N   UNL A   1      31.723  21.504  25.851  1.00  0.00    -0.352 N 
ATOM     74  C   UNL A   1      31.237  22.692  25.364  1.00  0.00     0.251 C 
ATOM     75  H   UNL A   1      31.166  21.065  26.534  1.00  0.00     0.163 HD
ATOM     76  O   UNL A   1      30.308  23.262  25.926  1.00  0.00    -0.269 OA
BRANCH  74  77
ATOM     77  C   UNL A   1      31.825  23.274  24.140  1.00  0.00     0.043 A 
ATOM     78  C   UNL A   1      32.522  22.458  23.251  1.00  0.00     0.014 A 
ATOM     79  C   UNL A   1      31.736  24.652  23.918  1.00  0.00     0.061 A 
ATOM     80  C   UNL A   1      33.089  23.019  22.106  1.00  0.00     0.005 A 
ATOM     81  C   UNL A   1      32.309  25.221  22.780  1.00  0.00     0.130 A 
ATOM     82  C   UNL A   1      32.978  24.395  21.871  1.00  0.00     0.047 A 
BRANCH  81  83
ATOM     83  O   UNL A   1      32.310  26.571  22.485  1.00  0.00    -0.438 OA
BRANCH  83  84
ATOM     84  C   UNL A   1      32.386  27.449  23.546  1.00  0.00     0.234 A 
ATOM     85  N   UNL A   1      33.623  27.600  24.085  1.00  0.00    -0.214 NA
ATOM     86  C   UNL A   1      31.258  28.129  24.010  1.00  0.00     0.087 A 
ATOM     87  C   UNL A   1      33.752  28.488  25.104  1.00  0.00     0.200 A 
ATOM     88  C   UNL A   1      31.422  29.072  25.023  1.00  0.00     0.108 A 
ATOM     89  Br  UNL A   1      29.530  27.871  23.280  1.00  0.00    -0.045 Br
ATOM     90  C   UNL A   1      32.694  29.251  25.575  1.00  0.00     0.288 A 
BRANCH  90  91
ATOM     91  N   UNL A   1      32.923  30.254  26.604  1.00  0.00     0.064 N 
ATOM     92  O   UNL A   1      32.093  31.163  26.718  1.00  0.00    -0.258 OA
ATOM     93  O   UNL A   1      33.925  30.113  27.320  1.00  0.00    -0.258 OA
ENDBRANCH  90  91
ENDBRANCH  83  84
ENDBRANCH  81  83
ENDBRANCH  74  77
ENDBRANCH  72  73
ENDBRANCH  71  72
ENDBRANCH  70  71
ENDBRANCH   1  70
TORSDOF 19
ENDMDL
MODEL 2
REMARK VINA RESULT:     -10.5      3.442      4.767
REMARK SMILES O=C(NCCCCCCNC(=O)c1cccc(Oc2ncc([N+](=O)[O-])cc2Br)c1)c1ccc(-c2c3nc(c(-c4ccc(S(=O)(=O)[O-])cc4)c4ccc([nH]4)c(-c4ccc(S(=O)(=O)[O-])cc4)c4nc(c(-c5ccc(S(=O)(=O)[O-])cc5)c5ccc2[nH]5)C=C4)C=C3)cc1
REMARK SMILES IDX 6 1 5 2 4 3 3 4 1 5 2 6 30 8 31 9 89 10 32 11 88 12 33 13
REMARK SMILES IDX 34 14 35 15 82 16 36 17 87 18 81 19 83 20 37 21 86 22 80 23
REMARK SMILES IDX 79 24 38 26 68 27 49 28 67 29 50 30 53 31 66 32 84 33 51 34
REMARK SMILES IDX 52 35 65 37 85 38 54 39 39 40 40 41 48 42 41 43 47 44 42 45
REMARK SMILES IDX 43 46 44 47 45 48 46 49 69 50 70 51 78 52 71 53 77 54 72 55
REMARK SMILES IDX 73 56 74 57 75 58 76 59 55 60 56 61 64 62 57 63 63 64 58 65
REMARK SMILES IDX 59 66 60 67 61 68 62 69 7 70 8 71 9 72 10 73 11 74 12 76
REMARK SMILES IDX 13 77 14 78 29 79 15 80 17 81 16 82 18 83 19 84 20 85 27 86
REMARK SMILES IDX 21 87 26 88 28 89 22 90 23 91 24 92 25 93
REMARK H PARENT 3 7 83 25 53 36 10 75
REMARK Flexibility Score: inf
ROOT
ATOM      1  C   UNL A   1      36.826  20.407  25.091  1.00  0.00     0.002 C 
ENDROOT
BRANCH   1   2
ATOM      2  C   UNL A   1      37.999  21.382  24.986  1.00  0.00     0.021 C 
BRANCH   2   3
ATOM      3  C   UNL A   1      38.983  21.314  26.146  1.00  0.00     0.116 C 
BRANCH   3   4
ATOM      4  N   UNL A   1      39.881  20.178  26.040  1.00  0.00    -0.352 N 
ATOM      5  O   UNL A   1      41.874  19.151  25.785  1.00  0.00    -0.269 OA
ATOM      6  C   UNL A   1      41.253  20.171  26.074  1.00  0.00     0.251 C 
ATOM      7  H   UNL A   1      39.451  19.300  25.929  1.00  0.00     0.163 HD
BRANCH   6   8
ATOM      8  C   UNL A   1      41.972  21.405  26.453  1.00  0.00     0.039 A 
ATOM      9  C   UNL A   1      42.295  22.358  25.482  1.00  0.00     0.014 A 
ATOM     10  C   UNL A   1      42.311  21.617  27.791  1.00  0.00     0.014 A 
ATOM     11  C   UNL A   1      43.041  23.476  25.832  1.00  0.00     0.010 A 
ATOM     12  C   UNL A   1      42.989  22.783  28.155  1.00  0.00     0.010 A 
ATOM     13  C   UNL A   1      43.360  23.720  27.177  1.00  0.00    -0.014 A 
BRANCH  13  14
ATOM     14  C   UNL A   1      43.940  25.031  27.557  1.00  0.00     0.031 A 
ATOM     15  C   UNL A   1      43.091  26.140  28.107  1.00  0.00     0.074 A 
ATOM     16  C   UNL A   1      45.265  25.205  27.375  1.00  0.00     0.049 A 
ATOM     17  N   UNL A   1      43.454  27.347  28.457  1.00  0.00    -0.248 NA
ATOM     18  C   UNL A   1      41.655  25.870  28.284  1.00  0.00     0.031 C 
ATOM     19  C   UNL A   1      46.180  24.195  26.829  1.00  0.00     0.029 A 
ATOM     20  N   UNL A   1      46.077  26.280  27.623  1.00  0.00    -0.354 N 
ATOM     21  C   UNL A   1      42.295  27.991  28.871  1.00  0.00     0.074 A 
ATOM     22  C   UNL A   1      41.212  27.042  28.724  1.00  0.00     0.031 C 
ATOM     23  C   UNL A   1      47.424  24.690  26.807  1.00  0.00     0.029 A 
ATOM     24  C   UNL A   1      47.388  26.072  27.266  1.00  0.00     0.049 A 
ATOM     25  H   UNL A   1      45.752  27.121  28.019  1.00  0.00     0.167 HD
ATOM     26  C   UNL A   1      42.156  29.260  29.324  1.00  0.00     0.031 A 
ATOM     27  C   UNL A   1      48.442  26.909  27.264  1.00  0.00     0.031 A 
ATOM     28  C   UNL A   1      43.249  30.189  29.467  1.00  0.00     0.049 A 
ATOM     29  C   UNL A   1      48.241  28.321  27.733  1.00  0.00     0.074 A 
ATOM     30  C   UNL A   1      43.218  31.472  29.989  1.00  0.00     0.029 A 
ATOM     31  N   UNL A   1      44.556  29.949  29.074  1.00  0.00    -0.354 N 
ATOM     32  N   UNL A   1      47.154  28.881  28.204  1.00  0.00    -0.248 NA
ATOM     33  C   UNL A   1      49.404  29.215  27.664  1.00  0.00     0.031 C 
ATOM     34  C   UNL A   1      44.491  32.032  29.842  1.00  0.00     0.029 A 
ATOM     35  C   UNL A   1      45.329  31.077  29.292  1.00  0.00     0.049 A 
ATOM     36  H   UNL A   1      44.887  29.101  28.698  1.00  0.00     0.167 HD
ATOM     37  C   UNL A   1      47.504  30.194  28.494  1.00  0.00     0.074 A 
ATOM     38  C   UNL A   1      48.911  30.332  28.179  1.00  0.00     0.031 C 
ATOM     39  C   UNL A   1      46.728  31.199  28.966  1.00  0.00     0.031 A 
BRANCH  26  40
ATOM     40  C   UNL A   1      40.777  29.752  29.677  1.00  0.00    -0.014 A 
ATOM     41  C   UNL A   1      39.827  30.042  28.683  1.00  0.00     0.010 A 
ATOM     42  C   UNL A   1      40.388  29.798  31.030  1.00  0.00     0.010 A 
ATOM     43  C   UNL A   1      38.515  30.374  29.036  1.00  0.00     0.020 A 
ATOM     44  C   UNL A   1      39.072  30.108  31.385  1.00  0.00     0.020 A 
ATOM     45  C   UNL A   1      38.144  30.398  30.385  1.00  0.00     0.054 A 
BRANCH  45  46
ATOM     46  S   UNL A   1      36.414  30.754  30.805  1.00  0.00     0.124 S 
ATOM     47  O   UNL A   1      35.751  30.598  29.513  1.00  0.00    -0.237 OA
ATOM     48  O   UNL A   1      36.109  29.723  31.795  1.00  0.00    -0.237 OA
ATOM     49  O   UNL A   1      36.456  32.118  31.323  1.00  0.00    -0.744 OA
ENDBRANCH  45  46
ENDBRANCH  26  40
BRANCH  27  50
ATOM     50  C   UNL A   1      49.756  26.453  26.736  1.00  0.00    -0.014 A 
ATOM     51  C   UNL A   1      50.074  26.584  25.375  1.00  0.00     0.010 A 
ATOM     52  C   UNL A   1      50.698  25.868  27.606  1.00  0.00     0.010 A 
ATOM     53  C   UNL A   1      51.292  26.104  24.885  1.00  0.00     0.020 A 
ATOM     54  C   UNL A   1      51.931  25.422  27.126  1.00  0.00     0.020 A 
ATOM     55  C   UNL A   1      52.211  25.522  25.764  1.00  0.00     0.054 A 
BRANCH  55  56
ATOM     56  S   UNL A   1      53.788  24.913  25.109  1.00  0.00     0.124 S 
ATOM     57  O   UNL A   1      53.561  23.473  25.068  1.00  0.00    -0.237 OA
ATOM     58  O   UNL A   1      53.869  25.579  23.810  1.00  0.00    -0.237 OA
ATOM     59  O   UNL A   1      54.766  25.367  26.095  1.00  0.00    -0.744 OA
ENDBRANCH  55  56
ENDBRANCH  27  50
BRANCH  39  60
ATOM     60  C   UNL A   1      47.386  32.534  29.178  1.00  0.00    -0.014 A 
ATOM     61  C   UNL A   1      47.415  33.494  28.150  1.00  0.00     0.010 A 
ATOM     62  C   UNL A   1      47.931  32.854  30.433  1.00  0.00     0.010 A 
ATOM     63  C   UNL A   1      47.997  34.744  28.369  1.00  0.00     0.020 A 
ATOM     64  C   UNL A   1      48.488  34.115  30.666  1.00  0.00     0.020 A 
ATOM     65  C   UNL A   1      48.526  35.048  29.628  1.00  0.00     0.054 A 
BRANCH  65  66
ATOM     66  S   UNL A   1      49.222  36.700  29.902  1.00  0.00     0.124 S 
ATOM     67  O   UNL A   1      49.254  36.779  31.359  1.00  0.00    -0.237 OA
ATOM     68  O   UNL A   1      50.525  36.609  29.247  1.00  0.00    -0.237 OA
ATOM     69  O   UNL A   1      48.264  37.591  29.251  1.00  0.00    -0.744 OA
ENDBRANCH  65  66
ENDBRANCH  39  60
ENDBRANCH  13  14
ENDBRANCH   6   8
ENDBRANCH   3   4
ENDBRANCH   2   3
ENDBRANCH   1   2
BRANCH   1  70
ATOM     70  C   UNL A   1      35.457  20.993  24.732  1.00  0.00     0.002 C 
BRANCH  70  71
ATOM     71  C   UNL A   1      34.264  20.065  24.970  1.00  0.00     0.021 C 
BRANCH  71  72
ATOM     72  C   UNL A   1      32.931  20.778  25.169  1.00  0.00     0.116 C 
BRANCH  72  73
ATOM     73  N   UNL A   1      32.699  21.100  26.568  1.00  0.00    -0.352 N 
ATOM     74  C   UNL A   1      32.887  22.294  27.217  1.00  0.00     0.251 C 
ATOM     75  H   UNL A   1      32.362  20.361  27.125  1.00  0.00     0.163 HD
ATOM     76  O   UNL A   1      32.863  22.348  28.442  1.00  0.00    -0.269 OA
BRANCH  74  77
ATOM     77  C   UNL A   1      33.093  23.527  26.429  1.00  0.00     0.043 A 
ATOM     78  C   UNL A   1      34.379  23.892  26.037  1.00  0.00     0.014 A 
ATOM     79  C   UNL A   1      32.002  24.356  26.144  1.00  0.00     0.061 A 
ATOM     80  C   UNL A   1      34.566  25.068  25.310  1.00  0.00     0.005 A 
ATOM     81  C   UNL A   1      32.184  25.538  25.425  1.00  0.00     0.130 A 
ATOM     82  C   UNL A   1      33.470  25.884  25.002  1.00  0.00     0.047 A 
BRANCH  81  83
ATOM     83  O   UNL A   1      31.182  26.441  25.123  1.00  0.00    -0.438 OA
BRANCH  83  84
ATOM     84  C   UNL A   1      31.361  27.744  25.537  1.00  0.00     0.234 A 
ATOM     85  N   UNL A   1      31.593  27.903  26.865  1.00  0.00    -0.214 NA
ATOM     86  C   UNL A   1      31.309  28.808  24.634  1.00  0.00     0.087 A 
ATOM     87  C   UNL A   1      31.818  29.166  27.309  1.00  0.00     0.200 A 
ATOM     88  C   UNL A   1      31.592  30.090  25.102  1.00  0.00     0.108 A 
ATOM     89  Br  UNL A   1      30.934  28.575  22.793  1.00  0.00    -0.045 Br
ATOM     90  C   UNL A   1      31.852  30.266  26.464  1.00  0.00     0.288 A 
BRANCH  90  91
ATOM     91  N   UNL A   1      32.194  31.577  26.993  1.00  0.00     0.064 N 
ATOM     92  O   UNL A   1      33.298  31.709  27.534  1.00  0.00    -0.258 OA
ATOM     93  O   UNL A   1      31.365  32.485  26.840  1.00  0.00    -0.258 OA
ENDBRANCH  90  91
ENDBRANCH  83  84
ENDBRANCH  81  83
ENDBRANCH  74  77
ENDBRANCH  72  73
ENDBRANCH  71  72
ENDBRANCH  70  71
ENDBRANCH   1  70
TORSDOF 19
ENDMDL
MODEL 3
REMARK VINA RESULT:     -10.4      3.658      4.962
REMARK SMILES O=C(NCCCCCCNC(=O)c1cccc(Oc2ncc([N+](=O)[O-])cc2Br)c1)c1ccc(-c2c3nc(c(-c4ccc(S(=O)(=O)[O-])cc4)c4ccc([nH]4)c(-c4ccc(S(=O)(=O)[O-])cc4)c4nc(c(-c5ccc(S(=O)(=O)[O-])cc5)c5ccc2[nH]5)C=C4)C=C3)cc1
REMARK SMILES IDX 6 1 5 2 4 3 3 4 1 5 2 6 30 8 31 9 89 10 32 11 88 12 33 13
REMARK SMILES IDX 34 14 35 15 82 16 36 17 87 18 81 19 83 20 37 21 86 22 80 23
REMARK SMILES IDX 79 24 38 26 68 27 49 28 67 29 50 30 53 31 66 32 84 33 51 34
REMARK SMILES IDX 52 35 65 37 85 38 54 39 39 40 40 41 48 42 41 43 47 44 42 45
REMARK SMILES IDX 43 46 44 47 45 48 46 49 69 50 70 51 78 52 71 53 77 54 72 55
REMARK SMILES IDX 73 56 74 57 75 58 76 59 55 60 56 61 64 62 57 63 63 64 58 65
REMARK SMILES IDX 59 66 60 67 61 68 62 69 7 70 8 71 9 72 10 73 11 74 12 76
REMARK SMILES IDX 13 77 14 78 29 79 15 80 17 81 16 82 18 83 19 84 20 85 27 86
REMARK SMILES IDX 21 87 26 88 28 89 22 90 23 91 24 92 25 93
REMARK H PARENT 3 7 83 25 53 36 10 75
REMARK Flexibility Score: inf
ROOT
ATOM      1  C   UNL A   1      36.483  21.432  25.398  1.00  0.00     0.002 C 
ENDROOT
BRANCH   1   2
ATOM      2  C   UNL A   1      37.672  20.533  25.059  1.00  0.00     0.021 C 
BRANCH   2   3
ATOM      3  C   UNL A   1      38.979  20.931  25.731  1.00  0.00     0.116 C 
BRANCH   3   4
ATOM      4  N   UNL A   1      39.875  19.802  25.904  1.00  0.00    -0.352 N 
ATOM      5  O   UNL A   1      41.876  18.773  26.062  1.00  0.00    -0.269 OA
ATOM      6  C   UNL A   1      41.230  19.815  26.121  1.00  0.00     0.251 C 
ATOM      7  H   UNL A   1      39.456  18.911  25.860  1.00  0.00     0.163 HD
BRANCH   6   8
ATOM      8  C   UNL A   1      41.900  21.098  26.417  1.00  0.00     0.039 A 
ATOM      9  C   UNL A   1      42.282  21.950  25.377  1.00  0.00     0.014 A 
ATOM     10  C   UNL A   1      42.134  21.458  27.746  1.00  0.00     0.014 A 
ATOM     11  C   UNL A   1      42.984  23.114  25.659  1.00  0.00     0.010 A 
ATOM     12  C   UNL A   1      42.766  22.670  28.032  1.00  0.00     0.010 A 
ATOM     13  C   UNL A   1      43.197  23.507  26.990  1.00  0.00    -0.014 A 
BRANCH  13  14
ATOM     14  C   UNL A   1      43.728  24.863  27.269  1.00  0.00     0.031 A 
ATOM     15  C   UNL A   1      42.831  25.991  27.690  1.00  0.00     0.074 A 
ATOM     16  C   UNL A   1      45.053  25.060  27.112  1.00  0.00     0.049 A 
ATOM     17  N   UNL A   1      43.149  27.234  27.942  1.00  0.00    -0.248 NA
ATOM     18  C   UNL A   1      41.398  25.694  27.847  1.00  0.00     0.031 C 
ATOM     19  C   UNL A   1      46.013  24.034  26.687  1.00  0.00     0.029 A 
ATOM     20  N   UNL A   1      45.827  26.177  27.289  1.00  0.00    -0.354 N 
ATOM     21  C   UNL A   1      41.959  27.877  28.261  1.00  0.00     0.074 A 
ATOM     22  C   UNL A   1      40.908  26.887  28.167  1.00  0.00     0.031 C 
ATOM     23  C   UNL A   1      47.243  24.562  26.660  1.00  0.00     0.029 A 
ATOM     24  C   UNL A   1      47.154  25.977  26.992  1.00  0.00     0.049 A 
ATOM     25  H   UNL A   1      45.465  27.040  27.598  1.00  0.00     0.167 HD
ATOM     26  C   UNL A   1      41.771  29.176  28.595  1.00  0.00     0.031 A 
ATOM     27  C   UNL A   1      48.184  26.842  26.948  1.00  0.00     0.031 A 
ATOM     28  C   UNL A   1      42.833  30.147  28.688  1.00  0.00     0.049 A 
ATOM     29  C   UNL A   1      47.929  28.284  27.282  1.00  0.00     0.074 A 
ATOM     30  C   UNL A   1      42.750  31.469  29.091  1.00  0.00     0.029 A 
ATOM     31  N   UNL A   1      44.159  29.912  28.358  1.00  0.00    -0.354 N 
ATOM     32  N   UNL A   1      46.812  28.850  27.668  1.00  0.00    -0.248 NA
ATOM     33  C   UNL A   1      49.069  29.202  27.169  1.00  0.00     0.031 C 
ATOM     34  C   UNL A   1      44.011  32.053  28.934  1.00  0.00     0.029 A 
ATOM     35  C   UNL A   1      44.893  31.078  28.498  1.00  0.00     0.049 A 
ATOM     36  H   UNL A   1      44.525  29.045  28.069  1.00  0.00     0.167 HD
ATOM     37  C   UNL A   1      47.116  30.194  27.849  1.00  0.00     0.074 A 
ATOM     38  C   UNL A   1      48.529  30.345  27.567  1.00  0.00     0.031 C 
ATOM     39  C   UNL A   1      46.298  31.212  28.206  1.00  0.00     0.031 A 
BRANCH  26  40
ATOM     40  C   UNL A   1      40.368  29.656  28.859  1.00  0.00    -0.014 A 
ATOM     41  C   UNL A   1      40.038  30.332  30.045  1.00  0.00     0.010 A 
ATOM     42  C   UNL A   1      39.398  29.541  27.844  1.00  0.00     0.010 A 
ATOM     43  C   UNL A   1      38.762  30.880  30.214  1.00  0.00     0.020 A 
ATOM     44  C   UNL A   1      38.129  30.106  28.000  1.00  0.00     0.020 A 
ATOM     45  C   UNL A   1      37.818  30.769  29.187  1.00  0.00     0.054 A 
BRANCH  45  46
ATOM     46  S   UNL A   1      36.198  31.560  29.405  1.00  0.00     0.124 S 
ATOM     47  O   UNL A   1      35.318  30.653  28.673  1.00  0.00    -0.237 OA
ATOM     48  O   UNL A   1      36.036  31.557  30.856  1.00  0.00    -0.237 OA
ATOM     49  O   UNL A   1      36.372  32.879  28.803  1.00  0.00    -0.744 OA
ENDBRANCH  45  46
ENDBRANCH  26  40
BRANCH  27  50
ATOM     50  C   UNL A   1      49.527  26.381  26.504  1.00  0.00    -0.014 A 
ATOM     51  C   UNL A   1      50.470  25.903  27.428  1.00  0.00     0.010 A 
ATOM     52  C   UNL A   1      49.873  26.434  25.139  1.00  0.00     0.010 A 
ATOM     53  C   UNL A   1      51.746  25.522  27.002  1.00  0.00     0.020 A 
ATOM     54  C   UNL A   1      51.133  26.020  24.705  1.00  0.00     0.020 A 
ATOM     55  C   UNL A   1      52.070  25.587  25.642  1.00  0.00     0.054 A 
BRANCH  55  56
ATOM     56  S   UNL A   1      53.727  25.082  25.110  1.00  0.00     0.124 S 
ATOM     57  O   UNL A   1      54.516  25.322  26.313  1.00  0.00    -0.237 OA
ATOM     58  O   UNL A   1      53.530  23.679  24.752  1.00  0.00    -0.237 OA
ATOM     59  O   UNL A   1      54.011  25.970  23.985  1.00  0.00    -0.744 OA
ENDBRANCH  55  56
ENDBRANCH  27  50
BRANCH  39  60
ATOM     60  C   UNL A   1      46.912  32.581  28.317  1.00  0.00    -0.014 A 
ATOM     61  C   UNL A   1      47.524  33.000  29.511  1.00  0.00     0.010 A 
ATOM     62  C   UNL A   1      46.928  33.434  27.199  1.00  0.00     0.010 A 
ATOM     63  C   UNL A   1      48.123  34.259  29.593  1.00  0.00     0.020 A 
ATOM     64  C   UNL A   1      47.553  34.681  27.267  1.00  0.00     0.020 A 
ATOM     65  C   UNL A   1      48.137  35.090  28.467  1.00  0.00     0.054 A 
BRANCH  65  66
ATOM     66  S   UNL A   1      48.974  36.694  28.583  1.00  0.00     0.124 S 
ATOM     67  O   UNL A   1      48.326  37.454  27.518  1.00  0.00    -0.237 OA
ATOM     68  O   UNL A   1      48.658  37.122  29.944  1.00  0.00    -0.237 OA
ATOM     69  O   UNL A   1      50.380  36.369  28.349  1.00  0.00    -0.744 OA
ENDBRANCH  65  66
ENDBRANCH  39  60
ENDBRANCH  13  14
ENDBRANCH   6   8
ENDBRANCH   3   4
ENDBRANCH   2   3
ENDBRANCH   1   2
BRANCH   1  70
ATOM     70  C   UNL A   1      35.168  21.063  24.705  1.00  0.00     0.002 C 
BRANCH  70  71
ATOM     71  C   UNL A   1      33.989  20.785  25.642  1.00  0.00     0.021 C 
BRANCH  71  72
ATOM     72  C   UNL A   1      32.614  20.935  24.998  1.00  0.00     0.116 C 
BRANCH  72  73
ATOM     73  N   UNL A   1      31.665  21.564  25.903  1.00  0.00    -0.352 N 
ATOM     74  C   UNL A   1      31.602  22.874  26.306  1.00  0.00     0.251 C 
ATOM     75  H   UNL A   1      30.975  20.969  26.277  1.00  0.00     0.163 HD
ATOM     76  O   UNL A   1      30.885  23.202  27.246  1.00  0.00    -0.269 OA
BRANCH  74  77
ATOM     77  C   UNL A   1      32.385  23.898  25.584  1.00  0.00     0.043 A 
ATOM     78  C   UNL A   1      33.591  24.350  26.114  1.00  0.00     0.014 A 
ATOM     79  C   UNL A   1      31.873  24.457  24.408  1.00  0.00     0.061 A 
ATOM     80  C   UNL A   1      34.314  25.331  25.434  1.00  0.00     0.005 A 
ATOM     81  C   UNL A   1      32.587  25.445  23.728  1.00  0.00     0.130 A 
ATOM     82  C   UNL A   1      33.814  25.871  24.244  1.00  0.00     0.047 A 
BRANCH  81  83
ATOM     83  O   UNL A   1      32.155  26.085  22.582  1.00  0.00    -0.438 OA
BRANCH  83  84
ATOM     84  C   UNL A   1      31.323  27.172  22.741  1.00  0.00     0.234 A 
ATOM     85  N   UNL A   1      30.004  26.877  22.874  1.00  0.00    -0.214 NA
ATOM     86  C   UNL A   1      31.825  28.475  22.769  1.00  0.00     0.087 A 
ATOM     87  C   UNL A   1      29.153  27.916  23.076  1.00  0.00     0.200 A 
ATOM     88  C   UNL A   1      30.940  29.522  23.028  1.00  0.00     0.108 A 
ATOM     89  Br  UNL A   1      33.660  28.874  22.533  1.00  0.00    -0.045 Br
ATOM     90  C   UNL A   1      29.583  29.230  23.185  1.00  0.00     0.288 A 
BRANCH  90  91
ATOM     91  N   UNL A   1      28.627  30.283  23.499  1.00  0.00     0.064 N 
ATOM     92  O   UNL A   1      27.427  30.039  23.329  1.00  0.00    -0.258 OA
ATOM     93  O   UNL A   1      29.081  31.346  23.945  1.00  0.00    -0.258 OA
ENDBRANCH  90  91
ENDBRANCH  83  84
ENDBRANCH  81  83
ENDBRANCH  74  77
ENDBRANCH  72  73
ENDBRANCH  71  72
ENDBRANCH  70  71
ENDBRANCH   1  70
TORSDOF 19
ENDMDL
