MODEL 1
REMARK VINA RESULT:     -10.9      0.000      0.000
REMARK SMILES O=C(COc1ccccc1[C@@H]1[NH2+]CCc2cc(O)c(O)cc21)NCCCCCCNC(=O)c1ccc(-c2c3nc(c(-c4ccc(S(=O)(=O)[O-])cc4)c4ccc([nH]4)c(-c4ccc(S(=O)(=O)[O-])cc4)c4nc(c(-c5ccc(S(=O)(=O)[O-])cc5)c5ccc2[nH]5)C=C4)C=C3)cc1
REMARK SMILES IDX 26 1 25 2 24 3 23 4 1 5 2 6 3 8 4 9 5 10 6 11 10 12 7 13
REMARK SMILES IDX 9 14 8 15 11 16 12 17 22 18 13 19 15 22 21 23 14 24 16 25
REMARK SMILES IDX 19 26 17 27 20 28 18 30 27 32 28 33 29 34 30 35 31 36 32 38
REMARK SMILES IDX 33 39 34 40 92 41 35 42 91 43 36 44 37 45 38 46 85 47 39 48
REMARK SMILES IDX 90 49 84 50 86 51 40 52 89 53 83 54 82 55 41 57 71 58 52 59
REMARK SMILES IDX 70 60 53 61 56 62 69 63 87 64 54 65 55 66 68 68 88 69 57 70
REMARK SMILES IDX 42 71 43 72 51 73 44 74 50 75 45 76 46 77 47 78 48 79 49 80
REMARK SMILES IDX 72 81 73 82 81 83 74 84 80 85 75 86 76 87 77 88 78 89 79 90
REMARK SMILES IDX 58 91 59 92 67 93 60 94 66 95 61 96 62 97 63 98 64 99 65 100
REMARK H PARENT 23 7 12 20 12 21 20 29 18 31 30 37 86 56 56 67
REMARK Flexibility Score: inf
ROOT
ATOM      1  C   UNL A   1      31.846  29.806  26.998  1.00  0.00     0.002 C 
ENDROOT
BRANCH   1   2
ATOM      2  C   UNL A   1      33.215  29.189  26.705  1.00  0.00     0.021 C 
BRANCH   2   3
ATOM      3  C   UNL A   1      33.188  27.669  26.626  1.00  0.00     0.116 C 
BRANCH   3   4
ATOM      4  N   UNL A   1      32.276  27.163  25.623  1.00  0.00    -0.353 N 
ATOM      5  O   UNL A   1      31.257  25.655  27.014  1.00  0.00    -0.271 OA
ATOM      6  C   UNL A   1      31.292  26.252  25.939  1.00  0.00     0.257 C 
ATOM      7  H   UNL A   1      32.361  27.477  24.694  1.00  0.00     0.163 HD
BRANCH   6   8
ATOM      8  C   UNL A   1      30.238  26.035  24.846  1.00  0.00     0.329 C 
BRANCH   8   9
ATOM      9  O   UNL A   1      30.300  24.964  23.933  1.00  0.00    -0.483 OA
BRANCH   9  10
ATOM     10  C   UNL A   1      31.370  24.504  23.226  1.00  0.00     0.129 A 
ATOM     11  C   UNL A   1      31.755  25.507  22.308  1.00  0.00     0.047 A 
ATOM     12  C   UNL A   1      32.054  23.267  23.210  1.00  0.00     0.056 A 
ATOM     13  C   UNL A   1      32.695  25.284  21.309  1.00  0.00     0.004 A 
ATOM     14  C   UNL A   1      32.929  23.035  22.115  1.00  0.00     0.014 A 
ATOM     15  C   UNL A   1      33.245  24.023  21.179  1.00  0.00     0.001 A 
BRANCH  12  16
ATOM     16  C   UNL A   1      31.921  22.158  24.254  1.00  0.00     0.249 C 
ATOM     17  N   UNL A   1      32.036  22.661  25.632  1.00  0.00    -0.336 N 
ATOM     18  C   UNL A   1      32.834  20.928  24.173  1.00  0.00     0.021 A 
ATOM     19  C   UNL A   1      33.400  23.073  25.992  1.00  0.00     0.266 C 
ATOM     20  H   UNL A   1      31.742  21.922  26.272  1.00  0.00     0.347 HD
ATOM     21  H   UNL A   1      31.444  23.489  25.701  1.00  0.00     0.347 HD
ATOM     22  C   UNL A   1      34.125  21.040  24.739  1.00  0.00    -0.029 A 
ATOM     23  C   UNL A   1      32.361  19.677  23.742  1.00  0.00     0.060 A 
ATOM     24  C   UNL A   1      34.545  22.405  25.212  1.00  0.00     0.097 C 
ATOM     25  C   UNL A   1      34.922  19.909  24.910  1.00  0.00     0.054 A 
ATOM     26  C   UNL A   1      33.157  18.556  23.946  1.00  0.00     0.157 A 
ATOM     27  C   UNL A   1      34.414  18.673  24.539  1.00  0.00     0.157 A 
BRANCH  26  28
ATOM     28  O   UNL A   1      32.730  17.296  23.626  1.00  0.00    -0.504 OA
ATOM     29  H   UNL A   1      32.548  17.074  22.734  1.00  0.00     0.293 HD
ENDBRANCH  26  28
BRANCH  27  30
ATOM     30  O   UNL A   1      35.145  17.550  24.806  1.00  0.00    -0.504 OA
ATOM     31  H   UNL A   1      34.753  16.704  24.720  1.00  0.00     0.293 HD
ENDBRANCH  27  30
ENDBRANCH  12  16
ENDBRANCH   9  10
ENDBRANCH   8   9
ENDBRANCH   6   8
ENDBRANCH   3   4
ENDBRANCH   2   3
ENDBRANCH   1   2
BRANCH   1  32
ATOM     32  C   UNL A   1      31.504  31.029  26.144  1.00  0.00     0.002 C 
BRANCH  32  33
ATOM     33  C   UNL A   1      31.442  32.350  26.911  1.00  0.00     0.021 C 
BRANCH  33  34
ATOM     34  C   UNL A   1      32.793  32.861  27.397  1.00  0.00     0.116 C 
BRANCH  34  35
ATOM     35  N   UNL A   1      32.722  34.236  27.866  1.00  0.00    -0.352 N 
ATOM     36  C   UNL A   1      33.446  34.842  28.865  1.00  0.00     0.251 C 
ATOM     37  H   UNL A   1      32.068  34.809  27.406  1.00  0.00     0.163 HD
ATOM     38  O   UNL A   1      33.141  35.957  29.264  1.00  0.00    -0.269 OA
BRANCH  36  39
ATOM     39  C   UNL A   1      34.584  34.113  29.465  1.00  0.00     0.039 A 
ATOM     40  C   UNL A   1      35.882  34.427  29.060  1.00  0.00     0.014 A 
ATOM     41  C   UNL A   1      34.362  33.143  30.445  1.00  0.00     0.014 A 
ATOM     42  C   UNL A   1      36.966  33.807  29.685  1.00  0.00     0.010 A 
ATOM     43  C   UNL A   1      35.442  32.584  31.117  1.00  0.00     0.010 A 
ATOM     44  C   UNL A   1      36.756  32.905  30.741  1.00  0.00    -0.014 A 
BRANCH  44  45
ATOM     45  C   UNL A   1      37.888  32.269  31.460  1.00  0.00     0.031 A 
ATOM     46  C   UNL A   1      38.334  32.824  32.788  1.00  0.00     0.074 A 
ATOM     47  C   UNL A   1      38.562  31.250  30.889  1.00  0.00     0.049 A 
ATOM     48  N   UNL A   1      39.364  32.484  33.517  1.00  0.00    -0.248 NA
ATOM     49  C   UNL A   1      37.534  33.923  33.356  1.00  0.00     0.031 C 
ATOM     50  C   UNL A   1      38.247  30.643  29.592  1.00  0.00     0.029 A 
ATOM     51  N   UNL A   1      39.664  30.552  31.319  1.00  0.00    -0.354 N 
ATOM     52  C   UNL A   1      39.352  33.343  34.611  1.00  0.00     0.074 A 
ATOM     53  C   UNL A   1      38.237  34.245  34.432  1.00  0.00     0.031 C 
ATOM     54  C   UNL A   1      39.122  29.654  29.344  1.00  0.00     0.029 A 
ATOM     55  C   UNL A   1      40.089  29.587  30.435  1.00  0.00     0.049 A 
ATOM     56  H   UNL A   1      40.108  30.726  32.180  1.00  0.00     0.167 HD
ATOM     57  C   UNL A   1      40.186  33.367  35.677  1.00  0.00     0.031 A 
ATOM     58  C   UNL A   1      41.148  28.755  30.487  1.00  0.00     0.031 A 
ATOM     59  C   UNL A   1      41.274  32.446  35.866  1.00  0.00     0.049 A 
ATOM     60  C   UNL A   1      42.066  28.814  31.682  1.00  0.00     0.074 A 
ATOM     61  C   UNL A   1      42.132  32.347  36.948  1.00  0.00     0.029 A 
ATOM     62  N   UNL A   1      41.656  31.471  34.960  1.00  0.00    -0.354 N 
ATOM     63  N   UNL A   1      41.994  29.586  32.739  1.00  0.00    -0.248 NA
ATOM     64  C   UNL A   1      43.202  27.880  31.695  1.00  0.00     0.031 C 
ATOM     65  C   UNL A   1      43.070  31.350  36.668  1.00  0.00     0.029 A 
ATOM     66  C   UNL A   1      42.753  30.782  35.445  1.00  0.00     0.049 A 
ATOM     67  H   UNL A   1      41.213  31.295  34.098  1.00  0.00     0.167 HD
ATOM     68  C   UNL A   1      43.048  29.201  33.561  1.00  0.00     0.074 A 
ATOM     69  C   UNL A   1      43.737  28.124  32.883  1.00  0.00     0.031 C 
ATOM     70  C   UNL A   1      43.411  29.694  34.770  1.00  0.00     0.031 A 
BRANCH  57  71
ATOM     71  C   UNL A   1      39.962  34.420  36.730  1.00  0.00    -0.014 A 
ATOM     72  C   UNL A   1      39.117  34.183  37.829  1.00  0.00     0.010 A 
ATOM     73  C   UNL A   1      40.682  35.626  36.666  1.00  0.00     0.010 A 
ATOM     74  C   UNL A   1      38.985  35.141  38.837  1.00  0.00     0.020 A 
ATOM     75  C   UNL A   1      40.574  36.576  37.686  1.00  0.00     0.020 A 
ATOM     76  C   UNL A   1      39.720  36.329  38.762  1.00  0.00     0.054 A 
BRANCH  76  77
ATOM     77  S   UNL A   1      39.581  37.521  40.122  1.00  0.00     0.124 S 
ATOM     78  O   UNL A   1      38.205  37.988  39.974  1.00  0.00    -0.237 OA
ATOM     79  O   UNL A   1      39.841  36.695  41.298  1.00  0.00    -0.237 OA
ATOM     80  O   UNL A   1      40.611  38.513  39.821  1.00  0.00    -0.744 OA
ENDBRANCH  76  77
ENDBRANCH  57  71
BRANCH  58  81
ATOM     81  C   UNL A   1      41.416  27.799  29.376  1.00  0.00    -0.014 A 
ATOM     82  C   UNL A   1      40.709  26.585  29.289  1.00  0.00     0.010 A 
ATOM     83  C   UNL A   1      42.409  28.078  28.420  1.00  0.00     0.010 A 
ATOM     84  C   UNL A   1      41.022  25.651  28.296  1.00  0.00     0.020 A 
ATOM     85  C   UNL A   1      42.701  27.162  27.406  1.00  0.00     0.020 A 
ATOM     86  C   UNL A   1      42.022  25.944  27.363  1.00  0.00     0.054 A 
BRANCH  86  87
ATOM     87  S   UNL A   1      42.411  24.719  26.083  1.00  0.00     0.124 S 
ATOM     88  O   UNL A   1      43.698  24.203  26.540  1.00  0.00    -0.237 OA
ATOM     89  O   UNL A   1      41.287  23.793  26.179  1.00  0.00    -0.237 OA
ATOM     90  O   UNL A   1      42.454  25.511  24.856  1.00  0.00    -0.744 OA
ENDBRANCH  86  87
ENDBRANCH  58  81
BRANCH  70  91
ATOM     91  C   UNL A   1      44.564  29.035  35.480  1.00  0.00    -0.014 A 
ATOM     92  C   UNL A   1      45.898  29.329  35.148  1.00  0.00     0.010 A 
ATOM     93  C   UNL A   1      44.299  28.168  36.557  1.00  0.00     0.010 A 
ATOM     94  C   UNL A   1      46.946  28.749  35.868  1.00  0.00     0.020 A 
ATOM     95  C   UNL A   1      45.344  27.611  37.298  1.00  0.00     0.020 A 
ATOM     96  C   UNL A   1      46.663  27.898  36.941  1.00  0.00     0.054 A 
BRANCH  96  97
ATOM     97  S   UNL A   1      48.042  27.211  37.898  1.00  0.00     0.124 S 
ATOM     98  O   UNL A   1      49.199  27.666  37.133  1.00  0.00    -0.237 OA
ATOM     99  O   UNL A   1      47.866  27.837  39.206  1.00  0.00    -0.237 OA
ATOM    100  O   UNL A   1      47.802  25.769  37.867  1.00  0.00    -0.744 OA
ENDBRANCH  96  97
ENDBRANCH  70  91
ENDBRANCH  44  45
ENDBRANCH  36  39
ENDBRANCH  34  35
ENDBRANCH  33  34
ENDBRANCH  32  33
ENDBRANCH   1  32
TORSDOF 21
ENDMDL
MODEL 2
REMARK VINA RESULT:     -10.7      1.592      2.505
REMARK SMILES O=C(COc1ccccc1[C@@H]1[NH2+]CCc2cc(O)c(O)cc21)NCCCCCCNC(=O)c1ccc(-c2c3nc(c(-c4ccc(S(=O)(=O)[O-])cc4)c4ccc([nH]4)c(-c4ccc(S(=O)(=O)[O-])cc4)c4nc(c(-c5ccc(S(=O)(=O)[O-])cc5)c5ccc2[nH]5)C=C4)C=C3)cc1
REMARK SMILES IDX 26 1 25 2 24 3 23 4 1 5 2 6 3 8 4 9 5 10 6 11 10 12 7 13
REMARK SMILES IDX 9 14 8 15 11 16 12 17 22 18 13 19 15 22 21 23 14 24 16 25
REMARK SMILES IDX 19 26 17 27 20 28 18 30 27 32 28 33 29 34 30 35 31 36 32 38
REMARK SMILES IDX 33 39 34 40 92 41 35 42 91 43 36 44 37 45 38 46 85 47 39 48
REMARK SMILES IDX 90 49 84 50 86 51 40 52 89 53 83 54 82 55 41 57 71 58 52 59
REMARK SMILES IDX 70 60 53 61 56 62 69 63 87 64 54 65 55 66 68 68 88 69 57 70
REMARK SMILES IDX 42 71 43 72 51 73 44 74 50 75 45 76 46 77 47 78 48 79 49 80
REMARK SMILES IDX 72 81 73 82 81 83 74 84 80 85 75 86 76 87 77 88 78 89 79 90
REMARK SMILES IDX 58 91 59 92 67 93 60 94 66 95 61 96 62 97 63 98 64 99 65 100
REMARK H PARENT 23 7 12 20 12 21 20 29 18 31 30 37 86 56 56 67
REMARK Flexibility Score: inf
ROOT
ATOM      1  C   UNL A   1      33.785  31.089  27.503  1.00  0.00     0.002 C 
ENDROOT
BRANCH   1   2
ATOM      2  C   UNL A   1      32.376  31.040  26.910  1.00  0.00     0.021 C 
BRANCH   2   3
ATOM      3  C   UNL A   1      32.277  30.181  25.657  1.00  0.00     0.116 C 
BRANCH   3   4
ATOM      4  N   UNL A   1      32.504  28.774  25.908  1.00  0.00    -0.353 N 
ATOM      5  O   UNL A   1      33.911  28.472  24.125  1.00  0.00    -0.271 OA
ATOM      6  C   UNL A   1      33.409  28.047  25.164  1.00  0.00     0.257 C 
ATOM      7  H   UNL A   1      32.002  28.325  26.626  1.00  0.00     0.163 HD
BRANCH   6   8
ATOM      8  C   UNL A   1      33.745  26.662  25.730  1.00  0.00     0.329 C 
BRANCH   8   9
ATOM      9  O   UNL A   1      33.330  25.467  25.111  1.00  0.00    -0.483 OA
BRANCH   9  10
ATOM     10  C   UNL A   1      32.313  24.630  25.463  1.00  0.00     0.129 A 
ATOM     11  C   UNL A   1      31.165  25.413  25.714  1.00  0.00     0.047 A 
ATOM     12  C   UNL A   1      32.245  23.234  25.671  1.00  0.00     0.056 A 
ATOM     13  C   UNL A   1      30.008  24.884  26.274  1.00  0.00     0.004 A 
ATOM     14  C   UNL A   1      31.092  22.744  26.341  1.00  0.00     0.014 A 
ATOM     15  C   UNL A   1      29.992  23.552  26.639  1.00  0.00     0.001 A 
BRANCH  12  16
ATOM     16  C   UNL A   1      33.306  22.214  25.257  1.00  0.00     0.249 C 
ATOM     17  N   UNL A   1      34.118  22.673  24.118  1.00  0.00    -0.336 N 
ATOM     18  C   UNL A   1      32.887  20.776  24.926  1.00  0.00     0.021 A 
ATOM     19  C   UNL A   1      33.384  22.687  22.844  1.00  0.00     0.266 C 
ATOM     20  H   UNL A   1      34.921  22.053  24.022  1.00  0.00     0.347 HD
ATOM     21  H   UNL A   1      34.396  23.635  24.315  1.00  0.00     0.347 HD
ATOM     22  C   UNL A   1      32.410  20.524  23.619  1.00  0.00    -0.029 A 
ATOM     23  C   UNL A   1      33.144  19.706  25.799  1.00  0.00     0.060 A 
ATOM     24  C   UNL A   1      32.196  21.718  22.729  1.00  0.00     0.097 C 
ATOM     25  C   UNL A   1      32.229  19.215  23.173  1.00  0.00     0.054 A 
ATOM     26  C   UNL A   1      32.985  18.408  25.331  1.00  0.00     0.157 A 
ATOM     27  C   UNL A   1      32.550  18.170  24.026  1.00  0.00     0.157 A 
BRANCH  26  28
ATOM     28  O   UNL A   1      33.293  17.317  26.097  1.00  0.00    -0.504 OA
ATOM     29  H   UNL A   1      32.816  17.148  26.885  1.00  0.00     0.293 HD
ENDBRANCH  26  28
BRANCH  27  30
ATOM     30  O   UNL A   1      32.480  16.888  23.558  1.00  0.00    -0.504 OA
ATOM     31  H   UNL A   1      32.446  16.727  22.636  1.00  0.00     0.293 HD
ENDBRANCH  27  30
ENDBRANCH  12  16
ENDBRANCH   9  10
ENDBRANCH   8   9
ENDBRANCH   6   8
ENDBRANCH   3   4
ENDBRANCH   2   3
ENDBRANCH   1   2
BRANCH   1  32
ATOM     32  C   UNL A   1      34.116  32.385  28.247  1.00  0.00     0.002 C 
BRANCH  32  33
ATOM     33  C   UNL A   1      33.090  33.505  28.071  1.00  0.00     0.021 C 
BRANCH  33  34
ATOM     34  C   UNL A   1      33.539  34.861  28.600  1.00  0.00     0.116 C 
BRANCH  34  35
ATOM     35  N   UNL A   1      32.807  35.254  29.794  1.00  0.00    -0.352 N 
ATOM     36  C   UNL A   1      33.062  34.932  31.105  1.00  0.00     0.251 C 
ATOM     37  H   UNL A   1      32.022  35.828  29.641  1.00  0.00     0.163 HD
ATOM     38  O   UNL A   1      32.247  35.190  31.979  1.00  0.00    -0.269 OA
BRANCH  36  39
ATOM     39  C   UNL A   1      34.330  34.247  31.438  1.00  0.00     0.039 A 
ATOM     40  C   UNL A   1      35.532  34.945  31.319  1.00  0.00     0.014 A 
ATOM     41  C   UNL A   1      34.318  32.926  31.893  1.00  0.00     0.014 A 
ATOM     42  C   UNL A   1      36.723  34.334  31.715  1.00  0.00     0.010 A 
ATOM     43  C   UNL A   1      35.494  32.348  32.357  1.00  0.00     0.010 A 
ATOM     44  C   UNL A   1      36.710  33.043  32.269  1.00  0.00    -0.014 A 
BRANCH  44  45
ATOM     45  C   UNL A   1      37.953  32.387  32.747  1.00  0.00     0.031 A 
ATOM     46  C   UNL A   1      38.452  32.664  34.141  1.00  0.00     0.074 A 
ATOM     47  C   UNL A   1      38.671  31.611  31.910  1.00  0.00     0.049 A 
ATOM     48  N   UNL A   1      39.566  32.280  34.707  1.00  0.00    -0.248 NA
ATOM     49  C   UNL A   1      37.600  33.503  35.002  1.00  0.00     0.031 C 
ATOM     50  C   UNL A   1      38.309  31.292  30.526  1.00  0.00     0.029 A 
ATOM     51  N   UNL A   1      39.865  30.959  32.095  1.00  0.00    -0.354 N 
ATOM     52  C   UNL A   1      39.562  32.853  35.975  1.00  0.00     0.074 A 
ATOM     53  C   UNL A   1      38.356  33.642  36.082  1.00  0.00     0.031 C 
ATOM     54  C   UNL A   1      39.250  30.493  29.997  1.00  0.00     0.029 A 
ATOM     55  C   UNL A   1      40.305  30.281  30.982  1.00  0.00     0.049 A 
ATOM     56  H   UNL A   1      40.360  30.976  32.946  1.00  0.00     0.167 HD
ATOM     57  C   UNL A   1      40.475  32.720  36.965  1.00  0.00     0.031 A 
ATOM     58  C   UNL A   1      41.440  29.583  30.772  1.00  0.00     0.031 A 
ATOM     59  C   UNL A   1      41.658  31.908  36.865  1.00  0.00     0.049 A 
ATOM     60  C   UNL A   1      42.443  29.464  31.891  1.00  0.00     0.074 A 
ATOM     61  C   UNL A   1      42.607  31.655  37.840  1.00  0.00     0.029 A 
ATOM     62  N   UNL A   1      42.054  31.220  35.730  1.00  0.00    -0.354 N 
ATOM     63  N   UNL A   1      42.385  29.955  33.106  1.00  0.00    -0.248 NA
ATOM     64  C   UNL A   1      43.659  28.685  31.614  1.00  0.00     0.031 C 
ATOM     65  C   UNL A   1      43.609  30.862  37.275  1.00  0.00     0.029 A 
ATOM     66  C   UNL A   1      43.247  30.564  35.972  1.00  0.00     0.049 A 
ATOM     67  H   UNL A   1      41.560  31.202  34.878  1.00  0.00     0.167 HD
ATOM     68  C   UNL A   1      43.535  29.509  33.749  1.00  0.00     0.074 A 
ATOM     69  C   UNL A   1      44.265  28.703  32.793  1.00  0.00     0.031 C 
ATOM     70  C   UNL A   1      43.948  29.743  35.018  1.00  0.00     0.031 A 
BRANCH  57  71
ATOM     71  C   UNL A   1      40.240  33.467  38.252  1.00  0.00    -0.014 A 
ATOM     72  C   UNL A   1      40.857  34.706  38.499  1.00  0.00     0.010 A 
ATOM     73  C   UNL A   1      39.314  32.964  39.185  1.00  0.00     0.010 A 
ATOM     74  C   UNL A   1      40.565  35.420  39.663  1.00  0.00     0.020 A 
ATOM     75  C   UNL A   1      38.998  33.689  40.337  1.00  0.00     0.020 A 
ATOM     76  C   UNL A   1      39.632  34.910  40.571  1.00  0.00     0.054 A 
BRANCH  76  77
ATOM     77  S   UNL A   1      39.221  35.896  42.037  1.00  0.00     0.124 S 
ATOM     78  O   UNL A   1      40.305  35.544  42.951  1.00  0.00    -0.237 OA
ATOM     79  O   UNL A   1      39.253  37.262  41.522  1.00  0.00    -0.237 OA
ATOM     80  O   UNL A   1      37.898  35.410  42.424  1.00  0.00    -0.744 OA
ENDBRANCH  76  77
ENDBRANCH  57  71
BRANCH  58  81
ATOM     81  C   UNL A   1      41.705  28.948  29.450  1.00  0.00    -0.014 A 
ATOM     82  C   UNL A   1      41.365  27.602  29.220  1.00  0.00     0.010 A 
ATOM     83  C   UNL A   1      42.335  29.675  28.424  1.00  0.00     0.010 A 
ATOM     84  C   UNL A   1      41.693  26.984  28.009  1.00  0.00     0.020 A 
ATOM     85  C   UNL A   1      42.634  29.071  27.200  1.00  0.00     0.020 A 
ATOM     86  C   UNL A   1      42.331  27.722  27.008  1.00  0.00     0.054 A 
BRANCH  86  87
ATOM     87  S   UNL A   1      42.746  26.902  25.444  1.00  0.00     0.124 S 
ATOM     88  O   UNL A   1      41.682  25.909  25.333  1.00  0.00    -0.237 OA
ATOM     89  O   UNL A   1      42.690  28.001  24.486  1.00  0.00    -0.237 OA
ATOM     90  O   UNL A   1      44.083  26.363  25.687  1.00  0.00    -0.744 OA
ENDBRANCH  86  87
ENDBRANCH  58  81
BRANCH  70  91
ATOM     91  C   UNL A   1      45.212  29.070  35.482  1.00  0.00    -0.014 A 
ATOM     92  C   UNL A   1      45.197  27.775  36.030  1.00  0.00     0.010 A 
ATOM     93  C   UNL A   1      46.446  29.719  35.287  1.00  0.00     0.010 A 
ATOM     94  C   UNL A   1      46.394  27.152  36.394  1.00  0.00     0.020 A 
ATOM     95  C   UNL A   1      47.645  29.087  35.620  1.00  0.00     0.020 A 
ATOM     96  C   UNL A   1      47.611  27.809  36.183  1.00  0.00     0.054 A 
BRANCH  96  97
ATOM     97  S   UNL A   1      49.152  26.951  36.604  1.00  0.00     0.124 S 
ATOM     98  O   UNL A   1      48.683  25.591  36.857  1.00  0.00    -0.237 OA
ATOM     99  O   UNL A   1      49.955  27.125  35.396  1.00  0.00    -0.237 OA
ATOM    100  O   UNL A   1      49.640  27.670  37.779  1.00  0.00    -0.744 OA
ENDBRANCH  96  97
ENDBRANCH  70  91
ENDBRANCH  44  45
ENDBRANCH  36  39
ENDBRANCH  34  35
ENDBRANCH  33  34
ENDBRANCH  32  33
ENDBRANCH   1  32
TORSDOF 21
ENDMDL
MODEL 3
REMARK VINA RESULT:     -10.7      2.234      3.062
REMARK SMILES O=C(COc1ccccc1[C@@H]1[NH2+]CCc2cc(O)c(O)cc21)NCCCCCCNC(=O)c1ccc(-c2c3nc(c(-c4ccc(S(=O)(=O)[O-])cc4)c4ccc([nH]4)c(-c4ccc(S(=O)(=O)[O-])cc4)c4nc(c(-c5ccc(S(=O)(=O)[O-])cc5)c5ccc2[nH]5)C=C4)C=C3)cc1
REMARK SMILES IDX 26 1 25 2 24 3 23 4 1 5 2 6 3 8 4 9 5 10 6 11 10 12 7 13
REMARK SMILES IDX 9 14 8 15 11 16 12 17 22 18 13 19 15 22 21 23 14 24 16 25
REMARK SMILES IDX 19 26 17 27 20 28 18 30 27 32 28 33 29 34 30 35 31 36 32 38
REMARK SMILES IDX 33 39 34 40 92 41 35 42 91 43 36 44 37 45 38 46 85 47 39 48
REMARK SMILES IDX 90 49 84 50 86 51 40 52 89 53 83 54 82 55 41 57 71 58 52 59
REMARK SMILES IDX 70 60 53 61 56 62 69 63 87 64 54 65 55 66 68 68 88 69 57 70
REMARK SMILES IDX 42 71 43 72 51 73 44 74 50 75 45 76 46 77 47 78 48 79 49 80
REMARK SMILES IDX 72 81 73 82 81 83 74 84 80 85 75 86 76 87 77 88 78 89 79 90
REMARK SMILES IDX 58 91 59 92 67 93 60 94 66 95 61 96 62 97 63 98 64 99 65 100
REMARK H PARENT 23 7 12 20 12 21 20 29 18 31 30 37 86 56 56 67
REMARK Flexibility Score: inf
ROOT
ATOM      1  C   UNL A   1      34.744  31.973  28.190  1.00  0.00     0.002 C 
ENDROOT
BRANCH   1   2
ATOM      2  C   UNL A   1      35.223  30.668  27.550  1.00  0.00     0.021 C 
BRANCH   2   3
ATOM      3  C   UNL A   1      34.111  29.646  27.356  1.00  0.00     0.116 C 
BRANCH   3   4
ATOM      4  N   UNL A   1      33.959  29.221  25.981  1.00  0.00    -0.353 N 
ATOM      5  O   UNL A   1      31.886  30.158  25.706  1.00  0.00    -0.271 OA
ATOM      6  C   UNL A   1      32.878  29.615  25.222  1.00  0.00     0.257 C 
ATOM      7  H   UNL A   1      34.642  28.637  25.579  1.00  0.00     0.163 HD
BRANCH   6   8
ATOM      8  C   UNL A   1      33.003  29.324  23.722  1.00  0.00     0.329 C 
BRANCH   8   9
ATOM      9  O   UNL A   1      32.326  28.260  23.095  1.00  0.00    -0.483 OA
BRANCH   9  10
ATOM     10  C   UNL A   1      30.987  28.012  23.041  1.00  0.00     0.129 A 
ATOM     11  C   UNL A   1      30.343  29.174  22.560  1.00  0.00     0.047 A 
ATOM     12  C   UNL A   1      30.197  26.904  23.424  1.00  0.00     0.056 A 
ATOM     13  C   UNL A   1      28.960  29.317  22.563  1.00  0.00     0.004 A 
ATOM     14  C   UNL A   1      28.796  27.119  23.515  1.00  0.00     0.014 A 
ATOM     15  C   UNL A   1      28.186  28.303  23.095  1.00  0.00     0.001 A 
BRANCH  12  16
ATOM     16  C   UNL A   1      30.719  25.507  23.762  1.00  0.00     0.249 C 
ATOM     17  N   UNL A   1      29.993  24.887  24.882  1.00  0.00    -0.336 N 
ATOM     18  C   UNL A   1      32.211  25.309  24.062  1.00  0.00     0.021 A 
ATOM     19  C   UNL A   1      30.289  25.503  26.184  1.00  0.00     0.266 C 
ATOM     20  H   UNL A   1      30.246  23.900  24.926  1.00  0.00     0.347 HD
ATOM     21  H   UNL A   1      28.997  25.022  24.706  1.00  0.00     0.347 HD
ATOM     22  C   UNL A   1      32.650  25.581  25.378  1.00  0.00    -0.029 A 
ATOM     23  C   UNL A   1      33.079  24.694  23.144  1.00  0.00     0.060 A 
ATOM     24  C   UNL A   1      31.651  26.205  26.314  1.00  0.00     0.097 C 
ATOM     25  C   UNL A   1      33.930  25.209  25.787  1.00  0.00     0.054 A 
ATOM     26  C   UNL A   1      34.341  24.304  23.576  1.00  0.00     0.157 A 
ATOM     27  C   UNL A   1      34.750  24.544  24.888  1.00  0.00     0.157 A 
BRANCH  26  28
ATOM     28  O   UNL A   1      35.209  23.629  22.763  1.00  0.00    -0.504 OA
ATOM     29  H   UNL A   1      35.225  23.806  21.843  1.00  0.00     0.293 HD
ENDBRANCH  26  28
BRANCH  27  30
ATOM     30  O   UNL A   1      35.962  24.080  25.316  1.00  0.00    -0.504 OA
ATOM     31  H   UNL A   1      36.266  23.238  25.039  1.00  0.00     0.293 HD
ENDBRANCH  27  30
ENDBRANCH  12  16
ENDBRANCH   9  10
ENDBRANCH   8   9
ENDBRANCH   6   8
ENDBRANCH   3   4
ENDBRANCH   2   3
ENDBRANCH   1   2
BRANCH   1  32
ATOM     32  C   UNL A   1      33.253  32.262  28.004  1.00  0.00     0.002 C 
BRANCH  32  33
ATOM     33  C   UNL A   1      32.904  33.740  27.830  1.00  0.00     0.021 C 
BRANCH  33  34
ATOM     34  C   UNL A   1      33.731  34.689  28.688  1.00  0.00     0.116 C 
BRANCH  34  35
ATOM     35  N   UNL A   1      32.920  35.385  29.674  1.00  0.00    -0.352 N 
ATOM     36  C   UNL A   1      32.997  35.331  31.044  1.00  0.00     0.251 C 
ATOM     37  H   UNL A   1      32.222  35.976  29.309  1.00  0.00     0.163 HD
ATOM     38  O   UNL A   1      32.124  35.834  31.737  1.00  0.00    -0.269 OA
BRANCH  36  39
ATOM     39  C   UNL A   1      34.141  34.631  31.668  1.00  0.00     0.039 A 
ATOM     40  C   UNL A   1      33.952  33.349  32.187  1.00  0.00     0.014 A 
ATOM     41  C   UNL A   1      35.399  35.236  31.708  1.00  0.00     0.014 A 
ATOM     42  C   UNL A   1      35.047  32.647  32.696  1.00  0.00     0.010 A 
ATOM     43  C   UNL A   1      36.499  34.507  32.146  1.00  0.00     0.010 A 
ATOM     44  C   UNL A   1      36.334  33.207  32.649  1.00  0.00    -0.014 A 
BRANCH  44  45
ATOM     45  C   UNL A   1      37.525  32.465  33.135  1.00  0.00     0.031 A 
ATOM     46  C   UNL A   1      38.170  32.864  34.437  1.00  0.00     0.074 A 
ATOM     47  C   UNL A   1      38.069  31.493  32.376  1.00  0.00     0.049 A 
ATOM     48  N   UNL A   1      39.274  32.418  34.978  1.00  0.00    -0.248 NA
ATOM     49  C   UNL A   1      37.503  33.919  35.218  1.00  0.00     0.031 C 
ATOM     50  C   UNL A   1      37.555  31.036  31.082  1.00  0.00     0.029 A 
ATOM     51  N   UNL A   1      39.188  30.721  32.576  1.00  0.00    -0.354 N 
ATOM     52  C   UNL A   1      39.448  33.157  36.143  1.00  0.00     0.074 A 
ATOM     53  C   UNL A   1      38.360  34.105  36.213  1.00  0.00     0.031 C 
ATOM     54  C   UNL A   1      38.344  30.054  30.616  1.00  0.00     0.029 A 
ATOM     55  C   UNL A   1      39.446  29.843  31.549  1.00  0.00     0.049 A 
ATOM     56  H   UNL A   1      39.752  30.790  33.379  1.00  0.00     0.167 HD
ATOM     57  C   UNL A   1      40.419  33.043  37.079  1.00  0.00     0.031 A 
ATOM     58  C   UNL A   1      40.466  28.980  31.369  1.00  0.00     0.031 A 
ATOM     59  C   UNL A   1      41.482  32.076  37.021  1.00  0.00     0.049 A 
ATOM     60  C   UNL A   1      41.539  28.885  32.423  1.00  0.00     0.074 A 
ATOM     61  C   UNL A   1      42.474  31.837  37.957  1.00  0.00     0.029 A 
ATOM     62  N   UNL A   1      41.694  31.191  35.977  1.00  0.00    -0.354 N 
ATOM     63  N   UNL A   1      41.644  29.543  33.553  1.00  0.00    -0.248 NA
ATOM     64  C   UNL A   1      42.624  27.922  32.184  1.00  0.00     0.031 C 
ATOM     65  C   UNL A   1      43.320  30.849  37.451  1.00  0.00     0.029 A 
ATOM     66  C   UNL A   1      42.815  30.423  36.233  1.00  0.00     0.049 A 
ATOM     67  H   UNL A   1      41.131  31.121  35.172  1.00  0.00     0.167 HD
ATOM     68  C   UNL A   1      42.783  29.042  34.177  1.00  0.00     0.074 A 
ATOM     69  C   UNL A   1      43.326  28.023  33.304  1.00  0.00     0.031 C 
ATOM     70  C   UNL A   1      43.328  29.393  35.366  1.00  0.00     0.031 A 
BRANCH  57  71
ATOM     71  C   UNL A   1      40.387  33.985  38.254  1.00  0.00    -0.014 A 
ATOM     72  C   UNL A   1      41.031  35.234  38.205  1.00  0.00     0.010 A 
ATOM     73  C   UNL A   1      39.621  33.652  39.387  1.00  0.00     0.010 A 
ATOM     74  C   UNL A   1      40.923  36.126  39.274  1.00  0.00     0.020 A 
ATOM     75  C   UNL A   1      39.487  34.554  40.446  1.00  0.00     0.020 A 
ATOM     76  C   UNL A   1      40.145  35.783  40.385  1.00  0.00     0.054 A 
BRANCH  76  77
ATOM     77  S   UNL A   1      39.966  36.993  41.725  1.00  0.00     0.124 S 
ATOM     78  O   UNL A   1      39.188  36.242  42.706  1.00  0.00    -0.237 OA
ATOM     79  O   UNL A   1      41.352  37.263  42.097  1.00  0.00    -0.237 OA
ATOM     80  O   UNL A   1      39.264  38.108  41.094  1.00  0.00    -0.744 OA
ENDBRANCH  76  77
ENDBRANCH  57  71
BRANCH  58  81
ATOM     81  C   UNL A   1      40.539  28.138  30.141  1.00  0.00    -0.014 A 
ATOM     82  C   UNL A   1      39.604  27.109  29.920  1.00  0.00     0.010 A 
ATOM     83  C   UNL A   1      41.568  28.335  29.202  1.00  0.00     0.010 A 
ATOM     84  C   UNL A   1      39.725  26.266  28.811  1.00  0.00     0.020 A 
ATOM     85  C   UNL A   1      41.672  27.516  28.075  1.00  0.00     0.020 A 
ATOM     86  C   UNL A   1      40.764  26.472  27.897  1.00  0.00     0.054 A 
BRANCH  86  87
ATOM     87  S   UNL A   1      40.902  25.368  26.465  1.00  0.00     0.124 S 
ATOM     88  O   UNL A   1      41.155  26.310  25.380  1.00  0.00    -0.237 OA
ATOM     89  O   UNL A   1      42.024  24.510  26.835  1.00  0.00    -0.237 OA
ATOM     90  O   UNL A   1      39.604  24.699  26.424  1.00  0.00    -0.744 OA
ENDBRANCH  86  87
ENDBRANCH  58  81
BRANCH  70  91
ATOM     91  C   UNL A   1      44.536  28.630  35.839  1.00  0.00    -0.014 A 
ATOM     92  C   UNL A   1      44.412  27.448  36.590  1.00  0.00     0.010 A 
ATOM     93  C   UNL A   1      45.818  29.065  35.451  1.00  0.00     0.010 A 
ATOM     94  C   UNL A   1      45.550  26.727  36.961  1.00  0.00     0.020 A 
ATOM     95  C   UNL A   1      46.955  28.331  35.793  1.00  0.00     0.020 A 
ATOM     96  C   UNL A   1      46.814  27.170  36.557  1.00  0.00     0.054 A 
BRANCH  96  97
ATOM     97  S   UNL A   1      48.269  26.181  36.998  1.00  0.00     0.124 S 
ATOM     98  O   UNL A   1      48.053  24.962  36.224  1.00  0.00    -0.237 OA
ATOM     99  O   UNL A   1      49.376  27.023  36.550  1.00  0.00    -0.237 OA
ATOM    100  O   UNL A   1      48.158  26.027  38.447  1.00  0.00    -0.744 OA
ENDBRANCH  96  97
ENDBRANCH  70  91
ENDBRANCH  44  45
ENDBRANCH  36  39
ENDBRANCH  34  35
ENDBRANCH  33  34
ENDBRANCH  32  33
ENDBRANCH   1  32
TORSDOF 21
ENDMDL
