MODEL 1
REMARK VINA RESULT:     -10.3      0.000      0.000
REMARK SMILES CCC(CC)(NC(=O)NC[C@H](C)[NH+]1CCCCC1)C(=O)NCCCCCCNC(=O)c1ccc(-c2c3nc(c(-c4ccc(S(=O)(=O)[O-])cc4)c4ccc([nH]4)c(-c4ccc(S(=O)(=O)[O-])cc4)c4nc(c(-c5ccc(S(=O)(=O)[O-])cc5)c5ccc2[nH]5)C=C4)C=C3)cc1
REMARK SMILES IDX 24 1 23 2 22 3 21 4 19 5 20 6 3 8 2 9 1 10 4 11 5 12 6 13
REMARK SMILES IDX 7 14 8 16 9 17 10 19 11 20 12 21 13 22 14 23 18 24 15 26
REMARK SMILES IDX 17 27 16 28 25 29 26 30 27 31 28 32 29 33 30 35 31 36 32 37
REMARK SMILES IDX 90 38 33 39 89 40 34 41 35 42 36 43 83 44 37 45 88 46 82 47
REMARK SMILES IDX 84 48 38 49 87 50 81 51 80 52 39 54 69 55 50 56 68 57 51 58
REMARK SMILES IDX 54 59 67 60 85 61 52 62 53 63 66 65 86 66 55 67 40 68 41 69
REMARK SMILES IDX 49 70 42 71 48 72 43 73 44 74 45 75 46 76 47 77 70 78 71 79
REMARK SMILES IDX 79 80 72 81 78 82 73 83 74 84 75 85 76 86 77 87 56 88 57 89
REMARK SMILES IDX 65 90 58 91 64 92 59 93 60 94 61 95 62 96 63 97
REMARK H PARENT 21 7 6 15 9 18 13 25 28 34 84 53 54 64
REMARK Flexibility Score: inf
ROOT
ATOM      1  C   UNL A   1      41.256  23.016  27.515  1.00  0.00     0.002 C 
ENDROOT
BRANCH   1   2
ATOM      2  C   UNL A   1      39.744  23.606  26.980  1.00  0.00     0.021 C 
BRANCH   2   3
ATOM      3  C   UNL A   1      38.016  22.965  25.935  1.00  0.00     0.116 C 
BRANCH   3   4
ATOM      4  N   UNL A   1      37.463  21.569  25.449  1.00  0.00    -0.354 N 
ATOM      5  C   UNL A   1      36.320  20.875  25.263  1.00  0.00     0.245 C 
ATOM      6  O   UNL A   1      36.544  19.715  24.879  1.00  0.00    -0.272 OA
ATOM      7  H   UNL A   1      38.223  21.002  25.188  1.00  0.00     0.163 HD
BRANCH   5   8
ATOM      8  C   UNL A   1      34.875  21.451  25.221  1.00  0.00     0.120 C 
BRANCH   8   9
ATOM      9  C   UNL A   1      34.789  22.831  24.494  1.00  0.00     0.035 C 
ATOM     10  C   UNL A   1      34.540  22.859  22.991  1.00  0.00     0.007 C 
ENDBRANCH   8   9
BRANCH   8  11
ATOM     11  C   UNL A   1      34.585  21.596  26.760  1.00  0.00     0.035 C 
ATOM     12  C   UNL A   1      34.598  22.989  27.367  1.00  0.00     0.007 C 
ENDBRANCH   8  11
BRANCH   8  13
ATOM     13  N   UNL A   1      33.826  20.615  24.606  1.00  0.00    -0.324 N 
ATOM     14  C   UNL A   1      32.503  20.468  24.798  1.00  0.00     0.315 C 
ATOM     15  H   UNL A   1      34.173  20.030  23.894  1.00  0.00     0.166 HD
ATOM     16  O   UNL A   1      32.008  19.381  24.488  1.00  0.00    -0.249 OA
ATOM     17  N   UNL A   1      31.667  21.452  25.152  1.00  0.00    -0.332 N 
ATOM     18  H   UNL A   1      30.723  21.186  25.062  1.00  0.00     0.165 HD
BRANCH  17  19
ATOM     19  C   UNL A   1      31.806  22.813  25.637  1.00  0.00     0.182 C 
BRANCH  19  20
ATOM     20  C   UNL A   1      31.064  24.016  24.950  1.00  0.00     0.200 C 
ATOM     21  C   UNL A   1      30.817  23.730  23.462  1.00  0.00     0.077 C 
BRANCH  20  22
ATOM     22  N   UNL A   1      31.478  25.431  25.051  1.00  0.00    -0.331 N 
ATOM     23  C   UNL A   1      33.064  25.951  24.389  1.00  0.00     0.262 C 
ATOM     24  C   UNL A   1      30.686  26.313  26.453  1.00  0.00     0.262 C 
ATOM     25  H   UNL A   1      31.057  25.895  24.246  1.00  0.00     0.348 HD
ATOM     26  C   UNL A   1      33.917  27.615  24.943  1.00  0.00     0.062 C 
ATOM     27  C   UNL A   1      31.459  27.949  27.159  1.00  0.00     0.062 C 
ATOM     28  C   UNL A   1      33.186  28.555  26.460  1.00  0.00     0.012 C 
ENDBRANCH  20  22
ENDBRANCH  19  20
ENDBRANCH  17  19
ENDBRANCH   8  13
ENDBRANCH   5   8
ENDBRANCH   3   4
ENDBRANCH   2   3
ENDBRANCH   1   2
BRANCH   1  29
ATOM     29  C   UNL A   1      41.444  21.662  28.248  1.00  0.00     0.002 C 
BRANCH  29  30
ATOM     30  C   UNL A   1      41.344  20.368  27.450  1.00  0.00     0.021 C 
BRANCH  30  31
ATOM     31  C   UNL A   1      41.579  20.534  25.969  1.00  0.00     0.116 C 
BRANCH  31  32
ATOM     32  N   UNL A   1      42.687  19.696  25.540  1.00  0.00    -0.352 N 
ATOM     33  C   UNL A   1      43.881  20.160  25.050  1.00  0.00     0.251 C 
ATOM     34  H   UNL A   1      42.571  18.720  25.606  1.00  0.00     0.163 HD
ATOM     35  O   UNL A   1      44.638  19.451  24.392  1.00  0.00    -0.269 OA
BRANCH  33  36
ATOM     36  C   UNL A   1      44.211  21.560  25.361  1.00  0.00     0.039 A 
ATOM     37  C   UNL A   1      43.786  22.591  24.523  1.00  0.00     0.014 A 
ATOM     38  C   UNL A   1      44.827  21.828  26.591  1.00  0.00     0.014 A 
ATOM     39  C   UNL A   1      44.004  23.910  24.917  1.00  0.00     0.010 A 
ATOM     40  C   UNL A   1      44.945  23.136  27.024  1.00  0.00     0.010 A 
ATOM     41  C   UNL A   1      44.596  24.186  26.161  1.00  0.00    -0.014 A 
BRANCH  41  42
ATOM     42  C   UNL A   1      45.049  25.550  26.512  1.00  0.00     0.031 A 
ATOM     43  C   UNL A   1      44.029  26.498  27.094  1.00  0.00     0.074 A 
ATOM     44  C   UNL A   1      46.317  25.940  26.290  1.00  0.00     0.049 A 
ATOM     45  N   UNL A   1      44.150  27.763  27.390  1.00  0.00    -0.248 NA
ATOM     46  C   UNL A   1      42.674  25.958  27.325  1.00  0.00     0.031 C 
ATOM     47  C   UNL A   1      47.372  25.119  25.690  1.00  0.00     0.029 A 
ATOM     48  N   UNL A   1      46.933  27.138  26.545  1.00  0.00    -0.354 N 
ATOM     49  C   UNL A   1      42.888  28.169  27.811  1.00  0.00     0.074 A 
ATOM     50  C   UNL A   1      41.997  27.046  27.651  1.00  0.00     0.031 C 
ATOM     51  C   UNL A   1      48.512  25.831  25.651  1.00  0.00     0.029 A 
ATOM     52  C   UNL A   1      48.263  27.161  26.199  1.00  0.00     0.049 A 
ATOM     53  H   UNL A   1      46.465  27.910  26.938  1.00  0.00     0.167 HD
ATOM     54  C   UNL A   1      42.511  29.355  28.336  1.00  0.00     0.031 A 
ATOM     55  C   UNL A   1      49.170  28.149  26.324  1.00  0.00     0.031 A 
ATOM     56  C   UNL A   1      43.420  30.444  28.554  1.00  0.00     0.049 A 
ATOM     57  C   UNL A   1      48.738  29.447  26.957  1.00  0.00     0.074 A 
ATOM     58  C   UNL A   1      43.168  31.679  29.117  1.00  0.00     0.029 A 
ATOM     59  N   UNL A   1      44.772  30.405  28.246  1.00  0.00    -0.354 N 
ATOM     60  N   UNL A   1      47.547  29.801  27.383  1.00  0.00    -0.248 NA
ATOM     61  C   UNL A   1      49.776  30.469  27.152  1.00  0.00     0.031 C 
ATOM     62  C   UNL A   1      44.367  32.399  29.131  1.00  0.00     0.029 A 
ATOM     63  C   UNL A   1      45.371  31.591  28.618  1.00  0.00     0.049 A 
ATOM     64  H   UNL A   1      45.234  29.645  27.825  1.00  0.00     0.167 HD
ATOM     65  C   UNL A   1      47.702  31.071  27.928  1.00  0.00     0.074 A 
ATOM     66  C   UNL A   1      49.102  31.416  27.790  1.00  0.00     0.031 C 
ATOM     67  C   UNL A   1      46.774  31.885  28.489  1.00  0.00     0.031 A 
BRANCH  54  68
ATOM     68  C   UNL A   1      41.072  29.510  28.745  1.00  0.00    -0.014 A 
ATOM     69  C   UNL A   1      40.049  29.547  27.778  1.00  0.00     0.010 A 
ATOM     70  C   UNL A   1      40.731  29.600  30.105  1.00  0.00     0.010 A 
ATOM     71  C   UNL A   1      38.717  29.708  28.161  1.00  0.00     0.020 A 
ATOM     72  C   UNL A   1      39.393  29.729  30.495  1.00  0.00     0.020 A 
ATOM     73  C   UNL A   1      38.397  29.796  29.518  1.00  0.00     0.054 A 
BRANCH  73  74
ATOM     74  S   UNL A   1      36.653  29.956  29.988  1.00  0.00     0.124 S 
ATOM     75  O   UNL A   1      36.575  29.087  31.160  1.00  0.00    -0.237 OA
ATOM     76  O   UNL A   1      36.523  31.386  30.257  1.00  0.00    -0.237 OA
ATOM     77  O   UNL A   1      35.932  29.479  28.811  1.00  0.00    -0.744 OA
ENDBRANCH  73  74
ENDBRANCH  54  68
BRANCH  55  78
ATOM     78  C   UNL A   1      50.575  27.946  25.877  1.00  0.00    -0.014 A 
ATOM     79  C   UNL A   1      50.952  28.215  24.549  1.00  0.00     0.010 A 
ATOM     80  C   UNL A   1      51.544  27.459  26.773  1.00  0.00     0.010 A 
ATOM     81  C   UNL A   1      52.257  27.958  24.113  1.00  0.00     0.020 A 
ATOM     82  C   UNL A   1      52.857  27.227  26.349  1.00  0.00     0.020 A 
ATOM     83  C   UNL A   1      53.199  27.458  25.016  1.00  0.00     0.054 A 
BRANCH  83  84
ATOM     84  S   UNL A   1      54.890  27.140  24.436  1.00  0.00     0.124 S 
ATOM     85  O   UNL A   1      54.916  27.868  23.170  1.00  0.00    -0.237 OA
ATOM     86  O   UNL A   1      55.705  27.705  25.508  1.00  0.00    -0.237 OA
ATOM     87  O   UNL A   1      54.942  25.685  24.324  1.00  0.00    -0.744 OA
ENDBRANCH  83  84
ENDBRANCH  55  78
BRANCH  67  88
ATOM     88  C   UNL A   1      47.251  33.195  29.048  1.00  0.00    -0.014 A 
ATOM     89  C   UNL A   1      47.302  34.351  28.252  1.00  0.00     0.010 A 
ATOM     90  C   UNL A   1      47.585  33.279  30.412  1.00  0.00     0.010 A 
ATOM     91  C   UNL A   1      47.711  35.566  28.804  1.00  0.00     0.020 A 
ATOM     92  C   UNL A   1      47.968  34.498  30.974  1.00  0.00     0.020 A 
ATOM     93  C   UNL A   1      48.042  35.631  30.161  1.00  0.00     0.054 A 
BRANCH  93  94
ATOM     94  S   UNL A   1      48.526  37.230  30.865  1.00  0.00     0.124 S 
ATOM     95  O   UNL A   1      49.790  36.903  31.519  1.00  0.00    -0.237 OA
ATOM     96  O   UNL A   1      48.631  38.083  29.683  1.00  0.00    -0.237 OA
ATOM     97  O   UNL A   1      47.423  37.560  31.766  1.00  0.00    -0.744 OA
ENDBRANCH  93  94
ENDBRANCH  67  88
ENDBRANCH  41  42
ENDBRANCH  33  36
ENDBRANCH  31  32
ENDBRANCH  30  31
ENDBRANCH  29  30
ENDBRANCH   1  29
TORSDOF 22
ENDMDL
MODEL 2
REMARK VINA RESULT:     -10.1      1.027      8.152
REMARK SMILES CCC(CC)(NC(=O)NC[C@H](C)[NH+]1CCCCC1)C(=O)NCCCCCCNC(=O)c1ccc(-c2c3nc(c(-c4ccc(S(=O)(=O)[O-])cc4)c4ccc([nH]4)c(-c4ccc(S(=O)(=O)[O-])cc4)c4nc(c(-c5ccc(S(=O)(=O)[O-])cc5)c5ccc2[nH]5)C=C4)C=C3)cc1
REMARK SMILES IDX 24 1 23 2 22 3 21 4 19 5 20 6 3 8 2 9 1 10 4 11 5 12 6 13
REMARK SMILES IDX 7 14 8 16 9 17 10 19 11 20 12 21 13 22 14 23 18 24 15 26
REMARK SMILES IDX 17 27 16 28 25 29 26 30 27 31 28 32 29 33 30 35 31 36 32 37
REMARK SMILES IDX 90 38 33 39 89 40 34 41 35 42 36 43 83 44 37 45 88 46 82 47
REMARK SMILES IDX 84 48 38 49 87 50 81 51 80 52 39 54 69 55 50 56 68 57 51 58
REMARK SMILES IDX 54 59 67 60 85 61 52 62 53 63 66 65 86 66 55 67 40 68 41 69
REMARK SMILES IDX 49 70 42 71 48 72 43 73 44 74 45 75 46 76 47 77 70 78 71 79
REMARK SMILES IDX 79 80 72 81 78 82 73 83 74 84 75 85 76 86 77 87 56 88 57 89
REMARK SMILES IDX 65 90 58 91 64 92 59 93 60 94 61 95 62 96 63 97
REMARK H PARENT 21 7 6 15 9 18 13 25 28 34 84 53 54 64
REMARK Flexibility Score: inf
ROOT
ATOM      1  C   UNL A   1      41.286  23.225  27.480  1.00  0.00     0.002 C 
ENDROOT
BRANCH   1   2
ATOM      2  C   UNL A   1      39.748  23.818  27.033  1.00  0.00     0.021 C 
BRANCH   2   3
ATOM      3  C   UNL A   1      37.926  23.157  26.174  1.00  0.00     0.116 C 
BRANCH   3   4
ATOM      4  N   UNL A   1      37.379  21.771  25.657  1.00  0.00    -0.354 N 
ATOM      5  C   UNL A   1      36.250  21.145  25.259  1.00  0.00     0.245 C 
ATOM      6  O   UNL A   1      36.455  19.948  25.001  1.00  0.00    -0.272 OA
ATOM      7  H   UNL A   1      38.128  21.136  25.604  1.00  0.00     0.163 HD
BRANCH   5   8
ATOM      8  C   UNL A   1      34.903  21.814  24.863  1.00  0.00     0.120 C 
BRANCH   8   9
ATOM      9  C   UNL A   1      35.028  22.749  23.618  1.00  0.00     0.035 C 
ATOM     10  C   UNL A   1      36.395  22.939  22.971  1.00  0.00     0.007 C 
ENDBRANCH   8   9
BRANCH   8  11
ATOM     11  C   UNL A   1      34.603  22.637  26.169  1.00  0.00     0.035 C 
ATOM     12  C   UNL A   1      34.216  21.879  27.427  1.00  0.00     0.007 C 
ENDBRANCH   8  11
BRANCH   8  13
ATOM     13  N   UNL A   1      33.760  20.926  24.576  1.00  0.00    -0.324 N 
ATOM     14  C   UNL A   1      32.426  21.033  24.704  1.00  0.00     0.315 C 
ATOM     15  H   UNL A   1      34.037  20.056  24.207  1.00  0.00     0.166 HD
ATOM     16  O   UNL A   1      31.789  19.986  24.843  1.00  0.00    -0.249 OA
ATOM     17  N   UNL A   1      31.729  22.166  24.542  1.00  0.00    -0.332 N 
ATOM     18  H   UNL A   1      30.759  22.001  24.496  1.00  0.00     0.165 HD
BRANCH  17  19
ATOM     19  C   UNL A   1      32.049  23.576  24.417  1.00  0.00     0.182 C 
BRANCH  19  20
ATOM     20  C   UNL A   1      31.668  24.614  25.534  1.00  0.00     0.200 C 
ATOM     21  C   UNL A   1      30.890  23.934  26.671  1.00  0.00     0.077 C 
BRANCH  20  22
ATOM     22  N   UNL A   1      31.017  25.917  25.289  1.00  0.00    -0.331 N 
ATOM     23  C   UNL A   1      29.800  26.079  23.979  1.00  0.00     0.262 C 
ATOM     24  C   UNL A   1      32.035  27.344  25.836  1.00  0.00     0.262 C 
ATOM     25  H   UNL A   1      30.233  25.955  25.940  1.00  0.00     0.348 HD
ATOM     26  C   UNL A   1      29.309  27.814  23.235  1.00  0.00     0.062 C 
ATOM     27  C   UNL A   1      31.708  29.123  25.131  1.00  0.00     0.062 C 
ATOM     28  C   UNL A   1      30.384  29.345  23.705  1.00  0.00     0.012 C 
ENDBRANCH  20  22
ENDBRANCH  19  20
ENDBRANCH  17  19
ENDBRANCH   8  13
ENDBRANCH   5   8
ENDBRANCH   3   4
ENDBRANCH   2   3
ENDBRANCH   1   2
BRANCH   1  29
ATOM     29  C   UNL A   1      41.504  21.964  28.357  1.00  0.00     0.002 C 
BRANCH  29  30
ATOM     30  C   UNL A   1      41.542  20.596  27.689  1.00  0.00     0.021 C 
BRANCH  30  31
ATOM     31  C   UNL A   1      41.409  20.635  26.186  1.00  0.00     0.116 C 
BRANCH  31  32
ATOM     32  N   UNL A   1      42.466  19.852  25.568  1.00  0.00    -0.352 N 
ATOM     33  C   UNL A   1      43.615  20.369  25.028  1.00  0.00     0.251 C 
ATOM     34  H   UNL A   1      42.347  18.875  25.535  1.00  0.00     0.163 HD
ATOM     35  O   UNL A   1      44.303  19.739  24.229  1.00  0.00    -0.269 OA
BRANCH  33  36
ATOM     36  C   UNL A   1      43.985  21.726  25.461  1.00  0.00     0.039 A 
ATOM     37  C   UNL A   1      44.783  21.916  26.589  1.00  0.00     0.014 A 
ATOM     38  C   UNL A   1      43.637  22.795  24.625  1.00  0.00     0.014 A 
ATOM     39  C   UNL A   1      45.220  23.205  26.892  1.00  0.00     0.010 A 
ATOM     40  C   UNL A   1      44.159  24.051  24.872  1.00  0.00     0.010 A 
ATOM     41  C   UNL A   1      44.898  24.277  26.043  1.00  0.00    -0.014 A 
BRANCH  41  42
ATOM     42  C   UNL A   1      45.145  25.679  26.447  1.00  0.00     0.031 A 
ATOM     43  C   UNL A   1      46.545  26.217  26.288  1.00  0.00     0.074 A 
ATOM     44  C   UNL A   1      44.162  26.435  26.968  1.00  0.00     0.049 A 
ATOM     45  N   UNL A   1      47.035  27.370  26.655  1.00  0.00    -0.248 NA
ATOM     46  C   UNL A   1      47.540  25.313  25.677  1.00  0.00     0.031 C 
ATOM     47  C   UNL A   1      42.784  26.000  27.208  1.00  0.00     0.029 A 
ATOM     48  N   UNL A   1      44.177  27.738  27.393  1.00  0.00    -0.354 N 
ATOM     49  C   UNL A   1      48.390  27.313  26.346  1.00  0.00     0.074 A 
ATOM     50  C   UNL A   1      48.664  25.989  25.845  1.00  0.00     0.031 C 
ATOM     51  C   UNL A   1      42.080  27.030  27.712  1.00  0.00     0.029 A 
ATOM     52  C   UNL A   1      42.961  28.186  27.851  1.00  0.00     0.049 A 
ATOM     53  H   UNL A   1      44.985  28.301  27.373  1.00  0.00     0.167 HD
ATOM     54  C   UNL A   1      49.318  28.292  26.422  1.00  0.00     0.031 A 
ATOM     55  C   UNL A   1      42.608  29.399  28.319  1.00  0.00     0.031 A 
ATOM     56  C   UNL A   1      49.020  29.626  26.858  1.00  0.00     0.049 A 
ATOM     57  C   UNL A   1      43.648  30.490  28.350  1.00  0.00     0.074 A 
ATOM     58  C   UNL A   1      49.864  30.716  26.938  1.00  0.00     0.029 A 
ATOM     59  N   UNL A   1      47.763  30.055  27.256  1.00  0.00    -0.354 N 
ATOM     60  N   UNL A   1      44.918  30.428  28.019  1.00  0.00    -0.248 NA
ATOM     61  C   UNL A   1      43.204  31.819  28.787  1.00  0.00     0.031 C 
ATOM     62  C   UNL A   1      49.119  31.804  27.405  1.00  0.00     0.029 A 
ATOM     63  C   UNL A   1      47.803  31.397  27.571  1.00  0.00     0.049 A 
ATOM     64  H   UNL A   1      46.961  29.485  27.305  1.00  0.00     0.167 HD
ATOM     65  C   UNL A   1      45.414  31.717  28.176  1.00  0.00     0.074 A 
ATOM     66  C   UNL A   1      44.305  32.539  28.617  1.00  0.00     0.031 C 
ATOM     67  C   UNL A   1      46.671  32.186  27.980  1.00  0.00     0.031 A 
BRANCH  54  68
ATOM     68  C   UNL A   1      50.718  27.961  25.983  1.00  0.00    -0.014 A 
ATOM     69  C   UNL A   1      51.626  27.354  26.872  1.00  0.00     0.010 A 
ATOM     70  C   UNL A   1      51.129  28.237  24.668  1.00  0.00     0.010 A 
ATOM     71  C   UNL A   1      52.929  27.063  26.465  1.00  0.00     0.020 A 
ATOM     72  C   UNL A   1      52.425  27.918  24.247  1.00  0.00     0.020 A 
ATOM     73  C   UNL A   1      53.320  27.346  25.154  1.00  0.00     0.054 A 
BRANCH  73  74
ATOM     74  S   UNL A   1      55.004  26.913  24.641  1.00  0.00     0.124 S 
ATOM     75  O   UNL A   1      55.679  28.207  24.694  1.00  0.00    -0.237 OA
ATOM     76  O   UNL A   1      55.413  25.950  25.661  1.00  0.00    -0.237 OA
ATOM     77  O   UNL A   1      54.826  26.358  23.302  1.00  0.00    -0.744 OA
ENDBRANCH  73  74
ENDBRANCH  54  68
BRANCH  55  78
ATOM     78  C   UNL A   1      41.212  29.661  28.764  1.00  0.00    -0.014 A 
ATOM     79  C   UNL A   1      40.940  30.030  30.094  1.00  0.00     0.010 A 
ATOM     80  C   UNL A   1      40.140  29.519  27.865  1.00  0.00     0.010 A 
ATOM     81  C   UNL A   1      39.621  30.208  30.527  1.00  0.00     0.020 A 
ATOM     82  C   UNL A   1      38.822  29.724  28.286  1.00  0.00     0.020 A 
ATOM     83  C   UNL A   1      38.570  30.046  29.621  1.00  0.00     0.054 A 
BRANCH  83  84
ATOM     84  S   UNL A   1      36.866  30.292  30.199  1.00  0.00     0.124 S 
ATOM     85  O   UNL A   1      36.115  30.245  28.948  1.00  0.00    -0.237 OA
ATOM     86  O   UNL A   1      36.670  29.158  31.098  1.00  0.00    -0.237 OA
ATOM     87  O   UNL A   1      36.915  31.596  30.854  1.00  0.00    -0.744 OA
ENDBRANCH  83  84
ENDBRANCH  55  78
BRANCH  67  88
ATOM     88  C   UNL A   1      46.899  33.657  28.179  1.00  0.00    -0.014 A 
ATOM     89  C   UNL A   1      46.690  34.574  27.136  1.00  0.00     0.010 A 
ATOM     90  C   UNL A   1      47.260  34.129  29.454  1.00  0.00     0.010 A 
ATOM     91  C   UNL A   1      46.870  35.940  27.356  1.00  0.00     0.020 A 
ATOM     92  C   UNL A   1      47.413  35.497  29.685  1.00  0.00     0.020 A 
ATOM     93  C   UNL A   1      47.230  36.393  28.629  1.00  0.00     0.054 A 
BRANCH  93  94
ATOM     94  S   UNL A   1      47.413  38.176  28.902  1.00  0.00     0.124 S 
ATOM     95  O   UNL A   1      46.131  38.688  28.426  1.00  0.00    -0.237 OA
ATOM     96  O   UNL A   1      47.627  38.259  30.345  1.00  0.00    -0.237 OA
ATOM     97  O   UNL A   1      48.571  38.535  28.086  1.00  0.00    -0.744 OA
ENDBRANCH  93  94
ENDBRANCH  67  88
ENDBRANCH  41  42
ENDBRANCH  33  36
ENDBRANCH  31  32
ENDBRANCH  30  31
ENDBRANCH  29  30
ENDBRANCH   1  29
TORSDOF 22
ENDMDL
MODEL 3
REMARK VINA RESULT:     -10.0      2.532      8.823
REMARK SMILES CCC(CC)(NC(=O)NC[C@H](C)[NH+]1CCCCC1)C(=O)NCCCCCCNC(=O)c1ccc(-c2c3nc(c(-c4ccc(S(=O)(=O)[O-])cc4)c4ccc([nH]4)c(-c4ccc(S(=O)(=O)[O-])cc4)c4nc(c(-c5ccc(S(=O)(=O)[O-])cc5)c5ccc2[nH]5)C=C4)C=C3)cc1
REMARK SMILES IDX 24 1 23 2 22 3 21 4 19 5 20 6 3 8 2 9 1 10 4 11 5 12 6 13
REMARK SMILES IDX 7 14 8 16 9 17 10 19 11 20 12 21 13 22 14 23 18 24 15 26
REMARK SMILES IDX 17 27 16 28 25 29 26 30 27 31 28 32 29 33 30 35 31 36 32 37
REMARK SMILES IDX 90 38 33 39 89 40 34 41 35 42 36 43 83 44 37 45 88 46 82 47
REMARK SMILES IDX 84 48 38 49 87 50 81 51 80 52 39 54 69 55 50 56 68 57 51 58
REMARK SMILES IDX 54 59 67 60 85 61 52 62 53 63 66 65 86 66 55 67 40 68 41 69
REMARK SMILES IDX 49 70 42 71 48 72 43 73 44 74 45 75 46 76 47 77 70 78 71 79
REMARK SMILES IDX 79 80 72 81 78 82 73 83 74 84 75 85 76 86 77 87 56 88 57 89
REMARK SMILES IDX 65 90 58 91 64 92 59 93 60 94 61 95 62 96 63 97
REMARK H PARENT 21 7 6 15 9 18 13 25 28 34 84 53 54 64
REMARK Flexibility Score: inf
ROOT
ATOM      1  C   UNL A   1      35.688  32.314  27.844  1.00  0.00     0.002 C 
ENDROOT
BRANCH   1   2
ATOM      2  C   UNL A   1      34.451  31.140  27.756  1.00  0.00     0.021 C 
BRANCH   2   3
ATOM      3  C   UNL A   1      34.065  29.231  26.920  1.00  0.00     0.116 C 
BRANCH   3   4
ATOM      4  N   UNL A   1      32.952  28.131  27.123  1.00  0.00    -0.354 N 
ATOM      5  C   UNL A   1      31.851  27.600  26.548  1.00  0.00     0.245 C 
ATOM      6  O   UNL A   1      31.332  26.730  27.266  1.00  0.00    -0.272 OA
ATOM      7  H   UNL A   1      33.120  27.666  27.974  1.00  0.00     0.163 HD
BRANCH   5   8
ATOM      8  C   UNL A   1      31.394  27.776  25.072  1.00  0.00     0.120 C 
BRANCH   8   9
ATOM      9  C   UNL A   1      32.322  27.039  24.054  1.00  0.00     0.035 C 
ATOM     10  C   UNL A   1      32.210  27.378  22.572  1.00  0.00     0.007 C 
ENDBRANCH   8   9
BRANCH   8  11
ATOM     11  C   UNL A   1      31.509  29.337  24.925  1.00  0.00     0.035 C 
ATOM     12  C   UNL A   1      30.376  30.082  24.240  1.00  0.00     0.007 C 
ENDBRANCH   8  11
BRANCH   8  13
ATOM     13  N   UNL A   1      30.022  27.356  24.730  1.00  0.00    -0.324 N 
ATOM     14  C   UNL A   1      29.480  26.253  24.184  1.00  0.00     0.315 C 
ATOM     15  H   UNL A   1      29.348  28.039  24.950  1.00  0.00     0.166 HD
ATOM     16  O   UNL A   1      28.408  26.388  23.588  1.00  0.00    -0.249 OA
ATOM     17  N   UNL A   1      29.935  25.005  24.366  1.00  0.00    -0.332 N 
ATOM     18  H   UNL A   1      29.300  24.328  24.037  1.00  0.00     0.165 HD
BRANCH  17  19
ATOM     19  C   UNL A   1      31.131  24.405  24.928  1.00  0.00     0.182 C 
BRANCH  19  20
ATOM     20  C   UNL A   1      31.110  22.977  25.584  1.00  0.00     0.200 C 
ATOM     21  C   UNL A   1      30.325  22.992  26.904  1.00  0.00     0.077 C 
BRANCH  20  22
ATOM     22  N   UNL A   1      32.303  22.133  25.804  1.00  0.00    -0.331 N 
ATOM     23  C   UNL A   1      33.867  22.890  26.256  1.00  0.00     0.262 C 
ATOM     24  C   UNL A   1      32.233  20.540  24.894  1.00  0.00     0.262 C 
ATOM     25  H   UNL A   1      32.240  21.824  26.774  1.00  0.00     0.348 HD
ATOM     26  C   UNL A   1      35.566  21.958  26.033  1.00  0.00     0.062 C 
ATOM     27  C   UNL A   1      33.853  19.531  24.537  1.00  0.00     0.062 C 
ATOM     28  C   UNL A   1      35.581  20.317  25.019  1.00  0.00     0.012 C 
ENDBRANCH  20  22
ENDBRANCH  19  20
ENDBRANCH  17  19
ENDBRANCH   8  13
ENDBRANCH   5   8
ENDBRANCH   3   4
ENDBRANCH   2   3
ENDBRANCH   1   2
BRANCH   1  29
ATOM     29  C   UNL A   1      35.558  33.648  28.626  1.00  0.00     0.002 C 
BRANCH  29  30
ATOM     30  C   UNL A   1      36.164  33.751  30.020  1.00  0.00     0.021 C 
BRANCH  30  31
ATOM     31  C   UNL A   1      37.188  32.688  30.330  1.00  0.00     0.116 C 
BRANCH  31  32
ATOM     32  N   UNL A   1      36.557  31.563  31.000  1.00  0.00    -0.352 N 
ATOM     33  C   UNL A   1      36.915  30.249  30.837  1.00  0.00     0.251 C 
ATOM     34  H   UNL A   1      35.817  31.759  31.619  1.00  0.00     0.163 HD
ATOM     35  O   UNL A   1      36.164  29.324  31.137  1.00  0.00    -0.269 OA
BRANCH  33  36
ATOM     36  C   UNL A   1      38.257  30.004  30.285  1.00  0.00     0.039 A 
ATOM     37  C   UNL A   1      38.460  29.971  28.905  1.00  0.00     0.014 A 
ATOM     38  C   UNL A   1      39.333  29.957  31.182  1.00  0.00     0.014 A 
ATOM     39  C   UNL A   1      39.763  29.867  28.421  1.00  0.00     0.010 A 
ATOM     40  C   UNL A   1      40.627  29.961  30.695  1.00  0.00     0.010 A 
ATOM     41  C   UNL A   1      40.848  29.848  29.314  1.00  0.00    -0.014 A 
BRANCH  41  42
ATOM     42  C   UNL A   1      42.215  29.512  28.856  1.00  0.00     0.031 A 
ATOM     43  C   UNL A   1      42.467  28.101  28.387  1.00  0.00     0.074 A 
ATOM     44  C   UNL A   1      43.203  30.423  28.890  1.00  0.00     0.049 A 
ATOM     45  N   UNL A   1      43.590  27.535  28.033  1.00  0.00    -0.248 NA
ATOM     46  C   UNL A   1      41.306  27.189  28.362  1.00  0.00     0.031 C 
ATOM     47  C   UNL A   1      43.079  31.803  29.368  1.00  0.00     0.029 A 
ATOM     48  N   UNL A   1      44.517  30.320  28.512  1.00  0.00    -0.354 N 
ATOM     49  C   UNL A   1      43.270  26.206  27.774  1.00  0.00     0.074 A 
ATOM     50  C   UNL A   1      41.875  26.026  28.093  1.00  0.00     0.031 C 
ATOM     51  C   UNL A   1      44.263  32.424  29.227  1.00  0.00     0.029 A 
ATOM     52  C   UNL A   1      45.232  31.483  28.672  1.00  0.00     0.049 A 
ATOM     53  H   UNL A   1      44.911  29.490  28.159  1.00  0.00     0.167 HD
ATOM     54  C   UNL A   1      44.054  25.230  27.265  1.00  0.00     0.031 A 
ATOM     55  C   UNL A   1      46.522  31.749  28.390  1.00  0.00     0.031 A 
ATOM     56  C   UNL A   1      45.422  25.438  26.887  1.00  0.00     0.049 A 
ATOM     57  C   UNL A   1      47.364  30.659  27.777  1.00  0.00     0.074 A 
ATOM     58  C   UNL A   1      46.306  24.540  26.321  1.00  0.00     0.029 A 
ATOM     59  N   UNL A   1      46.091  26.646  27.008  1.00  0.00    -0.354 N 
ATOM     60  N   UNL A   1      47.035  29.416  27.505  1.00  0.00    -0.248 NA
ATOM     61  C   UNL A   1      48.741  31.012  27.406  1.00  0.00     0.031 C 
ATOM     62  C   UNL A   1      47.521  25.202  26.118  1.00  0.00     0.029 A 
ATOM     63  C   UNL A   1      47.375  26.523  26.517  1.00  0.00     0.049 A 
ATOM     64  H   UNL A   1      45.707  27.469  27.389  1.00  0.00     0.167 HD
ATOM     65  C   UNL A   1      48.153  28.852  26.900  1.00  0.00     0.074 A 
ATOM     66  C   UNL A   1      49.160  29.892  26.833  1.00  0.00     0.031 C 
ATOM     67  C   UNL A   1      48.338  27.589  26.443  1.00  0.00     0.031 A 
BRANCH  54  68
ATOM     68  C   UNL A   1      43.432  23.878  27.050  1.00  0.00    -0.014 A 
ATOM     69  C   UNL A   1      43.264  22.985  28.127  1.00  0.00     0.010 A 
ATOM     70  C   UNL A   1      42.991  23.498  25.772  1.00  0.00     0.010 A 
ATOM     71  C   UNL A   1      42.702  21.724  27.920  1.00  0.00     0.020 A 
ATOM     72  C   UNL A   1      42.397  22.248  25.567  1.00  0.00     0.020 A 
ATOM     73  C   UNL A   1      42.270  21.364  26.641  1.00  0.00     0.054 A 
BRANCH  73  74
ATOM     74  S   UNL A   1      41.499  19.739  26.413  1.00  0.00     0.124 S 
ATOM     75  O   UNL A   1      41.760  19.098  27.699  1.00  0.00    -0.237 OA
ATOM     76  O   UNL A   1      40.102  20.081  26.154  1.00  0.00    -0.237 OA
ATOM     77  O   UNL A   1      42.219  19.170  25.276  1.00  0.00    -0.744 OA
ENDBRANCH  73  74
ENDBRANCH  54  68
BRANCH  55  78
ATOM     78  C   UNL A   1      47.090  33.100  28.647  1.00  0.00    -0.014 A 
ATOM     79  C   UNL A   1      46.957  34.128  27.697  1.00  0.00     0.010 A 
ATOM     80  C   UNL A   1      47.792  33.362  29.838  1.00  0.00     0.010 A 
ATOM     81  C   UNL A   1      47.550  35.377  27.911  1.00  0.00     0.020 A 
ATOM     82  C   UNL A   1      48.363  34.618  30.069  1.00  0.00     0.020 A 
ATOM     83  C   UNL A   1      48.256  35.611  29.094  1.00  0.00     0.054 A 
BRANCH  83  84
ATOM     84  S   UNL A   1      49.012  37.240  29.359  1.00  0.00     0.124 S 
ATOM     85  O   UNL A   1      50.434  36.938  29.228  1.00  0.00    -0.237 OA
ATOM     86  O   UNL A   1      48.432  38.038  28.282  1.00  0.00    -0.237 OA
ATOM     87  O   UNL A   1      48.569  37.605  30.702  1.00  0.00    -0.744 OA
ENDBRANCH  83  84
ENDBRANCH  55  78
BRANCH  67  88
ATOM     88  C   UNL A   1      49.649  27.280  25.779  1.00  0.00    -0.014 A 
ATOM     89  C   UNL A   1      49.840  27.506  24.405  1.00  0.00     0.010 A 
ATOM     90  C   UNL A   1      50.726  26.824  26.561  1.00  0.00     0.010 A 
ATOM     91  C   UNL A   1      51.080  27.249  23.818  1.00  0.00     0.020 A 
ATOM     92  C   UNL A   1      51.974  26.593  25.982  1.00  0.00     0.020 A 
ATOM     93  C   UNL A   1      52.138  26.794  24.610  1.00  0.00     0.054 A 
BRANCH  93  94
ATOM     94  S   UNL A   1      53.752  26.512  23.832  1.00  0.00     0.124 S 
ATOM     95  O   UNL A   1      54.360  25.543  24.740  1.00  0.00    -0.237 OA
ATOM     96  O   UNL A   1      53.387  25.997  22.514  1.00  0.00    -0.237 OA
ATOM     97  O   UNL A   1      54.370  27.836  23.826  1.00  0.00    -0.744 OA
ENDBRANCH  93  94
ENDBRANCH  67  88
ENDBRANCH  41  42
ENDBRANCH  33  36
ENDBRANCH  31  32
ENDBRANCH  30  31
ENDBRANCH  29  30
ENDBRANCH   1  29
TORSDOF 22
ENDMDL
