MODEL 1
REMARK VINA RESULT:     -10.7      0.000      0.000
REMARK SMILES C[C@@H]1CN(C(=O)Nc2ccc(O)c(C(=O)NCCCCCCNC(=O)c3ccc(-c4c5nc(c(-c6ccc(S(=O)(=O)[O-])cc6)c6ccc([nH]6)c(-c6ccc(S(=O)(=O)[O-])cc6)c6nc(c(-c7ccc(S(=O)(=O)[O-])cc7)c7ccc4[nH]7)C=C6)C=C5)cc3)c2)C[C@@H]1C
REMARK SMILES IDX 20 1 19 2 18 3 17 4 16 5 14 6 15 7 13 9 8 10 9 11 86 12
REMARK SMILES IDX 10 13 11 14 7 15 5 16 6 17 4 19 1 20 2 21 3 22 88 23 87 24
REMARK SMILES IDX 89 25 12 26 21 28 22 29 23 30 24 31 25 33 26 34 27 35 85 36
REMARK SMILES IDX 28 37 84 38 29 39 30 40 31 41 78 42 32 43 83 44 77 45 79 46
REMARK SMILES IDX 33 47 82 48 76 49 75 50 34 52 64 53 45 54 63 55 46 56 49 57
REMARK SMILES IDX 62 58 80 59 47 60 48 61 61 63 81 64 50 65 35 66 36 67 44 68
REMARK SMILES IDX 37 69 43 70 38 71 39 72 40 73 41 74 42 75 65 76 66 77 74 78
REMARK SMILES IDX 67 79 73 80 68 81 69 82 70 83 71 84 72 85 51 86 52 87 60 88
REMARK SMILES IDX 53 89 59 90 54 91 55 92 56 93 57 94 58 95
REMARK H PARENT 16 8 7 18 12 27 23 32 79 51 49 62
REMARK Flexibility Score: inf
ROOT
ATOM      1  C   UNL A   1      31.467  28.226  25.894  1.00  0.00     0.002 C 
ENDROOT
BRANCH   1   2
ATOM      2  C   UNL A   1      31.116  28.460  24.422  1.00  0.00     0.002 C 
BRANCH   2   3
ATOM      3  C   UNL A   1      30.186  27.409  23.805  1.00  0.00     0.021 C 
BRANCH   3   4
ATOM      4  C   UNL A   1      30.478  27.094  22.334  1.00  0.00     0.116 C 
BRANCH   4   5
ATOM      5  N   UNL A   1      31.892  27.249  22.063  1.00  0.00    -0.352 N 
ATOM      6  C   UNL A   1      32.958  26.408  22.235  1.00  0.00     0.255 C 
ATOM      7  O   UNL A   1      34.070  26.859  21.946  1.00  0.00    -0.269 OA
ATOM      8  H   UNL A   1      32.132  28.125  21.682  1.00  0.00     0.163 HD
BRANCH   6   9
ATOM      9  C   UNL A   1      32.870  24.974  22.640  1.00  0.00     0.083 A 
ATOM     10  C   UNL A   1      32.575  23.507  24.570  1.00  0.00     0.043 A 
ATOM     11  C   UNL A   1      32.574  22.394  23.740  1.00  0.00     0.030 A 
ATOM     12  C   UNL A   1      32.643  24.786  24.018  1.00  0.00     0.044 A 
ATOM     13  C   UNL A   1      32.779  22.555  22.372  1.00  0.00     0.049 A 
ATOM     14  C   UNL A   1      32.949  23.835  21.828  1.00  0.00     0.128 A 
BRANCH  10  15
ATOM     15  N   UNL A   1      32.509  23.393  25.960  1.00  0.00    -0.308 N 
ATOM     16  C   UNL A   1      33.306  22.720  26.838  1.00  0.00     0.321 C 
ATOM     17  O   UNL A   1      32.825  22.433  27.938  1.00  0.00    -0.248 OA
ATOM     18  H   UNL A   1      31.762  23.880  26.376  1.00  0.00     0.171 HD
BRANCH  16  19
ATOM     19  N   UNL A   1      34.637  22.526  26.558  1.00  0.00    -0.324 N 
ATOM     20  C   UNL A   1      37.362  20.825  24.699  1.00  0.00     0.010 C 
ATOM     21  C   UNL A   1      36.728  21.748  25.726  1.00  0.00     0.010 C 
ATOM     22  C   UNL A   1      35.309  21.318  26.086  1.00  0.00     0.125 C 
ATOM     23  C   UNL A   1      36.556  23.223  25.345  1.00  0.00     0.010 C 
ATOM     24  C   UNL A   1      35.509  23.680  26.372  1.00  0.00     0.125 C 
ATOM     25  C   UNL A   1      36.067  23.447  23.913  1.00  0.00     0.010 C 
ENDBRANCH  16  19
ENDBRANCH  10  15
BRANCH  14  26
ATOM     26  O   UNL A   1      33.152  23.903  20.483  1.00  0.00    -0.507 OA
ATOM     27  H   UNL A   1      33.918  24.324  20.146  1.00  0.00     0.293 HD
ENDBRANCH  14  26
ENDBRANCH   6   9
ENDBRANCH   4   5
ENDBRANCH   3   4
ENDBRANCH   2   3
ENDBRANCH   1   2
BRANCH   1  28
ATOM     28  C   UNL A   1      32.716  27.376  26.140  1.00  0.00     0.021 C 
BRANCH  28  29
ATOM     29  C   UNL A   1      33.963  28.167  26.528  1.00  0.00     0.116 C 
BRANCH  29  30
ATOM     30  N   UNL A   1      33.645  29.550  26.845  1.00  0.00    -0.352 N 
ATOM     31  C   UNL A   1      34.327  30.441  27.638  1.00  0.00     0.251 C 
ATOM     32  H   UNL A   1      32.822  29.898  26.434  1.00  0.00     0.163 HD
ATOM     33  O   UNL A   1      33.788  31.485  27.989  1.00  0.00    -0.269 OA
BRANCH  31  34
ATOM     34  C   UNL A   1      35.708  30.136  28.072  1.00  0.00     0.039 A 
ATOM     35  C   UNL A   1      35.924  29.672  29.372  1.00  0.00     0.014 A 
ATOM     36  C   UNL A   1      36.789  30.337  27.208  1.00  0.00     0.014 A 
ATOM     37  C   UNL A   1      37.221  29.361  29.790  1.00  0.00     0.010 A 
ATOM     38  C   UNL A   1      38.073  29.968  27.606  1.00  0.00     0.010 A 
ATOM     39  C   UNL A   1      38.303  29.482  28.902  1.00  0.00    -0.014 A 
BRANCH  39  40
ATOM     40  C   UNL A   1      39.680  29.110  29.312  1.00  0.00     0.031 A 
ATOM     41  C   UNL A   1      40.555  30.109  30.022  1.00  0.00     0.074 A 
ATOM     42  C   UNL A   1      40.169  27.897  28.984  1.00  0.00     0.049 A 
ATOM     43  N   UNL A   1      41.802  29.992  30.396  1.00  0.00    -0.248 NA
ATOM     44  C   UNL A   1      39.956  31.419  30.329  1.00  0.00     0.031 C 
ATOM     45  C   UNL A   1      39.436  26.856  28.258  1.00  0.00     0.029 A 
ATOM     46  N   UNL A   1      41.401  27.337  29.211  1.00  0.00    -0.354 N 
ATOM     47  C   UNL A   1      42.145  31.215  30.961  1.00  0.00     0.074 A 
ATOM     48  C   UNL A   1      40.987  32.074  30.844  1.00  0.00     0.031 C 
ATOM     49  C   UNL A   1      40.226  25.780  28.115  1.00  0.00     0.029 A 
ATOM     50  C   UNL A   1      41.531  26.065  28.703  1.00  0.00     0.049 A 
ATOM     51  H   UNL A   1      42.125  27.802  29.690  1.00  0.00     0.167 HD
ATOM     52  C   UNL A   1      43.312  31.585  31.542  1.00  0.00     0.031 A 
ATOM     53  C   UNL A   1      42.584  25.225  28.702  1.00  0.00     0.031 A 
ATOM     54  C   UNL A   1      44.455  30.721  31.675  1.00  0.00     0.049 A 
ATOM     55  C   UNL A   1      43.866  25.656  29.361  1.00  0.00     0.074 A 
ATOM     56  C   UNL A   1      45.660  30.981  32.305  1.00  0.00     0.029 A 
ATOM     57  N   UNL A   1      44.537  29.432  31.172  1.00  0.00    -0.354 N 
ATOM     58  N   UNL A   1      44.147  26.792  29.952  1.00  0.00    -0.248 NA
ATOM     59  C   UNL A   1      44.970  24.685  29.364  1.00  0.00     0.031 C 
ATOM     60  C   UNL A   1      46.488  29.866  32.141  1.00  0.00     0.029 A 
ATOM     61  C   UNL A   1      45.780  28.892  31.456  1.00  0.00     0.049 A 
ATOM     62  H   UNL A   1      43.818  28.970  30.685  1.00  0.00     0.167 HD
ATOM     63  C   UNL A   1      45.450  26.665  30.418  1.00  0.00     0.074 A 
ATOM     64  C   UNL A   1      45.896  25.335  30.055  1.00  0.00     0.031 C 
ATOM     65  C   UNL A   1      46.209  27.567  31.087  1.00  0.00     0.031 A 
BRANCH  52  66
ATOM     66  C   UNL A   1      43.414  32.990  32.073  1.00  0.00    -0.014 A 
ATOM     67  C   UNL A   1      43.199  33.270  33.436  1.00  0.00     0.010 A 
ATOM     68  C   UNL A   1      43.779  34.039  31.210  1.00  0.00     0.010 A 
ATOM     69  C   UNL A   1      43.310  34.578  33.916  1.00  0.00     0.020 A 
ATOM     70  C   UNL A   1      43.917  35.345  31.691  1.00  0.00     0.020 A 
ATOM     71  C   UNL A   1      43.666  35.607  33.040  1.00  0.00     0.054 A 
BRANCH  71  72
ATOM     72  S   UNL A   1      43.830  37.290  33.696  1.00  0.00     0.124 S 
ATOM     73  O   UNL A   1      44.873  37.119  34.704  1.00  0.00    -0.237 OA
ATOM     74  O   UNL A   1      44.220  38.057  32.515  1.00  0.00    -0.237 OA
ATOM     75  O   UNL A   1      42.500  37.591  34.219  1.00  0.00    -0.744 OA
ENDBRANCH  71  72
ENDBRANCH  52  66
BRANCH  53  76
ATOM     76  C   UNL A   1      42.467  23.887  28.061  1.00  0.00    -0.014 A 
ATOM     77  C   UNL A   1      42.685  23.734  26.680  1.00  0.00     0.010 A 
ATOM     78  C   UNL A   1      42.146  22.756  28.832  1.00  0.00     0.010 A 
ATOM     79  C   UNL A   1      42.565  22.477  26.080  1.00  0.00     0.020 A 
ATOM     80  C   UNL A   1      42.051  21.494  28.240  1.00  0.00     0.020 A 
ATOM     81  C   UNL A   1      42.249  21.364  26.865  1.00  0.00     0.054 A 
BRANCH  81  82
ATOM     82  S   UNL A   1      42.144  19.734  26.075  1.00  0.00     0.124 S 
ATOM     83  O   UNL A   1      40.738  19.673  25.691  1.00  0.00    -0.237 OA
ATOM     84  O   UNL A   1      43.098  19.854  24.975  1.00  0.00    -0.237 OA
ATOM     85  O   UNL A   1      42.545  18.815  27.138  1.00  0.00    -0.744 OA
ENDBRANCH  81  82
ENDBRANCH  53  76
BRANCH  65  86
ATOM     86  C   UNL A   1      47.591  27.138  31.500  1.00  0.00    -0.014 A 
ATOM     87  C   UNL A   1      47.825  26.538  32.749  1.00  0.00     0.010 A 
ATOM     88  C   UNL A   1      48.662  27.289  30.599  1.00  0.00     0.010 A 
ATOM     89  C   UNL A   1      49.112  26.125  33.104  1.00  0.00     0.020 A 
ATOM     90  C   UNL A   1      49.944  26.852  30.938  1.00  0.00     0.020 A 
ATOM     91  C   UNL A   1      50.164  26.285  32.195  1.00  0.00     0.054 A 
BRANCH  91  92
ATOM     92  S   UNL A   1      51.816  25.699  32.661  1.00  0.00     0.124 S 
ATOM     93  O   UNL A   1      51.661  25.459  34.092  1.00  0.00    -0.237 OA
ATOM     94  O   UNL A   1      51.977  24.504  31.837  1.00  0.00    -0.237 OA
ATOM     95  O   UNL A   1      52.690  26.814  32.307  1.00  0.00    -0.744 OA
ENDBRANCH  91  92
ENDBRANCH  65  86
ENDBRANCH  39  40
ENDBRANCH  31  34
ENDBRANCH  29  30
ENDBRANCH  28  29
ENDBRANCH   1  28
TORSDOF 19
ENDMDL
MODEL 2
REMARK VINA RESULT:     -10.6      3.535      8.904
REMARK SMILES C[C@@H]1CN(C(=O)Nc2ccc(O)c(C(=O)NCCCCCCNC(=O)c3ccc(-c4c5nc(c(-c6ccc(S(=O)(=O)[O-])cc6)c6ccc([nH]6)c(-c6ccc(S(=O)(=O)[O-])cc6)c6nc(c(-c7ccc(S(=O)(=O)[O-])cc7)c7ccc4[nH]7)C=C6)C=C5)cc3)c2)C[C@@H]1C
REMARK SMILES IDX 20 1 19 2 18 3 17 4 16 5 14 6 15 7 13 9 8 10 9 11 86 12
REMARK SMILES IDX 10 13 11 14 7 15 5 16 6 17 4 19 1 20 2 21 3 22 88 23 87 24
REMARK SMILES IDX 89 25 12 26 21 28 22 29 23 30 24 31 25 33 26 34 27 35 85 36
REMARK SMILES IDX 28 37 84 38 29 39 30 40 31 41 78 42 32 43 83 44 77 45 79 46
REMARK SMILES IDX 33 47 82 48 76 49 75 50 34 52 64 53 45 54 63 55 46 56 49 57
REMARK SMILES IDX 62 58 80 59 47 60 48 61 61 63 81 64 50 65 35 66 36 67 44 68
REMARK SMILES IDX 37 69 43 70 38 71 39 72 40 73 41 74 42 75 65 76 66 77 74 78
REMARK SMILES IDX 67 79 73 80 68 81 69 82 70 83 71 84 72 85 51 86 52 87 60 88
REMARK SMILES IDX 53 89 59 90 54 91 55 92 56 93 57 94 58 95
REMARK H PARENT 16 8 7 18 12 27 23 32 79 51 49 62
REMARK Flexibility Score: inf
ROOT
ATOM      1  C   UNL A   1      33.308  29.774  26.408  1.00  0.00     0.002 C 
ENDROOT
BRANCH   1   2
ATOM      2  C   UNL A   1      32.786  29.170  25.101  1.00  0.00     0.002 C 
BRANCH   2   3
ATOM      3  C   UNL A   1      33.872  28.750  24.104  1.00  0.00     0.021 C 
BRANCH   3   4
ATOM      4  C   UNL A   1      33.483  28.930  22.633  1.00  0.00     0.116 C 
BRANCH   4   5
ATOM      5  N   UNL A   1      32.045  28.850  22.486  1.00  0.00    -0.352 N 
ATOM      6  C   UNL A   1      31.200  27.795  22.274  1.00  0.00     0.255 C 
ATOM      7  O   UNL A   1      30.002  28.063  22.144  1.00  0.00    -0.269 OA
ATOM      8  H   UNL A   1      31.588  29.720  22.552  1.00  0.00     0.163 HD
BRANCH   6   9
ATOM      9  C   UNL A   1      31.595  26.355  22.293  1.00  0.00     0.083 A 
ATOM     10  C   UNL A   1      31.168  24.231  23.420  1.00  0.00     0.043 A 
ATOM     11  C   UNL A   1      32.035  23.582  22.550  1.00  0.00     0.030 A 
ATOM     12  C   UNL A   1      30.892  25.586  23.243  1.00  0.00     0.044 A 
ATOM     13  C   UNL A   1      32.728  24.317  21.593  1.00  0.00     0.049 A 
ATOM     14  C   UNL A   1      32.527  25.699  21.480  1.00  0.00     0.128 A 
BRANCH  10  15
ATOM     15  N   UNL A   1      30.552  23.567  24.483  1.00  0.00    -0.308 N 
ATOM     16  C   UNL A   1      31.080  22.824  25.496  1.00  0.00     0.321 C 
ATOM     17  O   UNL A   1      30.334  22.019  26.060  1.00  0.00    -0.248 OA
ATOM     18  H   UNL A   1      29.572  23.650  24.504  1.00  0.00     0.171 HD
BRANCH  16  19
ATOM     19  N   UNL A   1      32.343  23.093  25.967  1.00  0.00    -0.324 N 
ATOM     20  C   UNL A   1      36.038  23.006  25.623  1.00  0.00     0.010 C 
ATOM     21  C   UNL A   1      34.697  23.253  26.293  1.00  0.00     0.010 C 
ATOM     22  C   UNL A   1      33.591  22.381  25.706  1.00  0.00     0.125 C 
ATOM     23  C   UNL A   1      34.107  24.666  26.201  1.00  0.00     0.010 C 
ATOM     24  C   UNL A   1      32.633  24.401  26.544  1.00  0.00     0.125 C 
ATOM     25  C   UNL A   1      34.250  25.316  24.824  1.00  0.00     0.010 C 
ENDBRANCH  16  19
ENDBRANCH  10  15
BRANCH  14  26
ATOM     26  O   UNL A   1      33.250  26.342  20.522  1.00  0.00    -0.507 OA
ATOM     27  H   UNL A   1      33.258  26.016  19.643  1.00  0.00     0.293 HD
ENDBRANCH  14  26
ENDBRANCH   6   9
ENDBRANCH   4   5
ENDBRANCH   3   4
ENDBRANCH   2   3
ENDBRANCH   1   2
BRANCH   1  28
ATOM     28  C   UNL A   1      34.400  28.963  27.111  1.00  0.00     0.021 C 
BRANCH  28  29
ATOM     29  C   UNL A   1      35.559  29.792  27.660  1.00  0.00     0.116 C 
BRANCH  29  30
ATOM     30  N   UNL A   1      35.520  29.878  29.110  1.00  0.00    -0.352 N 
ATOM     31  C   UNL A   1      36.497  29.577  30.027  1.00  0.00     0.251 C 
ATOM     32  H   UNL A   1      34.670  30.198  29.491  1.00  0.00     0.163 HD
ATOM     33  O   UNL A   1      36.211  29.476  31.216  1.00  0.00    -0.269 OA
BRANCH  31  34
ATOM     34  C   UNL A   1      37.891  29.368  29.580  1.00  0.00     0.039 A 
ATOM     35  C   UNL A   1      38.859  29.007  30.521  1.00  0.00     0.014 A 
ATOM     36  C   UNL A   1      38.248  29.555  28.241  1.00  0.00     0.014 A 
ATOM     37  C   UNL A   1      40.177  28.787  30.110  1.00  0.00     0.010 A 
ATOM     38  C   UNL A   1      39.547  29.274  27.823  1.00  0.00     0.010 A 
ATOM     39  C   UNL A   1      40.526  28.894  28.753  1.00  0.00    -0.014 A 
BRANCH  39  40
ATOM     40  C   UNL A   1      41.909  28.615  28.290  1.00  0.00     0.031 A 
ATOM     41  C   UNL A   1      42.298  27.226  27.857  1.00  0.00     0.074 A 
ATOM     42  C   UNL A   1      42.833  29.596  28.324  1.00  0.00     0.049 A 
ATOM     43  N   UNL A   1      43.469  26.776  27.489  1.00  0.00    -0.248 NA
ATOM     44  C   UNL A   1      41.237  26.205  27.865  1.00  0.00     0.031 C 
ATOM     45  C   UNL A   1      42.592  30.973  28.765  1.00  0.00     0.029 A 
ATOM     46  N   UNL A   1      44.165  29.583  27.992  1.00  0.00    -0.354 N 
ATOM     47  C   UNL A   1      43.293  25.419  27.241  1.00  0.00     0.074 A 
ATOM     48  C   UNL A   1      41.912  25.111  27.542  1.00  0.00     0.031 C 
ATOM     49  C   UNL A   1      43.732  31.674  28.659  1.00  0.00     0.029 A 
ATOM     50  C   UNL A   1      44.792  30.793  28.180  1.00  0.00     0.049 A 
ATOM     51  H   UNL A   1      44.627  28.783  27.652  1.00  0.00     0.167 HD
ATOM     52  C   UNL A   1      44.194  24.516  26.788  1.00  0.00     0.031 A 
ATOM     53  C   UNL A   1      46.077  31.151  27.997  1.00  0.00     0.031 A 
ATOM     54  C   UNL A   1      45.562  24.831  26.471  1.00  0.00     0.049 A 
ATOM     55  C   UNL A   1      47.057  30.131  27.485  1.00  0.00     0.074 A 
ATOM     56  C   UNL A   1      46.536  24.000  25.944  1.00  0.00     0.029 A 
ATOM     57  N   UNL A   1      46.151  26.072  26.650  1.00  0.00    -0.354 N 
ATOM     58  N   UNL A   1      46.854  28.870  27.191  1.00  0.00    -0.248 NA
ATOM     59  C   UNL A   1      48.438  30.587  27.268  1.00  0.00     0.031 C 
ATOM     60  C   UNL A   1      47.726  24.727  25.850  1.00  0.00     0.029 A 
ATOM     61  C   UNL A   1      47.480  26.025  26.266  1.00  0.00     0.049 A 
ATOM     62  H   UNL A   1      45.692  26.870  26.998  1.00  0.00     0.167 HD
ATOM     63  C   UNL A   1      48.074  28.387  26.731  1.00  0.00     0.074 A 
ATOM     64  C   UNL A   1      49.004  29.497  26.771  1.00  0.00     0.031 C 
ATOM     65  C   UNL A   1      48.395  27.138  26.313  1.00  0.00     0.031 A 
BRANCH  52  66
ATOM     66  C   UNL A   1      43.731  23.093  26.613  1.00  0.00    -0.014 A 
ATOM     67  C   UNL A   1      44.014  22.377  25.435  1.00  0.00     0.010 A 
ATOM     68  C   UNL A   1      43.047  22.447  27.659  1.00  0.00     0.010 A 
ATOM     69  C   UNL A   1      43.588  21.053  25.293  1.00  0.00     0.020 A 
ATOM     70  C   UNL A   1      42.643  21.115  27.531  1.00  0.00     0.020 A 
ATOM     71  C   UNL A   1      42.903  20.432  26.340  1.00  0.00     0.054 A 
BRANCH  71  72
ATOM     72  S   UNL A   1      42.386  18.704  26.140  1.00  0.00     0.124 S 
ATOM     73  O   UNL A   1      40.995  18.854  25.722  1.00  0.00    -0.237 OA
ATOM     74  O   UNL A   1      43.301  18.214  25.111  1.00  0.00    -0.237 OA
ATOM     75  O   UNL A   1      42.580  18.127  27.467  1.00  0.00    -0.744 OA
ENDBRANCH  71  72
ENDBRANCH  52  66
BRANCH  53  76
ATOM     76  C   UNL A   1      46.510  32.544  28.295  1.00  0.00    -0.014 A 
ATOM     77  C   UNL A   1      46.324  33.568  27.350  1.00  0.00     0.010 A 
ATOM     78  C   UNL A   1      47.103  32.854  29.532  1.00  0.00     0.010 A 
ATOM     79  C   UNL A   1      46.740  34.873  27.630  1.00  0.00     0.020 A 
ATOM     80  C   UNL A   1      47.495  34.162  29.826  1.00  0.00     0.020 A 
ATOM     81  C   UNL A   1      47.323  35.162  28.867  1.00  0.00     0.054 A 
BRANCH  81  82
ATOM     82  S   UNL A   1      47.813  36.871  29.229  1.00  0.00     0.124 S 
ATOM     83  O   UNL A   1      47.450  36.998  30.636  1.00  0.00    -0.237 OA
ATOM     84  O   UNL A   1      49.245  36.857  28.942  1.00  0.00    -0.237 OA
ATOM     85  O   UNL A   1      47.007  37.660  28.299  1.00  0.00    -0.744 OA
ENDBRANCH  81  82
ENDBRANCH  53  76
BRANCH  65  86
ATOM     86  C   UNL A   1      49.802  26.908  25.834  1.00  0.00    -0.014 A 
ATOM     87  C   UNL A   1      50.169  27.163  24.501  1.00  0.00     0.010 A 
ATOM     88  C   UNL A   1      50.785  26.484  26.747  1.00  0.00     0.010 A 
ATOM     89  C   UNL A   1      51.487  26.967  24.082  1.00  0.00     0.020 A 
ATOM     90  C   UNL A   1      52.110  26.313  26.340  1.00  0.00     0.020 A 
ATOM     91  C   UNL A   1      52.450  26.543  25.005  1.00  0.00     0.054 A 
BRANCH  91  92
ATOM     92  S   UNL A   1      54.164  26.339  24.447  1.00  0.00     0.124 S 
ATOM     93  O   UNL A   1      54.846  27.410  25.166  1.00  0.00    -0.237 OA
ATOM     94  O   UNL A   1      54.485  24.983  24.885  1.00  0.00    -0.237 OA
ATOM     95  O   UNL A   1      54.079  26.515  22.999  1.00  0.00    -0.744 OA
ENDBRANCH  91  92
ENDBRANCH  65  86
ENDBRANCH  39  40
ENDBRANCH  31  34
ENDBRANCH  29  30
ENDBRANCH  28  29
ENDBRANCH   1  28
TORSDOF 19
ENDMDL
MODEL 3
REMARK VINA RESULT:     -10.5      4.175     10.185
REMARK SMILES C[C@@H]1CN(C(=O)Nc2ccc(O)c(C(=O)NCCCCCCNC(=O)c3ccc(-c4c5nc(c(-c6ccc(S(=O)(=O)[O-])cc6)c6ccc([nH]6)c(-c6ccc(S(=O)(=O)[O-])cc6)c6nc(c(-c7ccc(S(=O)(=O)[O-])cc7)c7ccc4[nH]7)C=C6)C=C5)cc3)c2)C[C@@H]1C
REMARK SMILES IDX 20 1 19 2 18 3 17 4 16 5 14 6 15 7 13 9 8 10 9 11 86 12
REMARK SMILES IDX 10 13 11 14 7 15 5 16 6 17 4 19 1 20 2 21 3 22 88 23 87 24
REMARK SMILES IDX 89 25 12 26 21 28 22 29 23 30 24 31 25 33 26 34 27 35 85 36
REMARK SMILES IDX 28 37 84 38 29 39 30 40 31 41 78 42 32 43 83 44 77 45 79 46
REMARK SMILES IDX 33 47 82 48 76 49 75 50 34 52 64 53 45 54 63 55 46 56 49 57
REMARK SMILES IDX 62 58 80 59 47 60 48 61 61 63 81 64 50 65 35 66 36 67 44 68
REMARK SMILES IDX 37 69 43 70 38 71 39 72 40 73 41 74 42 75 65 76 66 77 74 78
REMARK SMILES IDX 67 79 73 80 68 81 69 82 70 83 71 84 72 85 51 86 52 87 60 88
REMARK SMILES IDX 53 89 59 90 54 91 55 92 56 93 57 94 58 95
REMARK H PARENT 16 8 7 18 12 27 23 32 79 51 49 62
REMARK Flexibility Score: inf
ROOT
ATOM      1  C   UNL A   1      41.148  21.873  27.985  1.00  0.00     0.002 C 
ENDROOT
BRANCH   1   2
ATOM      2  C   UNL A   1      40.331  21.328  26.810  1.00  0.00     0.002 C 
BRANCH   2   3
ATOM      3  C   UNL A   1      39.345  22.326  26.191  1.00  0.00     0.021 C 
BRANCH   3   4
ATOM      4  C   UNL A   1      38.048  21.693  25.676  1.00  0.00     0.116 C 
BRANCH   4   5
ATOM      5  N   UNL A   1      37.696  22.257  24.390  1.00  0.00    -0.352 N 
ATOM      6  C   UNL A   1      36.528  22.777  23.903  1.00  0.00     0.255 C 
ATOM      7  O   UNL A   1      36.534  23.143  22.724  1.00  0.00    -0.269 OA
ATOM      8  H   UNL A   1      38.439  22.270  23.743  1.00  0.00     0.163 HD
BRANCH   6   9
ATOM      9  C   UNL A   1      35.295  23.029  24.705  1.00  0.00     0.083 A 
ATOM     10  C   UNL A   1      33.924  24.807  25.667  1.00  0.00     0.043 A 
ATOM     11  C   UNL A   1      33.001  23.870  26.114  1.00  0.00     0.030 A 
ATOM     12  C   UNL A   1      35.016  24.396  24.904  1.00  0.00     0.044 A 
ATOM     13  C   UNL A   1      33.244  22.514  25.915  1.00  0.00     0.049 A 
ATOM     14  C   UNL A   1      34.395  22.095  25.235  1.00  0.00     0.128 A 
BRANCH  10  15
ATOM     15  N   UNL A   1      33.797  26.167  25.958  1.00  0.00    -0.308 N 
ATOM     16  C   UNL A   1      33.584  27.238  25.142  1.00  0.00     0.321 C 
ATOM     17  O   UNL A   1      33.913  28.350  25.564  1.00  0.00    -0.248 OA
ATOM     18  H   UNL A   1      33.877  26.390  26.913  1.00  0.00     0.171 HD
BRANCH  16  19
ATOM     19  N   UNL A   1      32.876  27.088  23.973  1.00  0.00    -0.324 N 
ATOM     20  C   UNL A   1      32.421  25.588  20.609  1.00  0.00     0.010 C 
ATOM     21  C   UNL A   1      32.127  26.494  21.792  1.00  0.00     0.010 C 
ATOM     22  C   UNL A   1      33.369  26.755  22.639  1.00  0.00     0.125 C 
ATOM     23  C   UNL A   1      31.102  26.006  22.823  1.00  0.00     0.010 C 
ATOM     24  C   UNL A   1      31.430  26.906  24.025  1.00  0.00     0.125 C 
ATOM     25  C   UNL A   1      31.234  24.525  23.184  1.00  0.00     0.010 C 
ENDBRANCH  16  19
ENDBRANCH  10  15
BRANCH  14  26
ATOM     26  O   UNL A   1      34.560  20.751  25.090  1.00  0.00    -0.507 OA
ATOM     27  H   UNL A   1      33.839  20.172  25.244  1.00  0.00     0.293 HD
ENDBRANCH  14  26
ENDBRANCH   6   9
ENDBRANCH   4   5
ENDBRANCH   3   4
ENDBRANCH   2   3
ENDBRANCH   1   2
BRANCH   1  28
ATOM     28  C   UNL A   1      42.609  22.200  27.667  1.00  0.00     0.021 C 
BRANCH  28  29
ATOM     29  C   UNL A   1      42.931  23.692  27.597  1.00  0.00     0.116 C 
BRANCH  29  30
ATOM     30  N   UNL A   1      42.482  24.281  26.346  1.00  0.00    -0.352 N 
ATOM     31  C   UNL A   1      41.718  25.403  26.136  1.00  0.00     0.251 C 
ATOM     32  H   UNL A   1      42.765  23.806  25.532  1.00  0.00     0.163 HD
ATOM     33  O   UNL A   1      41.232  25.615  25.030  1.00  0.00    -0.269 OA
BRANCH  31  34
ATOM     34  C   UNL A   1      41.478  26.351  27.246  1.00  0.00     0.039 A 
ATOM     35  C   UNL A   1      40.459  26.079  28.163  1.00  0.00     0.014 A 
ATOM     36  C   UNL A   1      42.236  27.519  27.364  1.00  0.00     0.014 A 
ATOM     37  C   UNL A   1      40.233  26.955  29.228  1.00  0.00     0.010 A 
ATOM     38  C   UNL A   1      42.051  28.359  28.462  1.00  0.00     0.010 A 
ATOM     39  C   UNL A   1      41.044  28.088  29.401  1.00  0.00    -0.014 A 
BRANCH  39  40
ATOM     40  C   UNL A   1      40.852  29.004  30.554  1.00  0.00     0.031 A 
ATOM     41  C   UNL A   1      41.686  28.843  31.796  1.00  0.00     0.074 A 
ATOM     42  C   UNL A   1      39.879  29.936  30.509  1.00  0.00     0.049 A 
ATOM     43  N   UNL A   1      41.617  29.499  32.925  1.00  0.00    -0.248 NA
ATOM     44  C   UNL A   1      42.716  27.791  31.776  1.00  0.00     0.031 C 
ATOM     45  C   UNL A   1      38.973  30.163  29.379  1.00  0.00     0.029 A 
ATOM     46  N   UNL A   1      39.481  30.861  31.442  1.00  0.00    -0.354 N 
ATOM     47  C   UNL A   1      42.575  28.928  33.756  1.00  0.00     0.074 A 
ATOM     48  C   UNL A   1      43.184  27.845  33.014  1.00  0.00     0.031 C 
ATOM     49  C   UNL A   1      38.140  31.172  29.679  1.00  0.00     0.029 A 
ATOM     50  C   UNL A   1      38.424  31.640  31.032  1.00  0.00     0.049 A 
ATOM     51  H   UNL A   1      39.912  30.958  32.322  1.00  0.00     0.167 HD
ATOM     52  C   UNL A   1      42.929  29.283  35.013  1.00  0.00     0.031 A 
ATOM     53  C   UNL A   1      37.752  32.614  31.675  1.00  0.00     0.031 A 
ATOM     54  C   UNL A   1      42.335  30.374  35.740  1.00  0.00     0.049 A 
ATOM     55  C   UNL A   1      38.170  32.996  33.068  1.00  0.00     0.074 A 
ATOM     56  C   UNL A   1      42.669  30.854  36.995  1.00  0.00     0.029 A 
ATOM     57  N   UNL A   1      41.286  31.155  35.280  1.00  0.00    -0.354 N 
ATOM     58  N   UNL A   1      39.125  32.489  33.810  1.00  0.00    -0.248 NA
ATOM     59  C   UNL A   1      37.426  34.091  33.708  1.00  0.00     0.031 C 
ATOM     60  C   UNL A   1      41.789  31.894  37.313  1.00  0.00     0.029 A 
ATOM     61  C   UNL A   1      40.944  32.098  36.234  1.00  0.00     0.049 A 
ATOM     62  H   UNL A   1      40.849  31.053  34.404  1.00  0.00     0.167 HD
ATOM     63  C   UNL A   1      39.114  33.219  34.992  1.00  0.00     0.074 A 
ATOM     64  C   UNL A   1      38.068  34.212  34.861  1.00  0.00     0.031 C 
ATOM     65  C   UNL A   1      39.899  33.080  36.089  1.00  0.00     0.031 A 
BRANCH  52  66
ATOM     66  C   UNL A   1      44.007  28.479  35.691  1.00  0.00    -0.014 A 
ATOM     67  C   UNL A   1      43.693  27.343  36.459  1.00  0.00     0.010 A 
ATOM     68  C   UNL A   1      45.357  28.834  35.516  1.00  0.00     0.010 A 
ATOM     69  C   UNL A   1      44.706  26.600  37.071  1.00  0.00     0.020 A 
ATOM     70  C   UNL A   1      46.375  28.078  36.105  1.00  0.00     0.020 A 
ATOM     71  C   UNL A   1      46.041  26.974  36.892  1.00  0.00     0.054 A 
BRANCH  71  72
ATOM     72  S   UNL A   1      47.337  25.975  37.675  1.00  0.00     0.124 S 
ATOM     73  O   UNL A   1      48.446  26.135  36.738  1.00  0.00    -0.237 OA
ATOM     74  O   UNL A   1      47.509  26.631  38.969  1.00  0.00    -0.237 OA
ATOM     75  O   UNL A   1      46.757  24.635  37.731  1.00  0.00    -0.744 OA
ENDBRANCH  71  72
ENDBRANCH  52  66
BRANCH  53  76
ATOM     76  C   UNL A   1      36.616  33.302  31.002  1.00  0.00    -0.014 A 
ATOM     77  C   UNL A   1      35.318  33.229  31.537  1.00  0.00     0.010 A 
ATOM     78  C   UNL A   1      36.831  34.042  29.826  1.00  0.00     0.010 A 
ATOM     79  C   UNL A   1      34.252  33.869  30.897  1.00  0.00     0.020 A 
ATOM     80  C   UNL A   1      35.773  34.705  29.199  1.00  0.00     0.020 A 
ATOM     81  C   UNL A   1      34.487  34.604  29.731  1.00  0.00     0.054 A 
BRANCH  81  82
ATOM     82  S   UNL A   1      33.099  35.466  28.943  1.00  0.00     0.124 S 
ATOM     83  O   UNL A   1      32.482  34.397  28.164  1.00  0.00    -0.237 OA
ATOM     84  O   UNL A   1      32.329  35.942  30.089  1.00  0.00    -0.237 OA
ATOM     85  O   UNL A   1      33.751  36.516  28.161  1.00  0.00    -0.744 OA
ENDBRANCH  81  82
ENDBRANCH  53  76
BRANCH  65  86
ATOM     86  C   UNL A   1      39.681  34.042  37.224  1.00  0.00    -0.014 A 
ATOM     87  C   UNL A   1      38.970  33.662  38.375  1.00  0.00     0.010 A 
ATOM     88  C   UNL A   1      40.244  35.330  37.160  1.00  0.00     0.010 A 
ATOM     89  C   UNL A   1      38.799  34.562  39.430  1.00  0.00     0.020 A 
ATOM     90  C   UNL A   1      40.100  36.224  38.223  1.00  0.00     0.020 A 
ATOM     91  C   UNL A   1      39.365  35.839  39.347  1.00  0.00     0.054 A 
BRANCH  91  92
ATOM     92  S   UNL A   1      39.169  36.974  40.747  1.00  0.00     0.124 S 
ATOM     93  O   UNL A   1      38.367  36.179  41.672  1.00  0.00    -0.237 OA
ATOM     94  O   UNL A   1      40.548  37.218  41.159  1.00  0.00    -0.237 OA
ATOM     95  O   UNL A   1      38.487  38.127  40.164  1.00  0.00    -0.744 OA
ENDBRANCH  91  92
ENDBRANCH  65  86
ENDBRANCH  39  40
ENDBRANCH  31  34
ENDBRANCH  29  30
ENDBRANCH  28  29
ENDBRANCH   1  28
TORSDOF 19
ENDMDL
