MODEL 1
REMARK VINA RESULT:     -12.6      0.000      0.000
REMARK SMILES CCN1C(=O)C[C@@H](C(=O)Nc2cccc(C(=O)NCCCCCCNC(=O)c3ccc(-c4c5nc(c(-c6ccc(S(=O)(=O)[O-])cc6)c6ccc([nH]6)c(-c6ccc(S(=O)(=O)[O-])cc6)c6nc(c(-c7ccc(S(=O)(=O)[O-])cc7)c7ccc4[nH]7)C=C6)C=C5)cc3)c2)S/C1=[NH+]/c1ccccc1
REMARK SMILES IDX 21 1 20 2 19 3 18 4 16 5 17 6 15 8 11 9 12 10 88 11 13 12
REMARK SMILES IDX 14 13 10 14 8 15 9 16 7 18 3 19 4 20 90 21 5 22 6 23 89 24
REMARK SMILES IDX 91 25 2 27 1 28 92 29 93 30 97 31 94 32 96 33 95 34 22 35
REMARK SMILES IDX 23 36 24 37 25 38 26 39 27 41 28 42 29 43 87 44 30 45 86 46
REMARK SMILES IDX 31 47 32 48 33 49 80 50 34 51 85 52 79 53 81 54 35 55 84 56
REMARK SMILES IDX 78 57 77 58 36 60 66 61 47 62 65 63 48 64 51 65 64 66 82 67
REMARK SMILES IDX 49 68 50 69 63 71 83 72 52 73 37 74 38 75 46 76 39 77 45 78
REMARK SMILES IDX 40 79 41 80 42 81 43 82 44 83 67 84 68 85 76 86 69 87 75 88
REMARK SMILES IDX 70 89 71 90 72 91 73 92 74 93 53 94 54 95 62 96 55 97 61 98
REMARK SMILES IDX 56 99 57 100 58 101 59 102 60 103
REMARK H PARENT 18 7 10 17 91 26 25 40 81 59 51 70
REMARK Flexibility Score: inf
ROOT
ATOM      1  C   UNL A   1      36.164  22.781  25.141  1.00  0.00     0.002 C 
ENDROOT
BRANCH   1   2
ATOM      2  C   UNL A   1      35.747  21.481  25.830  1.00  0.00     0.021 C 
BRANCH   2   3
ATOM      3  C   UNL A   1      35.537  20.255  24.949  1.00  0.00     0.116 C 
BRANCH   3   4
ATOM      4  N   UNL A   1      34.441  19.367  25.307  1.00  0.00    -0.352 N 
ATOM      5  C   UNL A   1      33.083  19.508  25.092  1.00  0.00     0.251 C 
ATOM      6  O   UNL A   1      32.326  18.594  25.417  1.00  0.00    -0.269 OA
ATOM      7  H   UNL A   1      34.708  18.541  25.771  1.00  0.00     0.163 HD
BRANCH   5   8
ATOM      8  C   UNL A   1      32.493  20.756  24.521  1.00  0.00     0.041 A 
ATOM      9  C   UNL A   1      31.227  22.813  24.777  1.00  0.00     0.041 A 
ATOM     10  C   UNL A   1      31.113  22.906  23.388  1.00  0.00     0.026 A 
ATOM     11  C   UNL A   1      31.962  21.768  25.323  1.00  0.00     0.040 A 
ATOM     12  C   UNL A   1      31.763  21.982  22.565  1.00  0.00     0.003 A 
ATOM     13  C   UNL A   1      32.444  20.902  23.130  1.00  0.00     0.014 A 
BRANCH   9  14
ATOM     14  N   UNL A   1      30.476  23.696  25.569  1.00  0.00    -0.325 N 
ATOM     15  C   UNL A   1      30.309  25.054  25.555  1.00  0.00     0.238 C 
ATOM     16  O   UNL A   1      30.051  25.580  26.645  1.00  0.00    -0.273 OA
ATOM     17  H   UNL A   1      29.963  23.245  26.279  1.00  0.00     0.169 HD
BRANCH  15  18
ATOM     18  C   UNL A   1      30.298  25.904  24.270  1.00  0.00     0.160 C 
ATOM     19  N   UNL A   1      30.293  28.783  23.580  1.00  0.00    -0.191 N 
ATOM     20  C   UNL A   1      31.384  27.990  23.282  1.00  0.00     0.311 C 
ATOM     21  C   UNL A   1      28.994  28.316  23.554  1.00  0.00     0.319 C 
ATOM     22  O   UNL A   1      32.293  28.353  22.534  1.00  0.00    -0.247 OA
ATOM     23  C   UNL A   1      31.540  26.732  24.074  1.00  0.00     0.153 C 
ATOM     24  S   UNL A   1      28.692  26.645  23.984  1.00  0.00    -0.024 SA
ATOM     25  N   UNL A   1      27.908  28.968  23.289  1.00  0.00    -0.235 N 
ATOM     26  H   UNL A   1      27.057  28.578  23.597  1.00  0.00     0.313 HD
BRANCH  19  27
ATOM     27  C   UNL A   1      30.591  30.148  24.019  1.00  0.00     0.243 C 
ATOM     28  C   UNL A   1      31.147  30.307  25.425  1.00  0.00     0.054 C 
ENDBRANCH  19  27
BRANCH  25  29
ATOM     29  C   UNL A   1      27.846  30.183  22.598  1.00  0.00     0.125 A 
ATOM     30  C   UNL A   1      28.103  30.247  21.224  1.00  0.00     0.051 A 
ATOM     31  C   UNL A   1      27.738  31.381  23.310  1.00  0.00     0.051 A 
ATOM     32  C   UNL A   1      28.257  31.477  20.578  1.00  0.00     0.004 A 
ATOM     33  C   UNL A   1      27.862  32.614  22.665  1.00  0.00     0.004 A 
ATOM     34  C   UNL A   1      28.134  32.662  21.299  1.00  0.00     0.000 A 
ENDBRANCH  25  29
ENDBRANCH  15  18
ENDBRANCH   9  14
ENDBRANCH   5   8
ENDBRANCH   3   4
ENDBRANCH   2   3
ENDBRANCH   1   2
BRANCH   1  35
ATOM     35  C   UNL A   1      37.353  23.528  25.741  1.00  0.00     0.002 C 
BRANCH  35  36
ATOM     36  C   UNL A   1      38.538  22.703  26.236  1.00  0.00     0.021 C 
BRANCH  36  37
ATOM     37  C   UNL A   1      39.636  23.470  26.950  1.00  0.00     0.116 C 
BRANCH  37  38
ATOM     38  N   UNL A   1      40.769  23.781  26.093  1.00  0.00    -0.352 N 
ATOM     39  C   UNL A   1      41.679  24.809  26.189  1.00  0.00     0.251 C 
ATOM     40  H   UNL A   1      40.903  23.167  25.334  1.00  0.00     0.163 HD
ATOM     41  O   UNL A   1      42.498  24.989  25.298  1.00  0.00    -0.269 OA
BRANCH  39  42
ATOM     42  C   UNL A   1      41.643  25.713  27.362  1.00  0.00     0.039 A 
ATOM     43  C   UNL A   1      42.552  26.773  27.428  1.00  0.00     0.014 A 
ATOM     44  C   UNL A   1      40.708  25.528  28.382  1.00  0.00     0.014 A 
ATOM     45  C   UNL A   1      42.471  27.691  28.479  1.00  0.00     0.010 A 
ATOM     46  C   UNL A   1      40.574  26.489  29.380  1.00  0.00     0.010 A 
ATOM     47  C   UNL A   1      41.454  27.580  29.441  1.00  0.00    -0.014 A 
BRANCH  47  48
ATOM     48  C   UNL A   1      41.284  28.587  30.520  1.00  0.00     0.031 A 
ATOM     49  C   UNL A   1      42.139  28.517  31.757  1.00  0.00     0.074 A 
ATOM     50  C   UNL A   1      40.299  29.503  30.432  1.00  0.00     0.049 A 
ATOM     51  N   UNL A   1      42.069  29.229  32.852  1.00  0.00    -0.248 NA
ATOM     52  C   UNL A   1      43.192  27.489  31.775  1.00  0.00     0.031 C 
ATOM     53  C   UNL A   1      39.372  29.645  29.308  1.00  0.00     0.029 A 
ATOM     54  N   UNL A   1      39.900  30.476  31.316  1.00  0.00    -0.354 N 
ATOM     55  C   UNL A   1      43.050  28.722  33.696  1.00  0.00     0.074 A 
ATOM     56  C   UNL A   1      43.662  27.606  33.007  1.00  0.00     0.031 C 
ATOM     57  C   UNL A   1      38.520  30.650  29.564  1.00  0.00     0.029 A 
ATOM     58  C   UNL A   1      38.806  31.193  30.888  1.00  0.00     0.049 A 
ATOM     59  H   UNL A   1      40.353  30.644  32.174  1.00  0.00     0.167 HD
ATOM     60  C   UNL A   1      43.420  29.154  34.925  1.00  0.00     0.031 A 
ATOM     61  C   UNL A   1      38.098  32.163  31.499  1.00  0.00     0.031 A 
ATOM     62  C   UNL A   1      42.803  30.260  35.607  1.00  0.00     0.049 A 
ATOM     63  C   UNL A   1      38.515  32.622  32.869  1.00  0.00     0.074 A 
ATOM     64  C   UNL A   1      43.135  30.812  36.831  1.00  0.00     0.029 A 
ATOM     65  N   UNL A   1      41.718  30.980  35.126  1.00  0.00    -0.354 N 
ATOM     66  N   UNL A   1      39.492  32.177  33.625  1.00  0.00    -0.248 NA
ATOM     67  C   UNL A   1      37.747  33.724  33.464  1.00  0.00     0.031 C 
ATOM     68  C   UNL A   1      42.214  31.825  37.118  1.00  0.00     0.029 A 
ATOM     69  C   UNL A   1      41.352  31.954  36.041  1.00  0.00     0.049 A 
ATOM     70  H   UNL A   1      41.274  30.823  34.262  1.00  0.00     0.167 HD
ATOM     71  C   UNL A   1      39.471  32.961  34.773  1.00  0.00     0.074 A 
ATOM     72  C   UNL A   1      38.395  33.916  34.606  1.00  0.00     0.031 C 
ATOM     73  C   UNL A   1      40.274  32.897  35.863  1.00  0.00     0.031 A 
BRANCH  60  74
ATOM     74  C   UNL A   1      44.535  28.406  35.614  1.00  0.00    -0.014 A 
ATOM     75  C   UNL A   1      44.280  27.245  36.368  1.00  0.00     0.010 A 
ATOM     76  C   UNL A   1      45.860  28.868  35.503  1.00  0.00     0.010 A 
ATOM     77  C   UNL A   1      45.314  26.601  37.052  1.00  0.00     0.020 A 
ATOM     78  C   UNL A   1      46.904  28.206  36.157  1.00  0.00     0.020 A 
ATOM     79  C   UNL A   1      46.620  27.091  36.948  1.00  0.00     0.054 A 
BRANCH  79  80
ATOM     80  S   UNL A   1      47.940  26.244  37.857  1.00  0.00     0.124 S 
ATOM     81  O   UNL A   1      48.219  25.102  36.989  1.00  0.00    -0.237 OA
ATOM     82  O   UNL A   1      48.991  27.258  37.915  1.00  0.00    -0.237 OA
ATOM     83  O   UNL A   1      47.325  25.915  39.140  1.00  0.00    -0.744 OA
ENDBRANCH  79  80
ENDBRANCH  60  74
BRANCH  61  84
ATOM     84  C   UNL A   1      36.920  32.758  30.808  1.00  0.00    -0.014 A 
ATOM     85  C   UNL A   1      35.619  32.549  31.295  1.00  0.00     0.010 A 
ATOM     86  C   UNL A   1      37.104  33.579  29.678  1.00  0.00     0.010 A 
ATOM     87  C   UNL A   1      34.522  33.145  30.663  1.00  0.00     0.020 A 
ATOM     88  C   UNL A   1      36.014  34.199  29.062  1.00  0.00     0.020 A 
ATOM     89  C   UNL A   1      34.727  33.974  29.555  1.00  0.00     0.054 A 
BRANCH  89  90
ATOM     90  S   UNL A   1      33.297  34.798  28.801  1.00  0.00     0.124 S 
ATOM     91  O   UNL A   1      32.408  34.971  29.945  1.00  0.00    -0.237 OA
ATOM     92  O   UNL A   1      33.886  36.022  28.264  1.00  0.00    -0.237 OA
ATOM     93  O   UNL A   1      32.842  33.841  27.794  1.00  0.00    -0.744 OA
ENDBRANCH  89  90
ENDBRANCH  61  84
BRANCH  73  94
ATOM     94  C   UNL A   1      40.052  33.913  36.955  1.00  0.00    -0.014 A 
ATOM     95  C   UNL A   1      40.599  35.207  36.876  1.00  0.00     0.010 A 
ATOM     96  C   UNL A   1      39.224  33.585  38.045  1.00  0.00     0.010 A 
ATOM     97  C   UNL A   1      40.342  36.144  37.881  1.00  0.00     0.020 A 
ATOM     98  C   UNL A   1      38.941  34.528  39.035  1.00  0.00     0.020 A 
ATOM     99  C   UNL A   1      39.511  35.799  38.952  1.00  0.00     0.054 A 
BRANCH  99 100
ATOM    100  S   UNL A   1      39.149  37.052  40.213  1.00  0.00     0.124 S 
ATOM    101  O   UNL A   1      38.306  36.310  41.146  1.00  0.00    -0.237 OA
ATOM    102  O   UNL A   1      40.478  37.401  40.708  1.00  0.00    -0.237 OA
ATOM    103  O   UNL A   1      38.471  38.109  39.468  1.00  0.00    -0.744 OA
ENDBRANCH  99 100
ENDBRANCH  73  94
ENDBRANCH  47  48
ENDBRANCH  39  42
ENDBRANCH  37  38
ENDBRANCH  36  37
ENDBRANCH  35  36
ENDBRANCH   1  35
TORSDOF 20
ENDMDL
MODEL 2
REMARK VINA RESULT:     -12.6      0.761      7.743
REMARK SMILES CCN1C(=O)C[C@@H](C(=O)Nc2cccc(C(=O)NCCCCCCNC(=O)c3ccc(-c4c5nc(c(-c6ccc(S(=O)(=O)[O-])cc6)c6ccc([nH]6)c(-c6ccc(S(=O)(=O)[O-])cc6)c6nc(c(-c7ccc(S(=O)(=O)[O-])cc7)c7ccc4[nH]7)C=C6)C=C5)cc3)c2)S/C1=[NH+]/c1ccccc1
REMARK SMILES IDX 21 1 20 2 19 3 18 4 16 5 17 6 15 8 11 9 12 10 88 11 13 12
REMARK SMILES IDX 14 13 10 14 8 15 9 16 7 18 3 19 4 20 90 21 5 22 6 23 89 24
REMARK SMILES IDX 91 25 2 27 1 28 92 29 93 30 97 31 94 32 96 33 95 34 22 35
REMARK SMILES IDX 23 36 24 37 25 38 26 39 27 41 28 42 29 43 87 44 30 45 86 46
REMARK SMILES IDX 31 47 32 48 33 49 80 50 34 51 85 52 79 53 81 54 35 55 84 56
REMARK SMILES IDX 78 57 77 58 36 60 66 61 47 62 65 63 48 64 51 65 64 66 82 67
REMARK SMILES IDX 49 68 50 69 63 71 83 72 52 73 37 74 38 75 46 76 39 77 45 78
REMARK SMILES IDX 40 79 41 80 42 81 43 82 44 83 67 84 68 85 76 86 69 87 75 88
REMARK SMILES IDX 70 89 71 90 72 91 73 92 74 93 53 94 54 95 62 96 55 97 61 98
REMARK SMILES IDX 56 99 57 100 58 101 59 102 60 103
REMARK H PARENT 18 7 10 17 91 26 25 40 81 59 51 70
REMARK Flexibility Score: inf
ROOT
ATOM      1  C   UNL A   1      35.950  22.728  25.074  1.00  0.00     0.002 C 
ENDROOT
BRANCH   1   2
ATOM      2  C   UNL A   1      35.670  21.428  25.828  1.00  0.00     0.021 C 
BRANCH   2   3
ATOM      3  C   UNL A   1      35.567  20.147  25.007  1.00  0.00     0.116 C 
BRANCH   3   4
ATOM      4  N   UNL A   1      34.456  19.259  25.309  1.00  0.00    -0.352 N 
ATOM      5  C   UNL A   1      33.109  19.406  25.038  1.00  0.00     0.251 C 
ATOM      6  O   UNL A   1      32.337  18.491  25.322  1.00  0.00    -0.269 OA
ATOM      7  H   UNL A   1      34.701  18.428  25.775  1.00  0.00     0.163 HD
BRANCH   5   8
ATOM      8  C   UNL A   1      32.545  20.661  24.456  1.00  0.00     0.041 A 
ATOM      9  C   UNL A   1      31.238  22.697  24.668  1.00  0.00     0.041 A 
ATOM     10  C   UNL A   1      31.225  22.823  23.278  1.00  0.00     0.026 A 
ATOM     11  C   UNL A   1      31.945  21.647  25.242  1.00  0.00     0.040 A 
ATOM     12  C   UNL A   1      31.945  21.927  22.482  1.00  0.00     0.003 A 
ATOM     13  C   UNL A   1      32.596  20.841  23.069  1.00  0.00     0.014 A 
BRANCH   9  14
ATOM     14  N   UNL A   1      30.420  23.552  25.424  1.00  0.00    -0.325 N 
ATOM     15  C   UNL A   1      30.276  24.912  25.467  1.00  0.00     0.238 C 
ATOM     16  O   UNL A   1      29.912  25.385  26.551  1.00  0.00    -0.273 OA
ATOM     17  H   UNL A   1      29.829  23.075  26.050  1.00  0.00     0.169 HD
BRANCH  15  18
ATOM     18  C   UNL A   1      30.414  25.829  24.236  1.00  0.00     0.160 C 
ATOM     19  N   UNL A   1      30.602  28.737  23.716  1.00  0.00    -0.191 N 
ATOM     20  C   UNL A   1      31.676  27.906  23.463  1.00  0.00     0.311 C 
ATOM     21  C   UNL A   1      29.289  28.339  23.556  1.00  0.00     0.319 C 
ATOM     22  O   UNL A   1      32.661  28.261  22.814  1.00  0.00    -0.247 OA
ATOM     23  C   UNL A   1      31.705  26.601  24.191  1.00  0.00     0.153 C 
ATOM     24  S   UNL A   1      28.874  26.665  23.864  1.00  0.00    -0.024 SA
ATOM     25  N   UNL A   1      28.261  29.060  23.242  1.00  0.00    -0.235 N 
ATOM     26  H   UNL A   1      27.371  28.698  23.456  1.00  0.00     0.313 HD
BRANCH  19  27
ATOM     27  C   UNL A   1      30.926  30.059  24.255  1.00  0.00     0.243 C 
ATOM     28  C   UNL A   1      31.595  30.095  25.620  1.00  0.00     0.054 C 
ENDBRANCH  19  27
BRANCH  25  29
ATOM     29  C   UNL A   1      28.316  30.312  22.619  1.00  0.00     0.125 A 
ATOM     30  C   UNL A   1      28.237  31.494  23.365  1.00  0.00     0.051 A 
ATOM     31  C   UNL A   1      28.235  30.399  21.226  1.00  0.00     0.051 A 
ATOM     32  C   UNL A   1      28.072  32.731  22.736  1.00  0.00     0.004 A 
ATOM     33  C   UNL A   1      28.099  31.635  20.590  1.00  0.00     0.004 A 
ATOM     34  C   UNL A   1      28.005  32.802  21.346  1.00  0.00     0.000 A 
ENDBRANCH  25  29
ENDBRANCH  15  18
ENDBRANCH   9  14
ENDBRANCH   5   8
ENDBRANCH   3   4
ENDBRANCH   2   3
ENDBRANCH   1   2
BRANCH   1  35
ATOM     35  C   UNL A   1      37.001  23.661  25.674  1.00  0.00     0.002 C 
BRANCH  35  36
ATOM     36  C   UNL A   1      38.302  23.040  26.174  1.00  0.00     0.021 C 
BRANCH  36  37
ATOM     37  C   UNL A   1      39.276  23.986  26.855  1.00  0.00     0.116 C 
BRANCH  37  38
ATOM     38  N   UNL A   1      40.157  24.669  25.921  1.00  0.00    -0.352 N 
ATOM     39  C   UNL A   1      40.840  25.855  26.075  1.00  0.00     0.251 C 
ATOM     40  H   UNL A   1      40.285  24.218  25.055  1.00  0.00     0.163 HD
ATOM     41  O   UNL A   1      41.440  26.345  25.128  1.00  0.00    -0.269 OA
BRANCH  39  42
ATOM     42  C   UNL A   1      40.818  26.549  27.384  1.00  0.00     0.039 A 
ATOM     43  C   UNL A   1      41.796  27.510  27.656  1.00  0.00     0.014 A 
ATOM     44  C   UNL A   1      39.830  26.267  28.329  1.00  0.00     0.014 A 
ATOM     45  C   UNL A   1      41.736  28.242  28.846  1.00  0.00     0.010 A 
ATOM     46  C   UNL A   1      39.722  27.055  29.472  1.00  0.00     0.010 A 
ATOM     47  C   UNL A   1      40.674  28.048  29.745  1.00  0.00    -0.014 A 
BRANCH  47  48
ATOM     48  C   UNL A   1      40.530  28.870  30.974  1.00  0.00     0.031 A 
ATOM     49  C   UNL A   1      39.509  29.975  31.025  1.00  0.00     0.074 A 
ATOM     50  C   UNL A   1      41.378  28.687  32.006  1.00  0.00     0.049 A 
ATOM     51  N   UNL A   1      39.306  30.870  31.957  1.00  0.00    -0.248 NA
ATOM     52  C   UNL A   1      38.622  30.109  29.858  1.00  0.00     0.031 C 
ATOM     53  C   UNL A   1      42.441  27.682  32.060  1.00  0.00     0.029 A 
ATOM     54  N   UNL A   1      41.493  29.356  33.200  1.00  0.00    -0.354 N 
ATOM     55  C   UNL A   1      38.285  31.685  31.481  1.00  0.00     0.074 A 
ATOM     56  C   UNL A   1      37.951  31.212  30.155  1.00  0.00     0.031 C 
ATOM     57  C   UNL A   1      43.093  27.793  33.229  1.00  0.00     0.029 A 
ATOM     58  C   UNL A   1      42.528  28.906  33.985  1.00  0.00     0.049 A 
ATOM     59  H   UNL A   1      40.891  30.089  33.468  1.00  0.00     0.167 HD
ATOM     60  C   UNL A   1      37.669  32.723  32.097  1.00  0.00     0.031 A 
ATOM     61  C   UNL A   1      42.988  29.351  35.172  1.00  0.00     0.031 A 
ATOM     62  C   UNL A   1      38.010  33.192  33.414  1.00  0.00     0.049 A 
ATOM     63  C   UNL A   1      42.301  30.512  35.836  1.00  0.00     0.074 A 
ATOM     64  C   UNL A   1      37.415  34.201  34.149  1.00  0.00     0.029 A 
ATOM     65  N   UNL A   1      39.045  32.690  34.190  1.00  0.00    -0.354 N 
ATOM     66  N   UNL A   1      41.290  31.228  35.402  1.00  0.00    -0.248 NA
ATOM     67  C   UNL A   1      42.804  30.917  37.155  1.00  0.00     0.031 C 
ATOM     68  C   UNL A   1      38.128  34.349  35.344  1.00  0.00     0.029 A 
ATOM     69  C   UNL A   1      39.122  33.384  35.385  1.00  0.00     0.049 A 
ATOM     70  H   UNL A   1      39.637  31.947  33.929  1.00  0.00     0.167 HD
ATOM     71  C   UNL A   1      41.019  32.151  36.405  1.00  0.00     0.074 A 
ATOM     72  C   UNL A   1      41.964  31.894  37.473  1.00  0.00     0.031 C 
ATOM     73  C   UNL A   1      40.072  33.120  36.440  1.00  0.00     0.031 A 
BRANCH  60  74
ATOM     74  C   UNL A   1      36.576  33.429  31.334  1.00  0.00    -0.014 A 
ATOM     75  C   UNL A   1      35.291  33.595  31.883  1.00  0.00     0.010 A 
ATOM     76  C   UNL A   1      36.837  33.939  30.048  1.00  0.00     0.010 A 
ATOM     77  C   UNL A   1      34.272  34.195  31.138  1.00  0.00     0.020 A 
ATOM     78  C   UNL A   1      35.830  34.571  29.313  1.00  0.00     0.020 A 
ATOM     79  C   UNL A   1      34.546  34.672  29.854  1.00  0.00     0.054 A 
BRANCH  79  80
ATOM     80  S   UNL A   1      33.202  35.434  28.904  1.00  0.00     0.124 S 
ATOM     81  O   UNL A   1      32.651  34.286  28.189  1.00  0.00    -0.237 OA
ATOM     82  O   UNL A   1      32.347  35.991  29.949  1.00  0.00    -0.237 OA
ATOM     83  O   UNL A   1      33.882  36.420  28.068  1.00  0.00    -0.744 OA
ENDBRANCH  79  80
ENDBRANCH  60  74
BRANCH  61  84
ATOM     84  C   UNL A   1      44.165  28.686  35.799  1.00  0.00    -0.014 A 
ATOM     85  C   UNL A   1      43.995  27.600  36.675  1.00  0.00     0.010 A 
ATOM     86  C   UNL A   1      45.469  29.110  35.481  1.00  0.00     0.010 A 
ATOM     87  C   UNL A   1      45.106  26.955  37.227  1.00  0.00     0.020 A 
ATOM     88  C   UNL A   1      46.583  28.449  36.008  1.00  0.00     0.020 A 
ATOM     89  C   UNL A   1      46.394  27.378  36.883  1.00  0.00     0.054 A 
BRANCH  89  90
ATOM     90  S   UNL A   1      47.820  26.475  37.551  1.00  0.00     0.124 S 
ATOM     91  O   UNL A   1      47.250  25.159  37.814  1.00  0.00    -0.237 OA
ATOM     92  O   UNL A   1      48.778  26.543  36.450  1.00  0.00    -0.237 OA
ATOM     93  O   UNL A   1      48.189  27.247  38.736  1.00  0.00    -0.744 OA
ENDBRANCH  89  90
ENDBRANCH  61  84
BRANCH  73  94
ATOM     94  C   UNL A   1      39.974  33.958  37.689  1.00  0.00    -0.014 A 
ATOM     95  C   UNL A   1      40.653  35.183  37.806  1.00  0.00     0.010 A 
ATOM     96  C   UNL A   1      39.132  33.538  38.737  1.00  0.00     0.010 A 
ATOM     97  C   UNL A   1      40.511  35.961  38.959  1.00  0.00     0.020 A 
ATOM     98  C   UNL A   1      38.965  34.327  39.876  1.00  0.00     0.020 A 
ATOM     99  C   UNL A   1      39.664  35.530  39.985  1.00  0.00     0.054 A 
BRANCH  99 100
ATOM    100  S   UNL A   1      39.455  36.585  41.446  1.00  0.00     0.124 S 
ATOM    101  O   UNL A   1      38.985  37.834  40.855  1.00  0.00    -0.237 OA
ATOM    102  O   UNL A   1      38.467  35.850  42.232  1.00  0.00    -0.237 OA
ATOM    103  O   UNL A   1      40.793  36.637  42.031  1.00  0.00    -0.744 OA
ENDBRANCH  99 100
ENDBRANCH  73  94
ENDBRANCH  47  48
ENDBRANCH  39  42
ENDBRANCH  37  38
ENDBRANCH  36  37
ENDBRANCH  35  36
ENDBRANCH   1  35
TORSDOF 20
ENDMDL
MODEL 3
REMARK VINA RESULT:     -12.4      1.564      8.022
REMARK SMILES CCN1C(=O)C[C@@H](C(=O)Nc2cccc(C(=O)NCCCCCCNC(=O)c3ccc(-c4c5nc(c(-c6ccc(S(=O)(=O)[O-])cc6)c6ccc([nH]6)c(-c6ccc(S(=O)(=O)[O-])cc6)c6nc(c(-c7ccc(S(=O)(=O)[O-])cc7)c7ccc4[nH]7)C=C6)C=C5)cc3)c2)S/C1=[NH+]/c1ccccc1
REMARK SMILES IDX 21 1 20 2 19 3 18 4 16 5 17 6 15 8 11 9 12 10 88 11 13 12
REMARK SMILES IDX 14 13 10 14 8 15 9 16 7 18 3 19 4 20 90 21 5 22 6 23 89 24
REMARK SMILES IDX 91 25 2 27 1 28 92 29 93 30 97 31 94 32 96 33 95 34 22 35
REMARK SMILES IDX 23 36 24 37 25 38 26 39 27 41 28 42 29 43 87 44 30 45 86 46
REMARK SMILES IDX 31 47 32 48 33 49 80 50 34 51 85 52 79 53 81 54 35 55 84 56
REMARK SMILES IDX 78 57 77 58 36 60 66 61 47 62 65 63 48 64 51 65 64 66 82 67
REMARK SMILES IDX 49 68 50 69 63 71 83 72 52 73 37 74 38 75 46 76 39 77 45 78
REMARK SMILES IDX 40 79 41 80 42 81 43 82 44 83 67 84 68 85 76 86 69 87 75 88
REMARK SMILES IDX 70 89 71 90 72 91 73 92 74 93 53 94 54 95 62 96 55 97 61 98
REMARK SMILES IDX 56 99 57 100 58 101 59 102 60 103
REMARK H PARENT 18 7 10 17 91 26 25 40 81 59 51 70
REMARK Flexibility Score: inf
ROOT
ATOM      1  C   UNL A   1      41.415  20.222  26.060  1.00  0.00     0.002 C 
ENDROOT
BRANCH   1   2
ATOM      2  C   UNL A   1      40.010  20.508  26.591  1.00  0.00     0.021 C 
BRANCH   2   3
ATOM      3  C   UNL A   1      39.162  21.520  25.828  1.00  0.00     0.116 C 
BRANCH   3   4
ATOM      4  N   UNL A   1      39.175  22.890  26.316  1.00  0.00    -0.352 N 
ATOM      5  C   UNL A   1      38.229  23.888  26.173  1.00  0.00     0.251 C 
ATOM      6  O   UNL A   1      38.409  24.969  26.732  1.00  0.00    -0.269 OA
ATOM      7  H   UNL A   1      39.977  23.144  26.826  1.00  0.00     0.163 HD
BRANCH   5   8
ATOM      8  C   UNL A   1      37.015  23.717  25.320  1.00  0.00     0.041 A 
ATOM      9  C   UNL A   1      34.603  23.749  25.033  1.00  0.00     0.041 A 
ATOM     10  C   UNL A   1      34.747  23.075  23.819  1.00  0.00     0.026 A 
ATOM     11  C   UNL A   1      35.743  24.110  25.742  1.00  0.00     0.040 A 
ATOM     12  C   UNL A   1      36.021  22.805  23.310  1.00  0.00     0.003 A 
ATOM     13  C   UNL A   1      37.154  23.116  24.064  1.00  0.00     0.014 A 
BRANCH   9  14
ATOM     14  N   UNL A   1      33.311  23.909  25.559  1.00  0.00    -0.325 N 
ATOM     15  C   UNL A   1      32.429  24.955  25.571  1.00  0.00     0.238 C 
ATOM     16  O   UNL A   1      31.646  24.992  26.529  1.00  0.00    -0.273 OA
ATOM     17  H   UNL A   1      32.970  23.103  26.011  1.00  0.00     0.169 HD
BRANCH  15  18
ATOM     18  C   UNL A   1      32.287  25.971  24.422  1.00  0.00     0.160 C 
ATOM     19  N   UNL A   1      31.359  28.765  24.107  1.00  0.00    -0.191 N 
ATOM     20  C   UNL A   1      32.688  28.439  23.918  1.00  0.00     0.311 C 
ATOM     21  C   UNL A   1      30.323  27.911  23.783  1.00  0.00     0.319 C 
ATOM     22  O   UNL A   1      33.500  29.208  23.402  1.00  0.00    -0.247 OA
ATOM     23  C   UNL A   1      33.172  27.181  24.563  1.00  0.00     0.153 C 
ATOM     24  S   UNL A   1      30.575  26.184  23.940  1.00  0.00    -0.024 SA
ATOM     25  N   UNL A   1      29.121  28.208  23.406  1.00  0.00    -0.235 N 
ATOM     26  H   UNL A   1      28.430  27.513  23.501  1.00  0.00     0.313 HD
BRANCH  19  27
ATOM     27  C   UNL A   1      31.098  30.049  24.759  1.00  0.00     0.243 C 
ATOM     28  C   UNL A   1      31.677  30.239  26.151  1.00  0.00     0.054 C 
ENDBRANCH  19  27
BRANCH  25  29
ATOM     29  C   UNL A   1      28.726  29.440  22.872  1.00  0.00     0.125 A 
ATOM     30  C   UNL A   1      29.322  29.949  21.713  1.00  0.00     0.051 A 
ATOM     31  C   UNL A   1      27.882  30.277  23.608  1.00  0.00     0.051 A 
ATOM     32  C   UNL A   1      29.088  31.265  21.304  1.00  0.00     0.004 A 
ATOM     33  C   UNL A   1      27.622  31.584  23.189  1.00  0.00     0.004 A 
ATOM     34  C   UNL A   1      28.236  32.083  22.041  1.00  0.00     0.000 A 
ENDBRANCH  25  29
ENDBRANCH  15  18
ENDBRANCH   9  14
ENDBRANCH   5   8
ENDBRANCH   3   4
ENDBRANCH   2   3
ENDBRANCH   1   2
BRANCH   1  35
ATOM     35  C   UNL A   1      42.370  21.410  25.960  1.00  0.00     0.002 C 
BRANCH  35  36
ATOM     36  C   UNL A   1      42.683  22.183  27.238  1.00  0.00     0.021 C 
BRANCH  36  37
ATOM     37  C   UNL A   1      43.380  23.519  27.057  1.00  0.00     0.116 C 
BRANCH  37  38
ATOM     38  N   UNL A   1      42.823  24.315  25.975  1.00  0.00    -0.352 N 
ATOM     39  C   UNL A   1      42.135  25.507  26.034  1.00  0.00     0.251 C 
ATOM     40  H   UNL A   1      42.957  23.949  25.071  1.00  0.00     0.163 HD
ATOM     41  O   UNL A   1      41.627  25.972  25.023  1.00  0.00    -0.269 OA
BRANCH  39  42
ATOM     42  C   UNL A   1      41.990  26.206  27.332  1.00  0.00     0.039 A 
ATOM     43  C   UNL A   1      42.792  27.321  27.594  1.00  0.00     0.014 A 
ATOM     44  C   UNL A   1      41.056  25.778  28.277  1.00  0.00     0.014 A 
ATOM     45  C   UNL A   1      42.603  28.050  28.772  1.00  0.00     0.010 A 
ATOM     46  C   UNL A   1      40.811  26.553  29.407  1.00  0.00     0.010 A 
ATOM     47  C   UNL A   1      41.582  27.695  29.668  1.00  0.00    -0.014 A 
BRANCH  47  48
ATOM     48  C   UNL A   1      41.295  28.499  30.884  1.00  0.00     0.031 A 
ATOM     49  C   UNL A   1      40.173  29.502  30.876  1.00  0.00     0.074 A 
ATOM     50  C   UNL A   1      42.099  28.397  31.961  1.00  0.00     0.049 A 
ATOM     51  N   UNL A   1      39.835  30.374  31.791  1.00  0.00    -0.248 NA
ATOM     52  C   UNL A   1      39.340  29.551  29.662  1.00  0.00     0.031 C 
ATOM     53  C   UNL A   1      43.249  27.498  32.077  1.00  0.00     0.029 A 
ATOM     54  N   UNL A   1      42.086  29.074  33.156  1.00  0.00    -0.354 N 
ATOM     55  C   UNL A   1      38.769  31.088  31.257  1.00  0.00     0.074 A 
ATOM     56  C   UNL A   1      38.554  30.586  29.918  1.00  0.00     0.031 C 
ATOM     57  C   UNL A   1      43.824  27.670  33.278  1.00  0.00     0.029 A 
ATOM     58  C   UNL A   1      43.116  28.724  33.998  1.00  0.00     0.049 A 
ATOM     59  H   UNL A   1      41.405  29.746  33.388  1.00  0.00     0.167 HD
ATOM     60  C   UNL A   1      38.025  32.063  31.834  1.00  0.00     0.031 A 
ATOM     61  C   UNL A   1      43.468  29.211  35.205  1.00  0.00     0.031 A 
ATOM     62  C   UNL A   1      38.249  32.562  33.164  1.00  0.00     0.049 A 
ATOM     63  C   UNL A   1      42.639  30.301  35.825  1.00  0.00     0.074 A 
ATOM     64  C   UNL A   1      37.523  33.510  33.862  1.00  0.00     0.029 A 
ATOM     65  N   UNL A   1      39.284  32.160  33.997  1.00  0.00    -0.354 N 
ATOM     66  N   UNL A   1      41.589  30.918  35.335  1.00  0.00    -0.248 NA
ATOM     67  C   UNL A   1      43.029  30.752  37.168  1.00  0.00     0.031 C 
ATOM     68  C   UNL A   1      38.153  33.724  35.092  1.00  0.00     0.029 A 
ATOM     69  C   UNL A   1      39.231  32.858  35.192  1.00  0.00     0.049 A 
ATOM     70  H   UNL A   1      39.957  31.477  33.772  1.00  0.00     0.167 HD
ATOM     71  C   UNL A   1      41.179  31.811  36.318  1.00  0.00     0.074 A 
ATOM     72  C   UNL A   1      42.084  31.644  37.436  1.00  0.00     0.031 C 
ATOM     73  C   UNL A   1      40.143  32.685  36.297  1.00  0.00     0.031 A 
BRANCH  60  74
ATOM     74  C   UNL A   1      36.913  32.662  31.010  1.00  0.00    -0.014 A 
ATOM     75  C   UNL A   1      37.154  33.724  30.118  1.00  0.00     0.010 A 
ATOM     76  C   UNL A   1      35.605  32.154  31.125  1.00  0.00     0.010 A 
ATOM     77  C   UNL A   1      36.101  34.310  29.410  1.00  0.00     0.020 A 
ATOM     78  C   UNL A   1      34.555  32.714  30.391  1.00  0.00     0.020 A 
ATOM     79  C   UNL A   1      34.806  33.806  29.557  1.00  0.00     0.054 A 
BRANCH  79  80
ATOM     80  S   UNL A   1      33.457  34.594  28.637  1.00  0.00     0.124 S 
ATOM     81  O   UNL A   1      34.156  35.667  27.936  1.00  0.00    -0.237 OA
ATOM     82  O   UNL A   1      32.969  33.507  27.791  1.00  0.00    -0.237 OA
ATOM     83  O   UNL A   1      32.532  35.031  29.680  1.00  0.00    -0.744 OA
ENDBRANCH  79  80
ENDBRANCH  60  74
BRANCH  61  84
ATOM     84  C   UNL A   1      44.667  28.660  35.897  1.00  0.00    -0.014 A 
ATOM     85  C   UNL A   1      44.557  27.551  36.753  1.00  0.00     0.010 A 
ATOM     86  C   UNL A   1      45.937  29.220  35.663  1.00  0.00     0.010 A 
ATOM     87  C   UNL A   1      45.694  27.014  37.366  1.00  0.00     0.020 A 
ATOM     88  C   UNL A   1      47.079  28.669  36.252  1.00  0.00     0.020 A 
ATOM     89  C   UNL A   1      46.950  27.572  37.105  1.00  0.00     0.054 A 
BRANCH  89  90
ATOM     90  S   UNL A   1      48.418  26.810  37.851  1.00  0.00     0.124 S 
ATOM     91  O   UNL A   1      49.054  27.949  38.504  1.00  0.00    -0.237 OA
ATOM     92  O   UNL A   1      47.835  25.811  38.743  1.00  0.00    -0.237 OA
ATOM     93  O   UNL A   1      49.140  26.262  36.704  1.00  0.00    -0.744 OA
ENDBRANCH  89  90
ENDBRANCH  61  84
BRANCH  73  94
ATOM     94  C   UNL A   1      39.899  33.510  37.535  1.00  0.00    -0.014 A 
ATOM     95  C   UNL A   1      40.372  34.830  37.643  1.00  0.00     0.010 A 
ATOM     96  C   UNL A   1      39.125  32.972  38.581  1.00  0.00     0.010 A 
ATOM     97  C   UNL A   1      40.095  35.587  38.785  1.00  0.00     0.020 A 
ATOM     98  C   UNL A   1      38.821  33.736  39.709  1.00  0.00     0.020 A 
ATOM     99  C   UNL A   1      39.318  35.036  39.809  1.00  0.00     0.054 A 
BRANCH  99 100
ATOM    100  S   UNL A   1      38.927  36.059  41.255  1.00  0.00     0.124 S 
ATOM    101  O   UNL A   1      37.642  35.511  41.679  1.00  0.00    -0.237 OA
ATOM    102  O   UNL A   1      40.050  35.792  42.149  1.00  0.00    -0.237 OA
ATOM    103  O   UNL A   1      38.877  37.417  40.717  1.00  0.00    -0.744 OA
ENDBRANCH  99 100
ENDBRANCH  73  94
ENDBRANCH  47  48
ENDBRANCH  39  42
ENDBRANCH  37  38
ENDBRANCH  36  37
ENDBRANCH  35  36
ENDBRANCH   1  35
TORSDOF 20
ENDMDL
