MODEL 1
REMARK VINA RESULT:     -10.9      0.000      0.000
REMARK SMILES C[C@@H](C(=O)NCCCCCCNC(=O)c1ccc(-c2c3nc(c(-c4ccc(S(=O)(=O)[O-])cc4)c4ccc([nH]4)c(-c4ccc(S(=O)(=O)[O-])cc4)c4nc(c(-c5ccc(S(=O)(=O)[O-])cc5)c5ccc2[nH]5)C=C4)C=C3)cc1)c1ccc(C[C@@H]2CCC[C@@H]2O)cc1F
REMARK SMILES IDX 8 1 7 2 6 3 5 4 3 5 4 6 2 8 1 9 75 10 76 11 87 12 77 13
REMARK SMILES IDX 86 14 88 15 78 16 79 17 80 18 81 19 84 20 82 21 83 22 85 23
REMARK SMILES IDX 9 25 10 26 11 27 12 28 13 29 14 31 15 32 16 33 74 34 17 35
REMARK SMILES IDX 73 36 18 37 19 38 20 39 67 40 21 41 72 42 66 43 68 44 22 45
REMARK SMILES IDX 71 46 65 47 64 48 23 50 53 51 34 52 52 53 35 54 38 55 51 56
REMARK SMILES IDX 69 57 36 58 37 59 50 61 70 62 39 63 24 64 25 65 33 66 26 67
REMARK SMILES IDX 32 68 27 69 28 70 29 71 30 72 31 73 54 74 55 75 63 76 56 77
REMARK SMILES IDX 62 78 57 79 58 80 59 81 60 82 61 83 40 84 41 85 49 86 42 87
REMARK SMILES IDX 48 88 43 89 44 90 45 91 46 92 47 93
REMARK H PARENT 5 7 85 24 12 30 68 49 38 60
REMARK Flexibility Score: inf
ROOT
ATOM      1  C   UNL A   1      33.949  25.829  25.459  1.00  0.00     0.002 C 
ENDROOT
BRANCH   1   2
ATOM      2  C   UNL A   1      34.957  24.857  24.832  1.00  0.00     0.021 C 
BRANCH   2   3
ATOM      3  C   UNL A   1      34.332  23.545  24.344  1.00  0.00     0.116 C 
BRANCH   3   4
ATOM      4  N   UNL A   1      34.251  22.602  25.442  1.00  0.00    -0.356 N 
ATOM      5  C   UNL A   1      33.173  21.914  25.920  1.00  0.00     0.227 C 
ATOM      6  O   UNL A   1      33.285  21.405  27.037  1.00  0.00    -0.274 OA
ATOM      7  H   UNL A   1      35.099  22.432  25.912  1.00  0.00     0.163 HD
BRANCH   5   8
ATOM      8  C   UNL A   1      31.898  21.787  25.057  1.00  0.00     0.108 C 
ATOM      9  C   UNL A   1      32.232  21.096  23.727  1.00  0.00     0.023 C 
BRANCH   8  10
ATOM     10  C   UNL A   1      31.223  23.146  24.872  1.00  0.00    -0.000 A 
ATOM     11  C   UNL A   1      31.035  23.738  23.615  1.00  0.00     0.008 A 
ATOM     12  C   UNL A   1      30.801  23.870  25.995  1.00  0.00     0.127 A 
ATOM     13  C   UNL A   1      30.522  25.029  23.498  1.00  0.00     0.004 A 
ATOM     14  C   UNL A   1      30.324  25.177  25.887  1.00  0.00     0.043 A 
ATOM     15  F   UNL A   1      30.887  23.321  27.215  1.00  0.00    -0.207 F 
ATOM     16  C   UNL A   1      30.230  25.790  24.633  1.00  0.00    -0.045 A 
BRANCH  16  17
ATOM     17  C   UNL A   1      29.858  27.245  24.502  1.00  0.00     0.041 C 
BRANCH  17  18
ATOM     18  C   UNL A   1      29.527  27.774  23.084  1.00  0.00     0.022 C 
ATOM     19  C   UNL A   1      30.356  28.975  22.608  1.00  0.00     0.007 C 
ATOM     20  C   UNL A   1      28.090  28.248  22.836  1.00  0.00     0.117 C 
ATOM     21  C   UNL A   1      29.487  30.222  22.802  1.00  0.00     0.003 C 
ATOM     22  C   UNL A   1      28.096  29.732  23.185  1.00  0.00     0.032 C 
BRANCH  20  23
ATOM     23  O   UNL A   1      27.128  27.494  23.546  1.00  0.00    -0.393 OA
ATOM     24  H   UNL A   1      26.452  28.089  23.905  1.00  0.00     0.210 HD
ENDBRANCH  20  23
ENDBRANCH  17  18
ENDBRANCH  16  17
ENDBRANCH   8  10
ENDBRANCH   5   8
ENDBRANCH   3   4
ENDBRANCH   2   3
ENDBRANCH   1   2
BRANCH   1  25
ATOM     25  C   UNL A   1      33.764  27.144  24.698  1.00  0.00     0.002 C 
BRANCH  25  26
ATOM     26  C   UNL A   1      33.145  28.278  25.519  1.00  0.00     0.021 C 
BRANCH  26  27
ATOM     27  C   UNL A   1      33.761  28.458  26.903  1.00  0.00     0.116 C 
BRANCH  27  28
ATOM     28  N   UNL A   1      33.635  29.828  27.378  1.00  0.00    -0.352 N 
ATOM     29  C   UNL A   1      34.518  30.559  28.135  1.00  0.00     0.251 C 
ATOM     30  H   UNL A   1      32.805  30.293  27.122  1.00  0.00     0.163 HD
ATOM     31  O   UNL A   1      34.173  31.628  28.630  1.00  0.00    -0.269 OA
BRANCH  29  32
ATOM     32  C   UNL A   1      35.880  30.036  28.362  1.00  0.00     0.039 A 
ATOM     33  C   UNL A   1      36.822  30.111  27.333  1.00  0.00     0.014 A 
ATOM     34  C   UNL A   1      36.227  29.492  29.601  1.00  0.00     0.014 A 
ATOM     35  C   UNL A   1      38.134  29.696  27.569  1.00  0.00     0.010 A 
ATOM     36  C   UNL A   1      37.550  29.148  29.856  1.00  0.00     0.010 A 
ATOM     37  C   UNL A   1      38.516  29.243  28.841  1.00  0.00    -0.014 A 
BRANCH  37  38
ATOM     38  C   UNL A   1      39.918  28.860  29.146  1.00  0.00     0.031 A 
ATOM     39  C   UNL A   1      40.872  29.883  29.697  1.00  0.00     0.074 A 
ATOM     40  C   UNL A   1      40.358  27.626  28.833  1.00  0.00     0.049 A 
ATOM     41  N   UNL A   1      42.157  29.783  29.914  1.00  0.00    -0.248 NA
ATOM     42  C   UNL A   1      40.310  31.207  30.013  1.00  0.00     0.031 C 
ATOM     43  C   UNL A   1      39.543  26.558  28.251  1.00  0.00     0.029 A 
ATOM     44  N   UNL A   1      41.609  27.070  28.936  1.00  0.00    -0.354 N 
ATOM     45  C   UNL A   1      42.563  31.034  30.363  1.00  0.00     0.074 A 
ATOM     46  C   UNL A   1      41.396  31.888  30.342  1.00  0.00     0.031 C 
ATOM     47  C   UNL A   1      40.313  25.477  28.052  1.00  0.00     0.029 A 
ATOM     48  C   UNL A   1      41.683  25.786  28.448  1.00  0.00     0.049 A 
ATOM     49  H   UNL A   1      42.380  27.545  29.321  1.00  0.00     0.167 HD
ATOM     50  C   UNL A   1      43.794  31.431  30.766  1.00  0.00     0.031 A 
ATOM     51  C   UNL A   1      42.737  24.957  28.312  1.00  0.00     0.031 A 
ATOM     52  C   UNL A   1      44.947  30.574  30.788  1.00  0.00     0.049 A 
ATOM     53  C   UNL A   1      44.095  25.414  28.768  1.00  0.00     0.074 A 
ATOM     54  C   UNL A   1      46.222  30.859  31.244  1.00  0.00     0.029 A 
ATOM     55  N   UNL A   1      44.971  29.266  30.324  1.00  0.00    -0.354 N 
ATOM     56  N   UNL A   1      44.446  26.576  29.266  1.00  0.00    -0.248 NA
ATOM     57  C   UNL A   1      45.196  24.447  28.657  1.00  0.00     0.031 C 
ATOM     58  C   UNL A   1      47.031  29.743  31.002  1.00  0.00     0.029 A 
ATOM     59  C   UNL A   1      46.245  28.740  30.456  1.00  0.00     0.049 A 
ATOM     60  H   UNL A   1      44.196  28.784  29.956  1.00  0.00     0.167 HD
ATOM     61  C   UNL A   1      45.803  26.472  29.550  1.00  0.00     0.074 A 
ATOM     62  C   UNL A   1      46.208  25.132  29.176  1.00  0.00     0.031 C 
ATOM     63  C   UNL A   1      46.634  27.404  30.079  1.00  0.00     0.031 A 
BRANCH  50  64
ATOM     64  C   UNL A   1      43.950  32.870  31.189  1.00  0.00    -0.014 A 
ATOM     65  C   UNL A   1      43.921  33.242  32.546  1.00  0.00     0.010 A 
ATOM     66  C   UNL A   1      44.127  33.867  30.213  1.00  0.00     0.010 A 
ATOM     67  C   UNL A   1      43.995  34.589  32.913  1.00  0.00     0.020 A 
ATOM     68  C   UNL A   1      44.235  35.212  30.577  1.00  0.00     0.020 A 
ATOM     69  C   UNL A   1      44.140  35.566  31.925  1.00  0.00     0.054 A 
BRANCH  69  70
ATOM     70  S   UNL A   1      44.207  37.307  32.425  1.00  0.00     0.124 S 
ATOM     71  O   UNL A   1      43.941  37.992  31.163  1.00  0.00    -0.237 OA
ATOM     72  O   UNL A   1      43.144  37.395  33.424  1.00  0.00    -0.237 OA
ATOM     73  O   UNL A   1      45.563  37.467  32.946  1.00  0.00    -0.744 OA
ENDBRANCH  69  70
ENDBRANCH  50  64
BRANCH  51  74
ATOM     74  C   UNL A   1      42.530  23.610  27.713  1.00  0.00    -0.014 A 
ATOM     75  C   UNL A   1      42.826  23.373  26.361  1.00  0.00     0.010 A 
ATOM     76  C   UNL A   1      42.097  22.540  28.519  1.00  0.00     0.010 A 
ATOM     77  C   UNL A   1      42.699  22.088  25.824  1.00  0.00     0.020 A 
ATOM     78  C   UNL A   1      41.994  21.249  27.992  1.00  0.00     0.020 A 
ATOM     79  C   UNL A   1      42.293  21.032  26.645  1.00  0.00     0.054 A 
BRANCH  79  80
ATOM     80  S   UNL A   1      42.228  19.357  25.950  1.00  0.00     0.124 S 
ATOM     81  O   UNL A   1      42.765  18.553  27.044  1.00  0.00    -0.237 OA
ATOM     82  O   UNL A   1      40.804  19.185  25.678  1.00  0.00    -0.237 OA
ATOM     83  O   UNL A   1      43.074  19.447  24.763  1.00  0.00    -0.744 OA
ENDBRANCH  79  80
ENDBRANCH  51  74
BRANCH  63  84
ATOM     84  C   UNL A   1      48.067  27.009  30.322  1.00  0.00    -0.014 A 
ATOM     85  C   UNL A   1      49.081  27.340  29.407  1.00  0.00     0.010 A 
ATOM     86  C   UNL A   1      48.414  26.387  31.535  1.00  0.00     0.010 A 
ATOM     87  C   UNL A   1      50.417  27.049  29.698  1.00  0.00     0.020 A 
ATOM     88  C   UNL A   1      49.750  26.117  31.841  1.00  0.00     0.020 A 
ATOM     89  C   UNL A   1      50.744  26.446  30.917  1.00  0.00     0.054 A 
BRANCH  89  90
ATOM     90  S   UNL A   1      52.491  26.156  31.308  1.00  0.00     0.124 S 
ATOM     91  O   UNL A   1      52.833  27.349  32.077  1.00  0.00    -0.237 OA
ATOM     92  O   UNL A   1      52.446  24.910  32.070  1.00  0.00    -0.237 OA
ATOM     93  O   UNL A   1      53.128  26.055  29.998  1.00  0.00    -0.744 OA
ENDBRANCH  89  90
ENDBRANCH  63  84
ENDBRANCH  37  38
ENDBRANCH  29  32
ENDBRANCH  27  28
ENDBRANCH  26  27
ENDBRANCH  25  26
ENDBRANCH   1  25
TORSDOF 20
ENDMDL
MODEL 2
REMARK VINA RESULT:     -10.2      1.066      8.162
REMARK SMILES C[C@@H](C(=O)NCCCCCCNC(=O)c1ccc(-c2c3nc(c(-c4ccc(S(=O)(=O)[O-])cc4)c4ccc([nH]4)c(-c4ccc(S(=O)(=O)[O-])cc4)c4nc(c(-c5ccc(S(=O)(=O)[O-])cc5)c5ccc2[nH]5)C=C4)C=C3)cc1)c1ccc(C[C@@H]2CCC[C@@H]2O)cc1F
REMARK SMILES IDX 8 1 7 2 6 3 5 4 3 5 4 6 2 8 1 9 75 10 76 11 87 12 77 13
REMARK SMILES IDX 86 14 88 15 78 16 79 17 80 18 81 19 84 20 82 21 83 22 85 23
REMARK SMILES IDX 9 25 10 26 11 27 12 28 13 29 14 31 15 32 16 33 74 34 17 35
REMARK SMILES IDX 73 36 18 37 19 38 20 39 67 40 21 41 72 42 66 43 68 44 22 45
REMARK SMILES IDX 71 46 65 47 64 48 23 50 53 51 34 52 52 53 35 54 38 55 51 56
REMARK SMILES IDX 69 57 36 58 37 59 50 61 70 62 39 63 24 64 25 65 33 66 26 67
REMARK SMILES IDX 32 68 27 69 28 70 29 71 30 72 31 73 54 74 55 75 63 76 56 77
REMARK SMILES IDX 62 78 57 79 58 80 59 81 60 82 61 83 40 84 41 85 49 86 42 87
REMARK SMILES IDX 48 88 43 89 44 90 45 91 46 92 47 93
REMARK H PARENT 5 7 85 24 12 30 68 49 38 60
REMARK Flexibility Score: inf
ROOT
ATOM      1  C   UNL A   1      34.459  24.857  25.541  1.00  0.00     0.002 C 
ENDROOT
BRANCH   1   2
ATOM      2  C   UNL A   1      35.211  23.748  24.794  1.00  0.00     0.021 C 
BRANCH   2   3
ATOM      3  C   UNL A   1      34.705  22.335  25.109  1.00  0.00     0.116 C 
BRANCH   3   4
ATOM      4  N   UNL A   1      34.107  22.310  26.429  1.00  0.00    -0.356 N 
ATOM      5  C   UNL A   1      32.790  22.296  26.786  1.00  0.00     0.227 C 
ATOM      6  O   UNL A   1      32.525  22.576  27.958  1.00  0.00    -0.274 OA
ATOM      7  H   UNL A   1      34.746  22.302  27.178  1.00  0.00     0.163 HD
BRANCH   5   8
ATOM      8  C   UNL A   1      31.714  21.921  25.743  1.00  0.00     0.108 C 
ATOM      9  C   UNL A   1      32.202  20.743  24.888  1.00  0.00     0.023 C 
BRANCH   8  10
ATOM     10  C   UNL A   1      31.310  23.137  24.911  1.00  0.00    -0.000 A 
ATOM     11  C   UNL A   1      31.661  23.288  23.562  1.00  0.00     0.008 A 
ATOM     12  C   UNL A   1      30.590  24.180  25.509  1.00  0.00     0.127 A 
ATOM     13  C   UNL A   1      31.373  24.465  22.871  1.00  0.00     0.004 A 
ATOM     14  C   UNL A   1      30.334  25.376  24.836  1.00  0.00     0.043 A 
ATOM     15  F   UNL A   1      30.162  24.056  26.774  1.00  0.00    -0.207 F 
ATOM     16  C   UNL A   1      30.773  25.548  23.519  1.00  0.00    -0.045 A 
BRANCH  16  17
ATOM     17  C   UNL A   1      30.639  26.877  22.820  1.00  0.00     0.041 C 
BRANCH  17  18
ATOM     18  C   UNL A   1      29.894  28.008  23.572  1.00  0.00     0.022 C 
ATOM     19  C   UNL A   1      28.406  28.171  23.230  1.00  0.00     0.007 C 
ATOM     20  C   UNL A   1      30.429  29.433  23.393  1.00  0.00     0.117 C 
ATOM     21  C   UNL A   1      28.299  29.345  22.252  1.00  0.00     0.003 C 
ATOM     22  C   UNL A   1      29.678  29.992  22.190  1.00  0.00     0.032 C 
BRANCH  20  23
ATOM     23  O   UNL A   1      31.836  29.484  23.267  1.00  0.00    -0.393 OA
ATOM     24  H   UNL A   1      32.214  29.936  24.037  1.00  0.00     0.210 HD
ENDBRANCH  20  23
ENDBRANCH  17  18
ENDBRANCH  16  17
ENDBRANCH   8  10
ENDBRANCH   5   8
ENDBRANCH   3   4
ENDBRANCH   2   3
ENDBRANCH   1   2
BRANCH   1  25
ATOM     25  C   UNL A   1      34.138  26.095  24.700  1.00  0.00     0.002 C 
BRANCH  25  26
ATOM     26  C   UNL A   1      33.457  27.231  25.466  1.00  0.00     0.021 C 
BRANCH  26  27
ATOM     27  C   UNL A   1      34.346  27.908  26.505  1.00  0.00     0.116 C 
BRANCH  27  28
ATOM     28  N   UNL A   1      33.819  29.204  26.906  1.00  0.00    -0.352 N 
ATOM     29  C   UNL A   1      34.392  30.149  27.721  1.00  0.00     0.251 C 
ATOM     30  H   UNL A   1      32.933  29.434  26.544  1.00  0.00     0.163 HD
ATOM     31  O   UNL A   1      33.731  31.098  28.132  1.00  0.00    -0.269 OA
BRANCH  29  32
ATOM     32  C   UNL A   1      35.809  30.001  28.113  1.00  0.00     0.039 A 
ATOM     33  C   UNL A   1      36.121  29.547  29.396  1.00  0.00     0.014 A 
ATOM     34  C   UNL A   1      36.825  30.292  27.198  1.00  0.00     0.014 A 
ATOM     35  C   UNL A   1      37.455  29.324  29.743  1.00  0.00     0.010 A 
ATOM     36  C   UNL A   1      38.146  30.001  27.521  1.00  0.00     0.010 A 
ATOM     37  C   UNL A   1      38.474  29.517  28.798  1.00  0.00    -0.014 A 
BRANCH  37  38
ATOM     38  C   UNL A   1      39.896  29.224  29.110  1.00  0.00     0.031 A 
ATOM     39  C   UNL A   1      40.477  27.880  28.768  1.00  0.00     0.074 A 
ATOM     40  C   UNL A   1      40.631  30.125  29.791  1.00  0.00     0.049 A 
ATOM     41  N   UNL A   1      41.651  27.388  29.065  1.00  0.00    -0.248 NA
ATOM     42  C   UNL A   1      39.607  26.955  28.023  1.00  0.00     0.031 C 
ATOM     43  C   UNL A   1      40.168  31.445  30.221  1.00  0.00     0.029 A 
ATOM     44  N   UNL A   1      41.918  30.053  30.264  1.00  0.00    -0.354 N 
ATOM     45  C   UNL A   1      41.651  26.089  28.570  1.00  0.00     0.074 A 
ATOM     46  C   UNL A   1      40.344  25.856  27.997  1.00  0.00     0.031 C 
ATOM     47  C   UNL A   1      41.156  32.059  30.891  1.00  0.00     0.029 A 
ATOM     48  C   UNL A   1      42.305  31.163  30.978  1.00  0.00     0.049 A 
ATOM     49  H   UNL A   1      42.508  29.280  30.109  1.00  0.00     0.167 HD
ATOM     50  C   UNL A   1      42.653  25.177  28.582  1.00  0.00     0.031 A 
ATOM     51  C   UNL A   1      43.444  31.425  31.649  1.00  0.00     0.031 A 
ATOM     52  C   UNL A   1      43.952  25.419  29.150  1.00  0.00     0.049 A 
ATOM     53  C   UNL A   1      44.547  30.403  31.649  1.00  0.00     0.074 A 
ATOM     54  C   UNL A   1      45.058  24.588  29.153  1.00  0.00     0.029 A 
ATOM     55  N   UNL A   1      44.317  26.574  29.828  1.00  0.00    -0.354 N 
ATOM     56  N   UNL A   1      44.560  29.208  31.106  1.00  0.00    -0.248 NA
ATOM     57  C   UNL A   1      45.792  30.765  32.339  1.00  0.00     0.031 C 
ATOM     58  C   UNL A   1      46.073  25.216  29.882  1.00  0.00     0.029 A 
ATOM     59  C   UNL A   1      45.622  26.465  30.279  1.00  0.00     0.049 A 
ATOM     60  H   UNL A   1      43.734  27.354  29.968  1.00  0.00     0.167 HD
ATOM     61  C   UNL A   1      45.822  28.687  31.368  1.00  0.00     0.074 A 
ATOM     62  C   UNL A   1      46.546  29.697  32.111  1.00  0.00     0.031 C 
ATOM     63  C   UNL A   1      46.332  27.480  31.018  1.00  0.00     0.031 A 
BRANCH  50  64
ATOM     64  C   UNL A   1      42.363  23.825  27.983  1.00  0.00    -0.014 A 
ATOM     65  C   UNL A   1      41.756  22.803  28.737  1.00  0.00     0.010 A 
ATOM     66  C   UNL A   1      42.703  23.571  26.642  1.00  0.00     0.010 A 
ATOM     67  C   UNL A   1      41.562  21.534  28.185  1.00  0.00     0.020 A 
ATOM     68  C   UNL A   1      42.480  22.314  26.074  1.00  0.00     0.020 A 
ATOM     69  C   UNL A   1      41.936  21.295  26.859  1.00  0.00     0.054 A 
BRANCH  69  70
ATOM     70  S   UNL A   1      41.697  19.633  26.174  1.00  0.00     0.124 S 
ATOM     71  O   UNL A   1      42.521  19.685  24.969  1.00  0.00    -0.237 OA
ATOM     72  O   UNL A   1      42.198  18.771  27.241  1.00  0.00    -0.237 OA
ATOM     73  O   UNL A   1      40.256  19.558  25.941  1.00  0.00    -0.744 OA
ENDBRANCH  69  70
ENDBRANCH  50  64
BRANCH  51  74
ATOM     74  C   UNL A   1      43.583  32.718  32.371  1.00  0.00    -0.014 A 
ATOM     75  C   UNL A   1      44.064  33.861  31.710  1.00  0.00     0.010 A 
ATOM     76  C   UNL A   1      43.167  32.826  33.711  1.00  0.00     0.010 A 
ATOM     77  C   UNL A   1      44.122  35.090  32.374  1.00  0.00     0.020 A 
ATOM     78  C   UNL A   1      43.199  34.058  34.370  1.00  0.00     0.020 A 
ATOM     79  C   UNL A   1      43.680  35.183  33.697  1.00  0.00     0.054 A 
BRANCH  79  80
ATOM     80  S   UNL A   1      43.675  36.808  34.507  1.00  0.00     0.124 S 
ATOM     81  O   UNL A   1      42.868  36.553  35.695  1.00  0.00    -0.237 OA
ATOM     82  O   UNL A   1      45.096  37.045  34.744  1.00  0.00    -0.237 OA
ATOM     83  O   UNL A   1      43.064  37.684  33.509  1.00  0.00    -0.744 OA
ENDBRANCH  79  80
ENDBRANCH  51  74
BRANCH  63  84
ATOM     84  C   UNL A   1      47.758  27.183  31.401  1.00  0.00    -0.014 A 
ATOM     85  C   UNL A   1      48.069  26.527  32.604  1.00  0.00     0.010 A 
ATOM     86  C   UNL A   1      48.790  27.474  30.491  1.00  0.00     0.010 A 
ATOM     87  C   UNL A   1      49.390  26.176  32.895  1.00  0.00     0.020 A 
ATOM     88  C   UNL A   1      50.108  27.102  30.765  1.00  0.00     0.020 A 
ATOM     89  C   UNL A   1      50.401  26.459  31.970  1.00  0.00     0.054 A 
BRANCH  89  90
ATOM     90  S   UNL A   1      52.094  25.916  32.331  1.00  0.00     0.124 S 
ATOM     91  O   UNL A   1      52.262  26.346  33.716  1.00  0.00    -0.237 OA
ATOM     92  O   UNL A   1      52.017  24.471  32.128  1.00  0.00    -0.237 OA
ATOM     93  O   UNL A   1      52.905  26.635  31.352  1.00  0.00    -0.744 OA
ENDBRANCH  89  90
ENDBRANCH  63  84
ENDBRANCH  37  38
ENDBRANCH  29  32
ENDBRANCH  27  28
ENDBRANCH  26  27
ENDBRANCH  25  26
ENDBRANCH   1  25
TORSDOF 20
ENDMDL
MODEL 3
REMARK VINA RESULT:     -10.1      3.394      9.058
REMARK SMILES C[C@@H](C(=O)NCCCCCCNC(=O)c1ccc(-c2c3nc(c(-c4ccc(S(=O)(=O)[O-])cc4)c4ccc([nH]4)c(-c4ccc(S(=O)(=O)[O-])cc4)c4nc(c(-c5ccc(S(=O)(=O)[O-])cc5)c5ccc2[nH]5)C=C4)C=C3)cc1)c1ccc(C[C@@H]2CCC[C@@H]2O)cc1F
REMARK SMILES IDX 8 1 7 2 6 3 5 4 3 5 4 6 2 8 1 9 75 10 76 11 87 12 77 13
REMARK SMILES IDX 86 14 88 15 78 16 79 17 80 18 81 19 84 20 82 21 83 22 85 23
REMARK SMILES IDX 9 25 10 26 11 27 12 28 13 29 14 31 15 32 16 33 74 34 17 35
REMARK SMILES IDX 73 36 18 37 19 38 20 39 67 40 21 41 72 42 66 43 68 44 22 45
REMARK SMILES IDX 71 46 65 47 64 48 23 50 53 51 34 52 52 53 35 54 38 55 51 56
REMARK SMILES IDX 69 57 36 58 37 59 50 61 70 62 39 63 24 64 25 65 33 66 26 67
REMARK SMILES IDX 32 68 27 69 28 70 29 71 30 72 31 73 54 74 55 75 63 76 56 77
REMARK SMILES IDX 62 78 57 79 58 80 59 81 60 82 61 83 40 84 41 85 49 86 42 87
REMARK SMILES IDX 48 88 43 89 44 90 45 91 46 92 47 93
REMARK H PARENT 5 7 85 24 12 30 68 49 38 60
REMARK Flexibility Score: inf
ROOT
ATOM      1  C   UNL A   1      40.038  22.040  26.862  1.00  0.00     0.002 C 
ENDROOT
BRANCH   1   2
ATOM      2  C   UNL A   1      39.694  23.532  26.959  1.00  0.00     0.021 C 
BRANCH   2   3
ATOM      3  C   UNL A   1      38.290  23.879  26.451  1.00  0.00     0.116 C 
BRANCH   3   4
ATOM      4  N   UNL A   1      38.033  23.185  25.205  1.00  0.00    -0.356 N 
ATOM      5  C   UNL A   1      36.954  22.436  24.834  1.00  0.00     0.227 C 
ATOM      6  O   UNL A   1      37.091  21.706  23.850  1.00  0.00    -0.274 OA
ATOM      7  H   UNL A   1      38.741  23.267  24.525  1.00  0.00     0.163 HD
BRANCH   5   8
ATOM      8  C   UNL A   1      35.633  22.544  25.628  1.00  0.00     0.108 C 
ATOM      9  C   UNL A   1      34.964  21.164  25.721  1.00  0.00     0.023 C 
BRANCH   8  10
ATOM     10  C   UNL A   1      34.718  23.612  25.029  1.00  0.00    -0.000 A 
ATOM     11  C   UNL A   1      34.810  24.033  23.695  1.00  0.00     0.008 A 
ATOM     12  C   UNL A   1      33.763  24.241  25.839  1.00  0.00     0.127 A 
ATOM     13  C   UNL A   1      34.036  25.092  23.221  1.00  0.00     0.004 A 
ATOM     14  C   UNL A   1      33.014  25.326  25.381  1.00  0.00     0.043 A 
ATOM     15  F   UNL A   1      33.579  23.826  27.101  1.00  0.00    -0.207 F 
ATOM     16  C   UNL A   1      33.184  25.797  24.075  1.00  0.00    -0.045 A 
BRANCH  16  17
ATOM     17  C   UNL A   1      32.498  27.053  23.603  1.00  0.00     0.041 C 
BRANCH  17  18
ATOM     18  C   UNL A   1      31.283  27.554  24.422  1.00  0.00     0.022 C 
ATOM     19  C   UNL A   1      29.909  27.057  23.953  1.00  0.00     0.007 C 
ATOM     20  C   UNL A   1      31.074  29.071  24.499  1.00  0.00     0.117 C 
ATOM     21  C   UNL A   1      29.276  28.192  23.141  1.00  0.00     0.003 C 
ATOM     22  C   UNL A   1      30.177  29.409  23.313  1.00  0.00     0.032 C 
BRANCH  20  23
ATOM     23  O   UNL A   1      32.286  29.797  24.528  1.00  0.00    -0.393 OA
ATOM     24  H   UNL A   1      32.674  29.814  23.639  1.00  0.00     0.210 HD
ENDBRANCH  20  23
ENDBRANCH  17  18
ENDBRANCH  16  17
ENDBRANCH   8  10
ENDBRANCH   5   8
ENDBRANCH   3   4
ENDBRANCH   2   3
ENDBRANCH   1   2
BRANCH   1  25
ATOM     25  C   UNL A   1      41.120  21.564  27.834  1.00  0.00     0.002 C 
BRANCH  25  26
ATOM     26  C   UNL A   1      41.957  20.385  27.334  1.00  0.00     0.021 C 
BRANCH  26  27
ATOM     27  C   UNL A   1      41.798  20.089  25.847  1.00  0.00     0.116 C 
BRANCH  27  28
ATOM     28  N   UNL A   1      42.935  19.352  25.317  1.00  0.00    -0.352 N 
ATOM     29  C   UNL A   1      44.143  19.836  24.878  1.00  0.00     0.251 C 
ATOM     30  H   UNL A   1      42.823  18.375  25.265  1.00  0.00     0.163 HD
ATOM     31  O   UNL A   1      44.918  19.108  24.264  1.00  0.00    -0.269 OA
BRANCH  29  32
ATOM     32  C   UNL A   1      44.493  21.247  25.138  1.00  0.00     0.039 A 
ATOM     33  C   UNL A   1      44.130  22.224  24.209  1.00  0.00     0.014 A 
ATOM     34  C   UNL A   1      45.160  21.601  26.314  1.00  0.00     0.014 A 
ATOM     35  C   UNL A   1      44.382  23.569  24.489  1.00  0.00     0.010 A 
ATOM     36  C   UNL A   1      45.345  22.944  26.623  1.00  0.00     0.010 A 
ATOM     37  C   UNL A   1      44.961  23.941  25.712  1.00  0.00    -0.014 A 
BRANCH  37  38
ATOM     38  C   UNL A   1      45.179  25.365  26.072  1.00  0.00     0.031 A 
ATOM     39  C   UNL A   1      46.563  25.949  26.018  1.00  0.00     0.074 A 
ATOM     40  C   UNL A   1      44.153  26.100  26.544  1.00  0.00     0.049 A 
ATOM     41  N   UNL A   1      46.979  27.126  26.406  1.00  0.00    -0.248 NA
ATOM     42  C   UNL A   1      47.626  25.079  25.489  1.00  0.00     0.031 C 
ATOM     43  C   UNL A   1      42.772  25.635  26.689  1.00  0.00     0.029 A 
ATOM     44  N   UNL A   1      44.121  27.390  27.016  1.00  0.00    -0.354 N 
ATOM     45  C   UNL A   1      48.353  27.128  26.196  1.00  0.00     0.074 A 
ATOM     46  C   UNL A   1      48.704  25.819  25.692  1.00  0.00     0.031 C 
ATOM     47  C   UNL A   1      42.028  26.624  27.209  1.00  0.00     0.029 A 
ATOM     48  C   UNL A   1      42.883  27.776  27.477  1.00  0.00     0.049 A 
ATOM     49  H   UNL A   1      44.907  27.981  27.023  1.00  0.00     0.167 HD
ATOM     50  C   UNL A   1      49.239  28.133  26.395  1.00  0.00     0.031 A 
ATOM     51  C   UNL A   1      42.484  28.918  28.072  1.00  0.00     0.031 A 
ATOM     52  C   UNL A   1      48.880  29.433  26.893  1.00  0.00     0.049 A 
ATOM     53  C   UNL A   1      43.480  30.024  28.282  1.00  0.00     0.074 A 
ATOM     54  C   UNL A   1      49.690  30.542  27.065  1.00  0.00     0.029 A 
ATOM     55  N   UNL A   1      47.608  29.798  27.310  1.00  0.00    -0.354 N 
ATOM     56  N   UNL A   1      44.763  30.038  28.003  1.00  0.00    -0.248 NA
ATOM     57  C   UNL A   1      42.978  31.271  28.874  1.00  0.00     0.031 C 
ATOM     58  C   UNL A   1      48.920  31.559  27.641  1.00  0.00     0.029 A 
ATOM     59  C   UNL A   1      47.616  31.105  27.767  1.00  0.00     0.049 A 
ATOM     60  H   UNL A   1      46.816  29.213  27.285  1.00  0.00     0.167 HD
ATOM     61  C   UNL A   1      45.214  31.303  28.363  1.00  0.00     0.074 A 
ATOM     62  C   UNL A   1      44.069  32.027  28.873  1.00  0.00     0.031 C 
ATOM     63  C   UNL A   1      46.467  31.815  28.272  1.00  0.00     0.031 A 
BRANCH  50  64
ATOM     64  C   UNL A   1      50.688  27.845  26.096  1.00  0.00    -0.014 A 
ATOM     65  C   UNL A   1      51.553  27.335  27.082  1.00  0.00     0.010 A 
ATOM     66  C   UNL A   1      51.194  28.088  24.806  1.00  0.00     0.010 A 
ATOM     67  C   UNL A   1      52.910  27.143  26.804  1.00  0.00     0.020 A 
ATOM     68  C   UNL A   1      52.542  27.865  24.513  1.00  0.00     0.020 A 
ATOM     69  C   UNL A   1      53.397  27.420  25.524  1.00  0.00     0.054 A 
BRANCH  69  70
ATOM     70  S   UNL A   1      55.165  27.186  25.197  1.00  0.00     0.124 S 
ATOM     71  O   UNL A   1      55.145  26.140  24.177  1.00  0.00    -0.237 OA
ATOM     72  O   UNL A   1      55.583  28.507  24.733  1.00  0.00    -0.237 OA
ATOM     73  O   UNL A   1      55.708  26.784  26.492  1.00  0.00    -0.744 OA
ENDBRANCH  69  70
ENDBRANCH  50  64
BRANCH  51  74
ATOM     74  C   UNL A   1      41.067  29.055  28.504  1.00  0.00    -0.014 A 
ATOM     75  C   UNL A   1      40.717  28.952  29.861  1.00  0.00     0.010 A 
ATOM     76  C   UNL A   1      40.068  29.359  27.560  1.00  0.00     0.010 A 
ATOM     77  C   UNL A   1      39.396  29.155  30.268  1.00  0.00     0.020 A 
ATOM     78  C   UNL A   1      38.750  29.588  27.967  1.00  0.00     0.020 A 
ATOM     79  C   UNL A   1      38.422  29.481  29.320  1.00  0.00     0.054 A 
BRANCH  79  80
ATOM     80  S   UNL A   1      36.733  29.835  29.884  1.00  0.00     0.124 S 
ATOM     81  O   UNL A   1      36.784  31.276  30.112  1.00  0.00    -0.237 OA
ATOM     82  O   UNL A   1      35.925  29.400  28.748  1.00  0.00    -0.237 OA
ATOM     83  O   UNL A   1      36.596  29.014  31.085  1.00  0.00    -0.744 OA
ENDBRANCH  79  80
ENDBRANCH  51  74
BRANCH  63  84
ATOM     84  C   UNL A   1      46.673  33.244  28.702  1.00  0.00    -0.014 A 
ATOM     85  C   UNL A   1      46.445  34.312  27.818  1.00  0.00     0.010 A 
ATOM     86  C   UNL A   1      47.000  33.519  30.043  1.00  0.00     0.010 A 
ATOM     87  C   UNL A   1      46.550  35.632  28.266  1.00  0.00     0.020 A 
ATOM     88  C   UNL A   1      47.080  34.836  30.500  1.00  0.00     0.020 A 
ATOM     89  C   UNL A   1      46.859  35.886  29.607  1.00  0.00     0.054 A 
BRANCH  89  90
ATOM     90  S   UNL A   1      46.904  37.605  30.183  1.00  0.00     0.124 S 
ATOM     91  O   UNL A   1      48.157  37.643  30.931  1.00  0.00    -0.237 OA
ATOM     92  O   UNL A   1      46.896  38.362  28.933  1.00  0.00    -0.237 OA
ATOM     93  O   UNL A   1      45.693  37.733  30.989  1.00  0.00    -0.744 OA
ENDBRANCH  89  90
ENDBRANCH  63  84
ENDBRANCH  37  38
ENDBRANCH  29  32
ENDBRANCH  27  28
ENDBRANCH  26  27
ENDBRANCH  25  26
ENDBRANCH   1  25
TORSDOF 20
ENDMDL
