MODEL 1
REMARK VINA RESULT:     -11.8      0.000      0.000
REMARK SMILES Cc1nc(C(=O)NCCCCCCNC(=O)c2ccc(-c3c4nc(c(-c5ccc(S(=O)(=O)[O-])cc5)c5ccc([nH]5)c(-c5ccc(S(=O)(=O)[O-])cc5)c5nc(c(-c6ccc(S(=O)(=O)[O-])cc6)c6ccc3[nH]6)C=C5)C=C4)cc2)nn1-c1cccc(C(F)(F)F)c1
REMARK SMILES IDX 11 1 10 2 9 3 8 4 7 5 5 6 6 7 4 9 1 10 2 11 3 12 78 13 77 14
REMARK SMILES IDX 79 15 80 16 88 17 81 18 83 19 82 20 84 21 85 22 86 23 87 24
REMARK SMILES IDX 12 25 13 26 14 27 15 28 16 30 17 31 18 32 76 33 19 34 75 35
REMARK SMILES IDX 20 36 21 37 22 38 69 39 23 40 74 41 68 42 70 43 24 44 73 45
REMARK SMILES IDX 67 46 66 47 25 49 55 50 36 51 54 52 37 53 40 54 53 55 71 56
REMARK SMILES IDX 38 57 39 58 52 60 72 61 41 62 26 63 27 64 35 65 28 66 34 67
REMARK SMILES IDX 29 68 30 69 31 70 32 71 33 72 56 73 57 74 65 75 58 76 64 77
REMARK SMILES IDX 59 78 60 79 61 80 62 81 63 82 42 83 43 84 51 85 44 86 50 87
REMARK SMILES IDX 45 88 46 89 47 90 48 91 49 92
REMARK H PARENT 7 8 14 29 70 48 40 59
REMARK Flexibility Score: inf
ROOT
ATOM      1  C   UNL A   1      37.878  23.650  26.158  1.00  0.00     0.002 C 
ENDROOT
BRANCH   1   2
ATOM      2  C   UNL A   1      36.366  23.528  25.920  1.00  0.00     0.002 C 
BRANCH   2   3
ATOM      3  C   UNL A   1      35.809  22.114  25.753  1.00  0.00     0.021 C 
BRANCH   3   4
ATOM      4  C   UNL A   1      35.011  21.857  24.476  1.00  0.00     0.116 C 
BRANCH   4   5
ATOM      5  N   UNL A   1      34.103  20.727  24.587  1.00  0.00    -0.349 N 
ATOM      6  C   UNL A   1      32.748  20.711  24.879  1.00  0.00     0.290 C 
ATOM      7  O   UNL A   1      32.201  19.608  24.968  1.00  0.00    -0.266 OA
ATOM      8  H   UNL A   1      34.512  19.844  24.432  1.00  0.00     0.163 HD
BRANCH   6   9
ATOM      9  C   UNL A   1      32.022  21.982  25.102  1.00  0.00     0.239 A 
ATOM     10  C   UNL A   1      29.714  24.124  26.797  1.00  0.00     0.090 C 
ATOM     11  C   UNL A   1      30.800  23.432  26.063  1.00  0.00     0.130 A 
ATOM     12  N   UNL A   1      31.018  22.132  26.038  1.00  0.00    -0.207 NA
ATOM     13  N   UNL A   1      31.697  24.050  25.212  1.00  0.00    -0.217 N 
ATOM     14  N   UNL A   1      32.253  23.113  24.410  1.00  0.00    -0.140 NA
BRANCH  13  15
ATOM     15  C   UNL A   1      32.161  25.387  25.152  1.00  0.00     0.067 A 
ATOM     16  C   UNL A   1      33.328  25.734  25.851  1.00  0.00     0.028 A 
ATOM     17  C   UNL A   1      31.406  26.383  24.521  1.00  0.00     0.041 A 
ATOM     18  C   UNL A   1      33.756  27.059  25.888  1.00  0.00     0.003 A 
ATOM     19  C   UNL A   1      31.811  27.729  24.591  1.00  0.00     0.058 A 
ATOM     20  C   UNL A   1      33.001  28.052  25.265  1.00  0.00     0.013 A 
BRANCH  19  21
ATOM     21  C   UNL A   1      30.967  28.835  23.998  1.00  0.00     0.416 C 
ATOM     22  F   UNL A   1      31.483  29.311  22.836  1.00  0.00    -0.166 F 
ATOM     23  F   UNL A   1      29.705  28.412  23.713  1.00  0.00    -0.166 F 
ATOM     24  F   UNL A   1      30.824  29.903  24.827  1.00  0.00    -0.166 F 
ENDBRANCH  19  21
ENDBRANCH  13  15
ENDBRANCH   6   9
ENDBRANCH   4   5
ENDBRANCH   3   4
ENDBRANCH   2   3
ENDBRANCH   1   2
BRANCH   1  25
ATOM     25  C   UNL A   1      38.750  22.426  25.838  1.00  0.00     0.021 C 
BRANCH  25  26
ATOM     26  C   UNL A   1      39.850  22.144  26.848  1.00  0.00     0.116 C 
BRANCH  26  27
ATOM     27  N   UNL A   1      41.181  21.975  26.242  1.00  0.00    -0.352 N 
ATOM     28  C   UNL A   1      42.043  22.948  25.761  1.00  0.00     0.251 C 
ATOM     29  H   UNL A   1      41.500  21.047  26.168  1.00  0.00     0.163 HD
ATOM     30  O   UNL A   1      42.913  22.660  24.934  1.00  0.00    -0.269 OA
BRANCH  28  31
ATOM     31  C   UNL A   1      41.919  24.328  26.265  1.00  0.00     0.039 A 
ATOM     32  C   UNL A   1      41.229  25.351  25.605  1.00  0.00     0.014 A 
ATOM     33  C   UNL A   1      42.519  24.577  27.489  1.00  0.00     0.014 A 
ATOM     34  C   UNL A   1      41.143  26.601  26.224  1.00  0.00     0.010 A 
ATOM     35  C   UNL A   1      42.132  25.654  28.219  1.00  0.00     0.010 A 
ATOM     36  C   UNL A   1      41.614  26.735  27.538  1.00  0.00    -0.014 A 
BRANCH  36  37
ATOM     37  C   UNL A   1      41.540  27.958  28.321  1.00  0.00     0.031 A 
ATOM     38  C   UNL A   1      42.654  28.889  28.043  1.00  0.00     0.074 A 
ATOM     39  C   UNL A   1      40.406  28.337  28.958  1.00  0.00     0.049 A 
ATOM     40  N   UNL A   1      43.703  29.090  28.767  1.00  0.00    -0.248 NA
ATOM     41  C   UNL A   1      42.728  29.497  26.702  1.00  0.00     0.031 C 
ATOM     42  C   UNL A   1      39.095  27.665  28.977  1.00  0.00     0.029 A 
ATOM     43  N   UNL A   1      40.144  29.486  29.633  1.00  0.00    -0.354 N 
ATOM     44  C   UNL A   1      44.419  30.075  28.099  1.00  0.00     0.074 A 
ATOM     45  C   UNL A   1      43.937  30.061  26.743  1.00  0.00     0.031 C 
ATOM     46  C   UNL A   1      38.146  28.520  29.426  1.00  0.00     0.029 A 
ATOM     47  C   UNL A   1      38.795  29.735  29.881  1.00  0.00     0.049 A 
ATOM     48  H   UNL A   1      40.857  30.099  29.926  1.00  0.00     0.167 HD
ATOM     49  C   UNL A   1      45.089  31.043  28.786  1.00  0.00     0.031 A 
ATOM     50  C   UNL A   1      38.258  30.872  30.402  1.00  0.00     0.031 A 
ATOM     51  C   UNL A   1      45.132  30.739  30.197  1.00  0.00     0.049 A 
ATOM     52  C   UNL A   1      39.368  31.591  31.079  1.00  0.00     0.074 A 
ATOM     53  C   UNL A   1      45.613  29.694  30.958  1.00  0.00     0.029 A 
ATOM     54  N   UNL A   1      44.219  31.403  30.988  1.00  0.00    -0.354 N 
ATOM     55  N   UNL A   1      39.994  31.120  32.121  1.00  0.00    -0.248 NA
ATOM     56  C   UNL A   1      40.103  32.580  30.305  1.00  0.00     0.031 C 
ATOM     57  C   UNL A   1      44.641  29.509  31.984  1.00  0.00     0.029 A 
ATOM     58  C   UNL A   1      43.666  30.502  31.858  1.00  0.00     0.049 A 
ATOM     59  H   UNL A   1      44.001  32.362  30.936  1.00  0.00     0.167 HD
ATOM     60  C   UNL A   1      41.334  31.403  31.889  1.00  0.00     0.074 A 
ATOM     61  C   UNL A   1      41.328  32.386  30.805  1.00  0.00     0.031 C 
ATOM     62  C   UNL A   1      42.321  30.602  32.389  1.00  0.00     0.031 A 
BRANCH  49  63
ATOM     63  C   UNL A   1      45.279  32.461  28.289  1.00  0.00    -0.014 A 
ATOM     64  C   UNL A   1      46.518  33.087  28.537  1.00  0.00     0.010 A 
ATOM     65  C   UNL A   1      44.227  33.287  27.848  1.00  0.00     0.010 A 
ATOM     66  C   UNL A   1      46.663  34.476  28.450  1.00  0.00     0.020 A 
ATOM     67  C   UNL A   1      44.372  34.668  27.713  1.00  0.00     0.020 A 
ATOM     68  C   UNL A   1      45.580  35.259  28.054  1.00  0.00     0.054 A 
BRANCH  68  69
ATOM     69  S   UNL A   1      45.741  37.059  28.050  1.00  0.00     0.124 S 
ATOM     70  O   UNL A   1      45.112  37.416  29.317  1.00  0.00    -0.237 OA
ATOM     71  O   UNL A   1      47.189  37.235  27.986  1.00  0.00    -0.237 OA
ATOM     72  O   UNL A   1      45.014  37.463  26.850  1.00  0.00    -0.744 OA
ENDBRANCH  68  69
ENDBRANCH  49  63
BRANCH  50  73
ATOM     73  C   UNL A   1      36.950  31.518  30.104  1.00  0.00    -0.014 A 
ATOM     74  C   UNL A   1      36.125  32.035  31.123  1.00  0.00     0.010 A 
ATOM     75  C   UNL A   1      36.640  31.882  28.777  1.00  0.00     0.010 A 
ATOM     76  C   UNL A   1      35.064  32.918  30.831  1.00  0.00     0.020 A 
ATOM     77  C   UNL A   1      35.587  32.760  28.477  1.00  0.00     0.020 A 
ATOM     78  C   UNL A   1      34.813  33.290  29.508  1.00  0.00     0.054 A 
BRANCH  78  79
ATOM     79  S   UNL A   1      33.548  34.549  29.146  1.00  0.00     0.124 S 
ATOM     80  O   UNL A   1      32.669  33.850  28.212  1.00  0.00    -0.237 OA
ATOM     81  O   UNL A   1      32.981  34.822  30.463  1.00  0.00    -0.237 OA
ATOM     82  O   UNL A   1      34.315  35.651  28.565  1.00  0.00    -0.744 OA
ENDBRANCH  78  79
ENDBRANCH  50  73
BRANCH  62  83
ATOM     83  C   UNL A   1      41.963  29.586  33.450  1.00  0.00    -0.014 A 
ATOM     84  C   UNL A   1      41.569  28.259  33.179  1.00  0.00     0.010 A 
ATOM     85  C   UNL A   1      42.227  29.948  34.782  1.00  0.00     0.010 A 
ATOM     86  C   UNL A   1      41.443  27.325  34.222  1.00  0.00     0.020 A 
ATOM     87  C   UNL A   1      42.121  29.021  35.819  1.00  0.00     0.020 A 
ATOM     88  C   UNL A   1      41.726  27.713  35.536  1.00  0.00     0.054 A 
BRANCH  88  89
ATOM     89  S   UNL A   1      41.636  26.491  36.877  1.00  0.00     0.124 S 
ATOM     90  O   UNL A   1      40.398  26.859  37.558  1.00  0.00    -0.237 OA
ATOM     91  O   UNL A   1      41.608  25.220  36.158  1.00  0.00    -0.237 OA
ATOM     92  O   UNL A   1      42.858  26.729  37.646  1.00  0.00    -0.744 OA
ENDBRANCH  88  89
ENDBRANCH  62  83
ENDBRANCH  36  37
ENDBRANCH  28  31
ENDBRANCH  26  27
ENDBRANCH  25  26
ENDBRANCH   1  25
TORSDOF 18
ENDMDL
MODEL 2
REMARK VINA RESULT:     -11.7      3.350      9.414
REMARK SMILES Cc1nc(C(=O)NCCCCCCNC(=O)c2ccc(-c3c4nc(c(-c5ccc(S(=O)(=O)[O-])cc5)c5ccc([nH]5)c(-c5ccc(S(=O)(=O)[O-])cc5)c5nc(c(-c6ccc(S(=O)(=O)[O-])cc6)c6ccc3[nH]6)C=C5)C=C4)cc2)nn1-c1cccc(C(F)(F)F)c1
REMARK SMILES IDX 11 1 10 2 9 3 8 4 7 5 5 6 6 7 4 9 1 10 2 11 3 12 78 13 77 14
REMARK SMILES IDX 79 15 80 16 88 17 81 18 83 19 82 20 84 21 85 22 86 23 87 24
REMARK SMILES IDX 12 25 13 26 14 27 15 28 16 30 17 31 18 32 76 33 19 34 75 35
REMARK SMILES IDX 20 36 21 37 22 38 69 39 23 40 74 41 68 42 70 43 24 44 73 45
REMARK SMILES IDX 67 46 66 47 25 49 55 50 36 51 54 52 37 53 40 54 53 55 71 56
REMARK SMILES IDX 38 57 39 58 52 60 72 61 41 62 26 63 27 64 35 65 28 66 34 67
REMARK SMILES IDX 29 68 30 69 31 70 32 71 33 72 56 73 57 74 65 75 58 76 64 77
REMARK SMILES IDX 59 78 60 79 61 80 62 81 63 82 42 83 43 84 51 85 44 86 50 87
REMARK SMILES IDX 45 88 46 89 47 90 48 91 49 92
REMARK H PARENT 7 8 14 29 70 48 40 59
REMARK Flexibility Score: inf
ROOT
ATOM      1  C   UNL A   1      31.419  28.437  25.949  1.00  0.00     0.002 C 
ENDROOT
BRANCH   1   2
ATOM      2  C   UNL A   1      31.436  29.279  24.664  1.00  0.00     0.002 C 
BRANCH   2   3
ATOM      3  C   UNL A   1      31.571  28.517  23.346  1.00  0.00     0.021 C 
BRANCH   3   4
ATOM      4  C   UNL A   1      32.979  28.044  22.989  1.00  0.00     0.116 C 
BRANCH   4   5
ATOM      5  N   UNL A   1      33.022  27.240  21.779  1.00  0.00    -0.349 N 
ATOM      6  C   UNL A   1      32.974  25.862  21.634  1.00  0.00     0.290 C 
ATOM      7  O   UNL A   1      33.081  25.408  20.491  1.00  0.00    -0.266 OA
ATOM      8  H   UNL A   1      33.099  27.749  20.939  1.00  0.00     0.163 HD
BRANCH   6   9
ATOM      9  C   UNL A   1      32.830  24.996  22.827  1.00  0.00     0.239 A 
ATOM     10  C   UNL A   1      30.982  23.280  25.362  1.00  0.00     0.090 C 
ATOM     11  C   UNL A   1      31.893  23.804  24.318  1.00  0.00     0.130 A 
ATOM     12  N   UNL A   1      31.626  24.777  23.468  1.00  0.00    -0.207 NA
ATOM     13  N   UNL A   1      33.205  23.407  24.141  1.00  0.00    -0.217 N 
ATOM     14  N   UNL A   1      33.852  24.347  23.415  1.00  0.00    -0.140 NA
BRANCH  13  15
ATOM     15  C   UNL A   1      33.872  22.204  24.480  1.00  0.00     0.067 A 
ATOM     16  C   UNL A   1      35.225  22.258  24.848  1.00  0.00     0.028 A 
ATOM     17  C   UNL A   1      33.242  20.963  24.324  1.00  0.00     0.041 A 
ATOM     18  C   UNL A   1      35.933  21.083  25.095  1.00  0.00     0.003 A 
ATOM     19  C   UNL A   1      33.964  19.773  24.531  1.00  0.00     0.058 A 
ATOM     20  C   UNL A   1      35.307  19.848  24.934  1.00  0.00     0.013 A 
BRANCH  19  21
ATOM     21  C   UNL A   1      33.335  18.420  24.281  1.00  0.00     0.416 C 
ATOM     22  F   UNL A   1      33.920  17.762  23.248  1.00  0.00    -0.166 F 
ATOM     23  F   UNL A   1      33.439  17.604  25.366  1.00  0.00    -0.166 F 
ATOM     24  F   UNL A   1      32.007  18.491  23.994  1.00  0.00    -0.166 F 
ENDBRANCH  19  21
ENDBRANCH  13  15
ENDBRANCH   6   9
ENDBRANCH   4   5
ENDBRANCH   3   4
ENDBRANCH   2   3
ENDBRANCH   1   2
BRANCH   1  25
ATOM     25  C   UNL A   1      31.977  29.081  27.229  1.00  0.00     0.021 C 
BRANCH  25  26
ATOM     26  C   UNL A   1      33.446  29.466  27.161  1.00  0.00     0.116 C 
BRANCH  26  27
ATOM     27  N   UNL A   1      33.680  30.917  27.221  1.00  0.00    -0.352 N 
ATOM     28  C   UNL A   1      34.697  31.605  27.865  1.00  0.00     0.251 C 
ATOM     29  H   UNL A   1      33.027  31.475  26.738  1.00  0.00     0.163 HD
ATOM     30  O   UNL A   1      34.553  32.792  28.173  1.00  0.00    -0.269 OA
BRANCH  28  31
ATOM     31  C   UNL A   1      35.960  30.904  28.162  1.00  0.00     0.039 A 
ATOM     32  C   UNL A   1      36.313  29.656  27.637  1.00  0.00     0.014 A 
ATOM     33  C   UNL A   1      36.837  31.575  28.999  1.00  0.00     0.014 A 
ATOM     34  C   UNL A   1      37.568  29.131  27.957  1.00  0.00     0.010 A 
ATOM     35  C   UNL A   1      38.151  31.231  29.009  1.00  0.00     0.010 A 
ATOM     36  C   UNL A   1      38.475  29.938  28.659  1.00  0.00    -0.014 A 
BRANCH  36  37
ATOM     37  C   UNL A   1      39.829  29.542  29.012  1.00  0.00     0.031 A 
ATOM     38  C   UNL A   1      39.998  29.296  30.460  1.00  0.00     0.074 A 
ATOM     39  C   UNL A   1      40.719  29.117  28.084  1.00  0.00     0.049 A 
ATOM     40  N   UNL A   1      40.545  30.079  31.327  1.00  0.00    -0.248 NA
ATOM     41  C   UNL A   1      39.280  28.154  31.055  1.00  0.00     0.031 C 
ATOM     42  C   UNL A   1      40.524  28.949  26.633  1.00  0.00     0.029 A 
ATOM     43  N   UNL A   1      41.970  28.619  28.260  1.00  0.00    -0.354 N 
ATOM     44  C   UNL A   1      40.493  29.382  32.527  1.00  0.00     0.074 A 
ATOM     45  C   UNL A   1      39.474  28.380  32.356  1.00  0.00     0.031 C 
ATOM     46  C   UNL A   1      41.519  28.188  26.120  1.00  0.00     0.029 A 
ATOM     47  C   UNL A   1      42.506  27.953  27.158  1.00  0.00     0.049 A 
ATOM     48  H   UNL A   1      42.464  28.721  29.106  1.00  0.00     0.167 HD
ATOM     49  C   UNL A   1      41.515  29.455  33.426  1.00  0.00     0.031 A 
ATOM     50  C   UNL A   1      43.666  27.244  27.118  1.00  0.00     0.031 A 
ATOM     51  C   UNL A   1      42.452  30.492  33.058  1.00  0.00     0.049 A 
ATOM     52  C   UNL A   1      44.471  27.686  28.286  1.00  0.00     0.074 A 
ATOM     53  C   UNL A   1      42.373  31.853  32.853  1.00  0.00     0.029 A 
ATOM     54  N   UNL A   1      43.602  30.071  32.425  1.00  0.00    -0.354 N 
ATOM     55  N   UNL A   1      44.933  28.898  28.417  1.00  0.00    -0.248 NA
ATOM     56  C   UNL A   1      44.334  26.934  29.525  1.00  0.00     0.031 C 
ATOM     57  C   UNL A   1      43.218  32.104  31.732  1.00  0.00     0.029 A 
ATOM     58  C   UNL A   1      43.840  30.907  31.367  1.00  0.00     0.049 A 
ATOM     59  H   UNL A   1      44.156  29.301  32.687  1.00  0.00     0.167 HD
ATOM     60  C   UNL A   1      44.726  29.215  29.754  1.00  0.00     0.074 A 
ATOM     61  C   UNL A   1      44.445  27.935  30.404  1.00  0.00     0.031 C 
ATOM     62  C   UNL A   1      44.512  30.506  30.147  1.00  0.00     0.031 A 
BRANCH  49  63
ATOM     63  C   UNL A   1      41.928  28.319  34.337  1.00  0.00    -0.014 A 
ATOM     64  C   UNL A   1      42.112  28.603  35.706  1.00  0.00     0.010 A 
ATOM     65  C   UNL A   1      42.407  27.077  33.877  1.00  0.00     0.010 A 
ATOM     66  C   UNL A   1      42.827  27.739  36.541  1.00  0.00     0.020 A 
ATOM     67  C   UNL A   1      43.083  26.185  34.710  1.00  0.00     0.020 A 
ATOM     68  C   UNL A   1      43.323  26.540  36.030  1.00  0.00     0.054 A 
BRANCH  68  69
ATOM     69  S   UNL A   1      44.340  25.481  37.082  1.00  0.00     0.124 S 
ATOM     70  O   UNL A   1      44.091  24.163  36.507  1.00  0.00    -0.237 OA
ATOM     71  O   UNL A   1      45.677  26.027  36.866  1.00  0.00    -0.237 OA
ATOM     72  O   UNL A   1      43.790  25.699  38.417  1.00  0.00    -0.744 OA
ENDBRANCH  68  69
ENDBRANCH  49  63
BRANCH  50  73
ATOM     73  C   UNL A   1      43.995  26.019  26.337  1.00  0.00    -0.014 A 
ATOM     74  C   UNL A   1      45.296  25.478  26.313  1.00  0.00     0.010 A 
ATOM     75  C   UNL A   1      42.952  25.213  25.835  1.00  0.00     0.010 A 
ATOM     76  C   UNL A   1      45.536  24.167  25.852  1.00  0.00     0.020 A 
ATOM     77  C   UNL A   1      43.182  23.908  25.374  1.00  0.00     0.020 A 
ATOM     78  C   UNL A   1      44.472  23.382  25.401  1.00  0.00     0.054 A 
BRANCH  78  79
ATOM     79  S   UNL A   1      44.758  21.640  24.953  1.00  0.00     0.124 S 
ATOM     80  O   UNL A   1      46.120  21.414  25.429  1.00  0.00    -0.237 OA
ATOM     81  O   UNL A   1      43.708  20.943  25.691  1.00  0.00    -0.237 OA
ATOM     82  O   UNL A   1      44.600  21.628  23.499  1.00  0.00    -0.744 OA
ENDBRANCH  78  79
ENDBRANCH  50  73
BRANCH  62  83
ATOM     83  C   UNL A   1      44.808  31.621  29.170  1.00  0.00    -0.014 A 
ATOM     84  C   UNL A   1      46.023  32.335  29.123  1.00  0.00     0.010 A 
ATOM     85  C   UNL A   1      43.877  31.813  28.135  1.00  0.00     0.010 A 
ATOM     86  C   UNL A   1      46.291  33.219  28.063  1.00  0.00     0.020 A 
ATOM     87  C   UNL A   1      44.145  32.676  27.071  1.00  0.00     0.020 A 
ATOM     88  C   UNL A   1      45.350  33.379  27.041  1.00  0.00     0.054 A 
BRANCH  88  89
ATOM     89  S   UNL A   1      45.723  34.464  25.633  1.00  0.00     0.124 S 
ATOM     90  O   UNL A   1      44.873  33.917  24.579  1.00  0.00    -0.237 OA
ATOM     91  O   UNL A   1      45.343  35.784  26.129  1.00  0.00    -0.237 OA
ATOM     92  O   UNL A   1      47.159  34.282  25.424  1.00  0.00    -0.744 OA
ENDBRANCH  88  89
ENDBRANCH  62  83
ENDBRANCH  36  37
ENDBRANCH  28  31
ENDBRANCH  26  27
ENDBRANCH  25  26
ENDBRANCH   1  25
TORSDOF 18
ENDMDL
MODEL 3
REMARK VINA RESULT:     -11.5      3.259      9.443
REMARK SMILES Cc1nc(C(=O)NCCCCCCNC(=O)c2ccc(-c3c4nc(c(-c5ccc(S(=O)(=O)[O-])cc5)c5ccc([nH]5)c(-c5ccc(S(=O)(=O)[O-])cc5)c5nc(c(-c6ccc(S(=O)(=O)[O-])cc6)c6ccc3[nH]6)C=C5)C=C4)cc2)nn1-c1cccc(C(F)(F)F)c1
REMARK SMILES IDX 11 1 10 2 9 3 8 4 7 5 5 6 6 7 4 9 1 10 2 11 3 12 78 13 77 14
REMARK SMILES IDX 79 15 80 16 88 17 81 18 83 19 82 20 84 21 85 22 86 23 87 24
REMARK SMILES IDX 12 25 13 26 14 27 15 28 16 30 17 31 18 32 76 33 19 34 75 35
REMARK SMILES IDX 20 36 21 37 22 38 69 39 23 40 74 41 68 42 70 43 24 44 73 45
REMARK SMILES IDX 67 46 66 47 25 49 55 50 36 51 54 52 37 53 40 54 53 55 71 56
REMARK SMILES IDX 38 57 39 58 52 60 72 61 41 62 26 63 27 64 35 65 28 66 34 67
REMARK SMILES IDX 29 68 30 69 31 70 32 71 33 72 56 73 57 74 65 75 58 76 64 77
REMARK SMILES IDX 59 78 60 79 61 80 62 81 63 82 42 83 43 84 51 85 44 86 50 87
REMARK SMILES IDX 45 88 46 89 47 90 48 91 49 92
REMARK H PARENT 7 8 14 29 70 48 40 59
REMARK Flexibility Score: inf
ROOT
ATOM      1  C   UNL A   1      34.034  28.728  27.019  1.00  0.00     0.002 C 
ENDROOT
BRANCH   1   2
ATOM      2  C   UNL A   1      33.069  27.813  26.251  1.00  0.00     0.002 C 
BRANCH   2   3
ATOM      3  C   UNL A   1      33.256  27.734  24.736  1.00  0.00     0.021 C 
BRANCH   3   4
ATOM      4  C   UNL A   1      32.103  27.109  23.953  1.00  0.00     0.116 C 
BRANCH   4   5
ATOM      5  N   UNL A   1      32.497  26.635  22.636  1.00  0.00    -0.349 N 
ATOM      6  C   UNL A   1      33.178  25.480  22.283  1.00  0.00     0.290 C 
ATOM      7  O   UNL A   1      33.444  25.322  21.088  1.00  0.00    -0.266 OA
ATOM      8  H   UNL A   1      32.245  27.221  21.886  1.00  0.00     0.163 HD
BRANCH   6   9
ATOM      9  C   UNL A   1      33.583  24.509  23.326  1.00  0.00     0.239 A 
ATOM     10  C   UNL A   1      33.234  21.523  25.260  1.00  0.00     0.090 C 
ATOM     11  C   UNL A   1      33.611  22.719  24.472  1.00  0.00     0.130 A 
ATOM     12  N   UNL A   1      32.812  23.425  23.697  1.00  0.00    -0.207 NA
ATOM     13  N   UNL A   1      34.849  23.332  24.509  1.00  0.00    -0.217 N 
ATOM     14  N   UNL A   1      34.729  24.589  24.026  1.00  0.00    -0.140 NA
BRANCH  13  15
ATOM     15  C   UNL A   1      36.133  22.829  24.837  1.00  0.00     0.067 A 
ATOM     16  C   UNL A   1      36.408  21.471  24.615  1.00  0.00     0.028 A 
ATOM     17  C   UNL A   1      37.072  23.630  25.497  1.00  0.00     0.041 A 
ATOM     18  C   UNL A   1      37.627  20.927  25.015  1.00  0.00     0.003 A 
ATOM     19  C   UNL A   1      38.287  23.076  25.941  1.00  0.00     0.058 A 
ATOM     20  C   UNL A   1      38.560  21.723  25.678  1.00  0.00     0.013 A 
BRANCH  19  21
ATOM     21  C   UNL A   1      39.279  23.895  26.737  1.00  0.00     0.416 C 
ATOM     22  F   UNL A   1      38.724  24.439  27.850  1.00  0.00    -0.166 F 
ATOM     23  F   UNL A   1      40.334  23.145  27.160  1.00  0.00    -0.166 F 
ATOM     24  F   UNL A   1      39.815  24.924  26.027  1.00  0.00    -0.166 F 
ENDBRANCH  19  21
ENDBRANCH  13  15
ENDBRANCH   6   9
ENDBRANCH   4   5
ENDBRANCH   3   4
ENDBRANCH   2   3
ENDBRANCH   1   2
BRANCH   1  25
ATOM     25  C   UNL A   1      33.523  30.118  27.430  1.00  0.00     0.021 C 
BRANCH  25  26
ATOM     26  C   UNL A   1      34.595  31.191  27.523  1.00  0.00     0.116 C 
BRANCH  26  27
ATOM     27  N   UNL A   1      34.452  32.069  28.694  1.00  0.00    -0.352 N 
ATOM     28  C   UNL A   1      35.047  31.953  29.942  1.00  0.00     0.251 C 
ATOM     29  H   UNL A   1      33.854  32.842  28.577  1.00  0.00     0.163 HD
ATOM     30  O   UNL A   1      34.544  32.499  30.928  1.00  0.00    -0.269 OA
BRANCH  28  31
ATOM     31  C   UNL A   1      36.298  31.185  30.070  1.00  0.00     0.039 A 
ATOM     32  C   UNL A   1      36.373  29.788  30.050  1.00  0.00     0.014 A 
ATOM     33  C   UNL A   1      37.456  31.937  30.190  1.00  0.00     0.014 A 
ATOM     34  C   UNL A   1      37.633  29.188  30.126  1.00  0.00     0.010 A 
ATOM     35  C   UNL A   1      38.657  31.370  29.907  1.00  0.00     0.010 A 
ATOM     36  C   UNL A   1      38.771  30.005  30.063  1.00  0.00    -0.014 A 
BRANCH  36  37
ATOM     37  C   UNL A   1      40.140  29.515  30.077  1.00  0.00     0.031 A 
ATOM     38  C   UNL A   1      40.709  29.432  31.439  1.00  0.00     0.074 A 
ATOM     39  C   UNL A   1      40.691  28.888  29.009  1.00  0.00     0.049 A 
ATOM     40  N   UNL A   1      41.535  30.254  31.992  1.00  0.00    -0.248 NA
ATOM     41  C   UNL A   1      40.123  28.454  32.373  1.00  0.00     0.031 C 
ATOM     42  C   UNL A   1      40.069  28.565  27.713  1.00  0.00     0.029 A 
ATOM     43  N   UNL A   1      41.903  28.286  28.900  1.00  0.00    -0.354 N 
ATOM     44  C   UNL A   1      41.791  29.719  33.248  1.00  0.00     0.074 A 
ATOM     45  C   UNL A   1      40.703  28.817  33.520  1.00  0.00     0.031 C 
ATOM     46  C   UNL A   1      40.819  27.646  27.060  1.00  0.00     0.029 A 
ATOM     47  C   UNL A   1      42.048  27.438  27.803  1.00  0.00     0.049 A 
ATOM     48  H   UNL A   1      42.628  28.439  29.548  1.00  0.00     0.167 HD
ATOM     49  C   UNL A   1      43.033  29.793  33.803  1.00  0.00     0.031 A 
ATOM     50  C   UNL A   1      43.097  26.610  27.545  1.00  0.00     0.031 A 
ATOM     51  C   UNL A   1      43.887  30.672  33.039  1.00  0.00     0.049 A 
ATOM     52  C   UNL A   1      44.236  27.105  28.361  1.00  0.00     0.074 A 
ATOM     53  C   UNL A   1      43.842  31.999  32.664  1.00  0.00     0.029 A 
ATOM     54  N   UNL A   1      44.772  30.059  32.178  1.00  0.00    -0.354 N 
ATOM     55  N   UNL A   1      44.794  28.269  28.177  1.00  0.00    -0.248 NA
ATOM     56  C   UNL A   1      44.418  26.530  29.686  1.00  0.00     0.031 C 
ATOM     57  C   UNL A   1      44.336  32.020  31.327  1.00  0.00     0.029 A 
ATOM     58  C   UNL A   1      44.745  30.729  30.984  1.00  0.00     0.049 A 
ATOM     59  H   UNL A   1      45.327  29.272  32.385  1.00  0.00     0.167 HD
ATOM     60  C   UNL A   1      45.008  28.767  29.456  1.00  0.00     0.074 A 
ATOM     61  C   UNL A   1      44.845  27.614  30.340  1.00  0.00     0.031 C 
ATOM     62  C   UNL A   1      45.003  30.112  29.698  1.00  0.00     0.031 A 
BRANCH  49  63
ATOM     63  C   UNL A   1      43.619  28.741  34.720  1.00  0.00    -0.014 A 
ATOM     64  C   UNL A   1      44.501  27.794  34.160  1.00  0.00     0.010 A 
ATOM     65  C   UNL A   1      43.138  28.472  36.016  1.00  0.00     0.010 A 
ATOM     66  C   UNL A   1      44.799  26.596  34.819  1.00  0.00     0.020 A 
ATOM     67  C   UNL A   1      43.463  27.302  36.703  1.00  0.00     0.020 A 
ATOM     68  C   UNL A   1      44.261  26.352  36.082  1.00  0.00     0.054 A 
BRANCH  68  69
ATOM     69  S   UNL A   1      44.559  24.758  36.880  1.00  0.00     0.124 S 
ATOM     70  O   UNL A   1      43.701  23.871  36.101  1.00  0.00    -0.237 OA
ATOM     71  O   UNL A   1      45.996  24.584  36.688  1.00  0.00    -0.237 OA
ATOM     72  O   UNL A   1      44.141  24.985  38.260  1.00  0.00    -0.744 OA
ENDBRANCH  68  69
ENDBRANCH  49  63
BRANCH  50  73
ATOM     73  C   UNL A   1      43.102  25.271  26.893  1.00  0.00    -0.014 A 
ATOM     74  C   UNL A   1      43.107  25.126  25.491  1.00  0.00     0.010 A 
ATOM     75  C   UNL A   1      43.391  24.124  27.661  1.00  0.00     0.010 A 
ATOM     76  C   UNL A   1      43.434  23.896  24.882  1.00  0.00     0.020 A 
ATOM     77  C   UNL A   1      43.717  22.897  27.064  1.00  0.00     0.020 A 
ATOM     78  C   UNL A   1      43.756  22.792  25.675  1.00  0.00     0.054 A 
BRANCH  78  79
ATOM     79  S   UNL A   1      44.330  21.251  24.891  1.00  0.00     0.124 S 
ATOM     80  O   UNL A   1      44.432  21.633  23.486  1.00  0.00    -0.237 OA
ATOM     81  O   UNL A   1      45.597  20.998  25.570  1.00  0.00    -0.237 OA
ATOM     82  O   UNL A   1      43.266  20.293  25.196  1.00  0.00    -0.744 OA
ENDBRANCH  78  79
ENDBRANCH  50  73
BRANCH  62  83
ATOM     83  C   UNL A   1      45.073  31.061  28.523  1.00  0.00    -0.014 A 
ATOM     84  C   UNL A   1      43.950  31.518  27.803  1.00  0.00     0.010 A 
ATOM     85  C   UNL A   1      46.320  31.658  28.270  1.00  0.00     0.010 A 
ATOM     86  C   UNL A   1      44.081  32.547  26.853  1.00  0.00     0.020 A 
ATOM     87  C   UNL A   1      46.453  32.691  27.342  1.00  0.00     0.020 A 
ATOM     88  C   UNL A   1      45.334  33.130  26.634  1.00  0.00     0.054 A 
BRANCH  88  89
ATOM     89  S   UNL A   1      45.494  34.508  25.462  1.00  0.00     0.124 S 
ATOM     90  O   UNL A   1      44.639  34.087  24.357  1.00  0.00    -0.237 OA
ATOM     91  O   UNL A   1      45.011  35.650  26.235  1.00  0.00    -0.237 OA
ATOM     92  O   UNL A   1      46.925  34.541  25.158  1.00  0.00    -0.744 OA
ENDBRANCH  88  89
ENDBRANCH  62  83
ENDBRANCH  36  37
ENDBRANCH  28  31
ENDBRANCH  26  27
ENDBRANCH  25  26
ENDBRANCH   1  25
TORSDOF 18
ENDMDL
