MODEL 1
REMARK VINA RESULT:     -10.4      0.000      0.000
REMARK SMILES N#Cc1cc(-c2cnccc2C(=O)NCCCCCCNC(=O)c2ccc(-c3c4nc(c(-c5ccc(S(=O)(=O)[O-])cc5)c5ccc([nH]5)c(-c5ccc(S(=O)(=O)[O-])cc5)c5nc(c(-c6ccc(S(=O)(=O)[O-])cc6)c6ccc3[nH]6)C=C5)C=C4)cc2)ccc1Cl
REMARK SMILES IDX 18 1 17 2 16 3 15 4 14 5 12 6 13 7 11 9 6 10 7 11 8 12 10 13
REMARK SMILES IDX 9 14 5 15 3 16 4 17 86 18 85 19 87 20 84 21 2 22 1 23 19 24
REMARK SMILES IDX 20 25 21 26 22 27 23 29 24 30 25 31 83 32 26 33 82 34 27 35
REMARK SMILES IDX 28 36 29 37 76 38 30 39 81 40 75 41 77 42 31 43 80 44 74 45
REMARK SMILES IDX 73 46 32 48 62 49 43 50 61 51 44 52 47 53 60 54 78 55 45 56
REMARK SMILES IDX 46 57 59 59 79 60 48 61 33 62 34 63 42 64 35 65 41 66 36 67
REMARK SMILES IDX 37 68 38 69 39 70 40 71 63 72 64 73 72 74 65 75 71 76 66 77
REMARK SMILES IDX 67 78 68 79 69 80 70 81 49 82 50 83 58 84 51 85 57 86 52 87
REMARK SMILES IDX 53 88 54 89 55 90 56 91
REMARK H PARENT 14 8 21 28 77 47 47 58
REMARK Flexibility Score: inf
ROOT
ATOM      1  C   UNL A   1      32.177  26.975  25.011  1.00  0.00     0.002 C 
ENDROOT
BRANCH   1   2
ATOM      2  C   UNL A   1      32.954  27.141  23.699  1.00  0.00     0.002 C 
BRANCH   2   3
ATOM      3  C   UNL A   1      32.641  26.178  22.554  1.00  0.00     0.021 C 
BRANCH   3   4
ATOM      4  C   UNL A   1      33.595  25.018  22.320  1.00  0.00     0.116 C 
BRANCH   4   5
ATOM      5  N   UNL A   1      33.049  23.699  22.192  1.00  0.00    -0.352 N 
ATOM      6  C   UNL A   1      32.322  22.950  23.090  1.00  0.00     0.252 C 
ATOM      7  O   UNL A   1      31.838  21.906  22.640  1.00  0.00    -0.269 OA
ATOM      8  H   UNL A   1      33.222  23.260  21.328  1.00  0.00     0.163 HD
BRANCH   6   9
ATOM      9  C   UNL A   1      32.141  23.224  24.566  1.00  0.00     0.050 A 
ATOM     10  C   UNL A   1      33.073  23.252  25.630  1.00  0.00     0.013 A 
ATOM     11  C   UNL A   1      32.553  23.562  26.902  1.00  0.00     0.120 A 
ATOM     12  N   UNL A   1      31.264  23.843  27.197  1.00  0.00    -0.264 NA
ATOM     13  C   UNL A   1      30.795  23.538  24.871  1.00  0.00     0.034 A 
ATOM     14  C   UNL A   1      30.411  23.835  26.167  1.00  0.00     0.112 A 
BRANCH  10  15
ATOM     15  C   UNL A   1      34.523  23.002  25.591  1.00  0.00    -0.015 A 
ATOM     16  C   UNL A   1      36.455  21.542  25.266  1.00  0.00     0.071 A 
ATOM     17  C   UNL A   1      35.064  21.764  25.217  1.00  0.00     0.029 A 
ATOM     18  C   UNL A   1      37.318  22.585  25.628  1.00  0.00     0.058 A 
ATOM     19  C   UNL A   1      36.797  23.833  25.967  1.00  0.00     0.022 A 
ATOM     20  Cl  UNL A   1      39.029  22.376  25.744  1.00  0.00    -0.083 Cl
ATOM     21  C   UNL A   1      35.417  24.038  25.942  1.00  0.00     0.010 A 
BRANCH  16  22
ATOM     22  C   UNL A   1      36.937  20.206  25.068  1.00  0.00     0.101 C 
ATOM     23  N   UNL A   1      37.413  19.161  24.910  1.00  0.00    -0.192 NA
ENDBRANCH  16  22
ENDBRANCH  10  15
ENDBRANCH   6   9
ENDBRANCH   4   5
ENDBRANCH   3   4
ENDBRANCH   2   3
ENDBRANCH   1   2
BRANCH   1  24
ATOM     24  C   UNL A   1      32.943  27.219  26.312  1.00  0.00     0.021 C 
BRANCH  24  25
ATOM     25  C   UNL A   1      34.112  28.195  26.249  1.00  0.00     0.116 C 
BRANCH  25  26
ATOM     26  N   UNL A   1      33.776  29.502  26.777  1.00  0.00    -0.352 N 
ATOM     27  C   UNL A   1      34.473  30.300  27.652  1.00  0.00     0.251 C 
ATOM     28  H   UNL A   1      32.921  29.874  26.461  1.00  0.00     0.163 HD
ATOM     29  O   UNL A   1      33.928  31.296  28.123  1.00  0.00    -0.269 OA
BRANCH  27  30
ATOM     30  C   UNL A   1      35.866  29.969  28.041  1.00  0.00     0.039 A 
ATOM     31  C   UNL A   1      36.108  29.492  29.334  1.00  0.00     0.014 A 
ATOM     32  C   UNL A   1      36.936  30.161  27.163  1.00  0.00     0.014 A 
ATOM     33  C   UNL A   1      37.410  29.166  29.726  1.00  0.00     0.010 A 
ATOM     34  C   UNL A   1      38.221  29.760  27.529  1.00  0.00     0.010 A 
ATOM     35  C   UNL A   1      38.476  29.268  28.818  1.00  0.00    -0.014 A 
BRANCH  35  36
ATOM     36  C   UNL A   1      39.859  28.871  29.199  1.00  0.00     0.031 A 
ATOM     37  C   UNL A   1      40.747  29.824  29.958  1.00  0.00     0.074 A 
ATOM     38  C   UNL A   1      40.339  27.670  28.820  1.00  0.00     0.049 A 
ATOM     39  N   UNL A   1      41.987  29.665  30.349  1.00  0.00    -0.248 NA
ATOM     40  C   UNL A   1      40.174  31.135  30.300  1.00  0.00     0.031 C 
ATOM     41  C   UNL A   1      39.591  26.660  28.068  1.00  0.00     0.029 A 
ATOM     42  N   UNL A   1      41.569  27.092  29.018  1.00  0.00    -0.354 N 
ATOM     43  C   UNL A   1      42.347  30.860  30.964  1.00  0.00     0.074 A 
ATOM     44  C   UNL A   1      41.213  31.750  30.845  1.00  0.00     0.031 C 
ATOM     45  C   UNL A   1      40.361  25.571  27.911  1.00  0.00     0.029 A 
ATOM     46  C   UNL A   1      41.674  25.823  28.499  1.00  0.00     0.049 A 
ATOM     47  H   UNL A   1      42.307  27.544  29.488  1.00  0.00     0.167 HD
ATOM     48  C   UNL A   1      43.510  31.184  31.583  1.00  0.00     0.031 A 
ATOM     49  C   UNL A   1      42.707  24.959  28.491  1.00  0.00     0.031 A 
ATOM     50  C   UNL A   1      44.639  30.296  31.690  1.00  0.00     0.049 A 
ATOM     51  C   UNL A   1      44.006  25.358  29.138  1.00  0.00     0.074 A 
ATOM     52  C   UNL A   1      45.841  30.510  32.342  1.00  0.00     0.029 A 
ATOM     53  N   UNL A   1      44.716  29.034  31.119  1.00  0.00    -0.354 N 
ATOM     54  N   UNL A   1      44.305  26.466  29.772  1.00  0.00    -0.248 NA
ATOM     55  C   UNL A   1      45.103  24.383  29.074  1.00  0.00     0.031 C 
ATOM     56  C   UNL A   1      46.673  29.412  32.096  1.00  0.00     0.029 A 
ATOM     57  C   UNL A   1      45.960  28.476  31.366  1.00  0.00     0.049 A 
ATOM     58  H   UNL A   1      43.992  28.600  30.612  1.00  0.00     0.167 HD
ATOM     59  C   UNL A   1      45.614  26.306  30.216  1.00  0.00     0.074 A 
ATOM     60  C   UNL A   1      46.043  24.992  29.785  1.00  0.00     0.031 C 
ATOM     61  C   UNL A   1      46.385  27.168  30.926  1.00  0.00     0.031 A 
BRANCH  48  62
ATOM     62  C   UNL A   1      43.629  32.577  32.155  1.00  0.00    -0.014 A 
ATOM     63  C   UNL A   1      43.201  32.878  33.462  1.00  0.00     0.010 A 
ATOM     64  C   UNL A   1      44.189  33.603  31.372  1.00  0.00     0.010 A 
ATOM     65  C   UNL A   1      43.261  34.189  33.944  1.00  0.00     0.020 A 
ATOM     66  C   UNL A   1      44.289  34.908  31.865  1.00  0.00     0.020 A 
ATOM     67  C   UNL A   1      43.797  35.197  33.139  1.00  0.00     0.054 A 
BRANCH  67  68
ATOM     68  S   UNL A   1      43.843  36.892  33.782  1.00  0.00     0.124 S 
ATOM     69  O   UNL A   1      42.673  36.912  34.656  1.00  0.00    -0.237 OA
ATOM     70  O   UNL A   1      45.135  36.942  34.461  1.00  0.00    -0.237 OA
ATOM     71  O   UNL A   1      43.738  37.722  32.584  1.00  0.00    -0.744 OA
ENDBRANCH  67  68
ENDBRANCH  48  62
BRANCH  49  72
ATOM     72  C   UNL A   1      42.541  23.610  27.878  1.00  0.00    -0.014 A 
ATOM     73  C   UNL A   1      42.815  23.416  26.513  1.00  0.00     0.010 A 
ATOM     74  C   UNL A   1      42.138  22.510  28.657  1.00  0.00     0.010 A 
ATOM     75  C   UNL A   1      42.682  22.150  25.935  1.00  0.00     0.020 A 
ATOM     76  C   UNL A   1      42.034  21.236  28.091  1.00  0.00     0.020 A 
ATOM     77  C   UNL A   1      42.301  21.066  26.731  1.00  0.00     0.054 A 
BRANCH  77  78
ATOM     78  S   UNL A   1      42.206  19.421  25.972  1.00  0.00     0.124 S 
ATOM     79  O   UNL A   1      40.780  19.301  25.685  1.00  0.00    -0.237 OA
ATOM     80  O   UNL A   1      43.076  19.564  24.807  1.00  0.00    -0.237 OA
ATOM     81  O   UNL A   1      42.711  18.532  27.015  1.00  0.00    -0.744 OA
ENDBRANCH  77  78
ENDBRANCH  49  72
BRANCH  61  82
ATOM     82  C   UNL A   1      47.765  26.707  31.322  1.00  0.00    -0.014 A 
ATOM     83  C   UNL A   1      48.011  26.096  32.565  1.00  0.00     0.010 A 
ATOM     84  C   UNL A   1      48.826  26.842  30.407  1.00  0.00     0.010 A 
ATOM     85  C   UNL A   1      49.297  25.657  32.895  1.00  0.00     0.020 A 
ATOM     86  C   UNL A   1      50.105  26.372  30.718  1.00  0.00     0.020 A 
ATOM     87  C   UNL A   1      50.334  25.795  31.968  1.00  0.00     0.054 A 
BRANCH  87  88
ATOM     88  S   UNL A   1      51.981  25.170  32.403  1.00  0.00     0.124 S 
ATOM     89  O   UNL A   1      51.793  23.724  32.308  1.00  0.00    -0.237 OA
ATOM     90  O   UNL A   1      52.829  25.763  31.372  1.00  0.00    -0.237 OA
ATOM     91  O   UNL A   1      52.201  25.681  33.754  1.00  0.00    -0.744 OA
ENDBRANCH  87  88
ENDBRANCH  61  82
ENDBRANCH  35  36
ENDBRANCH  27  30
ENDBRANCH  25  26
ENDBRANCH  24  25
ENDBRANCH   1  24
TORSDOF 18
ENDMDL
MODEL 2
REMARK VINA RESULT:      -9.5      4.377      9.640
REMARK SMILES N#Cc1cc(-c2cnccc2C(=O)NCCCCCCNC(=O)c2ccc(-c3c4nc(c(-c5ccc(S(=O)(=O)[O-])cc5)c5ccc([nH]5)c(-c5ccc(S(=O)(=O)[O-])cc5)c5nc(c(-c6ccc(S(=O)(=O)[O-])cc6)c6ccc3[nH]6)C=C5)C=C4)cc2)ccc1Cl
REMARK SMILES IDX 18 1 17 2 16 3 15 4 14 5 12 6 13 7 11 9 6 10 7 11 8 12 10 13
REMARK SMILES IDX 9 14 5 15 3 16 4 17 86 18 85 19 87 20 84 21 2 22 1 23 19 24
REMARK SMILES IDX 20 25 21 26 22 27 23 29 24 30 25 31 83 32 26 33 82 34 27 35
REMARK SMILES IDX 28 36 29 37 76 38 30 39 81 40 75 41 77 42 31 43 80 44 74 45
REMARK SMILES IDX 73 46 32 48 62 49 43 50 61 51 44 52 47 53 60 54 78 55 45 56
REMARK SMILES IDX 46 57 59 59 79 60 48 61 33 62 34 63 42 64 35 65 41 66 36 67
REMARK SMILES IDX 37 68 38 69 39 70 40 71 63 72 64 73 72 74 65 75 71 76 66 77
REMARK SMILES IDX 67 78 68 79 69 80 70 81 49 82 50 83 58 84 51 85 57 86 52 87
REMARK SMILES IDX 53 88 54 89 55 90 56 91
REMARK H PARENT 14 8 21 28 77 47 47 58
REMARK Flexibility Score: inf
ROOT
ATOM      1  C   UNL A   1      38.496  23.808  26.383  1.00  0.00     0.002 C 
ENDROOT
BRANCH   1   2
ATOM      2  C   UNL A   1      37.263  23.428  25.555  1.00  0.00     0.002 C 
BRANCH   2   3
ATOM      3  C   UNL A   1      37.349  22.185  24.669  1.00  0.00     0.021 C 
BRANCH   3   4
ATOM      4  C   UNL A   1      36.538  20.966  25.073  1.00  0.00     0.116 C 
BRANCH   4   5
ATOM      5  N   UNL A   1      35.520  21.120  26.071  1.00  0.00    -0.352 N 
ATOM      6  C   UNL A   1      34.150  21.069  25.953  1.00  0.00     0.252 C 
ATOM      7  O   UNL A   1      33.525  21.070  27.020  1.00  0.00    -0.269 OA
ATOM      8  H   UNL A   1      35.854  21.291  26.982  1.00  0.00     0.163 HD
BRANCH   6   9
ATOM      9  C   UNL A   1      33.345  21.108  24.673  1.00  0.00     0.050 A 
ATOM     10  C   UNL A   1      32.922  22.193  23.870  1.00  0.00     0.013 A 
ATOM     11  C   UNL A   1      32.185  21.861  22.716  1.00  0.00     0.120 A 
ATOM     12  N   UNL A   1      31.860  20.617  22.301  1.00  0.00    -0.264 NA
ATOM     13  C   UNL A   1      33.021  19.803  24.228  1.00  0.00     0.034 A 
ATOM     14  C   UNL A   1      32.296  19.610  23.065  1.00  0.00     0.112 A 
BRANCH  10  15
ATOM     15  C   UNL A   1      33.148  23.633  24.076  1.00  0.00    -0.015 A 
ATOM     16  C   UNL A   1      32.794  25.723  25.291  1.00  0.00     0.071 A 
ATOM     17  C   UNL A   1      32.619  24.329  25.171  1.00  0.00     0.029 A 
ATOM     18  C   UNL A   1      33.560  26.416  24.344  1.00  0.00     0.058 A 
ATOM     19  C   UNL A   1      34.123  25.731  23.268  1.00  0.00     0.022 A 
ATOM     20  Cl  UNL A   1      33.787  28.128  24.407  1.00  0.00    -0.083 Cl
ATOM     21  C   UNL A   1      33.923  24.355  23.142  1.00  0.00     0.010 A 
BRANCH  16  22
ATOM     22  C   UNL A   1      32.067  26.414  26.317  1.00  0.00     0.101 C 
ATOM     23  N   UNL A   1      31.413  26.989  27.081  1.00  0.00    -0.192 NA
ENDBRANCH  16  22
ENDBRANCH  10  15
ENDBRANCH   6   9
ENDBRANCH   4   5
ENDBRANCH   3   4
ENDBRANCH   2   3
ENDBRANCH   1   2
BRANCH   1  24
ATOM     24  C   UNL A   1      39.594  22.753  26.523  1.00  0.00     0.021 C 
BRANCH  24  25
ATOM     25  C   UNL A   1      40.960  23.239  26.992  1.00  0.00     0.116 C 
BRANCH  25  26
ATOM     26  N   UNL A   1      41.628  24.065  26.005  1.00  0.00    -0.352 N 
ATOM     27  C   UNL A   1      41.892  25.413  26.023  1.00  0.00     0.251 C 
ATOM     28  H   UNL A   1      41.938  23.588  25.201  1.00  0.00     0.163 HD
ATOM     29  O   UNL A   1      42.304  25.960  25.002  1.00  0.00    -0.269 OA
BRANCH  27  30
ATOM     30  C   UNL A   1      41.676  26.215  27.253  1.00  0.00     0.039 A 
ATOM     31  C   UNL A   1      42.491  27.329  27.481  1.00  0.00     0.014 A 
ATOM     32  C   UNL A   1      40.712  25.858  28.198  1.00  0.00     0.014 A 
ATOM     33  C   UNL A   1      42.306  28.107  28.628  1.00  0.00     0.010 A 
ATOM     34  C   UNL A   1      40.476  26.679  29.301  1.00  0.00     0.010 A 
ATOM     35  C   UNL A   1      41.276  27.807  29.536  1.00  0.00    -0.014 A 
BRANCH  35  36
ATOM     36  C   UNL A   1      41.028  28.656  30.733  1.00  0.00     0.031 A 
ATOM     37  C   UNL A   1      39.909  29.665  30.736  1.00  0.00     0.074 A 
ATOM     38  C   UNL A   1      41.842  28.558  31.803  1.00  0.00     0.049 A 
ATOM     39  N   UNL A   1      39.561  30.512  31.673  1.00  0.00    -0.248 NA
ATOM     40  C   UNL A   1      39.088  29.750  29.518  1.00  0.00     0.031 C 
ATOM     41  C   UNL A   1      42.972  27.635  31.924  1.00  0.00     0.029 A 
ATOM     42  N   UNL A   1      41.841  29.240  32.995  1.00  0.00    -0.354 N 
ATOM     43  C   UNL A   1      38.497  31.241  31.150  1.00  0.00     0.074 A 
ATOM     44  C   UNL A   1      38.295  30.773  29.797  1.00  0.00     0.031 C 
ATOM     45  C   UNL A   1      43.525  27.775  33.140  1.00  0.00     0.029 A 
ATOM     46  C   UNL A   1      42.827  28.834  33.865  1.00  0.00     0.049 A 
ATOM     47  H   UNL A   1      41.196  29.952  33.209  1.00  0.00     0.167 HD
ATOM     48  C   UNL A   1      37.749  32.203  31.745  1.00  0.00     0.031 A 
ATOM     49  C   UNL A   1      43.140  29.265  35.102  1.00  0.00     0.031 A 
ATOM     50  C   UNL A   1      37.962  32.672  33.091  1.00  0.00     0.049 A 
ATOM     51  C   UNL A   1      42.329  30.369  35.724  1.00  0.00     0.074 A 
ATOM     52  C   UNL A   1      37.227  33.603  33.804  1.00  0.00     0.029 A 
ATOM     53  N   UNL A   1      38.994  32.260  33.923  1.00  0.00    -0.354 N 
ATOM     54  N   UNL A   1      41.286  31.000  35.240  1.00  0.00    -0.248 NA
ATOM     55  C   UNL A   1      42.735  30.812  37.065  1.00  0.00     0.031 C 
ATOM     56  C   UNL A   1      37.861  33.813  35.033  1.00  0.00     0.029 A 
ATOM     57  C   UNL A   1      38.940  32.950  35.123  1.00  0.00     0.049 A 
ATOM     58  H   UNL A   1      39.665  31.577  33.693  1.00  0.00     0.167 HD
ATOM     59  C   UNL A   1      40.888  31.890  36.233  1.00  0.00     0.074 A 
ATOM     60  C   UNL A   1      41.797  31.707  37.346  1.00  0.00     0.031 C 
ATOM     61  C   UNL A   1      39.855  32.769  36.226  1.00  0.00     0.031 A 
BRANCH  48  62
ATOM     62  C   UNL A   1      36.655  32.843  30.923  1.00  0.00    -0.014 A 
ATOM     63  C   UNL A   1      35.310  32.443  31.045  1.00  0.00     0.010 A 
ATOM     64  C   UNL A   1      36.978  33.868  30.016  1.00  0.00     0.010 A 
ATOM     65  C   UNL A   1      34.326  33.003  30.226  1.00  0.00     0.020 A 
ATOM     66  C   UNL A   1      35.990  34.461  29.223  1.00  0.00     0.020 A 
ATOM     67  C   UNL A   1      34.675  34.004  29.314  1.00  0.00     0.054 A 
BRANCH  67  68
ATOM     68  S   UNL A   1      33.382  34.697  28.248  1.00  0.00     0.124 S 
ATOM     69  O   UNL A   1      34.165  35.496  27.308  1.00  0.00    -0.237 OA
ATOM     70  O   UNL A   1      32.755  33.504  27.687  1.00  0.00    -0.237 OA
ATOM     71  O   UNL A   1      32.546  35.464  29.168  1.00  0.00    -0.744 OA
ENDBRANCH  67  68
ENDBRANCH  48  62
BRANCH  49  72
ATOM     72  C   UNL A   1      44.255  28.620  35.851  1.00  0.00    -0.014 A 
ATOM     73  C   UNL A   1      43.991  27.558  36.735  1.00  0.00     0.010 A 
ATOM     74  C   UNL A   1      45.584  29.039  35.667  1.00  0.00     0.010 A 
ATOM     75  C   UNL A   1      45.033  26.934  37.426  1.00  0.00     0.020 A 
ATOM     76  C   UNL A   1      46.633  28.397  36.331  1.00  0.00     0.020 A 
ATOM     77  C   UNL A   1      46.350  27.351  37.212  1.00  0.00     0.054 A 
BRANCH  77  78
ATOM     78  S   UNL A   1      47.689  26.476  38.067  1.00  0.00     0.124 S 
ATOM     79  O   UNL A   1      47.682  27.117  39.378  1.00  0.00    -0.237 OA
ATOM     80  O   UNL A   1      47.227  25.091  38.036  1.00  0.00    -0.237 OA
ATOM     81  O   UNL A   1      48.862  26.754  37.241  1.00  0.00    -0.744 OA
ENDBRANCH  77  78
ENDBRANCH  49  72
BRANCH  61  82
ATOM     82  C   UNL A   1      39.619  33.582  37.475  1.00  0.00    -0.014 A 
ATOM     83  C   UNL A   1      38.916  33.058  38.574  1.00  0.00     0.010 A 
ATOM     84  C   UNL A   1      40.162  34.878  37.567  1.00  0.00     0.010 A 
ATOM     85  C   UNL A   1      38.734  33.826  39.728  1.00  0.00     0.020 A 
ATOM     86  C   UNL A   1      40.013  35.635  38.731  1.00  0.00     0.020 A 
ATOM     87  C   UNL A   1      39.287  35.108  39.800  1.00  0.00     0.054 A 
BRANCH  87  88
ATOM     88  S   UNL A   1      39.079  36.062  41.329  1.00  0.00     0.124 S 
ATOM     89  O   UNL A   1      40.306  35.744  42.056  1.00  0.00    -0.237 OA
ATOM     90  O   UNL A   1      38.978  37.434  40.837  1.00  0.00    -0.237 OA
ATOM     91  O   UNL A   1      37.853  35.523  41.912  1.00  0.00    -0.744 OA
ENDBRANCH  87  88
ENDBRANCH  61  82
ENDBRANCH  35  36
ENDBRANCH  27  30
ENDBRANCH  25  26
ENDBRANCH  24  25
ENDBRANCH   1  24
TORSDOF 18
ENDMDL
MODEL 3
REMARK VINA RESULT:      -9.4      4.191     10.009
REMARK SMILES N#Cc1cc(-c2cnccc2C(=O)NCCCCCCNC(=O)c2ccc(-c3c4nc(c(-c5ccc(S(=O)(=O)[O-])cc5)c5ccc([nH]5)c(-c5ccc(S(=O)(=O)[O-])cc5)c5nc(c(-c6ccc(S(=O)(=O)[O-])cc6)c6ccc3[nH]6)C=C5)C=C4)cc2)ccc1Cl
REMARK SMILES IDX 18 1 17 2 16 3 15 4 14 5 12 6 13 7 11 9 6 10 7 11 8 12 10 13
REMARK SMILES IDX 9 14 5 15 3 16 4 17 86 18 85 19 87 20 84 21 2 22 1 23 19 24
REMARK SMILES IDX 20 25 21 26 22 27 23 29 24 30 25 31 83 32 26 33 82 34 27 35
REMARK SMILES IDX 28 36 29 37 76 38 30 39 81 40 75 41 77 42 31 43 80 44 74 45
REMARK SMILES IDX 73 46 32 48 62 49 43 50 61 51 44 52 47 53 60 54 78 55 45 56
REMARK SMILES IDX 46 57 59 59 79 60 48 61 33 62 34 63 42 64 35 65 41 66 36 67
REMARK SMILES IDX 37 68 38 69 39 70 40 71 63 72 64 73 72 74 65 75 71 76 66 77
REMARK SMILES IDX 67 78 68 79 69 80 70 81 49 82 50 83 58 84 51 85 57 86 52 87
REMARK SMILES IDX 53 88 54 89 55 90 56 91
REMARK H PARENT 14 8 21 28 77 47 47 58
REMARK Flexibility Score: inf
ROOT
ATOM      1  C   UNL A   1      38.341  23.667  25.691  1.00  0.00     0.002 C 
ENDROOT
BRANCH   1   2
ATOM      2  C   UNL A   1      36.994  23.288  25.062  1.00  0.00     0.002 C 
BRANCH   2   3
ATOM      3  C   UNL A   1      36.881  21.927  24.376  1.00  0.00     0.021 C 
BRANCH   3   4
ATOM      4  C   UNL A   1      36.383  20.753  25.201  1.00  0.00     0.116 C 
BRANCH   4   5
ATOM      5  N   UNL A   1      35.329  20.979  26.146  1.00  0.00    -0.352 N 
ATOM      6  C   UNL A   1      33.964  20.975  25.968  1.00  0.00     0.252 C 
ATOM      7  O   UNL A   1      33.293  21.036  27.004  1.00  0.00    -0.269 OA
ATOM      8  H   UNL A   1      35.628  21.168  27.065  1.00  0.00     0.163 HD
BRANCH   6   9
ATOM      9  C   UNL A   1      33.219  21.001  24.652  1.00  0.00     0.050 A 
ATOM     10  C   UNL A   1      32.854  22.075  23.807  1.00  0.00     0.013 A 
ATOM     11  C   UNL A   1      32.164  21.731  22.627  1.00  0.00     0.120 A 
ATOM     12  N   UNL A   1      31.833  20.485  22.225  1.00  0.00    -0.264 NA
ATOM     13  C   UNL A   1      32.889  19.693  24.220  1.00  0.00     0.034 A 
ATOM     14  C   UNL A   1      32.214  19.487  23.030  1.00  0.00     0.112 A 
BRANCH  10  15
ATOM     15  C   UNL A   1      33.099  23.515  23.992  1.00  0.00    -0.015 A 
ATOM     16  C   UNL A   1      32.800  25.620  25.196  1.00  0.00     0.071 A 
ATOM     17  C   UNL A   1      32.609  24.227  25.095  1.00  0.00     0.029 A 
ATOM     18  C   UNL A   1      33.544  26.297  24.220  1.00  0.00     0.058 A 
ATOM     19  C   UNL A   1      34.069  25.596  23.135  1.00  0.00     0.022 A 
ATOM     20  Cl  UNL A   1      33.788  28.007  24.260  1.00  0.00    -0.083 Cl
ATOM     21  C   UNL A   1      33.853  24.221  23.028  1.00  0.00     0.010 A 
BRANCH  16  22
ATOM     22  C   UNL A   1      32.110  26.327  26.236  1.00  0.00     0.101 C 
ATOM     23  N   UNL A   1      31.482  26.912  27.015  1.00  0.00    -0.192 NA
ENDBRANCH  16  22
ENDBRANCH  10  15
ENDBRANCH   6   9
ENDBRANCH   4   5
ENDBRANCH   3   4
ENDBRANCH   2   3
ENDBRANCH   1   2
BRANCH   1  24
ATOM     24  C   UNL A   1      39.132  22.549  26.371  1.00  0.00     0.021 C 
BRANCH  24  25
ATOM     25  C   UNL A   1      40.381  22.961  27.141  1.00  0.00     0.116 C 
BRANCH  25  26
ATOM     26  N   UNL A   1      41.412  23.508  26.282  1.00  0.00    -0.352 N 
ATOM     27  C   UNL A   1      42.011  24.745  26.307  1.00  0.00     0.251 C 
ATOM     28  H   UNL A   1      41.731  22.902  25.574  1.00  0.00     0.163 HD
ATOM     29  O   UNL A   1      42.734  25.083  25.372  1.00  0.00    -0.269 OA
BRANCH  27  30
ATOM     30  C   UNL A   1      41.786  25.677  27.439  1.00  0.00     0.039 A 
ATOM     31  C   UNL A   1      42.749  26.655  27.707  1.00  0.00     0.014 A 
ATOM     32  C   UNL A   1      40.661  25.570  28.261  1.00  0.00     0.014 A 
ATOM     33  C   UNL A   1      42.561  27.551  28.764  1.00  0.00     0.010 A 
ATOM     34  C   UNL A   1      40.436  26.514  29.264  1.00  0.00     0.010 A 
ATOM     35  C   UNL A   1      41.387  27.508  29.536  1.00  0.00    -0.014 A 
BRANCH  35  36
ATOM     36  C   UNL A   1      41.144  28.489  30.628  1.00  0.00     0.031 A 
ATOM     37  C   UNL A   1      41.988  28.471  31.876  1.00  0.00     0.074 A 
ATOM     38  C   UNL A   1      40.127  29.369  30.522  1.00  0.00     0.049 A 
ATOM     39  N   UNL A   1      41.903  29.225  32.943  1.00  0.00    -0.248 NA
ATOM     40  C   UNL A   1      43.050  27.456  31.944  1.00  0.00     0.031 C 
ATOM     41  C   UNL A   1      39.223  29.483  29.376  1.00  0.00     0.029 A 
ATOM     42  N   UNL A   1      39.685  30.337  31.389  1.00  0.00    -0.354 N 
ATOM     43  C   UNL A   1      42.885  28.764  33.814  1.00  0.00     0.074 A 
ATOM     44  C   UNL A   1      43.514  27.631  33.172  1.00  0.00     0.031 C 
ATOM     45  C   UNL A   1      38.367  30.495  29.591  1.00  0.00     0.029 A 
ATOM     46  C   UNL A   1      38.622  31.066  30.910  1.00  0.00     0.049 A 
ATOM     47  H   UNL A   1      40.092  30.496  32.272  1.00  0.00     0.167 HD
ATOM     48  C   UNL A   1      43.241  29.246  35.031  1.00  0.00     0.031 A 
ATOM     49  C   UNL A   1      37.925  32.076  31.467  1.00  0.00     0.031 A 
ATOM     50  C   UNL A   1      42.603  30.369  35.670  1.00  0.00     0.049 A 
ATOM     51  C   UNL A   1      38.303  32.561  32.840  1.00  0.00     0.074 A 
ATOM     52  C   UNL A   1      42.924  30.967  36.876  1.00  0.00     0.029 A 
ATOM     53  N   UNL A   1      41.507  31.054  35.166  1.00  0.00    -0.354 N 
ATOM     54  N   UNL A   1      39.276  32.156  33.620  1.00  0.00    -0.248 NA
ATOM     55  C   UNL A   1      37.490  33.648  33.403  1.00  0.00     0.031 C 
ATOM     56  C   UNL A   1      41.972  31.959  37.139  1.00  0.00     0.029 A 
ATOM     57  C   UNL A   1      41.112  32.040  36.056  1.00  0.00     0.049 A 
ATOM     58  H   UNL A   1      41.074  30.867  34.300  1.00  0.00     0.167 HD
ATOM     59  C   UNL A   1      39.217  32.964  34.751  1.00  0.00     0.074 A 
ATOM     60  C   UNL A   1      38.117  33.885  34.548  1.00  0.00     0.031 C 
ATOM     61  C   UNL A   1      40.009  32.949  35.852  1.00  0.00     0.031 A 
BRANCH  48  62
ATOM     62  C   UNL A   1      44.345  28.527  35.769  1.00  0.00    -0.014 A 
ATOM     63  C   UNL A   1      45.697  28.885  35.604  1.00  0.00     0.010 A 
ATOM     64  C   UNL A   1      44.024  27.479  36.650  1.00  0.00     0.010 A 
ATOM     65  C   UNL A   1      46.706  28.162  36.247  1.00  0.00     0.020 A 
ATOM     66  C   UNL A   1      45.027  26.778  37.326  1.00  0.00     0.020 A 
ATOM     67  C   UNL A   1      46.364  27.107  37.098  1.00  0.00     0.054 A 
BRANCH  67  68
ATOM     68  S   UNL A   1      47.694  26.172  37.901  1.00  0.00     0.124 S 
ATOM     69  O   UNL A   1      48.856  27.016  37.636  1.00  0.00    -0.237 OA
ATOM     70  O   UNL A   1      47.256  26.125  39.294  1.00  0.00    -0.237 OA
ATOM     71  O   UNL A   1      47.687  24.887  37.205  1.00  0.00    -0.744 OA
ENDBRANCH  67  68
ENDBRANCH  48  62
BRANCH  49  72
ATOM     72  C   UNL A   1      36.820  32.722  30.704  1.00  0.00    -0.014 A 
ATOM     73  C   UNL A   1      35.499  32.260  30.846  1.00  0.00     0.010 A 
ATOM     74  C   UNL A   1      37.073  33.817  29.858  1.00  0.00     0.010 A 
ATOM     75  C   UNL A   1      34.454  32.875  30.151  1.00  0.00     0.020 A 
ATOM     76  C   UNL A   1      36.027  34.455  29.186  1.00  0.00     0.020 A 
ATOM     77  C   UNL A   1      34.724  33.975  29.332  1.00  0.00     0.054 A 
BRANCH  77  78
ATOM     78  S   UNL A   1      33.339  34.798  28.497  1.00  0.00     0.124 S 
ATOM     79  O   UNL A   1      32.551  33.663  28.026  1.00  0.00    -0.237 OA
ATOM     80  O   UNL A   1      32.742  35.578  29.579  1.00  0.00    -0.237 OA
ATOM     81  O   UNL A   1      33.988  35.586  27.453  1.00  0.00    -0.744 OA
ENDBRANCH  77  78
ENDBRANCH  49  72
BRANCH  61  82
ATOM     82  C   UNL A   1      39.748  33.987  36.915  1.00  0.00    -0.014 A 
ATOM     83  C   UNL A   1      38.997  33.690  38.067  1.00  0.00     0.010 A 
ATOM     84  C   UNL A   1      40.314  35.268  36.781  1.00  0.00     0.010 A 
ATOM     85  C   UNL A   1      38.793  34.666  39.048  1.00  0.00     0.020 A 
ATOM     86  C   UNL A   1      40.142  36.235  37.775  1.00  0.00     0.020 A 
ATOM     87  C   UNL A   1      39.370  35.931  38.897  1.00  0.00     0.054 A 
BRANCH  87  88
ATOM     88  S   UNL A   1      39.131  37.160  40.209  1.00  0.00     0.124 S 
ATOM     89  O   UNL A   1      38.360  36.407  41.196  1.00  0.00    -0.237 OA
ATOM     90  O   UNL A   1      40.502  37.484  40.596  1.00  0.00    -0.237 OA
ATOM     91  O   UNL A   1      38.405  38.240  39.546  1.00  0.00    -0.744 OA
ENDBRANCH  87  88
ENDBRANCH  61  82
ENDBRANCH  35  36
ENDBRANCH  27  30
ENDBRANCH  25  26
ENDBRANCH  24  25
ENDBRANCH   1  24
TORSDOF 18
ENDMDL
