MODEL 1
REMARK VINA RESULT:     -13.3      0.000      0.000
REMARK SMILES Cc1c(NC(=O)[C@@H]2CC=CC[C@@H]2C(=O)NCCCCCCNC(=O)c2ccc(-c3c4nc(c(-c5ccc(S(=O)(=O)[O-])cc5)c5ccc([nH]5)c(-c5ccc(S(=O)(=O)[O-])cc5)c5nc(c(-c6ccc(S(=O)(=O)[O-])cc6)c6ccc3[nH]6)C=C5)C=C4)cc2)cccc1C(=O)N1CCOCC1
REMARK SMILES IDX 18 1 17 2 16 3 15 4 13 5 14 6 12 8 7 9 8 10 9 11 11 12 10 13
REMARK SMILES IDX 5 14 4 15 6 17 3 18 1 19 2 20 88 21 85 22 87 23 86 24 89 25
REMARK SMILES IDX 90 26 91 27 92 28 96 29 93 30 95 31 94 32 19 33 20 34 21 35
REMARK SMILES IDX 22 36 23 37 24 39 25 40 26 41 84 42 27 43 83 44 28 45 29 46
REMARK SMILES IDX 30 47 77 48 31 49 82 50 76 51 78 52 32 53 81 54 75 55 74 56
REMARK SMILES IDX 33 58 63 59 44 60 62 61 45 62 48 63 61 64 79 65 46 66 47 67
REMARK SMILES IDX 60 69 80 70 49 71 34 72 35 73 43 74 36 75 42 76 37 77 38 78
REMARK SMILES IDX 39 79 40 80 41 81 64 82 65 83 73 84 66 85 72 86 67 87 68 88
REMARK SMILES IDX 69 89 70 90 71 91 50 92 51 93 59 94 52 95 58 96 53 97 54 98
REMARK SMILES IDX 55 99 56 100 57 101
REMARK H PARENT 15 7 4 16 22 38 78 57 48 68
REMARK Flexibility Score: inf
ROOT
ATOM      1  C   UNL A   1      30.679  29.781  24.887  1.00  0.00     0.002 C 
ENDROOT
BRANCH   1   2
ATOM      2  C   UNL A   1      30.063  30.358  23.607  1.00  0.00     0.021 C 
BRANCH   2   3
ATOM      3  C   UNL A   1      30.329  29.560  22.330  1.00  0.00     0.116 C 
BRANCH   3   4
ATOM      4  N   UNL A   1      30.268  28.129  22.550  1.00  0.00    -0.356 N 
ATOM      5  C   UNL A   1      31.135  27.094  22.518  1.00  0.00     0.224 C 
ATOM      6  O   UNL A   1      30.641  26.030  22.930  1.00  0.00    -0.275 OA
ATOM      7  H   UNL A   1      29.358  27.834  22.783  1.00  0.00     0.163 HD
BRANCH   5   8
ATOM      8  C   UNL A   1      32.633  27.095  22.126  1.00  0.00     0.095 C 
ATOM      9  C   UNL A   1      33.615  25.960  22.505  1.00  0.00     0.095 C 
ATOM     10  C   UNL A   1      33.671  25.806  24.034  1.00  0.00     0.041 C 
ATOM     11  C   UNL A   1      33.887  27.134  24.711  1.00  0.00    -0.030 C 
ATOM     12  C   UNL A   1      33.256  28.420  22.658  1.00  0.00     0.041 C 
ATOM     13  C   UNL A   1      33.728  28.309  24.082  1.00  0.00    -0.030 C 
BRANCH   9  14
ATOM     14  C   UNL A   1      33.382  24.730  21.639  1.00  0.00     0.228 C 
ATOM     15  N   UNL A   1      33.601  23.452  22.036  1.00  0.00    -0.326 N 
ATOM     16  H   UNL A   1      33.147  22.806  21.448  1.00  0.00     0.169 HD
ATOM     17  O   UNL A   1      32.940  24.845  20.488  1.00  0.00    -0.274 OA
BRANCH  15  18
ATOM     18  C   UNL A   1      34.305  22.809  23.069  1.00  0.00     0.044 A 
ATOM     19  C   UNL A   1      32.136  21.627  23.600  1.00  0.00     0.047 C 
ATOM     20  C   UNL A   1      33.627  21.776  23.776  1.00  0.00    -0.015 A 
ATOM     21  C   UNL A   1      34.350  20.969  24.685  1.00  0.00     0.045 A 
ATOM     22  C   UNL A   1      35.642  23.085  23.357  1.00  0.00     0.026 A 
ATOM     23  C   UNL A   1      35.687  21.287  24.970  1.00  0.00     0.014 A 
ATOM     24  C   UNL A   1      36.322  22.346  24.326  1.00  0.00     0.003 A 
BRANCH  21  25
ATOM     25  C   UNL A   1      33.744  19.898  25.530  1.00  0.00     0.254 C 
ATOM     26  O   UNL A   1      33.221  20.248  26.587  1.00  0.00    -0.269 OA
ATOM     27  N   UNL A   1      33.732  18.568  25.121  1.00  0.00    -0.334 N 
ATOM     28  C   UNL A   1      34.741  17.896  24.297  1.00  0.00     0.148 C 
ATOM     29  C   UNL A   1      32.807  17.654  25.797  1.00  0.00     0.148 C 
ATOM     30  C   UNL A   1      34.107  16.825  23.392  1.00  0.00     0.181 C 
ATOM     31  C   UNL A   1      32.213  16.664  24.793  1.00  0.00     0.181 C 
ATOM     32  O   UNL A   1      33.258  15.932  24.130  1.00  0.00    -0.378 OA
ENDBRANCH  21  25
ENDBRANCH  15  18
ENDBRANCH   9  14
ENDBRANCH   5   8
ENDBRANCH   3   4
ENDBRANCH   2   3
ENDBRANCH   1   2
BRANCH   1  33
ATOM     33  C   UNL A   1      31.445  30.762  25.790  1.00  0.00     0.002 C 
BRANCH  33  34
ATOM     34  C   UNL A   1      32.128  30.162  27.021  1.00  0.00     0.021 C 
BRANCH  34  35
ATOM     35  C   UNL A   1      33.644  30.304  27.027  1.00  0.00     0.116 C 
BRANCH  35  36
ATOM     36  N   UNL A   1      34.114  31.517  27.666  1.00  0.00    -0.352 N 
ATOM     37  C   UNL A   1      35.074  31.642  28.654  1.00  0.00     0.251 C 
ATOM     38  H   UNL A   1      33.700  32.356  27.359  1.00  0.00     0.163 HD
ATOM     39  O   UNL A   1      35.107  32.623  29.378  1.00  0.00    -0.269 OA
BRANCH  37  40
ATOM     40  C   UNL A   1      36.143  30.618  28.717  1.00  0.00     0.039 A 
ATOM     41  C   UNL A   1      36.175  29.793  29.850  1.00  0.00     0.014 A 
ATOM     42  C   UNL A   1      37.196  30.610  27.809  1.00  0.00     0.014 A 
ATOM     43  C   UNL A   1      37.333  29.075  30.157  1.00  0.00     0.010 A 
ATOM     44  C   UNL A   1      38.369  29.970  28.158  1.00  0.00     0.010 A 
ATOM     45  C   UNL A   1      38.453  29.224  29.345  1.00  0.00    -0.014 A 
BRANCH  45  46
ATOM     46  C   UNL A   1      39.782  28.688  29.628  1.00  0.00     0.031 A 
ATOM     47  C   UNL A   1      40.182  27.364  29.084  1.00  0.00     0.074 A 
ATOM     48  C   UNL A   1      40.733  29.476  30.176  1.00  0.00     0.049 A 
ATOM     49  N   UNL A   1      41.266  26.741  29.404  1.00  0.00    -0.248 NA
ATOM     50  C   UNL A   1      39.340  26.601  28.167  1.00  0.00     0.031 C 
ATOM     51  C   UNL A   1      42.178  29.317  30.025  1.00  0.00     0.029 A 
ATOM     52  N   UNL A   1      40.606  30.452  31.162  1.00  0.00    -0.354 N 
ATOM     53  C   UNL A   1      41.422  25.693  28.526  1.00  0.00     0.074 A 
ATOM     54  C   UNL A   1      40.147  25.583  27.857  1.00  0.00     0.031 C 
ATOM     55  C   UNL A   1      42.787  29.922  31.054  1.00  0.00     0.029 A 
ATOM     56  C   UNL A   1      41.749  30.335  31.979  1.00  0.00     0.049 A 
ATOM     57  H   UNL A   1      39.867  31.094  31.268  1.00  0.00     0.167 HD
ATOM     58  C   UNL A   1      42.652  25.122  28.372  1.00  0.00     0.031 A 
ATOM     59  C   UNL A   1      41.728  30.062  33.318  1.00  0.00     0.031 A 
ATOM     60  C   UNL A   1      43.631  25.641  29.327  1.00  0.00     0.049 A 
ATOM     61  C   UNL A   1      42.565  28.865  33.727  1.00  0.00     0.074 A 
ATOM     62  C   UNL A   1      44.753  26.449  29.238  1.00  0.00     0.029 A 
ATOM     63  N   UNL A   1      43.389  25.475  30.680  1.00  0.00    -0.354 N 
ATOM     64  N   UNL A   1      43.242  28.122  32.897  1.00  0.00    -0.248 NA
ATOM     65  C   UNL A   1      42.605  28.335  35.094  1.00  0.00     0.031 C 
ATOM     66  C   UNL A   1      45.207  26.726  30.560  1.00  0.00     0.029 A 
ATOM     67  C   UNL A   1      44.360  26.087  31.444  1.00  0.00     0.049 A 
ATOM     68  H   UNL A   1      42.621  24.982  31.049  1.00  0.00     0.167 HD
ATOM     69  C   UNL A   1      43.691  27.004  33.548  1.00  0.00     0.074 A 
ATOM     70  C   UNL A   1      43.303  27.197  34.930  1.00  0.00     0.031 C 
ATOM     71  C   UNL A   1      44.275  25.966  32.887  1.00  0.00     0.031 A 
BRANCH  58  72
ATOM     72  C   UNL A   1      43.053  24.209  27.228  1.00  0.00    -0.014 A 
ATOM     73  C   UNL A   1      43.061  22.811  27.429  1.00  0.00     0.010 A 
ATOM     74  C   UNL A   1      43.483  24.643  25.962  1.00  0.00     0.010 A 
ATOM     75  C   UNL A   1      43.556  21.916  26.468  1.00  0.00     0.020 A 
ATOM     76  C   UNL A   1      43.993  23.764  24.994  1.00  0.00     0.020 A 
ATOM     77  C   UNL A   1      44.047  22.404  25.262  1.00  0.00     0.054 A 
BRANCH  77  78
ATOM     78  S   UNL A   1      44.761  21.255  24.062  1.00  0.00     0.124 S 
ATOM     79  O   UNL A   1      46.178  21.277  24.414  1.00  0.00    -0.237 OA
ATOM     80  O   UNL A   1      44.057  20.010  24.353  1.00  0.00    -0.237 OA
ATOM     81  O   UNL A   1      44.439  21.859  22.770  1.00  0.00    -0.744 OA
ENDBRANCH  77  78
ENDBRANCH  58  72
BRANCH  59  82
ATOM     82  C   UNL A   1      40.468  30.470  33.993  1.00  0.00    -0.014 A 
ATOM     83  C   UNL A   1      40.399  31.785  34.494  1.00  0.00     0.010 A 
ATOM     84  C   UNL A   1      39.278  29.774  33.710  1.00  0.00     0.010 A 
ATOM     85  C   UNL A   1      39.178  32.462  34.516  1.00  0.00     0.020 A 
ATOM     86  C   UNL A   1      38.054  30.448  33.742  1.00  0.00     0.020 A 
ATOM     87  C   UNL A   1      38.029  31.807  34.070  1.00  0.00     0.054 A 
BRANCH  87  88
ATOM     88  S   UNL A   1      36.569  32.821  33.687  1.00  0.00     0.124 S 
ATOM     89  O   UNL A   1      37.154  33.963  32.995  1.00  0.00    -0.237 OA
ATOM     90  O   UNL A   1      35.788  31.907  32.856  1.00  0.00    -0.237 OA
ATOM     91  O   UNL A   1      35.998  33.099  35.003  1.00  0.00    -0.744 OA
ENDBRANCH  87  88
ENDBRANCH  59  82
BRANCH  71  92
ATOM     92  C   UNL A   1      44.754  24.702  33.543  1.00  0.00    -0.014 A 
ATOM     93  C   UNL A   1      43.895  23.636  33.851  1.00  0.00     0.010 A 
ATOM     94  C   UNL A   1      46.091  24.613  33.996  1.00  0.00     0.010 A 
ATOM     95  C   UNL A   1      44.363  22.512  34.547  1.00  0.00     0.020 A 
ATOM     96  C   UNL A   1      46.564  23.506  34.702  1.00  0.00     0.020 A 
ATOM     97  C   UNL A   1      45.697  22.452  34.964  1.00  0.00     0.054 A 
BRANCH  97  98
ATOM     98  S   UNL A   1      46.271  21.013  35.903  1.00  0.00     0.124 S 
ATOM     99  O   UNL A   1      45.534  19.913  35.283  1.00  0.00    -0.237 OA
ATOM    100  O   UNL A   1      47.706  21.032  35.637  1.00  0.00    -0.237 OA
ATOM    101  O   UNL A   1      45.886  21.316  37.279  1.00  0.00    -0.744 OA
ENDBRANCH  97  98
ENDBRANCH  71  92
ENDBRANCH  45  46
ENDBRANCH  37  40
ENDBRANCH  35  36
ENDBRANCH  34  35
ENDBRANCH  33  34
ENDBRANCH   1  33
TORSDOF 19
ENDMDL
MODEL 2
REMARK VINA RESULT:     -13.0      4.193     11.129
REMARK SMILES Cc1c(NC(=O)[C@@H]2CC=CC[C@@H]2C(=O)NCCCCCCNC(=O)c2ccc(-c3c4nc(c(-c5ccc(S(=O)(=O)[O-])cc5)c5ccc([nH]5)c(-c5ccc(S(=O)(=O)[O-])cc5)c5nc(c(-c6ccc(S(=O)(=O)[O-])cc6)c6ccc3[nH]6)C=C5)C=C4)cc2)cccc1C(=O)N1CCOCC1
REMARK SMILES IDX 18 1 17 2 16 3 15 4 13 5 14 6 12 8 7 9 8 10 9 11 11 12 10 13
REMARK SMILES IDX 5 14 4 15 6 17 3 18 1 19 2 20 88 21 85 22 87 23 86 24 89 25
REMARK SMILES IDX 90 26 91 27 92 28 96 29 93 30 95 31 94 32 19 33 20 34 21 35
REMARK SMILES IDX 22 36 23 37 24 39 25 40 26 41 84 42 27 43 83 44 28 45 29 46
REMARK SMILES IDX 30 47 77 48 31 49 82 50 76 51 78 52 32 53 81 54 75 55 74 56
REMARK SMILES IDX 33 58 63 59 44 60 62 61 45 62 48 63 61 64 79 65 46 66 47 67
REMARK SMILES IDX 60 69 80 70 49 71 34 72 35 73 43 74 36 75 42 76 37 77 38 78
REMARK SMILES IDX 39 79 40 80 41 81 64 82 65 83 73 84 66 85 72 86 67 87 68 88
REMARK SMILES IDX 69 89 70 90 71 91 50 92 51 93 59 94 52 95 58 96 53 97 54 98
REMARK SMILES IDX 55 99 56 100 57 101
REMARK H PARENT 15 7 4 16 22 38 78 57 48 68
REMARK Flexibility Score: inf
ROOT
ATOM      1  C   UNL A   1      34.716  21.043  26.055  1.00  0.00     0.002 C 
ENDROOT
BRANCH   1   2
ATOM      2  C   UNL A   1      33.685  21.199  27.178  1.00  0.00     0.021 C 
BRANCH   2   3
ATOM      3  C   UNL A   1      33.216  22.630  27.449  1.00  0.00     0.116 C 
BRANCH   3   4
ATOM      4  N   UNL A   1      33.976  23.611  26.700  1.00  0.00    -0.356 N 
ATOM      5  C   UNL A   1      33.749  24.442  25.659  1.00  0.00     0.224 C 
ATOM      6  O   UNL A   1      34.689  25.229  25.449  1.00  0.00    -0.275 OA
ATOM      7  H   UNL A   1      34.897  23.693  27.037  1.00  0.00     0.163 HD
BRANCH   5   8
ATOM      8  C   UNL A   1      32.476  24.581  24.790  1.00  0.00     0.095 C 
ATOM      9  C   UNL A   1      31.154  23.831  25.088  1.00  0.00     0.095 C 
ATOM     10  C   UNL A   1      31.400  22.314  25.076  1.00  0.00     0.041 C 
ATOM     11  C   UNL A   1      32.149  21.889  23.841  1.00  0.00    -0.030 C 
ATOM     12  C   UNL A   1      32.867  24.230  23.324  1.00  0.00     0.041 C 
ATOM     13  C   UNL A   1      32.784  22.756  23.037  1.00  0.00    -0.030 C 
BRANCH   9  14
ATOM     14  C   UNL A   1      30.426  24.461  26.267  1.00  0.00     0.228 C 
ATOM     15  N   UNL A   1      30.330  25.794  26.493  1.00  0.00    -0.326 N 
ATOM     16  H   UNL A   1      29.612  26.003  27.134  1.00  0.00     0.169 HD
ATOM     17  O   UNL A   1      29.842  23.753  27.098  1.00  0.00    -0.274 OA
BRANCH  15  18
ATOM     18  C   UNL A   1      30.986  26.956  26.051  1.00  0.00     0.044 A 
ATOM     19  C   UNL A   1      29.741  26.641  23.874  1.00  0.00     0.047 C 
ATOM     20  C   UNL A   1      30.594  27.485  24.788  1.00  0.00    -0.015 A 
ATOM     21  C   UNL A   1      31.079  28.752  24.388  1.00  0.00     0.045 A 
ATOM     22  C   UNL A   1      31.923  27.637  26.828  1.00  0.00     0.026 A 
ATOM     23  C   UNL A   1      32.038  29.402  25.182  1.00  0.00     0.014 A 
ATOM     24  C   UNL A   1      32.469  28.840  26.381  1.00  0.00     0.003 A 
BRANCH  21  25
ATOM     25  C   UNL A   1      30.792  29.388  23.068  1.00  0.00     0.254 C 
ATOM     26  O   UNL A   1      31.497  29.047  22.119  1.00  0.00    -0.269 OA
ATOM     27  N   UNL A   1      29.748  30.293  22.907  1.00  0.00    -0.334 N 
ATOM     28  C   UNL A   1      29.237  31.229  23.913  1.00  0.00     0.148 C 
ATOM     29  C   UNL A   1      29.292  30.576  21.543  1.00  0.00     0.148 C 
ATOM     30  C   UNL A   1      27.721  31.443  23.765  1.00  0.00     0.181 C 
ATOM     31  C   UNL A   1      27.771  30.730  21.514  1.00  0.00     0.181 C 
ATOM     32  O   UNL A   1      27.354  31.770  22.415  1.00  0.00    -0.378 OA
ENDBRANCH  21  25
ENDBRANCH  15  18
ENDBRANCH   9  14
ENDBRANCH   5   8
ENDBRANCH   3   4
ENDBRANCH   2   3
ENDBRANCH   1   2
BRANCH   1  33
ATOM     33  C   UNL A   1      36.108  21.648  26.304  1.00  0.00     0.002 C 
BRANCH  33  34
ATOM     34  C   UNL A   1      36.789  22.307  25.102  1.00  0.00     0.021 C 
BRANCH  34  35
ATOM     35  C   UNL A   1      37.863  23.321  25.469  1.00  0.00     0.116 C 
BRANCH  35  36
ATOM     36  N   UNL A   1      38.899  22.790  26.332  1.00  0.00    -0.352 N 
ATOM     37  C   UNL A   1      39.921  23.479  26.960  1.00  0.00     0.251 C 
ATOM     38  H   UNL A   1      38.873  21.819  26.490  1.00  0.00     0.163 HD
ATOM     39  O   UNL A   1      40.936  22.907  27.322  1.00  0.00    -0.269 OA
BRANCH  37  40
ATOM     40  C   UNL A   1      39.690  24.902  27.303  1.00  0.00     0.039 A 
ATOM     41  C   UNL A   1      40.194  25.865  26.419  1.00  0.00     0.014 A 
ATOM     42  C   UNL A   1      39.191  25.277  28.545  1.00  0.00     0.014 A 
ATOM     43  C   UNL A   1      40.344  27.188  26.840  1.00  0.00     0.010 A 
ATOM     44  C   UNL A   1      39.420  26.564  28.991  1.00  0.00     0.010 A 
ATOM     45  C   UNL A   1      40.022  27.517  28.153  1.00  0.00    -0.014 A 
BRANCH  45  46
ATOM     46  C   UNL A   1      40.288  28.802  28.795  1.00  0.00     0.031 A 
ATOM     47  C   UNL A   1      39.258  29.873  28.770  1.00  0.00     0.074 A 
ATOM     48  C   UNL A   1      41.356  28.950  29.609  1.00  0.00     0.049 A 
ATOM     49  N   UNL A   1      39.456  31.085  29.169  1.00  0.00    -0.248 NA
ATOM     50  C   UNL A   1      37.919  29.668  28.225  1.00  0.00     0.031 C 
ATOM     51  C   UNL A   1      41.476  29.903  30.710  1.00  0.00     0.029 A 
ATOM     52  N   UNL A   1      42.641  28.429  29.477  1.00  0.00    -0.354 N 
ATOM     53  C   UNL A   1      38.231  31.708  29.240  1.00  0.00     0.074 A 
ATOM     54  C   UNL A   1      37.330  30.826  28.536  1.00  0.00     0.031 C 
ATOM     55  C   UNL A   1      42.776  30.116  30.955  1.00  0.00     0.029 A 
ATOM     56  C   UNL A   1      43.522  29.441  29.910  1.00  0.00     0.049 A 
ATOM     57  H   UNL A   1      42.886  27.533  29.149  1.00  0.00     0.167 HD
ATOM     58  C   UNL A   1      38.093  32.835  29.996  1.00  0.00     0.031 A 
ATOM     59  C   UNL A   1      44.497  30.011  29.140  1.00  0.00     0.031 A 
ATOM     60  C   UNL A   1      39.372  33.316  30.521  1.00  0.00     0.049 A 
ATOM     61  C   UNL A   1      44.424  31.524  29.054  1.00  0.00     0.074 A 
ATOM     62  C   UNL A   1      39.957  33.373  31.775  1.00  0.00     0.029 A 
ATOM     63  N   UNL A   1      40.362  33.675  29.622  1.00  0.00    -0.354 N 
ATOM     64  N   UNL A   1      43.511  32.250  29.633  1.00  0.00    -0.248 NA
ATOM     65  C   UNL A   1      45.307  32.329  28.204  1.00  0.00     0.031 C 
ATOM     66  C   UNL A   1      41.302  33.817  31.618  1.00  0.00     0.029 A 
ATOM     67  C   UNL A   1      41.526  34.028  30.272  1.00  0.00     0.049 A 
ATOM     68  H   UNL A   1      40.248  33.679  28.645  1.00  0.00     0.167 HD
ATOM     69  C   UNL A   1      43.592  33.537  29.173  1.00  0.00     0.074 A 
ATOM     70  C   UNL A   1      44.755  33.551  28.309  1.00  0.00     0.031 C 
ATOM     71  C   UNL A   1      42.650  34.475  29.470  1.00  0.00     0.031 A 
BRANCH  58  72
ATOM     72  C   UNL A   1      36.769  33.432  30.439  1.00  0.00    -0.014 A 
ATOM     73  C   UNL A   1      35.821  33.810  29.463  1.00  0.00     0.010 A 
ATOM     74  C   UNL A   1      36.412  33.703  31.772  1.00  0.00     0.010 A 
ATOM     75  C   UNL A   1      34.641  34.497  29.789  1.00  0.00     0.020 A 
ATOM     76  C   UNL A   1      35.243  34.400  32.114  1.00  0.00     0.020 A 
ATOM     77  C   UNL A   1      34.373  34.814  31.115  1.00  0.00     0.054 A 
BRANCH  77  78
ATOM     78  S   UNL A   1      32.894  35.772  31.521  1.00  0.00     0.124 S 
ATOM     79  O   UNL A   1      32.189  34.883  32.440  1.00  0.00    -0.237 OA
ATOM     80  O   UNL A   1      33.451  36.983  32.115  1.00  0.00    -0.237 OA
ATOM     81  O   UNL A   1      32.239  35.964  30.227  1.00  0.00    -0.744 OA
ENDBRANCH  77  78
ENDBRANCH  58  72
BRANCH  59  82
ATOM     82  C   UNL A   1      44.981  29.134  28.041  1.00  0.00    -0.014 A 
ATOM     83  C   UNL A   1      45.856  28.085  28.388  1.00  0.00     0.010 A 
ATOM     84  C   UNL A   1      44.238  29.050  26.849  1.00  0.00     0.010 A 
ATOM     85  C   UNL A   1      45.834  26.890  27.668  1.00  0.00     0.020 A 
ATOM     86  C   UNL A   1      44.225  27.856  26.122  1.00  0.00     0.020 A 
ATOM     87  C   UNL A   1      44.964  26.764  26.584  1.00  0.00     0.054 A 
BRANCH  87  88
ATOM     88  S   UNL A   1      44.629  25.091  25.955  1.00  0.00     0.124 S 
ATOM     89  O   UNL A   1      43.228  25.181  25.558  1.00  0.00    -0.237 OA
ATOM     90  O   UNL A   1      45.593  24.990  24.862  1.00  0.00    -0.237 OA
ATOM     91  O   UNL A   1      44.908  24.236  27.106  1.00  0.00    -0.744 OA
ENDBRANCH  87  88
ENDBRANCH  59  82
BRANCH  71  92
ATOM     92  C   UNL A   1      42.669  35.890  28.965  1.00  0.00    -0.014 A 
ATOM     93  C   UNL A   1      41.984  36.291  27.808  1.00  0.00     0.010 A 
ATOM     94  C   UNL A   1      43.509  36.842  29.588  1.00  0.00     0.010 A 
ATOM     95  C   UNL A   1      42.101  37.600  27.319  1.00  0.00     0.020 A 
ATOM     96  C   UNL A   1      43.646  38.143  29.100  1.00  0.00     0.020 A 
ATOM     97  C   UNL A   1      42.929  38.520  27.971  1.00  0.00     0.054 A 
BRANCH  97  98
ATOM     98  S   UNL A   1      43.105  40.191  27.295  1.00  0.00     0.124 S 
ATOM     99  O   UNL A   1      42.060  40.234  26.275  1.00  0.00    -0.237 OA
ATOM    100  O   UNL A   1      42.864  41.019  28.474  1.00  0.00    -0.237 OA
ATOM    101  O   UNL A   1      44.472  40.219  26.781  1.00  0.00    -0.744 OA
ENDBRANCH  97  98
ENDBRANCH  71  92
ENDBRANCH  45  46
ENDBRANCH  37  40
ENDBRANCH  35  36
ENDBRANCH  34  35
ENDBRANCH  33  34
ENDBRANCH   1  33
TORSDOF 19
ENDMDL
MODEL 3
REMARK VINA RESULT:     -12.4      1.515      2.284
REMARK SMILES Cc1c(NC(=O)[C@@H]2CC=CC[C@@H]2C(=O)NCCCCCCNC(=O)c2ccc(-c3c4nc(c(-c5ccc(S(=O)(=O)[O-])cc5)c5ccc([nH]5)c(-c5ccc(S(=O)(=O)[O-])cc5)c5nc(c(-c6ccc(S(=O)(=O)[O-])cc6)c6ccc3[nH]6)C=C5)C=C4)cc2)cccc1C(=O)N1CCOCC1
REMARK SMILES IDX 18 1 17 2 16 3 15 4 13 5 14 6 12 8 7 9 8 10 9 11 11 12 10 13
REMARK SMILES IDX 5 14 4 15 6 17 3 18 1 19 2 20 88 21 85 22 87 23 86 24 89 25
REMARK SMILES IDX 90 26 91 27 92 28 96 29 93 30 95 31 94 32 19 33 20 34 21 35
REMARK SMILES IDX 22 36 23 37 24 39 25 40 26 41 84 42 27 43 83 44 28 45 29 46
REMARK SMILES IDX 30 47 77 48 31 49 82 50 76 51 78 52 32 53 81 54 75 55 74 56
REMARK SMILES IDX 33 58 63 59 44 60 62 61 45 62 48 63 61 64 79 65 46 66 47 67
REMARK SMILES IDX 60 69 80 70 49 71 34 72 35 73 43 74 36 75 42 76 37 77 38 78
REMARK SMILES IDX 39 79 40 80 41 81 64 82 65 83 73 84 66 85 72 86 67 87 68 88
REMARK SMILES IDX 69 89 70 90 71 91 50 92 51 93 59 94 52 95 58 96 53 97 54 98
REMARK SMILES IDX 55 99 56 100 57 101
REMARK H PARENT 15 7 4 16 22 38 78 57 48 68
REMARK Flexibility Score: inf
ROOT
ATOM      1  C   UNL A   1      30.907  30.301  25.389  1.00  0.00     0.002 C 
ENDROOT
BRANCH   1   2
ATOM      2  C   UNL A   1      30.138  30.982  24.252  1.00  0.00     0.021 C 
BRANCH   2   3
ATOM      3  C   UNL A   1      29.854  30.105  23.031  1.00  0.00     0.116 C 
BRANCH   3   4
ATOM      4  N   UNL A   1      29.958  28.691  23.331  1.00  0.00    -0.356 N 
ATOM      5  C   UNL A   1      30.882  27.719  23.167  1.00  0.00     0.224 C 
ATOM      6  O   UNL A   1      30.573  26.653  23.728  1.00  0.00    -0.275 OA
ATOM      7  H   UNL A   1      29.144  28.350  23.766  1.00  0.00     0.163 HD
BRANCH   5   8
ATOM      8  C   UNL A   1      32.260  27.799  22.467  1.00  0.00     0.095 C 
ATOM      9  C   UNL A   1      33.272  26.627  22.439  1.00  0.00     0.095 C 
ATOM     10  C   UNL A   1      33.650  26.228  23.874  1.00  0.00     0.041 C 
ATOM     11  C   UNL A   1      34.040  27.431  24.693  1.00  0.00    -0.030 C 
ATOM     12  C   UNL A   1      33.017  29.026  23.058  1.00  0.00     0.041 C 
ATOM     13  C   UNL A   1      33.780  28.690  24.310  1.00  0.00    -0.030 C 
BRANCH   9  14
ATOM     14  C   UNL A   1      32.828  25.552  21.457  1.00  0.00     0.228 C 
ATOM     15  N   UNL A   1      32.246  24.378  21.806  1.00  0.00    -0.326 N 
ATOM     16  H   UNL A   1      31.799  23.952  21.039  1.00  0.00     0.169 HD
ATOM     17  O   UNL A   1      32.963  25.719  20.237  1.00  0.00    -0.274 OA
BRANCH  15  18
ATOM     18  C   UNL A   1      32.114  23.613  22.977  1.00  0.00     0.044 A 
ATOM     19  C   UNL A   1      34.421  22.717  22.464  1.00  0.00     0.047 C 
ATOM     20  C   UNL A   1      33.256  22.880  23.409  1.00  0.00    -0.015 A 
ATOM     21  C   UNL A   1      33.238  22.255  24.677  1.00  0.00     0.045 A 
ATOM     22  C   UNL A   1      30.958  23.618  23.757  1.00  0.00     0.026 A 
ATOM     23  C   UNL A   1      32.052  22.258  25.428  1.00  0.00     0.014 A 
ATOM     24  C   UNL A   1      30.917  22.918  24.963  1.00  0.00     0.003 A 
BRANCH  21  25
ATOM     25  C   UNL A   1      34.344  21.409  25.218  1.00  0.00     0.254 C 
ATOM     26  O   UNL A   1      34.145  20.196  25.270  1.00  0.00    -0.269 OA
ATOM     27  N   UNL A   1      35.561  21.961  25.605  1.00  0.00    -0.334 N 
ATOM     28  C   UNL A   1      35.776  23.297  26.168  1.00  0.00     0.148 C 
ATOM     29  C   UNL A   1      36.704  21.058  25.757  1.00  0.00     0.148 C 
ATOM     30  C   UNL A   1      37.131  23.882  25.730  1.00  0.00     0.181 C 
ATOM     31  C   UNL A   1      37.983  21.731  25.255  1.00  0.00     0.181 C 
ATOM     32  O   UNL A   1      38.211  22.964  25.959  1.00  0.00    -0.378 OA
ENDBRANCH  21  25
ENDBRANCH  15  18
ENDBRANCH   9  14
ENDBRANCH   5   8
ENDBRANCH   3   4
ENDBRANCH   2   3
ENDBRANCH   1   2
BRANCH   1  33
ATOM     33  C   UNL A   1      31.493  31.220  26.475  1.00  0.00     0.002 C 
BRANCH  33  34
ATOM     34  C   UNL A   1      32.637  30.642  27.311  1.00  0.00     0.021 C 
BRANCH  34  35
ATOM     35  C   UNL A   1      33.923  31.455  27.261  1.00  0.00     0.116 C 
BRANCH  35  36
ATOM     36  N   UNL A   1      34.100  32.338  28.397  1.00  0.00    -0.352 N 
ATOM     37  C   UNL A   1      34.861  32.124  29.532  1.00  0.00     0.251 C 
ATOM     38  H   UNL A   1      33.620  33.196  28.356  1.00  0.00     0.163 HD
ATOM     39  O   UNL A   1      34.631  32.729  30.566  1.00  0.00    -0.269 OA
BRANCH  37  40
ATOM     40  C   UNL A   1      36.046  31.242  29.417  1.00  0.00     0.039 A 
ATOM     41  C   UNL A   1      36.060  30.079  30.200  1.00  0.00     0.014 A 
ATOM     42  C   UNL A   1      37.188  31.646  28.735  1.00  0.00     0.014 A 
ATOM     43  C   UNL A   1      37.262  29.406  30.428  1.00  0.00     0.010 A 
ATOM     44  C   UNL A   1      38.390  31.032  29.030  1.00  0.00     0.010 A 
ATOM     45  C   UNL A   1      38.437  29.929  29.898  1.00  0.00    -0.014 A 
BRANCH  45  46
ATOM     46  C   UNL A   1      39.785  29.449  30.191  1.00  0.00     0.031 A 
ATOM     47  C   UNL A   1      40.276  28.187  29.579  1.00  0.00     0.074 A 
ATOM     48  C   UNL A   1      40.674  30.251  30.819  1.00  0.00     0.049 A 
ATOM     49  N   UNL A   1      41.384  27.605  29.895  1.00  0.00    -0.248 NA
ATOM     50  C   UNL A   1      39.506  27.440  28.588  1.00  0.00     0.031 C 
ATOM     51  C   UNL A   1      42.129  30.181  30.707  1.00  0.00     0.029 A 
ATOM     52  N   UNL A   1      40.462  31.153  31.860  1.00  0.00    -0.354 N 
ATOM     53  C   UNL A   1      41.625  26.626  28.958  1.00  0.00     0.074 A 
ATOM     54  C   UNL A   1      40.379  26.490  28.242  1.00  0.00     0.031 C 
ATOM     55  C   UNL A   1      42.672  30.751  31.791  1.00  0.00     0.029 A 
ATOM     56  C   UNL A   1      41.585  31.046  32.705  1.00  0.00     0.049 A 
ATOM     57  H   UNL A   1      39.685  31.745  31.981  1.00  0.00     0.167 HD
ATOM     58  C   UNL A   1      42.889  26.134  28.810  1.00  0.00     0.031 A 
ATOM     59  C   UNL A   1      41.540  30.687  34.024  1.00  0.00     0.031 A 
ATOM     60  C   UNL A   1      43.809  26.644  29.829  1.00  0.00     0.049 A 
ATOM     61  C   UNL A   1      42.431  29.513  34.385  1.00  0.00     0.074 A 
ATOM     62  C   UNL A   1      44.885  27.515  29.828  1.00  0.00     0.029 A 
ATOM     63  N   UNL A   1      43.536  26.377  31.159  1.00  0.00    -0.354 N 
ATOM     64  N   UNL A   1      43.173  28.863  33.532  1.00  0.00    -0.248 NA
ATOM     65  C   UNL A   1      42.460  28.899  35.715  1.00  0.00     0.031 C 
ATOM     66  C   UNL A   1      45.283  27.731  31.179  1.00  0.00     0.029 A 
ATOM     67  C   UNL A   1      44.448  26.990  31.992  1.00  0.00     0.049 A 
ATOM     68  H   UNL A   1      42.786  25.821  31.470  1.00  0.00     0.167 HD
ATOM     69  C   UNL A   1      43.665  27.732  34.126  1.00  0.00     0.074 A 
ATOM     70  C   UNL A   1      43.226  27.814  35.504  1.00  0.00     0.031 C 
ATOM     71  C   UNL A   1      44.326  26.772  33.422  1.00  0.00     0.031 A 
BRANCH  58  72
ATOM     72  C   UNL A   1      43.376  25.320  27.625  1.00  0.00    -0.014 A 
ATOM     73  C   UNL A   1      43.517  23.921  27.759  1.00  0.00     0.010 A 
ATOM     74  C   UNL A   1      43.762  25.854  26.383  1.00  0.00     0.010 A 
ATOM     75  C   UNL A   1      44.096  23.125  26.758  1.00  0.00     0.020 A 
ATOM     76  C   UNL A   1      44.353  25.076  25.377  1.00  0.00     0.020 A 
ATOM     77  C   UNL A   1      44.537  23.716  25.579  1.00  0.00     0.054 A 
BRANCH  77  78
ATOM     78  S   UNL A   1      45.358  22.700  24.327  1.00  0.00     0.124 S 
ATOM     79  O   UNL A   1      46.337  23.627  23.768  1.00  0.00    -0.237 OA
ATOM     80  O   UNL A   1      45.906  21.602  25.117  1.00  0.00    -0.237 OA
ATOM     81  O   UNL A   1      44.274  22.327  23.419  1.00  0.00    -0.744 OA
ENDBRANCH  77  78
ENDBRANCH  58  72
BRANCH  59  82
ATOM     82  C   UNL A   1      40.239  30.981  34.680  1.00  0.00    -0.014 A 
ATOM     83  C   UNL A   1      40.158  32.151  35.462  1.00  0.00     0.010 A 
ATOM     84  C   UNL A   1      39.061  30.414  34.159  1.00  0.00     0.010 A 
ATOM     85  C   UNL A   1      38.955  32.852  35.548  1.00  0.00     0.020 A 
ATOM     86  C   UNL A   1      37.853  31.110  34.256  1.00  0.00     0.020 A 
ATOM     87  C   UNL A   1      37.831  32.360  34.883  1.00  0.00     0.054 A 
BRANCH  87  88
ATOM     88  S   UNL A   1      36.428  33.490  34.636  1.00  0.00     0.124 S 
ATOM     89  O   UNL A   1      35.527  32.695  33.809  1.00  0.00    -0.237 OA
ATOM     90  O   UNL A   1      35.991  33.719  36.011  1.00  0.00    -0.237 OA
ATOM     91  O   UNL A   1      37.037  34.645  33.981  1.00  0.00    -0.744 OA
ENDBRANCH  87  88
ENDBRANCH  59  82
BRANCH  71  92
ATOM     92  C   UNL A   1      44.856  25.497  34.012  1.00  0.00    -0.014 A 
ATOM     93  C   UNL A   1      45.862  25.475  34.990  1.00  0.00     0.010 A 
ATOM     94  C   UNL A   1      44.434  24.255  33.485  1.00  0.00     0.010 A 
ATOM     95  C   UNL A   1      46.394  24.261  35.449  1.00  0.00     0.020 A 
ATOM     96  C   UNL A   1      44.967  23.041  33.923  1.00  0.00     0.020 A 
ATOM     97  C   UNL A   1      45.940  23.051  34.916  1.00  0.00     0.054 A 
BRANCH  97  98
ATOM     98  S   UNL A   1      46.674  21.497  35.487  1.00  0.00     0.124 S 
ATOM     99  O   UNL A   1      46.570  20.642  34.307  1.00  0.00    -0.237 OA
ATOM    100  O   UNL A   1      48.027  21.915  35.840  1.00  0.00    -0.237 OA
ATOM    101  O   UNL A   1      45.829  21.103  36.612  1.00  0.00    -0.744 OA
ENDBRANCH  97  98
ENDBRANCH  71  92
ENDBRANCH  45  46
ENDBRANCH  37  40
ENDBRANCH  35  36
ENDBRANCH  34  35
ENDBRANCH  33  34
ENDBRANCH   1  33
TORSDOF 19
ENDMDL
