MODEL 1
REMARK VINA RESULT:     -11.1      0.000      0.000
REMARK SMILES O=C(NCCCCCCNC(=O)[C@@H]1CCCCN1c1ccccc1[N+](=O)[O-])c1ccc(-c2c3nc(c(-c4ccc(S(=O)(=O)[O-])cc4)c4ccc([nH]4)c(-c4ccc(S(=O)(=O)[O-])cc4)c4nc(c(-c5ccc(S(=O)(=O)[O-])cc5)c5ccc2[nH]5)C=C4)C=C3)cc1
REMARK SMILES IDX 6 1 5 2 4 3 3 4 1 5 2 6 28 8 29 9 87 10 30 11 86 12 31 13
REMARK SMILES IDX 32 14 33 15 80 16 34 17 85 18 79 19 81 20 35 21 84 22 78 23
REMARK SMILES IDX 77 24 36 26 66 27 47 28 65 29 48 30 51 31 64 32 82 33 49 34
REMARK SMILES IDX 50 35 63 37 83 38 52 39 37 40 38 41 46 42 39 43 45 44 40 45
REMARK SMILES IDX 41 46 42 47 43 48 44 49 67 50 68 51 76 52 69 53 75 54 70 55
REMARK SMILES IDX 71 56 72 57 73 58 74 59 53 60 54 61 62 62 55 63 61 64 56 65
REMARK SMILES IDX 57 66 58 67 59 68 60 69 7 70 8 71 9 72 10 73 11 74 12 76
REMARK SMILES IDX 13 77 14 78 18 79 15 80 17 81 16 82 19 83 20 84 24 85 21 86
REMARK SMILES IDX 23 87 22 88 25 89 26 90 27 91
REMARK H PARENT 3 7 81 25 51 36 10 75
REMARK Flexibility Score: inf
ROOT
ATOM      1  C   UNL A   1      37.551  23.690  25.996  1.00  0.00     0.002 C 
ENDROOT
BRANCH   1   2
ATOM      2  C   UNL A   1      38.743  22.824  26.405  1.00  0.00     0.021 C 
BRANCH   2   3
ATOM      3  C   UNL A   1      39.946  23.563  26.972  1.00  0.00     0.116 C 
BRANCH   3   4
ATOM      4  N   UNL A   1      40.737  24.240  25.960  1.00  0.00    -0.352 N 
ATOM      5  O   UNL A   1      41.792  25.945  24.937  1.00  0.00    -0.269 OA
ATOM      6  C   UNL A   1      41.234  25.522  25.949  1.00  0.00     0.251 C 
ATOM      7  H   UNL A   1      40.947  23.702  25.163  1.00  0.00     0.163 HD
BRANCH   6   8
ATOM      8  C   UNL A   1      41.077  26.404  27.130  1.00  0.00     0.039 A 
ATOM      9  C   UNL A   1      41.917  27.499  27.335  1.00  0.00     0.014 A 
ATOM     10  C   UNL A   1      40.048  26.140  28.042  1.00  0.00     0.014 A 
ATOM     11  C   UNL A   1      41.824  28.238  28.511  1.00  0.00     0.010 A 
ATOM     12  C   UNL A   1      39.896  26.942  29.178  1.00  0.00     0.010 A 
ATOM     13  C   UNL A   1      40.799  27.984  29.436  1.00  0.00    -0.014 A 
BRANCH  13  14
ATOM     14  C   UNL A   1      40.644  28.873  30.618  1.00  0.00     0.031 A 
ATOM     15  C   UNL A   1      41.547  28.754  31.815  1.00  0.00     0.074 A 
ATOM     16  C   UNL A   1      39.678  29.813  30.591  1.00  0.00     0.049 A 
ATOM     17  N   UNL A   1      41.548  29.464  32.915  1.00  0.00    -0.248 NA
ATOM     18  C   UNL A   1      42.575  27.701  31.780  1.00  0.00     0.031 C 
ATOM     19  C   UNL A   1      38.734  30.019  29.489  1.00  0.00     0.029 A 
ATOM     20  N   UNL A   1      39.337  30.780  31.502  1.00  0.00    -0.354 N 
ATOM     21  C   UNL A   1      42.560  28.937  33.710  1.00  0.00     0.074 A 
ATOM     22  C   UNL A   1      43.135  27.830  32.975  1.00  0.00     0.031 C 
ATOM     23  C   UNL A   1      37.957  31.077  29.765  1.00  0.00     0.029 A 
ATOM     24  C   UNL A   1      38.299  31.580  31.089  1.00  0.00     0.049 A 
ATOM     25  H   UNL A   1      39.794  30.890  32.368  1.00  0.00     0.167 HD
ATOM     26  C   UNL A   1      42.973  29.342  34.937  1.00  0.00     0.031 A 
ATOM     27  C   UNL A   1      37.672  32.597  31.710  1.00  0.00     0.031 A 
ATOM     28  C   UNL A   1      42.390  30.442  35.664  1.00  0.00     0.049 A 
ATOM     29  C   UNL A   1      38.126  33.001  33.083  1.00  0.00     0.074 A 
ATOM     30  C   UNL A   1      42.759  30.947  36.899  1.00  0.00     0.029 A 
ATOM     31  N   UNL A   1      41.316  31.203  35.227  1.00  0.00    -0.354 N 
ATOM     32  N   UNL A   1      39.106  32.511  33.802  1.00  0.00    -0.248 NA
ATOM     33  C   UNL A   1      37.389  34.097  33.726  1.00  0.00     0.031 C 
ATOM     34  C   UNL A   1      41.872  31.976  37.235  1.00  0.00     0.029 A 
ATOM     35  C   UNL A   1      40.989  32.154  36.181  1.00  0.00     0.049 A 
ATOM     36  H   UNL A   1      40.854  31.085  34.367  1.00  0.00     0.167 HD
ATOM     37  C   UNL A   1      39.113  33.247  34.979  1.00  0.00     0.074 A 
ATOM     38  C   UNL A   1      38.055  34.231  34.865  1.00  0.00     0.031 C 
ATOM     39  C   UNL A   1      39.924  33.119  36.059  1.00  0.00     0.031 A 
BRANCH  26  40
ATOM     40  C   UNL A   1      44.091  28.569  35.590  1.00  0.00    -0.014 A 
ATOM     41  C   UNL A   1      43.831  27.435  36.381  1.00  0.00     0.010 A 
ATOM     42  C   UNL A   1      45.427  28.953  35.369  1.00  0.00     0.010 A 
ATOM     43  C   UNL A   1      44.883  26.729  36.975  1.00  0.00     0.020 A 
ATOM     44  C   UNL A   1      46.483  28.235  35.939  1.00  0.00     0.020 A 
ATOM     45  C   UNL A   1      46.202  27.136  36.753  1.00  0.00     0.054 A 
BRANCH  45  46
ATOM     46  S   UNL A   1      47.547  26.196  37.528  1.00  0.00     0.124 S 
ATOM     47  O   UNL A   1      48.729  26.821  36.940  1.00  0.00    -0.237 OA
ATOM     48  O   UNL A   1      47.343  26.457  38.951  1.00  0.00    -0.237 OA
ATOM     49  O   UNL A   1      47.296  24.819  37.109  1.00  0.00    -0.744 OA
ENDBRANCH  45  46
ENDBRANCH  26  40
BRANCH  27  50
ATOM     50  C   UNL A   1      36.538  33.284  31.035  1.00  0.00    -0.014 A 
ATOM     51  C   UNL A   1      35.290  33.400  31.668  1.00  0.00     0.010 A 
ATOM     52  C   UNL A   1      36.719  33.863  29.765  1.00  0.00     0.010 A 
ATOM     53  C   UNL A   1      34.238  34.074  31.039  1.00  0.00     0.020 A 
ATOM     54  C   UNL A   1      35.682  34.564  29.147  1.00  0.00     0.020 A 
ATOM     55  C   UNL A   1      34.443  34.656  29.784  1.00  0.00     0.054 A 
BRANCH  55  56
ATOM     56  S   UNL A   1      33.085  35.580  29.016  1.00  0.00     0.124 S 
ATOM     57  O   UNL A   1      32.300  35.987  30.177  1.00  0.00    -0.237 OA
ATOM     58  O   UNL A   1      33.787  36.654  28.318  1.00  0.00    -0.237 OA
ATOM     59  O   UNL A   1      32.450  34.593  28.145  1.00  0.00    -0.744 OA
ENDBRANCH  55  56
ENDBRANCH  27  50
BRANCH  39  60
ATOM     60  C   UNL A   1      39.709  34.081  37.196  1.00  0.00    -0.014 A 
ATOM     61  C   UNL A   1      39.046  33.685  38.370  1.00  0.00     0.010 A 
ATOM     62  C   UNL A   1      40.211  35.393  37.100  1.00  0.00     0.010 A 
ATOM     63  C   UNL A   1      38.859  34.593  39.416  1.00  0.00     0.020 A 
ATOM     64  C   UNL A   1      40.051  36.294  38.154  1.00  0.00     0.020 A 
ATOM     65  C   UNL A   1      39.362  35.893  39.301  1.00  0.00     0.054 A 
BRANCH  65  66
ATOM     66  S   UNL A   1      39.140  37.041  40.687  1.00  0.00     0.124 S 
ATOM     67  O   UNL A   1      38.105  36.374  41.471  1.00  0.00    -0.237 OA
ATOM     68  O   UNL A   1      40.468  37.070  41.295  1.00  0.00    -0.237 OA
ATOM     69  O   UNL A   1      38.729  38.286  40.043  1.00  0.00    -0.744 OA
ENDBRANCH  65  66
ENDBRANCH  39  60
ENDBRANCH  13  14
ENDBRANCH   6   8
ENDBRANCH   3   4
ENDBRANCH   2   3
ENDBRANCH   1   2
BRANCH   1  70
ATOM     70  C   UNL A   1      36.722  23.206  24.800  1.00  0.00     0.002 C 
BRANCH  70  71
ATOM     71  C   UNL A   1      35.353  23.863  24.576  1.00  0.00     0.021 C 
BRANCH  71  72
ATOM     72  C   UNL A   1      34.839  24.743  25.708  1.00  0.00     0.116 C 
BRANCH  72  73
ATOM     73  N   UNL A   1      33.498  24.449  26.148  1.00  0.00    -0.354 N 
ATOM     74  C   UNL A   1      32.449  25.325  26.242  1.00  0.00     0.242 C 
ATOM     75  H   UNL A   1      33.316  23.518  26.410  1.00  0.00     0.163 HD
ATOM     76  O   UNL A   1      31.328  24.826  26.402  1.00  0.00    -0.273 OA
BRANCH  74  77
ATOM     77  C   UNL A   1      32.673  26.867  26.250  1.00  0.00     0.171 C 
ATOM     78  C   UNL A   1      31.572  27.536  27.102  1.00  0.00     0.035 C 
ATOM     79  N   UNL A   1      32.749  27.573  24.937  1.00  0.00    -0.354 N 
ATOM     80  C   UNL A   1      31.768  29.045  27.217  1.00  0.00     0.004 C 
ATOM     81  C   UNL A   1      32.977  29.026  25.014  1.00  0.00     0.117 C 
ATOM     82  C   UNL A   1      31.872  29.684  25.837  1.00  0.00     0.022 C 
BRANCH  79  83
ATOM     83  C   UNL A   1      32.469  27.013  23.703  1.00  0.00     0.116 A 
ATOM     84  C   UNL A   1      33.551  26.635  22.882  1.00  0.00     0.033 A 
ATOM     85  C   UNL A   1      31.167  26.814  23.161  1.00  0.00     0.292 A 
ATOM     86  C   UNL A   1      33.374  26.130  21.589  1.00  0.00     0.003 A 
ATOM     87  C   UNL A   1      30.995  26.275  21.864  1.00  0.00     0.088 A 
ATOM     88  C   UNL A   1      32.096  25.949  21.080  1.00  0.00     0.007 A 
BRANCH  85  89
ATOM     89  N   UNL A   1      29.933  27.315  23.811  1.00  0.00     0.064 N 
ATOM     90  O   UNL A   1      29.618  28.496  23.597  1.00  0.00    -0.258 OA
ATOM     91  O   UNL A   1      29.305  26.581  24.585  1.00  0.00    -0.258 OA
ENDBRANCH  85  89
ENDBRANCH  79  83
ENDBRANCH  74  77
ENDBRANCH  72  73
ENDBRANCH  71  72
ENDBRANCH  70  71
ENDBRANCH   1  70
TORSDOF 18
ENDMDL
MODEL 2
REMARK VINA RESULT:     -10.9      2.058      8.737
REMARK SMILES O=C(NCCCCCCNC(=O)[C@@H]1CCCCN1c1ccccc1[N+](=O)[O-])c1ccc(-c2c3nc(c(-c4ccc(S(=O)(=O)[O-])cc4)c4ccc([nH]4)c(-c4ccc(S(=O)(=O)[O-])cc4)c4nc(c(-c5ccc(S(=O)(=O)[O-])cc5)c5ccc2[nH]5)C=C4)C=C3)cc1
REMARK SMILES IDX 6 1 5 2 4 3 3 4 1 5 2 6 28 8 29 9 87 10 30 11 86 12 31 13
REMARK SMILES IDX 32 14 33 15 80 16 34 17 85 18 79 19 81 20 35 21 84 22 78 23
REMARK SMILES IDX 77 24 36 26 66 27 47 28 65 29 48 30 51 31 64 32 82 33 49 34
REMARK SMILES IDX 50 35 63 37 83 38 52 39 37 40 38 41 46 42 39 43 45 44 40 45
REMARK SMILES IDX 41 46 42 47 43 48 44 49 67 50 68 51 76 52 69 53 75 54 70 55
REMARK SMILES IDX 71 56 72 57 73 58 74 59 53 60 54 61 62 62 55 63 61 64 56 65
REMARK SMILES IDX 57 66 58 67 59 68 60 69 7 70 8 71 9 72 10 73 11 74 12 76
REMARK SMILES IDX 13 77 14 78 18 79 15 80 17 81 16 82 19 83 20 84 24 85 21 86
REMARK SMILES IDX 23 87 22 88 25 89 26 90 27 91
REMARK H PARENT 3 7 81 25 51 36 10 75
REMARK Flexibility Score: inf
ROOT
ATOM      1  C   UNL A   1      31.703  31.080  26.127  1.00  0.00     0.002 C 
ENDROOT
BRANCH   1   2
ATOM      2  C   UNL A   1      31.579  32.424  26.843  1.00  0.00     0.021 C 
BRANCH   2   3
ATOM      3  C   UNL A   1      32.843  32.950  27.508  1.00  0.00     0.116 C 
BRANCH   3   4
ATOM      4  N   UNL A   1      32.777  34.364  27.833  1.00  0.00    -0.352 N 
ATOM      5  O   UNL A   1      33.234  36.270  28.940  1.00  0.00    -0.269 OA
ATOM      6  C   UNL A   1      33.522  35.093  28.730  1.00  0.00     0.251 C 
ATOM      7  H   UNL A   1      32.098  34.877  27.338  1.00  0.00     0.163 HD
BRANCH   6   8
ATOM      8  C   UNL A   1      34.646  34.465  29.465  1.00  0.00     0.039 A 
ATOM      9  C   UNL A   1      35.957  34.547  28.993  1.00  0.00     0.014 A 
ATOM     10  C   UNL A   1      34.383  33.799  30.667  1.00  0.00     0.014 A 
ATOM     11  C   UNL A   1      36.975  33.847  29.638  1.00  0.00     0.010 A 
ATOM     12  C   UNL A   1      35.423  33.175  31.365  1.00  0.00     0.010 A 
ATOM     13  C   UNL A   1      36.725  33.172  30.843  1.00  0.00    -0.014 A 
BRANCH  13  14
ATOM     14  C   UNL A   1      37.856  32.546  31.577  1.00  0.00     0.031 A 
ATOM     15  C   UNL A   1      38.286  33.045  32.929  1.00  0.00     0.074 A 
ATOM     16  C   UNL A   1      38.488  31.498  31.011  1.00  0.00     0.049 A 
ATOM     17  N   UNL A   1      39.243  32.596  33.703  1.00  0.00    -0.248 NA
ATOM     18  C   UNL A   1      37.558  34.196  33.484  1.00  0.00     0.031 C 
ATOM     19  C   UNL A   1      38.167  30.931  29.698  1.00  0.00     0.029 A 
ATOM     20  N   UNL A   1      39.516  30.714  31.467  1.00  0.00    -0.354 N 
ATOM     21  C   UNL A   1      39.245  33.417  34.825  1.00  0.00     0.074 A 
ATOM     22  C   UNL A   1      38.210  34.408  34.621  1.00  0.00     0.031 C 
ATOM     23  C   UNL A   1      38.945  29.860  29.478  1.00  0.00     0.029 A 
ATOM     24  C   UNL A   1      39.865  29.707  30.598  1.00  0.00     0.049 A 
ATOM     25  H   UNL A   1      39.961  30.858  32.334  1.00  0.00     0.167 HD
ATOM     26  C   UNL A   1      40.036  33.348  35.925  1.00  0.00     0.031 A 
ATOM     27  C   UNL A   1      40.830  28.772  30.677  1.00  0.00     0.031 A 
ATOM     28  C   UNL A   1      41.069  32.361  36.118  1.00  0.00     0.049 A 
ATOM     29  C   UNL A   1      41.714  28.741  31.890  1.00  0.00     0.074 A 
ATOM     30  C   UNL A   1      41.902  32.190  37.211  1.00  0.00     0.029 A 
ATOM     31  N   UNL A   1      41.415  31.383  35.197  1.00  0.00    -0.354 N 
ATOM     32  N   UNL A   1      41.677  29.506  32.954  1.00  0.00    -0.248 NA
ATOM     33  C   UNL A   1      42.769  27.720  31.912  1.00  0.00     0.031 C 
ATOM     34  C   UNL A   1      42.789  31.146  36.928  1.00  0.00     0.029 A 
ATOM     35  C   UNL A   1      42.469  30.625  35.685  1.00  0.00     0.049 A 
ATOM     36  H   UNL A   1      40.978  31.247  34.327  1.00  0.00     0.167 HD
ATOM     37  C   UNL A   1      42.696  29.049  33.781  1.00  0.00     0.074 A 
ATOM     38  C   UNL A   1      43.315  27.928  33.103  1.00  0.00     0.031 C 
ATOM     39  C   UNL A   1      43.084  29.519  34.993  1.00  0.00     0.031 A 
BRANCH  26  40
ATOM     40  C   UNL A   1      39.838  34.390  36.997  1.00  0.00    -0.014 A 
ATOM     41  C   UNL A   1      40.401  35.674  36.881  1.00  0.00     0.010 A 
ATOM     42  C   UNL A   1      39.034  34.098  38.115  1.00  0.00     0.010 A 
ATOM     43  C   UNL A   1      40.201  36.629  37.883  1.00  0.00     0.020 A 
ATOM     44  C   UNL A   1      38.810  35.058  39.107  1.00  0.00     0.020 A 
ATOM     45  C   UNL A   1      39.411  36.313  38.993  1.00  0.00     0.054 A 
BRANCH  45  46
ATOM     46  S   UNL A   1      39.162  37.574  40.274  1.00  0.00     0.124 S 
ATOM     47  O   UNL A   1      38.637  36.778  41.380  1.00  0.00    -0.237 OA
ATOM     48  O   UNL A   1      40.509  38.105  40.467  1.00  0.00    -0.237 OA
ATOM     49  O   UNL A   1      38.211  38.503  39.668  1.00  0.00    -0.744 OA
ENDBRANCH  45  46
ENDBRANCH  26  40
BRANCH  27  50
ATOM     50  C   UNL A   1      41.012  27.806  29.561  1.00  0.00    -0.014 A 
ATOM     51  C   UNL A   1      42.098  27.923  28.680  1.00  0.00     0.010 A 
ATOM     52  C   UNL A   1      40.112  26.734  29.402  1.00  0.00     0.010 A 
ATOM     53  C   UNL A   1      42.278  26.993  27.651  1.00  0.00     0.020 A 
ATOM     54  C   UNL A   1      40.305  25.785  28.396  1.00  0.00     0.020 A 
ATOM     55  C   UNL A   1      41.383  25.926  27.520  1.00  0.00     0.054 A 
BRANCH  55  56
ATOM     56  S   UNL A   1      41.672  24.696  26.219  1.00  0.00     0.124 S 
ATOM     57  O   UNL A   1      41.548  25.501  25.008  1.00  0.00    -0.237 OA
ATOM     58  O   UNL A   1      43.017  24.219  26.528  1.00  0.00    -0.237 OA
ATOM     59  O   UNL A   1      40.608  23.717  26.432  1.00  0.00    -0.744 OA
ENDBRANCH  55  56
ENDBRANCH  27  50
BRANCH  39  60
ATOM     60  C   UNL A   1      44.221  28.804  35.673  1.00  0.00    -0.014 A 
ATOM     61  C   UNL A   1      43.988  27.710  36.523  1.00  0.00     0.010 A 
ATOM     62  C   UNL A   1      45.544  29.215  35.427  1.00  0.00     0.010 A 
ATOM     63  C   UNL A   1      45.057  27.058  37.143  1.00  0.00     0.020 A 
ATOM     64  C   UNL A   1      46.617  28.548  36.022  1.00  0.00     0.020 A 
ATOM     65  C   UNL A   1      46.366  27.482  36.890  1.00  0.00     0.054 A 
BRANCH  65  66
ATOM     66  S   UNL A   1      47.739  26.596  37.675  1.00  0.00     0.124 S 
ATOM     67  O   UNL A   1      47.840  25.397  36.848  1.00  0.00    -0.237 OA
ATOM     68  O   UNL A   1      48.845  27.541  37.550  1.00  0.00    -0.237 OA
ATOM     69  O   UNL A   1      47.271  26.373  39.042  1.00  0.00    -0.744 OA
ENDBRANCH  65  66
ENDBRANCH  39  60
ENDBRANCH  13  14
ENDBRANCH   6   8
ENDBRANCH   3   4
ENDBRANCH   2   3
ENDBRANCH   1   2
BRANCH   1  70
ATOM     70  C   UNL A   1      32.518  29.991  26.835  1.00  0.00     0.002 C 
BRANCH  70  71
ATOM     71  C   UNL A   1      31.746  28.818  27.454  1.00  0.00     0.021 C 
BRANCH  71  72
ATOM     72  C   UNL A   1      32.267  27.425  27.126  1.00  0.00     0.116 C 
BRANCH  72  73
ATOM     73  N   UNL A   1      31.249  26.448  26.828  1.00  0.00    -0.354 N 
ATOM     74  C   UNL A   1      31.081  25.762  25.655  1.00  0.00     0.242 C 
ATOM     75  H   UNL A   1      30.604  26.254  27.546  1.00  0.00     0.163 HD
ATOM     76  O   UNL A   1      30.308  24.798  25.687  1.00  0.00    -0.273 OA
BRANCH  74  77
ATOM     77  C   UNL A   1      31.749  26.237  24.330  1.00  0.00     0.171 C 
ATOM     78  C   UNL A   1      30.727  26.128  23.178  1.00  0.00     0.035 C 
ATOM     79  N   UNL A   1      33.016  25.571  23.903  1.00  0.00    -0.354 N 
ATOM     80  C   UNL A   1      31.288  26.647  21.856  1.00  0.00     0.004 C 
ATOM     81  C   UNL A   1      33.604  26.077  22.651  1.00  0.00     0.117 C 
ATOM     82  C   UNL A   1      32.596  25.944  21.511  1.00  0.00     0.022 C 
BRANCH  79  83
ATOM     83  C   UNL A   1      33.571  24.446  24.486  1.00  0.00     0.116 A 
ATOM     84  C   UNL A   1      34.558  24.627  25.477  1.00  0.00     0.033 A 
ATOM     85  C   UNL A   1      33.259  23.099  24.147  1.00  0.00     0.292 A 
ATOM     86  C   UNL A   1      35.232  23.555  26.073  1.00  0.00     0.003 A 
ATOM     87  C   UNL A   1      33.925  22.019  24.775  1.00  0.00     0.088 A 
ATOM     88  C   UNL A   1      34.916  22.251  25.722  1.00  0.00     0.007 A 
BRANCH  85  89
ATOM     89  N   UNL A   1      32.382  22.731  23.010  1.00  0.00     0.064 N 
ATOM     90  O   UNL A   1      32.933  22.353  21.965  1.00  0.00    -0.258 OA
ATOM     91  O   UNL A   1      31.156  22.876  23.109  1.00  0.00    -0.258 OA
ENDBRANCH  85  89
ENDBRANCH  79  83
ENDBRANCH  74  77
ENDBRANCH  72  73
ENDBRANCH  71  72
ENDBRANCH  70  71
ENDBRANCH   1  70
TORSDOF 18
ENDMDL
MODEL 3
REMARK VINA RESULT:     -10.9      1.514      2.582
REMARK SMILES O=C(NCCCCCCNC(=O)[C@@H]1CCCCN1c1ccccc1[N+](=O)[O-])c1ccc(-c2c3nc(c(-c4ccc(S(=O)(=O)[O-])cc4)c4ccc([nH]4)c(-c4ccc(S(=O)(=O)[O-])cc4)c4nc(c(-c5ccc(S(=O)(=O)[O-])cc5)c5ccc2[nH]5)C=C4)C=C3)cc1
REMARK SMILES IDX 6 1 5 2 4 3 3 4 1 5 2 6 28 8 29 9 87 10 30 11 86 12 31 13
REMARK SMILES IDX 32 14 33 15 80 16 34 17 85 18 79 19 81 20 35 21 84 22 78 23
REMARK SMILES IDX 77 24 36 26 66 27 47 28 65 29 48 30 51 31 64 32 82 33 49 34
REMARK SMILES IDX 50 35 63 37 83 38 52 39 37 40 38 41 46 42 39 43 45 44 40 45
REMARK SMILES IDX 41 46 42 47 43 48 44 49 67 50 68 51 76 52 69 53 75 54 70 55
REMARK SMILES IDX 71 56 72 57 73 58 74 59 53 60 54 61 62 62 55 63 61 64 56 65
REMARK SMILES IDX 57 66 58 67 59 68 60 69 7 70 8 71 9 72 10 73 11 74 12 76
REMARK SMILES IDX 13 77 14 78 18 79 15 80 17 81 16 82 19 83 20 84 24 85 21 86
REMARK SMILES IDX 23 87 22 88 25 89 26 90 27 91
REMARK H PARENT 3 7 81 25 51 36 10 75
REMARK Flexibility Score: inf
ROOT
ATOM      1  C   UNL A   1      39.995  22.232  27.130  1.00  0.00     0.002 C 
ENDROOT
BRANCH   1   2
ATOM      2  C   UNL A   1      41.382  21.907  27.683  1.00  0.00     0.021 C 
BRANCH   2   3
ATOM      3  C   UNL A   1      42.434  22.998  27.544  1.00  0.00     0.116 C 
BRANCH   3   4
ATOM      4  N   UNL A   1      42.306  23.770  26.321  1.00  0.00    -0.352 N 
ATOM      5  O   UNL A   1      41.795  25.528  25.011  1.00  0.00    -0.269 OA
ATOM      6  C   UNL A   1      41.955  25.088  26.149  1.00  0.00     0.251 C 
ATOM      7  H   UNL A   1      42.498  23.275  25.492  1.00  0.00     0.163 HD
BRANCH   6   8
ATOM      8  C   UNL A   1      41.739  25.972  27.320  1.00  0.00     0.039 A 
ATOM      9  C   UNL A   1      40.671  25.767  28.195  1.00  0.00     0.014 A 
ATOM     10  C   UNL A   1      42.642  27.014  27.559  1.00  0.00     0.014 A 
ATOM     11  C   UNL A   1      40.423  26.681  29.216  1.00  0.00     0.010 A 
ATOM     12  C   UNL A   1      42.444  27.877  28.643  1.00  0.00     0.010 A 
ATOM     13  C   UNL A   1      41.317  27.734  29.467  1.00  0.00    -0.014 A 
BRANCH  13  14
ATOM     14  C   UNL A   1      41.098  28.615  30.644  1.00  0.00     0.031 A 
ATOM     15  C   UNL A   1      41.974  28.528  31.864  1.00  0.00     0.074 A 
ATOM     16  C   UNL A   1      40.097  29.517  30.593  1.00  0.00     0.049 A 
ATOM     17  N   UNL A   1      41.920  29.237  32.964  1.00  0.00    -0.248 NA
ATOM     18  C   UNL A   1      43.042  27.517  31.854  1.00  0.00     0.031 C 
ATOM     19  C   UNL A   1      39.174  29.688  29.467  1.00  0.00     0.029 A 
ATOM     20  N   UNL A   1      39.697  30.468  31.496  1.00  0.00    -0.354 N 
ATOM     21  C   UNL A   1      42.931  28.748  33.784  1.00  0.00     0.074 A 
ATOM     22  C   UNL A   1      43.566  27.664  33.064  1.00  0.00     0.031 C 
ATOM     23  C   UNL A   1      38.351  30.715  29.724  1.00  0.00     0.029 A 
ATOM     24  C   UNL A   1      38.639  31.229  31.057  1.00  0.00     0.049 A 
ATOM     25  H   UNL A   1      40.126  30.595  32.373  1.00  0.00     0.167 HD
ATOM     26  C   UNL A   1      43.296  29.167  35.021  1.00  0.00     0.031 A 
ATOM     27  C   UNL A   1      37.957  32.220  31.662  1.00  0.00     0.031 A 
ATOM     28  C   UNL A   1      42.653  30.243  35.734  1.00  0.00     0.049 A 
ATOM     29  C   UNL A   1      38.360  32.640  33.046  1.00  0.00     0.074 A 
ATOM     30  C   UNL A   1      42.970  30.760  36.978  1.00  0.00     0.029 A 
ATOM     31  N   UNL A   1      41.561  30.962  35.270  1.00  0.00    -0.354 N 
ATOM     32  N   UNL A   1      39.340  32.186  33.789  1.00  0.00    -0.248 NA
ATOM     33  C   UNL A   1      37.566  33.705  33.671  1.00  0.00     0.031 C 
ATOM     34  C   UNL A   1      42.036  31.753  37.292  1.00  0.00     0.029 A 
ATOM     35  C   UNL A   1      41.174  31.899  36.216  1.00  0.00     0.049 A 
ATOM     36  H   UNL A   1      41.126  30.828  34.398  1.00  0.00     0.167 HD
ATOM     37  C   UNL A   1      39.289  32.921  34.967  1.00  0.00     0.074 A 
ATOM     38  C   UNL A   1      38.197  33.863  34.826  1.00  0.00     0.031 C 
ATOM     39  C   UNL A   1      40.076  32.822  36.067  1.00  0.00     0.031 A 
BRANCH  26  40
ATOM     40  C   UNL A   1      44.426  28.436  35.703  1.00  0.00    -0.014 A 
ATOM     41  C   UNL A   1      44.189  27.297  36.493  1.00  0.00     0.010 A 
ATOM     42  C   UNL A   1      45.752  28.867  35.510  1.00  0.00     0.010 A 
ATOM     43  C   UNL A   1      45.251  26.630  37.113  1.00  0.00     0.020 A 
ATOM     44  C   UNL A   1      46.820  28.189  36.106  1.00  0.00     0.020 A 
ATOM     45  C   UNL A   1      46.560  27.084  36.919  1.00  0.00     0.054 A 
BRANCH  45  46
ATOM     46  S   UNL A   1      47.919  26.194  37.727  1.00  0.00     0.124 S 
ATOM     47  O   UNL A   1      49.036  27.117  37.538  1.00  0.00    -0.237 OA
ATOM     48  O   UNL A   1      47.443  26.061  39.102  1.00  0.00    -0.237 OA
ATOM     49  O   UNL A   1      48.011  24.943  36.979  1.00  0.00    -0.744 OA
ENDBRANCH  45  46
ENDBRANCH  26  40
BRANCH  27  50
ATOM     50  C   UNL A   1      36.816  32.864  30.958  1.00  0.00    -0.014 A 
ATOM     51  C   UNL A   1      35.492  32.560  31.312  1.00  0.00     0.010 A 
ATOM     52  C   UNL A   1      37.055  33.821  29.954  1.00  0.00     0.010 A 
ATOM     53  C   UNL A   1      34.424  33.192  30.666  1.00  0.00     0.020 A 
ATOM     54  C   UNL A   1      35.993  34.478  29.328  1.00  0.00     0.020 A 
ATOM     55  C   UNL A   1      34.683  34.151  29.682  1.00  0.00     0.054 A 
BRANCH  55  56
ATOM     56  S   UNL A   1      33.285  35.005  28.903  1.00  0.00     0.124 S 
ATOM     57  O   UNL A   1      33.949  36.105  28.211  1.00  0.00    -0.237 OA
ATOM     58  O   UNL A   1      32.718  33.967  28.047  1.00  0.00    -0.237 OA
ATOM     59  O   UNL A   1      32.447  35.393  30.036  1.00  0.00    -0.744 OA
ENDBRANCH  55  56
ENDBRANCH  27  50
BRANCH  39  60
ATOM     60  C   UNL A   1      39.796  33.774  37.199  1.00  0.00    -0.014 A 
ATOM     61  C   UNL A   1      38.926  33.423  38.247  1.00  0.00     0.010 A 
ATOM     62  C   UNL A   1      40.440  35.024  37.230  1.00  0.00     0.010 A 
ATOM     63  C   UNL A   1      38.681  34.320  39.290  1.00  0.00     0.020 A 
ATOM     64  C   UNL A   1      40.219  35.911  38.286  1.00  0.00     0.020 A 
ATOM     65  C   UNL A   1      39.328  35.560  39.302  1.00  0.00     0.054 A 
BRANCH  65  66
ATOM     66  S   UNL A   1      39.023  36.690  40.686  1.00  0.00     0.124 S 
ATOM     67  O   UNL A   1      38.202  35.872  41.573  1.00  0.00    -0.237 OA
ATOM     68  O   UNL A   1      40.372  36.980  41.168  1.00  0.00    -0.237 OA
ATOM     69  O   UNL A   1      38.335  37.820  40.066  1.00  0.00    -0.744 OA
ENDBRANCH  65  66
ENDBRANCH  39  60
ENDBRANCH  13  14
ENDBRANCH   6   8
ENDBRANCH   3   4
ENDBRANCH   2   3
ENDBRANCH   1   2
BRANCH   1  70
ATOM     70  C   UNL A   1      39.587  21.533  25.828  1.00  0.00     0.002 C 
BRANCH  70  71
ATOM     71  C   UNL A   1      38.091  21.278  25.600  1.00  0.00     0.021 C 
BRANCH  71  72
ATOM     72  C   UNL A   1      37.217  22.516  25.444  1.00  0.00     0.116 C 
BRANCH  72  73
ATOM     73  N   UNL A   1      36.710  22.741  24.114  1.00  0.00    -0.354 N 
ATOM     74  C   UNL A   1      35.398  22.863  23.739  1.00  0.00     0.242 C 
ATOM     75  H   UNL A   1      37.379  22.814  23.395  1.00  0.00     0.163 HD
ATOM     76  O   UNL A   1      35.189  23.296  22.600  1.00  0.00    -0.273 OA
BRANCH  74  77
ATOM     77  C   UNL A   1      34.239  22.383  24.663  1.00  0.00     0.171 C 
ATOM     78  C   UNL A   1      33.345  21.393  23.886  1.00  0.00     0.035 C 
ATOM     79  N   UNL A   1      33.363  23.419  25.289  1.00  0.00    -0.354 N 
ATOM     80  C   UNL A   1      32.225  20.822  24.752  1.00  0.00     0.004 C 
ATOM     81  C   UNL A   1      32.298  22.901  26.162  1.00  0.00     0.117 C 
ATOM     82  C   UNL A   1      31.404  21.941  25.381  1.00  0.00     0.022 C 
BRANCH  79  83
ATOM     83  C   UNL A   1      33.375  24.770  24.992  1.00  0.00     0.116 A 
ATOM     84  C   UNL A   1      34.007  25.647  25.897  1.00  0.00     0.033 A 
ATOM     85  C   UNL A   1      32.766  25.373  23.854  1.00  0.00     0.292 A 
ATOM     86  C   UNL A   1      34.008  27.035  25.725  1.00  0.00     0.003 A 
ATOM     87  C   UNL A   1      32.796  26.775  23.671  1.00  0.00     0.088 A 
ATOM     88  C   UNL A   1      33.403  27.600  24.612  1.00  0.00     0.007 A 
BRANCH  85  89
ATOM     89  N   UNL A   1      31.912  24.624  22.900  1.00  0.00     0.064 N 
ATOM     90  O   UNL A   1      30.717  24.481  23.199  1.00  0.00    -0.258 OA
ATOM     91  O   UNL A   1      32.419  24.116  21.891  1.00  0.00    -0.258 OA
ENDBRANCH  85  89
ENDBRANCH  79  83
ENDBRANCH  74  77
ENDBRANCH  72  73
ENDBRANCH  71  72
ENDBRANCH  70  71
ENDBRANCH   1  70
TORSDOF 18
ENDMDL
