MODEL 1
REMARK VINA RESULT:     -12.3      0.000      0.000
REMARK SMILES Cc1cccc(NS(=O)(=O)c2ccc(Br)c(C(=O)NCCCCCCNC(=O)c3ccc(-c4c5nc(c(-c6ccc(S(=O)(=O)[O-])cc6)c6ccc([nH]6)c(-c6ccc(S(=O)(=O)[O-])cc6)c6nc(c(-c7ccc(S(=O)(=O)[O-])cc7)c7ccc4[nH]7)C=C6)C=C5)cc3)c2)c1
REMARK SMILES IDX 22 1 21 2 20 3 19 4 17 5 18 6 16 8 11 9 12 10 89 11 13 12
REMARK SMILES IDX 14 13 15 14 8 15 9 16 10 17 7 18 6 20 1 21 2 22 3 23 90 24
REMARK SMILES IDX 4 25 5 26 23 27 24 28 25 29 26 30 27 31 28 33 29 34 30 35
REMARK SMILES IDX 88 36 31 37 87 38 32 39 33 40 34 41 81 42 35 43 86 44 80 45
REMARK SMILES IDX 82 46 36 47 85 48 79 49 78 50 37 52 67 53 48 54 66 55 49 56
REMARK SMILES IDX 52 57 65 58 83 59 50 60 51 61 64 63 84 64 53 65 38 66 39 67
REMARK SMILES IDX 47 68 40 69 46 70 41 71 42 72 43 73 44 74 45 75 68 76 69 77
REMARK SMILES IDX 77 78 70 79 76 80 71 81 72 82 73 83 74 84 75 85 54 86 55 87
REMARK SMILES IDX 63 88 56 89 62 90 57 91 58 92 59 93 60 94 61 95
REMARK H PARENT 19 7 7 19 26 32 82 51 52 62
REMARK Flexibility Score: inf
ROOT
ATOM      1  C   UNL A   1      31.289  28.280  26.018  1.00  0.00     0.002 C 
ENDROOT
BRANCH   1   2
ATOM      2  C   UNL A   1      30.736  26.884  25.720  1.00  0.00     0.021 C 
BRANCH   2   3
ATOM      3  C   UNL A   1      31.172  25.709  26.584  1.00  0.00     0.116 C 
BRANCH   3   4
ATOM      4  N   UNL A   1      30.206  24.665  26.857  1.00  0.00    -0.352 N 
ATOM      5  C   UNL A   1      30.262  23.322  26.533  1.00  0.00     0.252 C 
ATOM      6  O   UNL A   1      29.421  22.560  27.012  1.00  0.00    -0.269 OA
ATOM      7  H   UNL A   1      29.397  24.952  27.340  1.00  0.00     0.163 HD
BRANCH   5   8
ATOM      8  C   UNL A   1      31.208  22.787  25.507  1.00  0.00     0.055 A 
ATOM      9  C   UNL A   1      33.258  21.530  25.109  1.00  0.00     0.088 A 
ATOM     10  C   UNL A   1      32.863  21.280  23.799  1.00  0.00     0.023 A 
ATOM     11  C   UNL A   1      32.388  22.194  25.988  1.00  0.00     0.037 A 
ATOM     12  C   UNL A   1      31.793  22.007  23.287  1.00  0.00     0.018 A 
ATOM     13  C   UNL A   1      31.052  22.856  24.121  1.00  0.00     0.030 A 
ATOM     14  Br  UNL A   1      30.184  24.307  23.244  1.00  0.00    -0.050 Br
BRANCH   9  15
ATOM     15  S   UNL A   1      34.968  21.371  25.602  1.00  0.00     0.261 S 
ATOM     16  O   UNL A   1      35.512  20.245  24.874  1.00  0.00    -0.201 OA
ATOM     17  O   UNL A   1      34.998  21.418  27.049  1.00  0.00    -0.201 OA
BRANCH  15  18
ATOM     18  N   UNL A   1      35.809  22.707  25.042  1.00  0.00    -0.280 N 
ATOM     19  H   UNL A   1      36.778  22.587  24.920  1.00  0.00     0.180 HD
BRANCH  18  20
ATOM     20  C   UNL A   1      35.295  23.998  24.720  1.00  0.00     0.049 A 
ATOM     21  C   UNL A   1      33.375  25.362  21.721  1.00  0.00     0.044 C 
ATOM     22  C   UNL A   1      33.998  25.264  23.082  1.00  0.00    -0.049 A 
ATOM     23  C   UNL A   1      33.767  26.248  24.046  1.00  0.00     0.003 A 
ATOM     24  C   UNL A   1      34.753  24.137  23.435  1.00  0.00     0.030 A 
ATOM     25  C   UNL A   1      34.387  26.163  25.293  1.00  0.00     0.002 A 
ATOM     26  C   UNL A   1      35.197  25.066  25.611  1.00  0.00     0.027 A 
ENDBRANCH  18  20
ENDBRANCH  15  18
ENDBRANCH   9  15
ENDBRANCH   5   8
ENDBRANCH   3   4
ENDBRANCH   2   3
ENDBRANCH   1   2
BRANCH   1  27
ATOM     27  C   UNL A   1      32.225  28.499  27.214  1.00  0.00     0.002 C 
BRANCH  27  28
ATOM     28  C   UNL A   1      33.015  29.803  27.311  1.00  0.00     0.021 C 
BRANCH  28  29
ATOM     29  C   UNL A   1      34.508  29.705  27.025  1.00  0.00     0.116 C 
BRANCH  29  30
ATOM     30  N   UNL A   1      35.230  30.928  27.349  1.00  0.00    -0.352 N 
ATOM     31  C   UNL A   1      36.395  31.048  28.086  1.00  0.00     0.251 C 
ATOM     32  H   UNL A   1      34.844  31.766  27.004  1.00  0.00     0.163 HD
ATOM     33  O   UNL A   1      36.753  32.100  28.589  1.00  0.00    -0.269 OA
BRANCH  31  34
ATOM     34  C   UNL A   1      37.277  29.865  28.114  1.00  0.00     0.039 A 
ATOM     35  C   UNL A   1      37.280  29.109  29.293  1.00  0.00     0.014 A 
ATOM     36  C   UNL A   1      38.258  29.694  27.144  1.00  0.00     0.014 A 
ATOM     37  C   UNL A   1      38.374  28.301  29.585  1.00  0.00     0.010 A 
ATOM     38  C   UNL A   1      39.382  28.962  27.474  1.00  0.00     0.010 A 
ATOM     39  C   UNL A   1      39.462  28.309  28.715  1.00  0.00    -0.014 A 
BRANCH  39  40
ATOM     40  C   UNL A   1      40.758  27.717  29.028  1.00  0.00     0.031 A 
ATOM     41  C   UNL A   1      41.025  26.302  28.678  1.00  0.00     0.074 A 
ATOM     42  C   UNL A   1      41.754  28.484  29.525  1.00  0.00     0.049 A 
ATOM     43  N   UNL A   1      42.016  25.608  29.131  1.00  0.00    -0.248 NA
ATOM     44  C   UNL A   1      40.116  25.521  27.842  1.00  0.00     0.031 C 
ATOM     45  C   UNL A   1      43.182  28.174  29.515  1.00  0.00     0.029 A 
ATOM     46  N   UNL A   1      41.660  29.602  30.358  1.00  0.00    -0.354 N 
ATOM     47  C   UNL A   1      42.058  24.435  28.413  1.00  0.00     0.074 A 
ATOM     48  C   UNL A   1      40.784  24.371  27.737  1.00  0.00     0.031 C 
ATOM     49  C   UNL A   1      43.775  28.855  30.505  1.00  0.00     0.029 A 
ATOM     50  C   UNL A   1      42.721  29.493  31.274  1.00  0.00     0.049 A 
ATOM     51  H   UNL A   1      40.987  30.319  30.313  1.00  0.00     0.167 HD
ATOM     52  C   UNL A   1      43.224  23.731  28.346  1.00  0.00     0.031 A 
ATOM     53  C   UNL A   1      42.571  29.396  32.627  1.00  0.00     0.031 A 
ATOM     54  C   UNL A   1      44.198  24.210  29.327  1.00  0.00     0.049 A 
ATOM     55  C   UNL A   1      43.240  28.174  33.220  1.00  0.00     0.074 A 
ATOM     56  C   UNL A   1      45.352  24.970  29.236  1.00  0.00     0.029 A 
ATOM     57  N   UNL A   1      43.890  24.120  30.681  1.00  0.00    -0.354 N 
ATOM     58  N   UNL A   1      43.641  27.151  32.517  1.00  0.00    -0.248 NA
ATOM     59  C   UNL A   1      43.465  27.985  34.650  1.00  0.00     0.031 C 
ATOM     60  C   UNL A   1      45.683  25.416  30.544  1.00  0.00     0.029 A 
ATOM     61  C   UNL A   1      44.753  24.897  31.429  1.00  0.00     0.049 A 
ATOM     62  H   UNL A   1      43.159  23.578  31.054  1.00  0.00     0.167 HD
ATOM     63  C   UNL A   1      44.142  26.186  33.349  1.00  0.00     0.074 A 
ATOM     64  C   UNL A   1      44.029  26.764  34.676  1.00  0.00     0.031 C 
ATOM     65  C   UNL A   1      44.590  24.986  32.875  1.00  0.00     0.031 A 
BRANCH  52  66
ATOM     66  C   UNL A   1      43.578  22.781  27.212  1.00  0.00    -0.014 A 
ATOM     67  C   UNL A   1      42.849  21.582  27.049  1.00  0.00     0.010 A 
ATOM     68  C   UNL A   1      44.680  22.941  26.348  1.00  0.00     0.010 A 
ATOM     69  C   UNL A   1      43.241  20.584  26.136  1.00  0.00     0.020 A 
ATOM     70  C   UNL A   1      45.080  21.961  25.430  1.00  0.00     0.020 A 
ATOM     71  C   UNL A   1      44.370  20.774  25.343  1.00  0.00     0.054 A 
BRANCH  71  72
ATOM     72  S   UNL A   1      44.924  19.460  24.227  1.00  0.00     0.124 S 
ATOM     73  O   UNL A   1      44.509  19.964  22.921  1.00  0.00    -0.237 OA
ATOM     74  O   UNL A   1      46.363  19.427  24.465  1.00  0.00    -0.237 OA
ATOM     75  O   UNL A   1      44.195  18.281  24.691  1.00  0.00    -0.744 OA
ENDBRANCH  71  72
ENDBRANCH  52  66
BRANCH  53  76
ATOM     76  C   UNL A   1      41.330  30.023  33.157  1.00  0.00    -0.014 A 
ATOM     77  C   UNL A   1      41.328  31.426  33.305  1.00  0.00     0.010 A 
ATOM     78  C   UNL A   1      40.104  29.343  33.061  1.00  0.00     0.010 A 
ATOM     79  C   UNL A   1      40.142  32.149  33.165  1.00  0.00     0.020 A 
ATOM     80  C   UNL A   1      38.911  30.068  32.930  1.00  0.00     0.020 A 
ATOM     81  C   UNL A   1      38.954  31.465  32.906  1.00  0.00     0.054 A 
BRANCH  81  82
ATOM     82  S   UNL A   1      37.525  32.430  32.328  1.00  0.00     0.124 S 
ATOM     83  O   UNL A   1      37.260  33.309  33.461  1.00  0.00    -0.237 OA
ATOM     84  O   UNL A   1      38.070  33.083  31.137  1.00  0.00    -0.237 OA
ATOM     85  O   UNL A   1      36.514  31.410  32.069  1.00  0.00    -0.744 OA
ENDBRANCH  81  82
ENDBRANCH  53  76
BRANCH  65  86
ATOM     86  C   UNL A   1      44.975  23.790  33.716  1.00  0.00    -0.014 A 
ATOM     87  C   UNL A   1      44.101  22.742  34.045  1.00  0.00     0.010 A 
ATOM     88  C   UNL A   1      46.330  23.636  34.099  1.00  0.00     0.010 A 
ATOM     89  C   UNL A   1      44.540  21.627  34.776  1.00  0.00     0.020 A 
ATOM     90  C   UNL A   1      46.788  22.509  34.789  1.00  0.00     0.020 A 
ATOM     91  C   UNL A   1      45.880  21.519  35.147  1.00  0.00     0.054 A 
BRANCH  91  92
ATOM     92  S   UNL A   1      46.457  20.045  36.027  1.00  0.00     0.124 S 
ATOM     93  O   UNL A   1      45.913  18.970  35.202  1.00  0.00    -0.237 OA
ATOM     94  O   UNL A   1      47.911  20.186  35.990  1.00  0.00    -0.237 OA
ATOM     95  O   UNL A   1      45.860  20.185  37.353  1.00  0.00    -0.744 OA
ENDBRANCH  91  92
ENDBRANCH  65  86
ENDBRANCH  39  40
ENDBRANCH  31  34
ENDBRANCH  29  30
ENDBRANCH  28  29
ENDBRANCH  27  28
ENDBRANCH   1  27
TORSDOF 19
ENDMDL
MODEL 2
REMARK VINA RESULT:     -12.2      1.584      2.421
REMARK SMILES Cc1cccc(NS(=O)(=O)c2ccc(Br)c(C(=O)NCCCCCCNC(=O)c3ccc(-c4c5nc(c(-c6ccc(S(=O)(=O)[O-])cc6)c6ccc([nH]6)c(-c6ccc(S(=O)(=O)[O-])cc6)c6nc(c(-c7ccc(S(=O)(=O)[O-])cc7)c7ccc4[nH]7)C=C6)C=C5)cc3)c2)c1
REMARK SMILES IDX 22 1 21 2 20 3 19 4 17 5 18 6 16 8 11 9 12 10 89 11 13 12
REMARK SMILES IDX 14 13 15 14 8 15 9 16 10 17 7 18 6 20 1 21 2 22 3 23 90 24
REMARK SMILES IDX 4 25 5 26 23 27 24 28 25 29 26 30 27 31 28 33 29 34 30 35
REMARK SMILES IDX 88 36 31 37 87 38 32 39 33 40 34 41 81 42 35 43 86 44 80 45
REMARK SMILES IDX 82 46 36 47 85 48 79 49 78 50 37 52 67 53 48 54 66 55 49 56
REMARK SMILES IDX 52 57 65 58 83 59 50 60 51 61 64 63 84 64 53 65 38 66 39 67
REMARK SMILES IDX 47 68 40 69 46 70 41 71 42 72 43 73 44 74 45 75 68 76 69 77
REMARK SMILES IDX 77 78 70 79 76 80 71 81 72 82 73 83 74 84 75 85 54 86 55 87
REMARK SMILES IDX 63 88 56 89 62 90 57 91 58 92 59 93 60 94 61 95
REMARK H PARENT 19 7 7 19 26 32 82 51 52 62
REMARK Flexibility Score: inf
ROOT
ATOM      1  C   UNL A   1      33.794  28.448  25.015  1.00  0.00     0.002 C 
ENDROOT
BRANCH   1   2
ATOM      2  C   UNL A   1      34.136  28.542  23.527  1.00  0.00     0.021 C 
BRANCH   2   3
ATOM      3  C   UNL A   1      33.010  28.528  22.501  1.00  0.00     0.116 C 
BRANCH   3   4
ATOM      4  N   UNL A   1      32.802  27.320  21.731  1.00  0.00    -0.352 N 
ATOM      5  C   UNL A   1      32.070  26.193  22.060  1.00  0.00     0.252 C 
ATOM      6  O   UNL A   1      31.866  25.343  21.193  1.00  0.00    -0.269 OA
ATOM      7  H   UNL A   1      33.242  27.297  20.850  1.00  0.00     0.163 HD
BRANCH   5   8
ATOM      8  C   UNL A   1      31.650  25.896  23.463  1.00  0.00     0.055 A 
ATOM      9  C   UNL A   1      32.002  24.490  25.423  1.00  0.00     0.088 A 
ATOM     10  C   UNL A   1      31.398  25.446  26.232  1.00  0.00     0.023 A 
ATOM     11  C   UNL A   1      32.218  24.758  24.063  1.00  0.00     0.037 A 
ATOM     12  C   UNL A   1      30.693  26.476  25.614  1.00  0.00     0.018 A 
ATOM     13  C   UNL A   1      30.722  26.615  24.221  1.00  0.00     0.030 A 
ATOM     14  Br  UNL A   1      29.210  27.485  23.455  1.00  0.00    -0.050 Br
BRANCH   9  15
ATOM     15  S   UNL A   1      32.172  22.797  25.968  1.00  0.00     0.261 S 
ATOM     16  O   UNL A   1      30.887  22.161  25.768  1.00  0.00    -0.201 OA
ATOM     17  O   UNL A   1      32.799  22.832  27.272  1.00  0.00    -0.201 OA
BRANCH  15  18
ATOM     18  N   UNL A   1      33.222  22.007  24.930  1.00  0.00    -0.280 N 
ATOM     19  H   UNL A   1      32.806  21.421  24.257  1.00  0.00     0.180 HD
BRANCH  18  20
ATOM     20  C   UNL A   1      34.647  22.077  24.899  1.00  0.00     0.049 A 
ATOM     21  C   UNL A   1      37.387  19.429  25.004  1.00  0.00     0.044 C 
ATOM     22  C   UNL A   1      36.697  20.751  24.845  1.00  0.00    -0.049 A 
ATOM     23  C   UNL A   1      37.388  21.865  24.365  1.00  0.00     0.003 A 
ATOM     24  C   UNL A   1      35.323  20.866  25.097  1.00  0.00     0.030 A 
ATOM     25  C   UNL A   1      36.742  23.098  24.262  1.00  0.00     0.002 A 
ATOM     26  C   UNL A   1      35.385  23.218  24.584  1.00  0.00     0.027 A 
ENDBRANCH  18  20
ENDBRANCH  15  18
ENDBRANCH   9  15
ENDBRANCH   5   8
ENDBRANCH   3   4
ENDBRANCH   2   3
ENDBRANCH   1   2
BRANCH   1  27
ATOM     27  C   UNL A   1      32.846  29.471  25.655  1.00  0.00     0.002 C 
BRANCH  27  28
ATOM     28  C   UNL A   1      33.086  29.907  27.099  1.00  0.00     0.021 C 
BRANCH  28  29
ATOM     29  C   UNL A   1      34.496  29.699  27.638  1.00  0.00     0.116 C 
BRANCH  29  30
ATOM     30  N   UNL A   1      35.284  30.923  27.654  1.00  0.00    -0.352 N 
ATOM     31  C   UNL A   1      36.573  31.089  28.128  1.00  0.00     0.251 C 
ATOM     32  H   UNL A   1      34.849  31.725  27.284  1.00  0.00     0.163 HD
ATOM     33  O   UNL A   1      37.039  32.181  28.410  1.00  0.00    -0.269 OA
BRANCH  31  34
ATOM     34  C   UNL A   1      37.428  29.884  28.138  1.00  0.00     0.039 A 
ATOM     35  C   UNL A   1      37.417  29.114  29.307  1.00  0.00     0.014 A 
ATOM     36  C   UNL A   1      38.400  29.702  27.161  1.00  0.00     0.014 A 
ATOM     37  C   UNL A   1      38.492  28.277  29.585  1.00  0.00     0.010 A 
ATOM     38  C   UNL A   1      39.508  28.939  27.478  1.00  0.00     0.010 A 
ATOM     39  C   UNL A   1      39.577  28.269  28.710  1.00  0.00    -0.014 A 
BRANCH  39  40
ATOM     40  C   UNL A   1      40.860  27.643  29.010  1.00  0.00     0.031 A 
ATOM     41  C   UNL A   1      41.077  26.215  28.679  1.00  0.00     0.074 A 
ATOM     42  C   UNL A   1      41.887  28.387  29.478  1.00  0.00     0.049 A 
ATOM     43  N   UNL A   1      42.055  25.499  29.126  1.00  0.00    -0.248 NA
ATOM     44  C   UNL A   1      40.130  25.450  27.872  1.00  0.00     0.031 C 
ATOM     45  C   UNL A   1      43.305  28.033  29.448  1.00  0.00     0.029 A 
ATOM     46  N   UNL A   1      41.842  29.520  30.294  1.00  0.00    -0.354 N 
ATOM     47  C   UNL A   1      42.048  24.313  28.427  1.00  0.00     0.074 A 
ATOM     48  C   UNL A   1      40.761  24.278  27.774  1.00  0.00     0.031 C 
ATOM     49  C   UNL A   1      43.936  28.711  30.416  1.00  0.00     0.029 A 
ATOM     50  C   UNL A   1      42.916  29.393  31.193  1.00  0.00     0.049 A 
ATOM     51  H   UNL A   1      41.190  30.257  30.249  1.00  0.00     0.167 HD
ATOM     52  C   UNL A   1      43.190  23.573  28.351  1.00  0.00     0.031 A 
ATOM     53  C   UNL A   1      42.787  29.322  32.550  1.00  0.00     0.031 A 
ATOM     54  C   UNL A   1      44.196  24.037  29.307  1.00  0.00     0.049 A 
ATOM     55  C   UNL A   1      43.429  28.090  33.151  1.00  0.00     0.074 A 
ATOM     56  C   UNL A   1      45.371  24.760  29.184  1.00  0.00     0.029 A 
ATOM     57  N   UNL A   1      43.910  23.979  30.668  1.00  0.00    -0.354 N 
ATOM     58  N   UNL A   1      43.785  27.044  32.458  1.00  0.00    -0.248 NA
ATOM     59  C   UNL A   1      43.673  27.917  34.580  1.00  0.00     0.031 C 
ATOM     60  C   UNL A   1      45.738  25.217  30.479  1.00  0.00     0.029 A 
ATOM     61  C   UNL A   1      44.809  24.740  31.388  1.00  0.00     0.049 A 
ATOM     62  H   UNL A   1      43.169  23.465  31.062  1.00  0.00     0.167 HD
ATOM     63  C   UNL A   1      44.271  26.077  33.297  1.00  0.00     0.074 A 
ATOM     64  C   UNL A   1      44.199  26.680  34.616  1.00  0.00     0.031 C 
ATOM     65  C   UNL A   1      44.675  24.857  32.835  1.00  0.00     0.031 A 
BRANCH  52  66
ATOM     66  C   UNL A   1      43.496  22.595  27.227  1.00  0.00    -0.014 A 
ATOM     67  C   UNL A   1      42.746  21.404  27.112  1.00  0.00     0.010 A 
ATOM     68  C   UNL A   1      44.572  22.721  26.326  1.00  0.00     0.010 A 
ATOM     69  C   UNL A   1      43.094  20.381  26.209  1.00  0.00     0.020 A 
ATOM     70  C   UNL A   1      44.929  21.716  25.416  1.00  0.00     0.020 A 
ATOM     71  C   UNL A   1      44.200  20.539  25.377  1.00  0.00     0.054 A 
BRANCH  71  72
ATOM     72  S   UNL A   1      44.701  19.194  24.272  1.00  0.00     0.124 S 
ATOM     73  O   UNL A   1      44.494  19.782  22.952  1.00  0.00    -0.237 OA
ATOM     74  O   UNL A   1      46.091  18.969  24.655  1.00  0.00    -0.237 OA
ATOM     75  O   UNL A   1      43.783  18.107  24.611  1.00  0.00    -0.744 OA
ENDBRANCH  71  72
ENDBRANCH  52  66
BRANCH  53  76
ATOM     76  C   UNL A   1      41.575  29.996  33.090  1.00  0.00    -0.014 A 
ATOM     77  C   UNL A   1      41.631  31.396  33.250  1.00  0.00     0.010 A 
ATOM     78  C   UNL A   1      40.321  29.367  32.995  1.00  0.00     0.010 A 
ATOM     79  C   UNL A   1      40.475  32.168  33.122  1.00  0.00     0.020 A 
ATOM     80  C   UNL A   1      39.158  30.142  32.876  1.00  0.00     0.020 A 
ATOM     81  C   UNL A   1      39.259  31.536  32.862  1.00  0.00     0.054 A 
BRANCH  81  82
ATOM     82  S   UNL A   1      37.868  32.564  32.299  1.00  0.00     0.124 S 
ATOM     83  O   UNL A   1      37.280  33.012  33.556  1.00  0.00    -0.237 OA
ATOM     84  O   UNL A   1      38.557  33.594  31.521  1.00  0.00    -0.237 OA
ATOM     85  O   UNL A   1      37.058  31.633  31.518  1.00  0.00    -0.744 OA
ENDBRANCH  81  82
ENDBRANCH  53  76
BRANCH  65  86
ATOM     86  C   UNL A   1      45.038  23.663  33.689  1.00  0.00    -0.014 A 
ATOM     87  C   UNL A   1      44.121  22.688  34.113  1.00  0.00     0.010 A 
ATOM     88  C   UNL A   1      46.403  23.428  33.984  1.00  0.00     0.010 A 
ATOM     89  C   UNL A   1      44.536  21.568  34.850  1.00  0.00     0.020 A 
ATOM     90  C   UNL A   1      46.833  22.294  34.680  1.00  0.00     0.020 A 
ATOM     91  C   UNL A   1      45.889  21.380  35.133  1.00  0.00     0.054 A 
BRANCH  91  92
ATOM     92  S   UNL A   1      46.428  19.897  36.022  1.00  0.00     0.124 S 
ATOM     93  O   UNL A   1      47.863  20.133  36.160  1.00  0.00    -0.237 OA
ATOM     94  O   UNL A   1      45.662  19.960  37.265  1.00  0.00    -0.237 OA
ATOM     95  O   UNL A   1      46.053  18.807  35.124  1.00  0.00    -0.744 OA
ENDBRANCH  91  92
ENDBRANCH  65  86
ENDBRANCH  39  40
ENDBRANCH  31  34
ENDBRANCH  29  30
ENDBRANCH  28  29
ENDBRANCH  27  28
ENDBRANCH   1  27
TORSDOF 19
ENDMDL
MODEL 3
REMARK VINA RESULT:     -11.9      2.215      3.718
REMARK SMILES Cc1cccc(NS(=O)(=O)c2ccc(Br)c(C(=O)NCCCCCCNC(=O)c3ccc(-c4c5nc(c(-c6ccc(S(=O)(=O)[O-])cc6)c6ccc([nH]6)c(-c6ccc(S(=O)(=O)[O-])cc6)c6nc(c(-c7ccc(S(=O)(=O)[O-])cc7)c7ccc4[nH]7)C=C6)C=C5)cc3)c2)c1
REMARK SMILES IDX 22 1 21 2 20 3 19 4 17 5 18 6 16 8 11 9 12 10 89 11 13 12
REMARK SMILES IDX 14 13 15 14 8 15 9 16 10 17 7 18 6 20 1 21 2 22 3 23 90 24
REMARK SMILES IDX 4 25 5 26 23 27 24 28 25 29 26 30 27 31 28 33 29 34 30 35
REMARK SMILES IDX 88 36 31 37 87 38 32 39 33 40 34 41 81 42 35 43 86 44 80 45
REMARK SMILES IDX 82 46 36 47 85 48 79 49 78 50 37 52 67 53 48 54 66 55 49 56
REMARK SMILES IDX 52 57 65 58 83 59 50 60 51 61 64 63 84 64 53 65 38 66 39 67
REMARK SMILES IDX 47 68 40 69 46 70 41 71 42 72 43 73 44 74 45 75 68 76 69 77
REMARK SMILES IDX 77 78 70 79 76 80 71 81 72 82 73 83 74 84 75 85 54 86 55 87
REMARK SMILES IDX 63 88 56 89 62 90 57 91 58 92 59 93 60 94 61 95
REMARK H PARENT 19 7 7 19 26 32 82 51 52 62
REMARK Flexibility Score: inf
ROOT
ATOM      1  C   UNL A   1      33.714  28.369  24.111  1.00  0.00     0.002 C 
ENDROOT
BRANCH   1   2
ATOM      2  C   UNL A   1      33.713  27.762  22.706  1.00  0.00     0.021 C 
BRANCH   2   3
ATOM      3  C   UNL A   1      32.571  26.845  22.291  1.00  0.00     0.116 C 
BRANCH   3   4
ATOM      4  N   UNL A   1      32.892  25.647  21.544  1.00  0.00    -0.352 N 
ATOM      5  C   UNL A   1      33.289  24.408  22.015  1.00  0.00     0.252 C 
ATOM      6  O   UNL A   1      33.342  23.463  21.228  1.00  0.00    -0.269 OA
ATOM      7  H   UNL A   1      32.817  25.725  20.565  1.00  0.00     0.163 HD
BRANCH   5   8
ATOM      8  C   UNL A   1      33.802  24.210  23.404  1.00  0.00     0.055 A 
ATOM      9  C   UNL A   1      35.687  23.505  24.780  1.00  0.00     0.088 A 
ATOM     10  C   UNL A   1      35.169  24.202  25.866  1.00  0.00     0.023 A 
ATOM     11  C   UNL A   1      35.059  23.593  23.528  1.00  0.00     0.037 A 
ATOM     12  C   UNL A   1      33.857  24.659  25.786  1.00  0.00     0.018 A 
ATOM     13  C   UNL A   1      33.139  24.541  24.588  1.00  0.00     0.030 A 
ATOM     14  Br  UNL A   1      31.245  24.460  24.775  1.00  0.00    -0.050 Br
BRANCH   9  15
ATOM     15  S   UNL A   1      36.898  22.212  25.008  1.00  0.00     0.261 S 
ATOM     16  O   UNL A   1      37.187  21.672  23.697  1.00  0.00    -0.201 OA
ATOM     17  O   UNL A   1      36.418  21.366  26.081  1.00  0.00    -0.201 OA
BRANCH  15  18
ATOM     18  N   UNL A   1      38.330  22.909  25.525  1.00  0.00    -0.280 N 
ATOM     19  H   UNL A   1      38.493  23.833  25.226  1.00  0.00     0.180 HD
BRANCH  18  20
ATOM     20  C   UNL A   1      39.344  22.331  26.345  1.00  0.00     0.049 A 
ATOM     21  C   UNL A   1      41.497  19.203  26.006  1.00  0.00     0.044 C 
ATOM     22  C   UNL A   1      40.973  20.518  26.502  1.00  0.00    -0.049 A 
ATOM     23  C   UNL A   1      41.670  21.246  27.468  1.00  0.00     0.003 A 
ATOM     24  C   UNL A   1      39.818  21.077  25.938  1.00  0.00     0.030 A 
ATOM     25  C   UNL A   1      41.148  22.449  27.948  1.00  0.00     0.002 A 
ATOM     26  C   UNL A   1      39.955  22.964  27.428  1.00  0.00     0.027 A 
ENDBRANCH  18  20
ENDBRANCH  15  18
ENDBRANCH   9  15
ENDBRANCH   5   8
ENDBRANCH   3   4
ENDBRANCH   2   3
ENDBRANCH   1   2
BRANCH   1  27
ATOM     27  C   UNL A   1      32.519  28.148  25.048  1.00  0.00     0.002 C 
BRANCH  27  28
ATOM     28  C   UNL A   1      32.097  29.272  25.993  1.00  0.00     0.021 C 
BRANCH  28  29
ATOM     29  C   UNL A   1      33.021  29.538  27.175  1.00  0.00     0.116 C 
BRANCH  29  30
ATOM     30  N   UNL A   1      33.476  30.919  27.240  1.00  0.00    -0.352 N 
ATOM     31  C   UNL A   1      34.589  31.409  27.902  1.00  0.00     0.251 C 
ATOM     32  H   UNL A   1      32.930  31.581  26.757  1.00  0.00     0.163 HD
ATOM     33  O   UNL A   1      34.723  32.588  28.186  1.00  0.00    -0.269 OA
BRANCH  31  34
ATOM     34  C   UNL A   1      35.694  30.455  28.121  1.00  0.00     0.039 A 
ATOM     35  C   UNL A   1      35.763  29.851  29.382  1.00  0.00     0.014 A 
ATOM     36  C   UNL A   1      36.760  30.394  27.231  1.00  0.00     0.014 A 
ATOM     37  C   UNL A   1      36.975  29.335  29.828  1.00  0.00     0.010 A 
ATOM     38  C   UNL A   1      37.983  29.962  27.707  1.00  0.00     0.010 A 
ATOM     39  C   UNL A   1      38.102  29.482  29.022  1.00  0.00    -0.014 A 
BRANCH  39  40
ATOM     40  C   UNL A   1      39.465  29.222  29.471  1.00  0.00     0.031 A 
ATOM     41  C   UNL A   1      40.104  27.920  29.168  1.00  0.00     0.074 A 
ATOM     42  C   UNL A   1      40.186  30.203  30.058  1.00  0.00     0.049 A 
ATOM     43  N   UNL A   1      41.184  27.485  29.728  1.00  0.00    -0.248 NA
ATOM     44  C   UNL A   1      39.504  26.952  28.254  1.00  0.00     0.031 C 
ATOM     45  C   UNL A   1      41.640  30.252  30.197  1.00  0.00     0.029 A 
ATOM     46  N   UNL A   1      39.737  31.253  30.863  1.00  0.00    -0.354 N 
ATOM     47  C   UNL A   1      41.585  26.367  29.032  1.00  0.00     0.074 A 
ATOM     48  C   UNL A   1      40.441  26.002  28.231  1.00  0.00     0.031 C 
ATOM     49  C   UNL A   1      41.945  31.045  31.233  1.00  0.00     0.029 A 
ATOM     50  C   UNL A   1      40.695  31.396  31.883  1.00  0.00     0.049 A 
ATOM     51  H   UNL A   1      38.917  31.784  30.741  1.00  0.00     0.167 HD
ATOM     52  C   UNL A   1      42.888  25.971  29.093  1.00  0.00     0.031 A 
ATOM     53  C   UNL A   1      40.437  31.247  33.216  1.00  0.00     0.031 A 
ATOM     54  C   UNL A   1      43.611  26.662  30.161  1.00  0.00     0.049 A 
ATOM     55  C   UNL A   1      41.321  30.219  33.888  1.00  0.00     0.074 A 
ATOM     56  C   UNL A   1      44.547  27.682  30.179  1.00  0.00     0.029 A 
ATOM     57  N   UNL A   1      43.199  26.482  31.478  1.00  0.00    -0.354 N 
ATOM     58  N   UNL A   1      42.029  29.335  33.242  1.00  0.00    -0.248 NA
ATOM     59  C   UNL A   1      41.439  30.072  35.336  1.00  0.00     0.031 C 
ATOM     60  C   UNL A   1      44.623  28.179  31.508  1.00  0.00     0.029 A 
ATOM     61  C   UNL A   1      43.765  27.436  32.301  1.00  0.00     0.049 A 
ATOM     62  H   UNL A   1      42.589  25.772  31.782  1.00  0.00     0.167 HD
ATOM     63  C   UNL A   1      42.664  28.511  34.132  1.00  0.00     0.074 A 
ATOM     64  C   UNL A   1      42.279  29.027  35.433  1.00  0.00     0.031 C 
ATOM     65  C   UNL A   1      43.439  27.464  33.721  1.00  0.00     0.031 A 
BRANCH  52  66
ATOM     66  C   UNL A   1      43.578  25.152  28.013  1.00  0.00    -0.014 A 
ATOM     67  C   UNL A   1      43.095  25.194  26.686  1.00  0.00     0.010 A 
ATOM     68  C   UNL A   1      44.623  24.236  28.246  1.00  0.00     0.010 A 
ATOM     69  C   UNL A   1      43.574  24.328  25.684  1.00  0.00     0.020 A 
ATOM     70  C   UNL A   1      45.116  23.371  27.260  1.00  0.00     0.020 A 
ATOM     71  C   UNL A   1      44.572  23.406  25.986  1.00  0.00     0.054 A 
BRANCH  71  72
ATOM     72  S   UNL A   1      45.135  22.235  24.723  1.00  0.00     0.124 S 
ATOM     73  O   UNL A   1      44.049  21.258  24.698  1.00  0.00    -0.237 OA
ATOM     74  O   UNL A   1      45.255  23.078  23.539  1.00  0.00    -0.237 OA
ATOM     75  O   UNL A   1      46.400  21.732  25.256  1.00  0.00    -0.744 OA
ENDBRANCH  71  72
ENDBRANCH  52  66
BRANCH  53  76
ATOM     76  C   UNL A   1      39.032  31.545  33.608  1.00  0.00    -0.014 A 
ATOM     77  C   UNL A   1      38.738  32.867  34.003  1.00  0.00     0.010 A 
ATOM     78  C   UNL A   1      37.988  30.713  33.166  1.00  0.00     0.010 A 
ATOM     79  C   UNL A   1      37.470  33.405  33.777  1.00  0.00     0.020 A 
ATOM     80  C   UNL A   1      36.712  31.251  32.947  1.00  0.00     0.020 A 
ATOM     81  C   UNL A   1      36.489  32.611  33.182  1.00  0.00     0.054 A 
BRANCH  81  82
ATOM     82  S   UNL A   1      35.005  33.436  32.531  1.00  0.00     0.124 S 
ATOM     83  O   UNL A   1      34.238  32.321  31.987  1.00  0.00    -0.237 OA
ATOM     84  O   UNL A   1      34.454  34.052  33.738  1.00  0.00    -0.237 OA
ATOM     85  O   UNL A   1      35.545  34.371  31.548  1.00  0.00    -0.744 OA
ENDBRANCH  81  82
ENDBRANCH  53  76
BRANCH  65  86
ATOM     86  C   UNL A   1      44.018  26.388  34.612  1.00  0.00    -0.014 A 
ATOM     87  C   UNL A   1      43.310  25.255  35.044  1.00  0.00     0.010 A 
ATOM     88  C   UNL A   1      45.395  26.443  34.937  1.00  0.00     0.010 A 
ATOM     89  C   UNL A   1      43.926  24.260  35.817  1.00  0.00     0.020 A 
ATOM     90  C   UNL A   1      46.031  25.435  35.669  1.00  0.00     0.020 A 
ATOM     91  C   UNL A   1      45.283  24.358  36.129  1.00  0.00     0.054 A 
BRANCH  91  92
ATOM     92  S   UNL A   1      46.092  23.035  37.065  1.00  0.00     0.124 S 
ATOM     93  O   UNL A   1      47.502  23.272  36.764  1.00  0.00    -0.237 OA
ATOM     94  O   UNL A   1      45.692  23.313  38.443  1.00  0.00    -0.237 OA
ATOM     95  O   UNL A   1      45.523  21.817  36.494  1.00  0.00    -0.744 OA
ENDBRANCH  91  92
ENDBRANCH  65  86
ENDBRANCH  39  40
ENDBRANCH  31  34
ENDBRANCH  29  30
ENDBRANCH  28  29
ENDBRANCH  27  28
ENDBRANCH   1  27
TORSDOF 19
ENDMDL
