MODEL 1
REMARK VINA RESULT:     -11.5      0.000      0.000
REMARK SMILES O=C(NCCCCCCNC(=O)c1cc(Cl)cc(S(=O)(=O)N[C@@H]2CONC2=O)c1F)c1ccc(-c2c3nc(c(-c4ccc(S(=O)(=O)[O-])cc4)c4ccc([nH]4)c(-c4ccc(S(=O)(=O)[O-])cc4)c4nc(c(-c5ccc(S(=O)(=O)[O-])cc5)c5ccc2[nH]5)C=C4)C=C3)cc1
REMARK SMILES IDX 6 1 5 2 4 3 3 4 1 5 2 6 31 8 32 9 90 10 33 11 89 12 34 13
REMARK SMILES IDX 35 14 36 15 83 16 37 17 88 18 82 19 84 20 38 21 87 22 81 23
REMARK SMILES IDX 80 24 39 26 69 27 50 28 68 29 51 30 54 31 67 32 85 33 52 34
REMARK SMILES IDX 53 35 66 37 86 38 55 39 40 40 41 41 49 42 42 43 48 44 43 45
REMARK SMILES IDX 44 46 45 47 46 48 47 49 70 50 71 51 79 52 72 53 78 54 73 55
REMARK SMILES IDX 74 56 75 57 76 58 77 59 56 60 57 61 65 62 58 63 64 64 59 65
REMARK SMILES IDX 60 66 61 67 62 68 63 69 7 70 8 71 9 72 10 73 11 74 12 76
REMARK SMILES IDX 13 77 14 78 29 79 15 80 18 81 30 82 16 83 17 84 19 85 20 86
REMARK SMILES IDX 21 87 22 88 23 90 24 91 27 92 25 93 26 94 28 95
REMARK H PARENT 3 7 84 25 54 36 10 75 22 89 26 96
REMARK Flexibility Score: inf
ROOT
ATOM      1  C   UNL A   1      32.868  29.490  26.648  1.00  0.00     0.002 C 
ENDROOT
BRANCH   1   2
ATOM      2  C   UNL A   1      34.027  28.592  27.080  1.00  0.00     0.021 C 
BRANCH   2   3
ATOM      3  C   UNL A   1      35.275  29.320  27.566  1.00  0.00     0.116 C 
BRANCH   3   4
ATOM      4  N   UNL A   1      35.168  29.778  28.940  1.00  0.00    -0.352 N 
ATOM      5  O   UNL A   1      35.853  30.179  31.049  1.00  0.00    -0.269 OA
ATOM      6  C   UNL A   1      36.150  29.889  29.895  1.00  0.00     0.251 C 
ATOM      7  H   UNL A   1      34.265  30.047  29.227  1.00  0.00     0.163 HD
BRANCH   6   8
ATOM      8  C   UNL A   1      37.562  29.626  29.532  1.00  0.00     0.039 A 
ATOM      9  C   UNL A   1      38.013  29.818  28.224  1.00  0.00     0.014 A 
ATOM     10  C   UNL A   1      38.445  29.180  30.519  1.00  0.00     0.014 A 
ATOM     11  C   UNL A   1      39.304  29.434  27.875  1.00  0.00     0.010 A 
ATOM     12  C   UNL A   1      39.767  28.872  30.183  1.00  0.00     0.010 A 
ATOM     13  C   UNL A   1      40.200  28.969  28.851  1.00  0.00    -0.014 A 
BRANCH  13  14
ATOM     14  C   UNL A   1      41.598  28.651  28.464  1.00  0.00     0.031 A 
ATOM     15  C   UNL A   1      42.683  29.693  28.522  1.00  0.00     0.074 A 
ATOM     16  C   UNL A   1      41.892  27.393  28.083  1.00  0.00     0.049 A 
ATOM     17  N   UNL A   1      43.958  29.565  28.254  1.00  0.00    -0.248 NA
ATOM     18  C   UNL A   1      42.288  31.052  28.926  1.00  0.00     0.031 C 
ATOM     19  C   UNL A   1      40.922  26.298  27.978  1.00  0.00     0.029 A 
ATOM     20  N   UNL A   1      43.085  26.814  27.734  1.00  0.00    -0.354 N 
ATOM     21  C   UNL A   1      44.517  30.826  28.438  1.00  0.00     0.074 A 
ATOM     22  C   UNL A   1      43.436  31.710  28.819  1.00  0.00     0.031 C 
ATOM     23  C   UNL A   1      41.567  25.170  27.644  1.00  0.00     0.029 A 
ATOM     24  C   UNL A   1      42.980  25.472  27.452  1.00  0.00     0.049 A 
ATOM     25  H   UNL A   1      43.933  27.309  27.692  1.00  0.00     0.167 HD
ATOM     26  C   UNL A   1      45.810  31.208  28.305  1.00  0.00     0.031 A 
ATOM     27  C   UNL A   1      43.913  24.582  27.066  1.00  0.00     0.031 A 
ATOM     28  C   UNL A   1      46.881  30.324  27.923  1.00  0.00     0.049 A 
ATOM     29  C   UNL A   1      45.333  25.036  26.904  1.00  0.00     0.074 A 
ATOM     30  C   UNL A   1      48.229  30.612  27.786  1.00  0.00     0.029 A 
ATOM     31  N   UNL A   1      46.728  28.981  27.610  1.00  0.00    -0.354 N 
ATOM     32  N   UNL A   1      45.843  26.227  27.114  1.00  0.00    -0.248 NA
ATOM     33  C   UNL A   1      46.304  24.029  26.457  1.00  0.00     0.031 C 
ATOM     34  C   UNL A   1      48.883  29.456  27.346  1.00  0.00     0.029 A 
ATOM     35  C   UNL A   1      47.952  28.433  27.259  1.00  0.00     0.049 A 
ATOM     36  H   UNL A   1      45.875  28.490  27.633  1.00  0.00     0.167 HD
ATOM     37  C   UNL A   1      47.200  26.108  26.836  1.00  0.00     0.074 A 
ATOM     38  C   UNL A   1      47.433  24.726  26.467  1.00  0.00     0.031 C 
ATOM     39  C   UNL A   1      48.165  27.058  26.883  1.00  0.00     0.031 A 
BRANCH  26  40
ATOM     40  C   UNL A   1      46.138  32.658  28.550  1.00  0.00    -0.014 A 
ATOM     41  C   UNL A   1      46.072  33.606  27.512  1.00  0.00     0.010 A 
ATOM     42  C   UNL A   1      46.472  33.089  29.847  1.00  0.00     0.010 A 
ATOM     43  C   UNL A   1      46.375  34.949  27.760  1.00  0.00     0.020 A 
ATOM     44  C   UNL A   1      46.753  34.434  30.104  1.00  0.00     0.020 A 
ATOM     45  C   UNL A   1      46.720  35.353  29.053  1.00  0.00     0.054 A 
BRANCH  45  46
ATOM     46  S   UNL A   1      47.101  37.103  29.347  1.00  0.00     0.124 S 
ATOM     47  O   UNL A   1      45.767  37.688  29.438  1.00  0.00    -0.237 OA
ATOM     48  O   UNL A   1      47.854  37.061  30.598  1.00  0.00    -0.237 OA
ATOM     49  O   UNL A   1      47.875  37.492  28.170  1.00  0.00    -0.744 OA
ENDBRANCH  45  46
ENDBRANCH  26  40
BRANCH  27  50
ATOM     50  C   UNL A   1      43.519  23.172  26.802  1.00  0.00    -0.014 A 
ATOM     51  C   UNL A   1      43.750  22.587  25.546  1.00  0.00     0.010 A 
ATOM     52  C   UNL A   1      42.941  22.397  27.826  1.00  0.00     0.010 A 
ATOM     53  C   UNL A   1      43.403  21.253  25.314  1.00  0.00     0.020 A 
ATOM     54  C   UNL A   1      42.619  21.056  27.606  1.00  0.00     0.020 A 
ATOM     55  C   UNL A   1      42.842  20.495  26.348  1.00  0.00     0.054 A 
BRANCH  55  56
ATOM     56  S   UNL A   1      42.457  18.748  26.046  1.00  0.00     0.124 S 
ATOM     57  O   UNL A   1      41.053  18.811  25.655  1.00  0.00    -0.237 OA
ATOM     58  O   UNL A   1      43.396  18.395  24.984  1.00  0.00    -0.237 OA
ATOM     59  O   UNL A   1      42.723  18.114  27.335  1.00  0.00    -0.744 OA
ENDBRANCH  55  56
ENDBRANCH  27  50
BRANCH  39  60
ATOM     60  C   UNL A   1      49.566  26.627  26.546  1.00  0.00    -0.014 A 
ATOM     61  C   UNL A   1      50.067  26.744  25.237  1.00  0.00     0.010 A 
ATOM     62  C   UNL A   1      50.401  26.125  27.559  1.00  0.00     0.010 A 
ATOM     63  C   UNL A   1      51.369  26.331  24.941  1.00  0.00     0.020 A 
ATOM     64  C   UNL A   1      51.711  25.735  27.272  1.00  0.00     0.020 A 
ATOM     65  C   UNL A   1      52.181  25.825  25.961  1.00  0.00     0.054 A 
BRANCH  65  66
ATOM     66  S   UNL A   1      53.878  25.323  25.560  1.00  0.00     0.124 S 
ATOM     67  O   UNL A   1      54.368  24.856  26.854  1.00  0.00    -0.237 OA
ATOM     68  O   UNL A   1      53.677  24.284  24.552  1.00  0.00    -0.237 OA
ATOM     69  O   UNL A   1      54.494  26.551  25.065  1.00  0.00    -0.744 OA
ENDBRANCH  65  66
ENDBRANCH  39  60
ENDBRANCH  13  14
ENDBRANCH   6   8
ENDBRANCH   3   4
ENDBRANCH   2   3
ENDBRANCH   1   2
BRANCH   1  70
ATOM     70  C   UNL A   1      32.738  29.739  25.143  1.00  0.00     0.002 C 
BRANCH  70  71
ATOM     71  C   UNL A   1      33.672  28.921  24.244  1.00  0.00     0.021 C 
BRANCH  71  72
ATOM     72  C   UNL A   1      33.454  29.104  22.747  1.00  0.00     0.116 C 
BRANCH  72  73
ATOM     73  N   UNL A   1      32.045  29.189  22.401  1.00  0.00    -0.352 N 
ATOM     74  C   UNL A   1      31.093  28.203  22.402  1.00  0.00     0.254 C 
ATOM     75  H   UNL A   1      31.730  30.082  22.127  1.00  0.00     0.163 HD
ATOM     76  O   UNL A   1      29.964  28.423  21.975  1.00  0.00    -0.269 OA
BRANCH  74  77
ATOM     77  C   UNL A   1      31.413  26.854  22.902  1.00  0.00     0.078 A 
ATOM     78  C   UNL A   1      32.003  25.932  22.035  1.00  0.00     0.037 A 
ATOM     79  C   UNL A   1      31.055  26.479  24.196  1.00  0.00     0.156 A 
ATOM     80  C   UNL A   1      32.284  24.648  22.496  1.00  0.00     0.043 A 
ATOM     81  C   UNL A   1      31.332  25.200  24.651  1.00  0.00     0.120 A 
ATOM     82  F   UNL A   1      30.431  27.374  24.967  1.00  0.00    -0.205 F 
ATOM     83  Cl  UNL A   1      33.017  23.507  21.441  1.00  0.00    -0.084 Cl
ATOM     84  C   UNL A   1      31.961  24.278  23.802  1.00  0.00     0.045 A 
BRANCH  81  85
ATOM     85  S   UNL A   1      30.872  24.641  26.259  1.00  0.00     0.244 S 
ATOM     86  O   UNL A   1      31.869  25.160  27.163  1.00  0.00    -0.207 OA
ATOM     87  O   UNL A   1      29.467  24.956  26.390  1.00  0.00    -0.207 OA
BRANCH  85  88
ATOM     88  N   UNL A   1      30.958  22.966  26.258  1.00  0.00    -0.196 NA
ATOM     89  H   UNL A   1      30.377  22.631  25.490  1.00  0.00     0.142 HD
BRANCH  88  90
ATOM     90  C   UNL A   1      32.288  22.352  26.103  1.00  0.00     0.189 C 
ATOM     91  C   UNL A   1      32.215  21.029  25.347  1.00  0.00     0.224 C 
ATOM     92  C   UNL A   1      32.948  21.865  27.357  1.00  0.00     0.264 C 
ATOM     93  O   UNL A   1      33.405  20.316  25.709  1.00  0.00    -0.271 OA
ATOM     94  N   UNL A   1      33.686  20.754  27.023  1.00  0.00    -0.233 N 
ATOM     95  O   UNL A   1      32.870  22.355  28.471  1.00  0.00    -0.271 OA
ATOM     96  H   UNL A   1      34.331  20.317  27.626  1.00  0.00     0.199 HD
ENDBRANCH  88  90
ENDBRANCH  85  88
ENDBRANCH  81  85
ENDBRANCH  74  77
ENDBRANCH  72  73
ENDBRANCH  71  72
ENDBRANCH  70  71
ENDBRANCH   1  70
TORSDOF 19
ENDMDL
MODEL 2
REMARK VINA RESULT:     -11.5      5.216      6.630
REMARK SMILES O=C(NCCCCCCNC(=O)c1cc(Cl)cc(S(=O)(=O)N[C@@H]2CONC2=O)c1F)c1ccc(-c2c3nc(c(-c4ccc(S(=O)(=O)[O-])cc4)c4ccc([nH]4)c(-c4ccc(S(=O)(=O)[O-])cc4)c4nc(c(-c5ccc(S(=O)(=O)[O-])cc5)c5ccc2[nH]5)C=C4)C=C3)cc1
REMARK SMILES IDX 6 1 5 2 4 3 3 4 1 5 2 6 31 8 32 9 90 10 33 11 89 12 34 13
REMARK SMILES IDX 35 14 36 15 83 16 37 17 88 18 82 19 84 20 38 21 87 22 81 23
REMARK SMILES IDX 80 24 39 26 69 27 50 28 68 29 51 30 54 31 67 32 85 33 52 34
REMARK SMILES IDX 53 35 66 37 86 38 55 39 40 40 41 41 49 42 42 43 48 44 43 45
REMARK SMILES IDX 44 46 45 47 46 48 47 49 70 50 71 51 79 52 72 53 78 54 73 55
REMARK SMILES IDX 74 56 75 57 76 58 77 59 56 60 57 61 65 62 58 63 64 64 59 65
REMARK SMILES IDX 60 66 61 67 62 68 63 69 7 70 8 71 9 72 10 73 11 74 12 76
REMARK SMILES IDX 13 77 14 78 29 79 15 80 18 81 30 82 16 83 17 84 19 85 20 86
REMARK SMILES IDX 21 87 22 88 23 90 24 91 27 92 25 93 26 94 28 95
REMARK H PARENT 3 7 84 25 54 36 10 75 22 89 26 96
REMARK Flexibility Score: inf
ROOT
ATOM      1  C   UNL A   1      32.897  27.384  24.660  1.00  0.00     0.002 C 
ENDROOT
BRANCH   1   2
ATOM      2  C   UNL A   1      33.784  28.622  24.796  1.00  0.00     0.021 C 
BRANCH   2   3
ATOM      3  C   UNL A   1      34.228  28.958  26.215  1.00  0.00     0.116 C 
BRANCH   3   4
ATOM      4  N   UNL A   1      33.810  30.281  26.644  1.00  0.00    -0.352 N 
ATOM      5  O   UNL A   1      33.813  32.145  27.911  1.00  0.00    -0.269 OA
ATOM      6  C   UNL A   1      34.377  31.105  27.586  1.00  0.00     0.251 C 
ATOM      7  H   UNL A   1      33.009  30.638  26.196  1.00  0.00     0.163 HD
BRANCH   6   8
ATOM      8  C   UNL A   1      35.653  30.718  28.231  1.00  0.00     0.039 A 
ATOM      9  C   UNL A   1      35.713  29.627  29.102  1.00  0.00     0.014 A 
ATOM     10  C   UNL A   1      36.806  31.459  27.957  1.00  0.00     0.014 A 
ATOM     11  C   UNL A   1      36.886  29.366  29.803  1.00  0.00     0.010 A 
ATOM     12  C   UNL A   1      38.006  31.142  28.601  1.00  0.00     0.010 A 
ATOM     13  C   UNL A   1      38.050  30.111  29.552  1.00  0.00    -0.014 A 
BRANCH  13  14
ATOM     14  C   UNL A   1      39.310  29.750  30.249  1.00  0.00     0.031 A 
ATOM     15  C   UNL A   1      39.729  30.440  31.519  1.00  0.00     0.074 A 
ATOM     16  C   UNL A   1      40.070  28.762  29.737  1.00  0.00     0.049 A 
ATOM     17  N   UNL A   1      40.779  30.215  32.268  1.00  0.00    -0.248 NA
ATOM     18  C   UNL A   1      38.863  31.525  32.011  1.00  0.00     0.031 C 
ATOM     19  C   UNL A   1      39.772  28.024  28.505  1.00  0.00     0.029 A 
ATOM     20  N   UNL A   1      41.230  28.191  30.193  1.00  0.00    -0.354 N 
ATOM     21  C   UNL A   1      40.714  31.137  33.307  1.00  0.00     0.074 A 
ATOM     22  C   UNL A   1      39.531  31.941  33.079  1.00  0.00     0.031 C 
ATOM     23  C   UNL A   1      40.695  27.066  28.333  1.00  0.00     0.029 A 
ATOM     24  C   UNL A   1      41.679  27.159  29.404  1.00  0.00     0.049 A 
ATOM     25  H   UNL A   1      41.695  28.490  31.006  1.00  0.00     0.167 HD
ATOM     26  C   UNL A   1      41.559  31.296  34.354  1.00  0.00     0.031 A 
ATOM     27  C   UNL A   1      42.771  26.379  29.517  1.00  0.00     0.031 A 
ATOM     28  C   UNL A   1      42.737  30.495  34.574  1.00  0.00     0.049 A 
ATOM     29  C   UNL A   1      43.702  26.591  30.673  1.00  0.00     0.074 A 
ATOM     30  C   UNL A   1      43.642  30.563  35.620  1.00  0.00     0.029 A 
ATOM     31  N   UNL A   1      43.177  29.484  33.732  1.00  0.00    -0.354 N 
ATOM     32  N   UNL A   1      43.604  27.449  31.661  1.00  0.00    -0.248 NA
ATOM     33  C   UNL A   1      44.889  25.729  30.733  1.00  0.00     0.031 C 
ATOM     34  C   UNL A   1      44.653  29.625  35.387  1.00  0.00     0.029 A 
ATOM     35  C   UNL A   1      44.351  28.936  34.223  1.00  0.00     0.049 A 
ATOM     36  H   UNL A   1      42.722  29.198  32.907  1.00  0.00     0.167 HD
ATOM     37  C   UNL A   1      44.712  27.221  32.468  1.00  0.00     0.074 A 
ATOM     38  C   UNL A   1      45.452  26.130  31.865  1.00  0.00     0.031 C 
ATOM     39  C   UNL A   1      45.082  27.858  33.605  1.00  0.00     0.031 A 
BRANCH  26  40
ATOM     40  C   UNL A   1      41.257  32.400  35.334  1.00  0.00    -0.014 A 
ATOM     41  C   UNL A   1      40.398  32.188  36.429  1.00  0.00     0.010 A 
ATOM     42  C   UNL A   1      41.877  33.654  35.185  1.00  0.00     0.010 A 
ATOM     43  C   UNL A   1      40.134  33.224  37.331  1.00  0.00     0.020 A 
ATOM     44  C   UNL A   1      41.634  34.685  36.098  1.00  0.00     0.020 A 
ATOM     45  C   UNL A   1      40.748  34.468  37.157  1.00  0.00     0.054 A 
BRANCH  45  46
ATOM     46  S   UNL A   1      40.393  35.790  38.346  1.00  0.00     0.124 S 
ATOM     47  O   UNL A   1      39.745  36.787  37.500  1.00  0.00    -0.237 OA
ATOM     48  O   UNL A   1      39.521  35.127  39.313  1.00  0.00    -0.237 OA
ATOM     49  O   UNL A   1      41.711  36.164  38.853  1.00  0.00    -0.744 OA
ENDBRANCH  45  46
ENDBRANCH  26  40
BRANCH  27  50
ATOM     50  C   UNL A   1      43.034  25.331  28.495  1.00  0.00    -0.014 A 
ATOM     51  C   UNL A   1      43.814  25.616  27.362  1.00  0.00     0.010 A 
ATOM     52  C   UNL A   1      42.533  24.028  28.673  1.00  0.00     0.010 A 
ATOM     53  C   UNL A   1      44.081  24.619  26.419  1.00  0.00     0.020 A 
ATOM     54  C   UNL A   1      42.821  23.022  27.749  1.00  0.00     0.020 A 
ATOM     55  C   UNL A   1      43.585  23.327  26.621  1.00  0.00     0.054 A 
BRANCH  55  56
ATOM     56  S   UNL A   1      43.996  22.032  25.419  1.00  0.00     0.124 S 
ATOM     57  O   UNL A   1      43.187  20.913  25.891  1.00  0.00    -0.237 OA
ATOM     58  O   UNL A   1      43.576  22.629  24.153  1.00  0.00    -0.237 OA
ATOM     59  O   UNL A   1      45.440  21.872  25.572  1.00  0.00    -0.744 OA
ENDBRANCH  55  56
ENDBRANCH  27  50
BRANCH  39  60
ATOM     60  C   UNL A   1      46.335  27.374  34.283  1.00  0.00    -0.014 A 
ATOM     61  C   UNL A   1      47.597  27.885  33.928  1.00  0.00     0.010 A 
ATOM     62  C   UNL A   1      46.244  26.416  35.309  1.00  0.00     0.010 A 
ATOM     63  C   UNL A   1      48.750  27.417  34.564  1.00  0.00     0.020 A 
ATOM     64  C   UNL A   1      47.392  25.966  35.964  1.00  0.00     0.020 A 
ATOM     65  C   UNL A   1      48.640  26.458  35.575  1.00  0.00     0.054 A 
BRANCH  65  66
ATOM     66  S   UNL A   1      50.148  25.887  36.408  1.00  0.00     0.124 S 
ATOM     67  O   UNL A   1      51.017  25.573  35.277  1.00  0.00    -0.237 OA
ATOM     68  O   UNL A   1      50.541  27.052  37.197  1.00  0.00    -0.237 OA
ATOM     69  O   UNL A   1      49.698  24.738  37.187  1.00  0.00    -0.744 OA
ENDBRANCH  65  66
ENDBRANCH  39  60
ENDBRANCH  13  14
ENDBRANCH   6   8
ENDBRANCH   3   4
ENDBRANCH   2   3
ENDBRANCH   1   2
BRANCH   1  70
ATOM     70  C   UNL A   1      31.405  27.595  24.936  1.00  0.00     0.002 C 
BRANCH  70  71
ATOM     71  C   UNL A   1      30.802  26.738  26.054  1.00  0.00     0.021 C 
BRANCH  71  72
ATOM     72  C   UNL A   1      30.599  25.269  25.707  1.00  0.00     0.116 C 
BRANCH  72  73
ATOM     73  N   UNL A   1      30.844  24.395  26.843  1.00  0.00    -0.352 N 
ATOM     74  C   UNL A   1      31.630  23.274  26.917  1.00  0.00     0.254 C 
ATOM     75  H   UNL A   1      30.380  24.644  27.675  1.00  0.00     0.163 HD
ATOM     76  O   UNL A   1      31.641  22.585  27.933  1.00  0.00    -0.269 OA
BRANCH  74  77
ATOM     77  C   UNL A   1      32.464  22.868  25.772  1.00  0.00     0.078 A 
ATOM     78  C   UNL A   1      31.875  22.161  24.721  1.00  0.00     0.037 A 
ATOM     79  C   UNL A   1      33.837  23.110  25.780  1.00  0.00     0.156 A 
ATOM     80  C   UNL A   1      32.665  21.752  23.650  1.00  0.00     0.043 A 
ATOM     81  C   UNL A   1      34.621  22.700  24.714  1.00  0.00     0.120 A 
ATOM     82  F   UNL A   1      34.367  23.729  26.838  1.00  0.00    -0.205 F 
ATOM     83  Cl  UNL A   1      31.950  20.890  22.346  1.00  0.00    -0.084 Cl
ATOM     84  C   UNL A   1      34.033  22.025  23.633  1.00  0.00     0.045 A 
BRANCH  81  85
ATOM     85  S   UNL A   1      36.368  22.934  24.671  1.00  0.00     0.244 S 
ATOM     86  O   UNL A   1      36.780  22.627  23.323  1.00  0.00    -0.207 OA
ATOM     87  O   UNL A   1      36.599  24.225  25.278  1.00  0.00    -0.207 OA
BRANCH  85  88
ATOM     88  N   UNL A   1      37.055  21.818  25.716  1.00  0.00    -0.196 NA
ATOM     89  H   UNL A   1      36.377  21.070  25.854  1.00  0.00     0.142 HD
BRANCH  88  90
ATOM     90  C   UNL A   1      38.324  21.190  25.307  1.00  0.00     0.189 C 
ATOM     91  C   UNL A   1      38.220  19.669  25.282  1.00  0.00     0.224 C 
ATOM     92  C   UNL A   1      39.474  21.328  26.258  1.00  0.00     0.264 C 
ATOM     93  O   UNL A   1      39.568  19.192  25.389  1.00  0.00    -0.271 OA
ATOM     94  N   UNL A   1      40.226  20.181  26.154  1.00  0.00    -0.233 N 
ATOM     95  O   UNL A   1      39.722  22.274  26.986  1.00  0.00    -0.271 OA
ATOM     96  H   UNL A   1      41.114  20.065  26.563  1.00  0.00     0.199 HD
ENDBRANCH  88  90
ENDBRANCH  85  88
ENDBRANCH  81  85
ENDBRANCH  74  77
ENDBRANCH  72  73
ENDBRANCH  71  72
ENDBRANCH  70  71
ENDBRANCH   1  70
TORSDOF 19
ENDMDL
MODEL 3
REMARK VINA RESULT:     -11.4      2.403      8.712
REMARK SMILES O=C(NCCCCCCNC(=O)c1cc(Cl)cc(S(=O)(=O)N[C@@H]2CONC2=O)c1F)c1ccc(-c2c3nc(c(-c4ccc(S(=O)(=O)[O-])cc4)c4ccc([nH]4)c(-c4ccc(S(=O)(=O)[O-])cc4)c4nc(c(-c5ccc(S(=O)(=O)[O-])cc5)c5ccc2[nH]5)C=C4)C=C3)cc1
REMARK SMILES IDX 6 1 5 2 4 3 3 4 1 5 2 6 31 8 32 9 90 10 33 11 89 12 34 13
REMARK SMILES IDX 35 14 36 15 83 16 37 17 88 18 82 19 84 20 38 21 87 22 81 23
REMARK SMILES IDX 80 24 39 26 69 27 50 28 68 29 51 30 54 31 67 32 85 33 52 34
REMARK SMILES IDX 53 35 66 37 86 38 55 39 40 40 41 41 49 42 42 43 48 44 43 45
REMARK SMILES IDX 44 46 45 47 46 48 47 49 70 50 71 51 79 52 72 53 78 54 73 55
REMARK SMILES IDX 74 56 75 57 76 58 77 59 56 60 57 61 65 62 58 63 64 64 59 65
REMARK SMILES IDX 60 66 61 67 62 68 63 69 7 70 8 71 9 72 10 73 11 74 12 76
REMARK SMILES IDX 13 77 14 78 29 79 15 80 18 81 30 82 16 83 17 84 19 85 20 86
REMARK SMILES IDX 21 87 22 88 23 90 24 91 27 92 25 93 26 94 28 95
REMARK H PARENT 3 7 84 25 54 36 10 75 22 89 26 96
REMARK Flexibility Score: inf
ROOT
ATOM      1  C   UNL A   1      40.520  22.219  27.713  1.00  0.00     0.002 C 
ENDROOT
BRANCH   1   2
ATOM      2  C   UNL A   1      40.824  20.732  27.529  1.00  0.00     0.021 C 
BRANCH   2   3
ATOM      3  C   UNL A   1      40.689  20.206  26.105  1.00  0.00     0.116 C 
BRANCH   3   4
ATOM      4  N   UNL A   1      41.857  19.470  25.657  1.00  0.00    -0.352 N 
ATOM      5  O   UNL A   1      43.968  19.184  24.922  1.00  0.00    -0.269 OA
ATOM      6  C   UNL A   1      43.131  19.929  25.420  1.00  0.00     0.251 C 
ATOM      7  H   UNL A   1      41.718  18.507  25.503  1.00  0.00     0.163 HD
BRANCH   6   8
ATOM      8  C   UNL A   1      43.478  21.333  25.737  1.00  0.00     0.039 A 
ATOM      9  C   UNL A   1      43.279  22.349  24.799  1.00  0.00     0.014 A 
ATOM     10  C   UNL A   1      44.012  21.635  26.993  1.00  0.00     0.014 A 
ATOM     11  C   UNL A   1      43.739  23.635  25.065  1.00  0.00     0.010 A 
ATOM     12  C   UNL A   1      44.399  22.945  27.288  1.00  0.00     0.010 A 
ATOM     13  C   UNL A   1      44.293  23.952  26.316  1.00  0.00    -0.014 A 
BRANCH  13  14
ATOM     14  C   UNL A   1      44.693  25.354  26.601  1.00  0.00     0.031 A 
ATOM     15  C   UNL A   1      43.716  26.347  27.170  1.00  0.00     0.074 A 
ATOM     16  C   UNL A   1      45.968  25.720  26.368  1.00  0.00     0.049 A 
ATOM     17  N   UNL A   1      43.918  27.595  27.510  1.00  0.00    -0.248 NA
ATOM     18  C   UNL A   1      42.334  25.885  27.380  1.00  0.00     0.031 C 
ATOM     19  C   UNL A   1      47.006  24.847  25.810  1.00  0.00     0.029 A 
ATOM     20  N   UNL A   1      46.617  26.907  26.589  1.00  0.00    -0.354 N 
ATOM     21  C   UNL A   1      42.692  28.075  27.955  1.00  0.00     0.074 A 
ATOM     22  C   UNL A   1      41.744  26.989  27.821  1.00  0.00     0.031 C 
ATOM     23  C   UNL A   1      48.171  25.512  25.781  1.00  0.00     0.029 A 
ATOM     24  C   UNL A   1      47.952  26.871  26.261  1.00  0.00     0.049 A 
ATOM     25  H   UNL A   1      46.172  27.707  26.949  1.00  0.00     0.167 HD
ATOM     26  C   UNL A   1      42.385  29.305  28.434  1.00  0.00     0.031 A 
ATOM     27  C   UNL A   1      48.897  27.828  26.322  1.00  0.00     0.031 A 
ATOM     28  C   UNL A   1      43.333  30.383  28.563  1.00  0.00     0.049 A 
ATOM     29  C   UNL A   1      48.527  29.187  26.836  1.00  0.00     0.074 A 
ATOM     30  C   UNL A   1      43.123  31.659  29.062  1.00  0.00     0.029 A 
ATOM     31  N   UNL A   1      44.665  30.318  28.185  1.00  0.00    -0.354 N 
ATOM     32  N   UNL A   1      47.366  29.609  27.280  1.00  0.00    -0.248 NA
ATOM     33  C   UNL A   1      49.590  30.199  26.858  1.00  0.00     0.031 C 
ATOM     34  C   UNL A   1      44.318  32.378  28.943  1.00  0.00     0.029 A 
ATOM     35  C   UNL A   1      45.285  31.535  28.419  1.00  0.00     0.049 A 
ATOM     36  H   UNL A   1      45.106  29.523  27.806  1.00  0.00     0.167 HD
ATOM     37  C   UNL A   1      47.566  30.935  27.649  1.00  0.00     0.074 A 
ATOM     38  C   UNL A   1      48.960  31.235  27.396  1.00  0.00     0.031 C 
ATOM     39  C   UNL A   1      46.672  31.822  28.150  1.00  0.00     0.031 A 
BRANCH  26  40
ATOM     40  C   UNL A   1      40.956  29.563  28.833  1.00  0.00    -0.014 A 
ATOM     41  C   UNL A   1      39.909  29.467  27.898  1.00  0.00     0.010 A 
ATOM     42  C   UNL A   1      40.648  29.861  30.174  1.00  0.00     0.010 A 
ATOM     43  C   UNL A   1      38.587  29.705  28.288  1.00  0.00     0.020 A 
ATOM     44  C   UNL A   1      39.326  30.077  30.573  1.00  0.00     0.020 A 
ATOM     45  C   UNL A   1      38.304  30.015  29.622  1.00  0.00     0.054 A 
BRANCH  45  46
ATOM     46  S   UNL A   1      36.580  30.312  30.102  1.00  0.00     0.124 S 
ATOM     47  O   UNL A   1      36.386  29.315  31.151  1.00  0.00    -0.237 OA
ATOM     48  O   UNL A   1      36.607  31.700  30.555  1.00  0.00    -0.237 OA
ATOM     49  O   UNL A   1      35.832  30.075  28.870  1.00  0.00    -0.744 OA
ENDBRANCH  45  46
ENDBRANCH  26  40
BRANCH  27  50
ATOM     50  C   UNL A   1      50.283  27.522  25.878  1.00  0.00    -0.014 A 
ATOM     51  C   UNL A   1      51.253  27.095  26.800  1.00  0.00     0.010 A 
ATOM     52  C   UNL A   1      50.627  27.622  24.516  1.00  0.00     0.010 A 
ATOM     53  C   UNL A   1      52.546  26.783  26.372  1.00  0.00     0.020 A 
ATOM     54  C   UNL A   1      51.909  27.283  24.080  1.00  0.00     0.020 A 
ATOM     55  C   UNL A   1      52.864  26.875  25.013  1.00  0.00     0.054 A 
BRANCH  55  56
ATOM     56  S   UNL A   1      54.529  26.404  24.468  1.00  0.00     0.124 S 
ATOM     57  O   UNL A   1      54.452  26.629  23.029  1.00  0.00    -0.237 OA
ATOM     58  O   UNL A   1      55.380  27.331  25.211  1.00  0.00    -0.237 OA
ATOM     59  O   UNL A   1      54.639  25.006  24.880  1.00  0.00    -0.744 OA
ENDBRANCH  55  56
ENDBRANCH  27  50
BRANCH  39  60
ATOM     60  C   UNL A   1      47.186  33.197  28.480  1.00  0.00    -0.014 A 
ATOM     61  C   UNL A   1      47.734  33.485  29.742  1.00  0.00     0.010 A 
ATOM     62  C   UNL A   1      47.145  34.207  27.501  1.00  0.00     0.010 A 
ATOM     63  C   UNL A   1      48.199  34.770  30.032  1.00  0.00     0.020 A 
ATOM     64  C   UNL A   1      47.633  35.485  27.780  1.00  0.00     0.020 A 
ATOM     65  C   UNL A   1      48.142  35.763  29.050  1.00  0.00     0.054 A 
BRANCH  65  66
ATOM     66  S   UNL A   1      48.779  37.416  29.439  1.00  0.00     0.124 S 
ATOM     67  O   UNL A   1      49.797  37.120  30.442  1.00  0.00    -0.237 OA
ATOM     68  O   UNL A   1      49.286  37.878  28.148  1.00  0.00    -0.237 OA
ATOM     69  O   UNL A   1      47.605  38.132  29.931  1.00  0.00    -0.744 OA
ENDBRANCH  65  66
ENDBRANCH  39  60
ENDBRANCH  13  14
ENDBRANCH   6   8
ENDBRANCH   3   4
ENDBRANCH   2   3
ENDBRANCH   1   2
BRANCH   1  70
ATOM     70  C   UNL A   1      40.069  22.971  26.457  1.00  0.00     0.002 C 
BRANCH  70  71
ATOM     71  C   UNL A   1      38.990  24.039  26.665  1.00  0.00     0.021 C 
BRANCH  71  72
ATOM     72  C   UNL A   1      37.598  23.657  26.179  1.00  0.00     0.116 C 
BRANCH  72  73
ATOM     73  N   UNL A   1      37.523  23.574  24.730  1.00  0.00    -0.352 N 
ATOM     74  C   UNL A   1      36.502  23.110  23.942  1.00  0.00     0.254 C 
ATOM     75  H   UNL A   1      38.319  23.896  24.246  1.00  0.00     0.163 HD
ATOM     76  O   UNL A   1      36.646  23.008  22.727  1.00  0.00    -0.269 OA
BRANCH  74  77
ATOM     77  C   UNL A   1      35.217  22.710  24.541  1.00  0.00     0.078 A 
ATOM     78  C   UNL A   1      34.885  21.354  24.593  1.00  0.00     0.037 A 
ATOM     79  C   UNL A   1      34.309  23.677  24.973  1.00  0.00     0.156 A 
ATOM     80  C   UNL A   1      33.660  20.974  25.135  1.00  0.00     0.043 A 
ATOM     81  C   UNL A   1      33.090  23.296  25.509  1.00  0.00     0.120 A 
ATOM     82  F   UNL A   1      34.641  24.963  24.841  1.00  0.00    -0.205 F 
ATOM     83  Cl  UNL A   1      33.244  19.308  25.212  1.00  0.00    -0.084 Cl
ATOM     84  C   UNL A   1      32.763  21.935  25.603  1.00  0.00     0.045 A 
BRANCH  81  85
ATOM     85  S   UNL A   1      31.876  24.461  26.037  1.00  0.00     0.244 S 
ATOM     86  O   UNL A   1      30.999  24.663  24.909  1.00  0.00    -0.207 OA
ATOM     87  O   UNL A   1      31.401  23.972  27.311  1.00  0.00    -0.207 OA
BRANCH  85  88
ATOM     88  N   UNL A   1      32.668  25.900  26.375  1.00  0.00    -0.196 NA
ATOM     89  H   UNL A   1      33.617  25.819  26.013  1.00  0.00     0.142 HD
BRANCH  88  90
ATOM     90  C   UNL A   1      32.093  27.140  25.826  1.00  0.00     0.189 C 
ATOM     91  C   UNL A   1      33.120  27.934  25.026  1.00  0.00     0.224 C 
ATOM     92  C   UNL A   1      31.709  28.195  26.820  1.00  0.00     0.264 C 
ATOM     93  O   UNL A   1      32.629  29.281  25.003  1.00  0.00    -0.271 OA
ATOM     94  N   UNL A   1      31.926  29.414  26.222  1.00  0.00    -0.233 N 
ATOM     95  O   UNL A   1      31.273  28.025  27.946  1.00  0.00    -0.271 OA
ATOM     96  H   UNL A   1      31.627  30.274  26.597  1.00  0.00     0.199 HD
ENDBRANCH  88  90
ENDBRANCH  85  88
ENDBRANCH  81  85
ENDBRANCH  74  77
ENDBRANCH  72  73
ENDBRANCH  71  72
ENDBRANCH  70  71
ENDBRANCH   1  70
TORSDOF 19
ENDMDL
