MODEL 1
REMARK VINA RESULT:      -9.3      0.000      0.000
REMARK SMILES CC(C)[C@H](NS(=O)(=O)CCC(=O)NCCCCCCNC(=O)c1ccc(-c2c3nc(c(-c4ccc(S(=O)(=O)[O-])cc4)c4ccc([nH]4)c(-c4ccc(S(=O)(=O)[O-])cc4)c4nc(c(-c5ccc(S(=O)(=O)[O-])cc5)c5ccc2[nH]5)C=C4)C=C3)cc1)c1ccccc1
REMARK SMILES IDX 15 1 14 2 13 3 11 4 12 5 10 7 9 8 6 9 7 10 8 11 5 12 4 14
REMARK SMILES IDX 2 15 1 16 3 17 83 18 84 19 88 20 85 21 87 22 86 23 16 24
REMARK SMILES IDX 17 25 18 26 19 27 20 28 21 29 22 31 23 32 24 33 82 34 25 35
REMARK SMILES IDX 81 36 26 37 27 38 28 39 75 40 29 41 80 42 74 43 76 44 30 45
REMARK SMILES IDX 79 46 73 47 72 48 31 50 61 51 42 52 60 53 43 54 46 55 59 56
REMARK SMILES IDX 77 57 44 58 45 59 58 61 78 62 47 63 32 64 33 65 41 66 34 67
REMARK SMILES IDX 40 68 35 69 36 70 37 71 38 72 39 73 62 74 63 75 71 76 64 77
REMARK SMILES IDX 70 78 65 79 66 80 67 81 68 82 69 83 48 84 49 85 57 86 50 87
REMARK SMILES IDX 56 88 51 89 52 90 53 91 54 92 55 93
REMARK H PARENT 13 6 5 13 20 30 76 49 46 60
REMARK Flexibility Score: inf
ROOT
ATOM      1  C   UNL A   1      35.576  30.895  28.289  1.00  0.00     0.021 C 
ENDROOT
BRANCH   1   2
ATOM      2  C   UNL A   1      34.936  29.883  27.240  1.00  0.00     0.116 C 
BRANCH   2   3
ATOM      3  N   UNL A   1      33.806  30.118  26.338  1.00  0.00    -0.356 N 
ATOM      4  C   UNL A   1      33.106  29.351  25.460  1.00  0.00     0.221 C 
ATOM      5  O   UNL A   1      32.008  29.768  25.073  1.00  0.00    -0.275 OA
ATOM      6  H   UNL A   1      33.479  31.046  26.376  1.00  0.00     0.163 HD
BRANCH   4   7
ATOM      7  C   UNL A   1      33.655  28.101  24.845  1.00  0.00     0.117 C 
BRANCH   7   8
ATOM      8  C   UNL A   1      33.097  27.913  23.449  1.00  0.00     0.164 C 
BRANCH   8   9
ATOM      9  S   UNL A   1      32.046  26.495  23.306  1.00  0.00     0.212 S 
ATOM     10  O   UNL A   1      31.658  26.363  21.919  1.00  0.00    -0.212 OA
ATOM     11  O   UNL A   1      31.004  26.639  24.302  1.00  0.00    -0.212 OA
BRANCH   9  12
ATOM     12  N   UNL A   1      32.888  25.101  23.668  1.00  0.00    -0.207 NA
ATOM     13  H   UNL A   1      32.355  24.366  23.204  1.00  0.00     0.141 HD
BRANCH  12  14
ATOM     14  C   UNL A   1      33.261  24.494  24.981  1.00  0.00     0.102 C 
BRANCH  14  15
ATOM     15  C   UNL A   1      32.215  23.485  25.762  1.00  0.00     0.005 C 
ATOM     16  C   UNL A   1      31.435  22.282  25.197  1.00  0.00     0.009 C 
ATOM     17  C   UNL A   1      32.742  22.905  27.098  1.00  0.00     0.009 C 
ENDBRANCH  14  15
BRANCH  14  18
ATOM     18  C   UNL A   1      34.627  23.858  24.893  1.00  0.00    -0.030 A 
ATOM     19  C   UNL A   1      35.716  24.295  25.665  1.00  0.00     0.005 A 
ATOM     20  C   UNL A   1      34.821  22.875  23.913  1.00  0.00     0.005 A 
ATOM     21  C   UNL A   1      36.975  23.738  25.464  1.00  0.00     0.000 A 
ATOM     22  C   UNL A   1      36.082  22.341  23.701  1.00  0.00     0.000 A 
ATOM     23  C   UNL A   1      37.155  22.766  24.480  1.00  0.00     0.000 A 
ENDBRANCH  14  18
ENDBRANCH  12  14
ENDBRANCH   9  12
ENDBRANCH   8   9
ENDBRANCH   7   8
ENDBRANCH   4   7
ENDBRANCH   2   3
ENDBRANCH   1   2
BRANCH   1  24
ATOM     24  C   UNL A   1      35.070  32.272  28.811  1.00  0.00     0.002 C 
BRANCH  24  25
ATOM     25  C   UNL A   1      35.484  33.641  28.259  1.00  0.00     0.002 C 
BRANCH  25  26
ATOM     26  C   UNL A   1      34.513  34.766  28.436  1.00  0.00     0.021 C 
BRANCH  26  27
ATOM     27  C   UNL A   1      33.330  34.234  29.196  1.00  0.00     0.116 C 
BRANCH  27  28
ATOM     28  N   UNL A   1      32.838  35.272  30.105  1.00  0.00    -0.352 N 
ATOM     29  C   UNL A   1      33.091  35.355  31.456  1.00  0.00     0.251 C 
ATOM     30  H   UNL A   1      32.274  35.977  29.712  1.00  0.00     0.163 HD
ATOM     31  O   UNL A   1      32.367  35.973  32.211  1.00  0.00    -0.269 OA
BRANCH  29  32
ATOM     32  C   UNL A   1      34.290  34.641  31.930  1.00  0.00     0.039 A 
ATOM     33  C   UNL A   1      34.227  33.288  32.256  1.00  0.00     0.014 A 
ATOM     34  C   UNL A   1      35.507  35.330  31.914  1.00  0.00     0.014 A 
ATOM     35  C   UNL A   1      35.413  32.624  32.557  1.00  0.00     0.010 A 
ATOM     36  C   UNL A   1      36.685  34.625  32.024  1.00  0.00     0.010 A 
ATOM     37  C   UNL A   1      36.646  33.288  32.430  1.00  0.00    -0.014 A 
BRANCH  37  38
ATOM     38  C   UNL A   1      37.918  32.669  32.854  1.00  0.00     0.031 A 
ATOM     39  C   UNL A   1      38.410  32.940  34.254  1.00  0.00     0.074 A 
ATOM     40  C   UNL A   1      38.628  31.925  31.988  1.00  0.00     0.049 A 
ATOM     41  N   UNL A   1      39.530  32.581  34.818  1.00  0.00    -0.248 NA
ATOM     42  C   UNL A   1      37.551  33.774  35.123  1.00  0.00     0.031 C 
ATOM     43  C   UNL A   1      38.266  31.658  30.591  1.00  0.00     0.029 A 
ATOM     44  N   UNL A   1      39.806  31.250  32.159  1.00  0.00    -0.354 N 
ATOM     45  C   UNL A   1      39.511  33.156  36.084  1.00  0.00     0.074 A 
ATOM     46  C   UNL A   1      38.330  33.976  36.171  1.00  0.00     0.031 C 
ATOM     47  C   UNL A   1      39.181  30.839  30.050  1.00  0.00     0.029 A 
ATOM     48  C   UNL A   1      40.211  30.557  31.043  1.00  0.00     0.049 A 
ATOM     49  H   UNL A   1      40.314  31.259  33.002  1.00  0.00     0.167 HD
ATOM     50  C   UNL A   1      40.369  32.969  37.111  1.00  0.00     0.031 A 
ATOM     51  C   UNL A   1      41.295  29.782  30.856  1.00  0.00     0.031 A 
ATOM     52  C   UNL A   1      41.515  32.111  37.024  1.00  0.00     0.049 A 
ATOM     53  C   UNL A   1      42.232  29.579  32.019  1.00  0.00     0.074 A 
ATOM     54  C   UNL A   1      42.443  31.810  38.001  1.00  0.00     0.029 A 
ATOM     55  N   UNL A   1      41.870  31.397  35.889  1.00  0.00    -0.354 N 
ATOM     56  N   UNL A   1      42.173  30.095  33.225  1.00  0.00    -0.248 NA
ATOM     57  C   UNL A   1      43.364  28.672  31.804  1.00  0.00     0.031 C 
ATOM     58  C   UNL A   1      43.386  30.942  37.444  1.00  0.00     0.029 A 
ATOM     59  C   UNL A   1      43.006  30.653  36.141  1.00  0.00     0.049 A 
ATOM     60  H   UNL A   1      41.386  31.417  35.032  1.00  0.00     0.167 HD
ATOM     61  C   UNL A   1      43.239  29.541  33.926  1.00  0.00     0.074 A 
ATOM     62  C   UNL A   1      43.910  28.638  33.012  1.00  0.00     0.031 C 
ATOM     63  C   UNL A   1      43.633  29.753  35.207  1.00  0.00     0.031 A 
BRANCH  50  64
ATOM     64  C   UNL A   1      40.069  33.671  38.409  1.00  0.00    -0.014 A 
ATOM     65  C   UNL A   1      39.249  33.068  39.382  1.00  0.00     0.010 A 
ATOM     66  C   UNL A   1      40.633  34.930  38.677  1.00  0.00     0.010 A 
ATOM     67  C   UNL A   1      38.975  33.722  40.584  1.00  0.00     0.020 A 
ATOM     68  C   UNL A   1      40.388  35.573  39.894  1.00  0.00     0.020 A 
ATOM     69  C   UNL A   1      39.552  34.969  40.837  1.00  0.00     0.054 A 
BRANCH  69  70
ATOM     70  S   UNL A   1      39.229  35.764  42.434  1.00  0.00     0.124 S 
ATOM     71  O   UNL A   1      40.247  35.155  43.286  1.00  0.00    -0.237 OA
ATOM     72  O   UNL A   1      39.427  37.178  42.130  1.00  0.00    -0.237 OA
ATOM     73  O   UNL A   1      37.852  35.380  42.739  1.00  0.00    -0.744 OA
ENDBRANCH  69  70
ENDBRANCH  50  64
BRANCH  51  74
ATOM     74  C   UNL A   1      41.541  29.132  29.539  1.00  0.00    -0.014 A 
ATOM     75  C   UNL A   1      40.951  27.895  29.221  1.00  0.00     0.010 A 
ATOM     76  C   UNL A   1      42.386  29.745  28.597  1.00  0.00     0.010 A 
ATOM     77  C   UNL A   1      41.244  27.259  28.010  1.00  0.00     0.020 A 
ATOM     78  C   UNL A   1      42.653  29.130  27.370  1.00  0.00     0.020 A 
ATOM     79  C   UNL A   1      42.098  27.880  27.096  1.00  0.00     0.054 A 
BRANCH  79  80
ATOM     80  S   UNL A   1      42.469  27.038  25.531  1.00  0.00     0.124 S 
ATOM     81  O   UNL A   1      41.352  26.104  25.419  1.00  0.00    -0.237 OA
ATOM     82  O   UNL A   1      42.472  28.140  24.572  1.00  0.00    -0.237 OA
ATOM     83  O   UNL A   1      43.774  26.428  25.772  1.00  0.00    -0.744 OA
ENDBRANCH  79  80
ENDBRANCH  51  74
BRANCH  63  84
ATOM     84  C   UNL A   1      44.797  28.945  35.708  1.00  0.00    -0.014 A 
ATOM     85  C   UNL A   1      44.615  27.684  36.302  1.00  0.00     0.010 A 
ATOM     86  C   UNL A   1      46.101  29.446  35.536  1.00  0.00     0.010 A 
ATOM     87  C   UNL A   1      45.716  26.962  36.763  1.00  0.00     0.020 A 
ATOM     88  C   UNL A   1      47.206  28.708  35.961  1.00  0.00     0.020 A 
ATOM     89  C   UNL A   1      47.003  27.479  36.592  1.00  0.00     0.054 A 
BRANCH  89  90
ATOM     90  S   UNL A   1      48.417  26.512  37.181  1.00  0.00     0.124 S 
ATOM     91  O   UNL A   1      48.505  25.460  36.173  1.00  0.00    -0.237 OA
ATOM     92  O   UNL A   1      49.502  27.491  37.165  1.00  0.00    -0.237 OA
ATOM     93  O   UNL A   1      48.005  26.069  38.511  1.00  0.00    -0.744 OA
ENDBRANCH  89  90
ENDBRANCH  63  84
ENDBRANCH  37  38
ENDBRANCH  29  32
ENDBRANCH  27  28
ENDBRANCH  26  27
ENDBRANCH  25  26
ENDBRANCH  24  25
ENDBRANCH   1  24
TORSDOF 22
ENDMDL
MODEL 2
REMARK VINA RESULT:      -9.2      1.417      2.181
REMARK SMILES CC(C)[C@H](NS(=O)(=O)CCC(=O)NCCCCCCNC(=O)c1ccc(-c2c3nc(c(-c4ccc(S(=O)(=O)[O-])cc4)c4ccc([nH]4)c(-c4ccc(S(=O)(=O)[O-])cc4)c4nc(c(-c5ccc(S(=O)(=O)[O-])cc5)c5ccc2[nH]5)C=C4)C=C3)cc1)c1ccccc1
REMARK SMILES IDX 15 1 14 2 13 3 11 4 12 5 10 7 9 8 6 9 7 10 8 11 5 12 4 14
REMARK SMILES IDX 2 15 1 16 3 17 83 18 84 19 88 20 85 21 87 22 86 23 16 24
REMARK SMILES IDX 17 25 18 26 19 27 20 28 21 29 22 31 23 32 24 33 82 34 25 35
REMARK SMILES IDX 81 36 26 37 27 38 28 39 75 40 29 41 80 42 74 43 76 44 30 45
REMARK SMILES IDX 79 46 73 47 72 48 31 50 61 51 42 52 60 53 43 54 46 55 59 56
REMARK SMILES IDX 77 57 44 58 45 59 58 61 78 62 47 63 32 64 33 65 41 66 34 67
REMARK SMILES IDX 40 68 35 69 36 70 37 71 38 72 39 73 62 74 63 75 71 76 64 77
REMARK SMILES IDX 70 78 65 79 66 80 67 81 68 82 69 83 48 84 49 85 57 86 50 87
REMARK SMILES IDX 56 88 51 89 52 90 53 91 54 92 55 93
REMARK H PARENT 13 6 5 13 20 30 76 49 46 60
REMARK Flexibility Score: inf
ROOT
ATOM      1  C   UNL A   1      35.231  30.745  27.872  1.00  0.00     0.021 C 
ENDROOT
BRANCH   1   2
ATOM      2  C   UNL A   1      34.442  29.511  27.249  1.00  0.00     0.116 C 
BRANCH   2   3
ATOM      3  N   UNL A   1      33.820  29.417  25.926  1.00  0.00    -0.356 N 
ATOM      4  C   UNL A   1      33.071  28.481  25.285  1.00  0.00     0.221 C 
ATOM      5  O   UNL A   1      32.440  28.831  24.280  1.00  0.00    -0.275 OA
ATOM      6  H   UNL A   1      33.983  30.216  25.374  1.00  0.00     0.163 HD
BRANCH   4   7
ATOM      7  C   UNL A   1      33.078  27.030  25.657  1.00  0.00     0.117 C 
BRANCH   7   8
ATOM      8  C   UNL A   1      31.830  26.683  26.444  1.00  0.00     0.164 C 
BRANCH   8   9
ATOM      9  S   UNL A   1      30.935  25.317  25.761  1.00  0.00     0.212 S 
ATOM     10  O   UNL A   1      30.329  25.752  24.523  1.00  0.00    -0.212 OA
ATOM     11  O   UNL A   1      30.072  24.811  26.810  1.00  0.00    -0.212 OA
BRANCH   9  12
ATOM     12  N   UNL A   1      31.977  24.083  25.339  1.00  0.00    -0.207 NA
ATOM     13  H   UNL A   1      32.890  24.419  25.647  1.00  0.00     0.141 HD
BRANCH  12  14
ATOM     14  C   UNL A   1      32.258  23.448  24.018  1.00  0.00     0.102 C 
BRANCH  14  15
ATOM     15  C   UNL A   1      33.366  24.111  22.991  1.00  0.00     0.005 C 
ATOM     16  C   UNL A   1      33.329  25.485  22.292  1.00  0.00     0.009 C 
ATOM     17  C   UNL A   1      34.831  24.064  23.490  1.00  0.00     0.009 C 
ENDBRANCH  14  15
BRANCH  14  18
ATOM     18  C   UNL A   1      32.534  21.974  24.196  1.00  0.00    -0.030 A 
ATOM     19  C   UNL A   1      32.268  21.029  23.191  1.00  0.00     0.005 A 
ATOM     20  C   UNL A   1      32.958  21.543  25.459  1.00  0.00     0.005 A 
ATOM     21  C   UNL A   1      32.446  19.673  23.452  1.00  0.00     0.000 A 
ATOM     22  C   UNL A   1      33.110  20.191  25.721  1.00  0.00     0.000 A 
ATOM     23  C   UNL A   1      32.862  19.259  24.717  1.00  0.00     0.000 A 
ENDBRANCH  14  18
ENDBRANCH  12  14
ENDBRANCH   9  12
ENDBRANCH   8   9
ENDBRANCH   7   8
ENDBRANCH   4   7
ENDBRANCH   2   3
ENDBRANCH   1   2
BRANCH   1  24
ATOM     24  C   UNL A   1      34.713  32.098  28.444  1.00  0.00     0.002 C 
BRANCH  24  25
ATOM     25  C   UNL A   1      35.432  33.447  28.330  1.00  0.00     0.002 C 
BRANCH  25  26
ATOM     26  C   UNL A   1      34.573  34.672  28.274  1.00  0.00     0.021 C 
BRANCH  26  27
ATOM     27  C   UNL A   1      33.264  34.343  28.935  1.00  0.00     0.116 C 
BRANCH  27  28
ATOM     28  N   UNL A   1      32.855  35.472  29.773  1.00  0.00    -0.352 N 
ATOM     29  C   UNL A   1      33.087  35.607  31.124  1.00  0.00     0.251 C 
ATOM     30  H   UNL A   1      32.367  36.203  29.329  1.00  0.00     0.163 HD
ATOM     31  O   UNL A   1      32.410  36.331  31.826  1.00  0.00    -0.269 OA
BRANCH  29  32
ATOM     32  C   UNL A   1      34.203  34.812  31.666  1.00  0.00     0.039 A 
ATOM     33  C   UNL A   1      34.006  33.493  32.068  1.00  0.00     0.014 A 
ATOM     34  C   UNL A   1      35.481  35.380  31.640  1.00  0.00     0.014 A 
ATOM     35  C   UNL A   1      35.116  32.739  32.434  1.00  0.00     0.010 A 
ATOM     36  C   UNL A   1      36.583  34.575  31.818  1.00  0.00     0.010 A 
ATOM     37  C   UNL A   1      36.409  33.274  32.299  1.00  0.00    -0.014 A 
BRANCH  37  38
ATOM     38  C   UNL A   1      37.608  32.565  32.787  1.00  0.00     0.031 A 
ATOM     39  C   UNL A   1      38.233  33.027  34.080  1.00  0.00     0.074 A 
ATOM     40  C   UNL A   1      38.142  31.565  32.064  1.00  0.00     0.049 A 
ATOM     41  N   UNL A   1      39.329  32.619  34.659  1.00  0.00    -0.248 NA
ATOM     42  C   UNL A   1      37.565  34.137  34.794  1.00  0.00     0.031 C 
ATOM     43  C   UNL A   1      37.647  31.087  30.768  1.00  0.00     0.029 A 
ATOM     44  N   UNL A   1      39.223  30.765  32.321  1.00  0.00    -0.354 N 
ATOM     45  C   UNL A   1      39.481  33.428  35.779  1.00  0.00     0.074 A 
ATOM     46  C   UNL A   1      38.437  34.420  35.745  1.00  0.00     0.031 C 
ATOM     47  C   UNL A   1      38.397  30.047  30.369  1.00  0.00     0.029 A 
ATOM     48  C   UNL A   1      39.445  29.813  31.355  1.00  0.00     0.049 A 
ATOM     49  H   UNL A   1      39.786  30.862  33.122  1.00  0.00     0.167 HD
ATOM     50  C   UNL A   1      40.376  33.319  36.786  1.00  0.00     0.031 A 
ATOM     51  C   UNL A   1      40.392  28.860  31.286  1.00  0.00     0.031 A 
ATOM     52  C   UNL A   1      41.380  32.295  36.830  1.00  0.00     0.049 A 
ATOM     53  C   UNL A   1      41.373  28.749  32.426  1.00  0.00     0.074 A 
ATOM     54  C   UNL A   1      42.324  32.054  37.808  1.00  0.00     0.029 A 
ATOM     55  N   UNL A   1      41.549  31.326  35.851  1.00  0.00    -0.354 N 
ATOM     56  N   UNL A   1      41.474  29.495  33.501  1.00  0.00    -0.248 NA
ATOM     57  C   UNL A   1      42.346  27.655  32.355  1.00  0.00     0.031 C 
ATOM     58  C   UNL A   1      43.093  30.960  37.402  1.00  0.00     0.029 A 
ATOM     59  C   UNL A   1      42.584  30.482  36.203  1.00  0.00     0.049 A 
ATOM     60  H   UNL A   1      41.012  31.250  35.030  1.00  0.00     0.167 HD
ATOM     61  C   UNL A   1      42.498  28.933  34.256  1.00  0.00     0.074 A 
ATOM     62  C   UNL A   1      42.968  27.777  33.519  1.00  0.00     0.031 C 
ATOM     63  C   UNL A   1      43.009  29.331  35.448  1.00  0.00     0.031 A 
BRANCH  50  64
ATOM     64  C   UNL A   1      40.271  34.299  37.924  1.00  0.00    -0.014 A 
ATOM     65  C   UNL A   1      39.435  34.039  39.026  1.00  0.00     0.010 A 
ATOM     66  C   UNL A   1      41.037  35.478  37.911  1.00  0.00     0.010 A 
ATOM     67  C   UNL A   1      39.342  34.951  40.079  1.00  0.00     0.020 A 
ATOM     68  C   UNL A   1      40.973  36.378  38.980  1.00  0.00     0.020 A 
ATOM     69  C   UNL A   1      40.118  36.113  40.053  1.00  0.00     0.054 A 
BRANCH  69  70
ATOM     70  S   UNL A   1      40.024  37.246  41.465  1.00  0.00     0.124 S 
ATOM     71  O   UNL A   1      41.331  37.899  41.416  1.00  0.00    -0.237 OA
ATOM     72  O   UNL A   1      38.886  38.092  41.118  1.00  0.00    -0.237 OA
ATOM     73  O   UNL A   1      39.815  36.360  42.608  1.00  0.00    -0.744 OA
ENDBRANCH  69  70
ENDBRANCH  50  64
BRANCH  51  74
ATOM     74  C   UNL A   1      40.449  27.934  30.121  1.00  0.00    -0.014 A 
ATOM     75  C   UNL A   1      41.469  28.045  29.158  1.00  0.00     0.010 A 
ATOM     76  C   UNL A   1      39.468  26.940  29.960  1.00  0.00     0.010 A 
ATOM     77  C   UNL A   1      41.475  27.216  28.031  1.00  0.00     0.020 A 
ATOM     78  C   UNL A   1      39.490  26.086  28.854  1.00  0.00     0.020 A 
ATOM     79  C   UNL A   1      40.481  26.245  27.885  1.00  0.00     0.054 A 
BRANCH  79  80
ATOM     80  S   UNL A   1      40.503  25.182  26.415  1.00  0.00     0.124 S 
ATOM     81  O   UNL A   1      41.410  24.115  26.828  1.00  0.00    -0.237 OA
ATOM     82  O   UNL A   1      39.098  24.802  26.278  1.00  0.00    -0.237 OA
ATOM     83  O   UNL A   1      41.007  26.061  25.364  1.00  0.00    -0.744 OA
ENDBRANCH  79  80
ENDBRANCH  51  74
BRANCH  63  84
ATOM     84  C   UNL A   1      44.080  28.469  36.056  1.00  0.00    -0.014 A 
ATOM     85  C   UNL A   1      43.764  27.388  36.897  1.00  0.00     0.010 A 
ATOM     86  C   UNL A   1      45.426  28.726  35.737  1.00  0.00     0.010 A 
ATOM     87  C   UNL A   1      44.783  26.611  37.451  1.00  0.00     0.020 A 
ATOM     88  C   UNL A   1      46.444  27.927  36.259  1.00  0.00     0.020 A 
ATOM     89  C   UNL A   1      46.115  26.887  37.129  1.00  0.00     0.054 A 
BRANCH  89  90
ATOM     90  S   UNL A   1      47.417  25.851  37.846  1.00  0.00     0.124 S 
ATOM     91  O   UNL A   1      48.524  26.795  37.966  1.00  0.00    -0.237 OA
ATOM     92  O   UNL A   1      46.821  25.416  39.107  1.00  0.00    -0.237 OA
ATOM     93  O   UNL A   1      47.604  24.794  36.855  1.00  0.00    -0.744 OA
ENDBRANCH  89  90
ENDBRANCH  63  84
ENDBRANCH  37  38
ENDBRANCH  29  32
ENDBRANCH  27  28
ENDBRANCH  26  27
ENDBRANCH  25  26
ENDBRANCH  24  25
ENDBRANCH   1  24
TORSDOF 22
ENDMDL
MODEL 3
REMARK VINA RESULT:      -9.1      1.245      8.278
REMARK SMILES CC(C)[C@H](NS(=O)(=O)CCC(=O)NCCCCCCNC(=O)c1ccc(-c2c3nc(c(-c4ccc(S(=O)(=O)[O-])cc4)c4ccc([nH]4)c(-c4ccc(S(=O)(=O)[O-])cc4)c4nc(c(-c5ccc(S(=O)(=O)[O-])cc5)c5ccc2[nH]5)C=C4)C=C3)cc1)c1ccccc1
REMARK SMILES IDX 15 1 14 2 13 3 11 4 12 5 10 7 9 8 6 9 7 10 8 11 5 12 4 14
REMARK SMILES IDX 2 15 1 16 3 17 83 18 84 19 88 20 85 21 87 22 86 23 16 24
REMARK SMILES IDX 17 25 18 26 19 27 20 28 21 29 22 31 23 32 24 33 82 34 25 35
REMARK SMILES IDX 81 36 26 37 27 38 28 39 75 40 29 41 80 42 74 43 76 44 30 45
REMARK SMILES IDX 79 46 73 47 72 48 31 50 61 51 42 52 60 53 43 54 46 55 59 56
REMARK SMILES IDX 77 57 44 58 45 59 58 61 78 62 47 63 32 64 33 65 41 66 34 67
REMARK SMILES IDX 40 68 35 69 36 70 37 71 38 72 39 73 62 74 63 75 71 76 64 77
REMARK SMILES IDX 70 78 65 79 66 80 67 81 68 82 69 83 48 84 49 85 57 86 50 87
REMARK SMILES IDX 56 88 51 89 52 90 53 91 54 92 55 93
REMARK H PARENT 13 6 5 13 20 30 76 49 46 60
REMARK Flexibility Score: inf
ROOT
ATOM      1  C   UNL A   1      36.092  30.502  27.985  1.00  0.00     0.021 C 
ENDROOT
BRANCH   1   2
ATOM      2  C   UNL A   1      35.165  29.394  27.316  1.00  0.00     0.116 C 
BRANCH   2   3
ATOM      3  N   UNL A   1      34.247  29.552  26.185  1.00  0.00    -0.356 N 
ATOM      4  C   UNL A   1      33.348  28.745  25.563  1.00  0.00     0.221 C 
ATOM      5  O   UNL A   1      32.506  29.274  24.825  1.00  0.00    -0.275 OA
ATOM      6  H   UNL A   1      34.294  30.450  25.784  1.00  0.00     0.163 HD
BRANCH   4   7
ATOM      7  C   UNL A   1      33.409  27.250  25.622  1.00  0.00     0.117 C 
BRANCH   7   8
ATOM      8  C   UNL A   1      32.262  26.710  26.453  1.00  0.00     0.164 C 
BRANCH   8   9
ATOM      9  S   UNL A   1      31.777  25.073  25.986  1.00  0.00     0.212 S 
ATOM     10  O   UNL A   1      30.586  25.173  25.172  1.00  0.00    -0.212 OA
ATOM     11  O   UNL A   1      31.715  24.287  27.201  1.00  0.00    -0.212 OA
BRANCH   9  12
ATOM     12  N   UNL A   1      32.931  24.375  25.003  1.00  0.00    -0.207 NA
ATOM     13  H   UNL A   1      32.966  24.992  24.191  1.00  0.00     0.141 HD
BRANCH  12  14
ATOM     14  C   UNL A   1      33.018  23.005  24.413  1.00  0.00     0.102 C 
BRANCH  14  15
ATOM     15  C   UNL A   1      32.471  22.718  22.883  1.00  0.00     0.005 C 
ATOM     16  C   UNL A   1      33.103  23.136  21.541  1.00  0.00     0.009 C 
ATOM     17  C   UNL A   1      32.085  21.247  22.593  1.00  0.00     0.009 C 
ENDBRANCH  14  15
BRANCH  14  18
ATOM     18  C   UNL A   1      34.414  22.455  24.577  1.00  0.00    -0.030 A 
ATOM     19  C   UNL A   1      35.561  23.185  24.224  1.00  0.00     0.005 A 
ATOM     20  C   UNL A   1      34.539  21.121  24.987  1.00  0.00     0.005 A 
ATOM     21  C   UNL A   1      36.814  22.585  24.301  1.00  0.00     0.000 A 
ATOM     22  C   UNL A   1      35.788  20.521  25.038  1.00  0.00     0.000 A 
ATOM     23  C   UNL A   1      36.923  21.255  24.703  1.00  0.00     0.000 A 
ENDBRANCH  14  18
ENDBRANCH  12  14
ENDBRANCH   9  12
ENDBRANCH   8   9
ENDBRANCH   7   8
ENDBRANCH   4   7
ENDBRANCH   2   3
ENDBRANCH   1   2
BRANCH   1  24
ATOM     24  C   UNL A   1      35.725  31.820  28.729  1.00  0.00     0.002 C 
BRANCH  24  25
ATOM     25  C   UNL A   1      36.172  33.228  28.319  1.00  0.00     0.002 C 
BRANCH  25  26
ATOM     26  C   UNL A   1      35.107  34.277  28.224  1.00  0.00     0.021 C 
BRANCH  26  27
ATOM     27  C   UNL A   1      33.842  33.696  28.790  1.00  0.00     0.116 C 
BRANCH  27  28
ATOM     28  N   UNL A   1      33.151  34.724  29.571  1.00  0.00    -0.352 N 
ATOM     29  C   UNL A   1      33.194  34.870  30.940  1.00  0.00     0.251 C 
ATOM     30  H   UNL A   1      32.605  35.372  29.070  1.00  0.00     0.163 HD
ATOM     31  O   UNL A   1      32.326  35.458  31.554  1.00  0.00    -0.269 OA
BRANCH  29  32
ATOM     32  C   UNL A   1      34.355  34.262  31.615  1.00  0.00     0.039 A 
ATOM     33  C   UNL A   1      34.355  32.909  31.945  1.00  0.00     0.014 A 
ATOM     34  C   UNL A   1      35.494  35.054  31.790  1.00  0.00     0.014 A 
ATOM     35  C   UNL A   1      35.527  32.350  32.446  1.00  0.00     0.010 A 
ATOM     36  C   UNL A   1      36.693  34.453  32.102  1.00  0.00     0.010 A 
ATOM     37  C   UNL A   1      36.702  33.118  32.514  1.00  0.00    -0.014 A 
BRANCH  37  38
ATOM     38  C   UNL A   1      37.935  32.611  33.150  1.00  0.00     0.031 A 
ATOM     39  C   UNL A   1      38.848  31.731  32.333  1.00  0.00     0.074 A 
ATOM     40  C   UNL A   1      38.198  32.899  34.436  1.00  0.00     0.049 A 
ATOM     41  N   UNL A   1      39.933  31.103  32.698  1.00  0.00    -0.248 NA
ATOM     42  C   UNL A   1      38.462  31.476  30.928  1.00  0.00     0.031 C 
ATOM     43  C   UNL A   1      37.343  33.690  35.329  1.00  0.00     0.029 A 
ATOM     44  N   UNL A   1      39.269  32.560  35.219  1.00  0.00    -0.354 N 
ATOM     45  C   UNL A   1      40.336  30.378  31.583  1.00  0.00     0.074 A 
ATOM     46  C   UNL A   1      39.330  30.548  30.566  1.00  0.00     0.031 C 
ATOM     47  C   UNL A   1      37.948  33.812  36.521  1.00  0.00     0.029 A 
ATOM     48  C   UNL A   1      39.207  33.077  36.491  1.00  0.00     0.049 A 
ATOM     49  H   UNL A   1      40.013  32.000  34.900  1.00  0.00     0.167 HD
ATOM     50  C   UNL A   1      41.477  29.679  31.396  1.00  0.00     0.031 A 
ATOM     51  C   UNL A   1      40.078  32.964  37.510  1.00  0.00     0.031 A 
ATOM     52  C   UNL A   1      42.492  29.559  32.403  1.00  0.00     0.049 A 
ATOM     53  C   UNL A   1      41.350  32.189  37.276  1.00  0.00     0.074 A 
ATOM     54  C   UNL A   1      43.707  28.908  32.329  1.00  0.00     0.029 A 
ATOM     55  N   UNL A   1      42.409  30.128  33.665  1.00  0.00    -0.354 N 
ATOM     56  N   UNL A   1      41.737  31.547  36.198  1.00  0.00    -0.248 NA
ATOM     57  C   UNL A   1      42.310  32.147  38.383  1.00  0.00     0.031 C 
ATOM     58  C   UNL A   1      44.346  29.050  33.564  1.00  0.00     0.029 A 
ATOM     59  C   UNL A   1      43.555  29.844  34.382  1.00  0.00     0.049 A 
ATOM     60  H   UNL A   1      41.649  30.655  34.001  1.00  0.00     0.167 HD
ATOM     61  C   UNL A   1      43.006  31.058  36.485  1.00  0.00     0.074 A 
ATOM     62  C   UNL A   1      43.324  31.497  37.829  1.00  0.00     0.031 C 
ATOM     63  C   UNL A   1      43.839  30.315  35.713  1.00  0.00     0.031 A 
BRANCH  50  64
ATOM     64  C   UNL A   1      41.693  29.040  30.050  1.00  0.00    -0.014 A 
ATOM     65  C   UNL A   1      42.348  29.737  29.017  1.00  0.00     0.010 A 
ATOM     66  C   UNL A   1      41.267  27.720  29.820  1.00  0.00     0.010 A 
ATOM     67  C   UNL A   1      42.547  29.140  27.771  1.00  0.00     0.020 A 
ATOM     68  C   UNL A   1      41.495  27.106  28.584  1.00  0.00     0.020 A 
ATOM     69  C   UNL A   1      42.126  27.824  27.564  1.00  0.00     0.054 A 
BRANCH  69  70
ATOM     70  S   UNL A   1      42.455  27.053  25.956  1.00  0.00     0.124 S 
ATOM     71  O   UNL A   1      43.397  25.995  26.315  1.00  0.00    -0.237 OA
ATOM     72  O   UNL A   1      41.130  26.601  25.543  1.00  0.00    -0.237 OA
ATOM     73  O   UNL A   1      43.017  28.141  25.160  1.00  0.00    -0.744 OA
ENDBRANCH  69  70
ENDBRANCH  50  64
BRANCH  51  74
ATOM     74  C   UNL A   1      39.793  33.607  38.823  1.00  0.00    -0.014 A 
ATOM     75  C   UNL A   1      40.390  34.832  39.173  1.00  0.00     0.010 A 
ATOM     76  C   UNL A   1      38.930  32.984  39.741  1.00  0.00     0.010 A 
ATOM     77  C   UNL A   1      40.170  35.393  40.436  1.00  0.00     0.020 A 
ATOM     78  C   UNL A   1      38.679  33.560  40.990  1.00  0.00     0.020 A 
ATOM     79  C   UNL A   1      39.320  34.749  41.338  1.00  0.00     0.054 A 
BRANCH  79  80
ATOM     80  S   UNL A   1      39.051  35.490  42.972  1.00  0.00     0.124 S 
ATOM     81  O   UNL A   1      39.467  36.872  42.749  1.00  0.00    -0.237 OA
ATOM     82  O   UNL A   1      37.619  35.285  43.180  1.00  0.00    -0.237 OA
ATOM     83  O   UNL A   1      39.918  34.709  43.850  1.00  0.00    -0.744 OA
ENDBRANCH  79  80
ENDBRANCH  51  74
BRANCH  63  84
ATOM     84  C   UNL A   1      45.193  29.993  36.281  1.00  0.00    -0.014 A 
ATOM     85  C   UNL A   1      45.419  28.822  37.024  1.00  0.00     0.010 A 
ATOM     86  C   UNL A   1      46.267  30.865  36.022  1.00  0.00     0.010 A 
ATOM     87  C   UNL A   1      46.687  28.556  37.544  1.00  0.00     0.020 A 
ATOM     88  C   UNL A   1      47.544  30.582  36.508  1.00  0.00     0.020 A 
ATOM     89  C   UNL A   1      47.740  29.439  37.284  1.00  0.00     0.054 A 
BRANCH  89  90
ATOM     90  S   UNL A   1      49.380  29.060  37.953  1.00  0.00     0.124 S 
ATOM     91  O   UNL A   1      50.251  29.845  37.082  1.00  0.00    -0.237 OA
ATOM     92  O   UNL A   1      49.279  29.531  39.332  1.00  0.00    -0.237 OA
ATOM     93  O   UNL A   1      49.490  27.611  37.802  1.00  0.00    -0.744 OA
ENDBRANCH  89  90
ENDBRANCH  63  84
ENDBRANCH  37  38
ENDBRANCH  29  32
ENDBRANCH  27  28
ENDBRANCH  26  27
ENDBRANCH  25  26
ENDBRANCH  24  25
ENDBRANCH   1  24
TORSDOF 22
ENDMDL
