MODEL 1
REMARK VINA RESULT:     -13.3      0.000      0.000
REMARK SMILES O=C(NCCCCCCNC(=O)C1CCN(C2=[NH+]C(Cl)=[NH+]C3=[NH+]C=N[C@@H]32)CC1)c1ccc(-c2c3nc(c(-c4ccc(S(=O)(=O)[O-])cc4)c4ccc([nH]4)c(-c4ccc(S(=O)(=O)[O-])cc4)c4nc(c(-c5ccc(S(=O)(=O)[O-])cc5)c5ccc2[nH]5)C=C4)C=C3)cc1
REMARK SMILES IDX 5 1 4 2 3 3 1 4 2 5 29 7 30 8 88 9 31 10 87 11 32 12 33 13
REMARK SMILES IDX 34 14 81 15 35 16 86 17 80 18 82 19 36 20 85 21 79 22 78 23
REMARK SMILES IDX 37 25 67 26 48 27 66 28 49 29 52 30 65 31 83 32 50 33 51 34
REMARK SMILES IDX 64 36 84 37 53 38 38 39 39 40 47 41 40 42 46 43 41 44 42 45
REMARK SMILES IDX 43 46 44 47 45 48 68 49 69 50 77 51 70 52 76 53 71 54 72 55
REMARK SMILES IDX 73 56 74 57 75 58 54 59 55 60 63 61 56 62 62 63 57 64 58 65
REMARK SMILES IDX 59 66 60 67 61 68 6 69 7 70 8 71 9 72 10 73 11 74 12 76
REMARK SMILES IDX 13 77 14 78 28 79 15 80 27 81 16 82 17 83 18 84 26 85 19 86
REMARK SMILES IDX 22 88 25 89 20 90 21 91 23 92 24 93
REMARK H PARENT 3 6 82 24 52 35 10 75 18 87 21 94 23 95
REMARK Flexibility Score: inf
ROOT
ATOM      1  C   UNL A   1      31.779  28.843  26.357  1.00  0.00     0.021 C 
ENDROOT
BRANCH   1   2
ATOM      2  C   UNL A   1      32.999  29.060  27.251  1.00  0.00     0.116 C 
BRANCH   2   3
ATOM      3  N   UNL A   1      33.220  30.440  27.622  1.00  0.00    -0.352 N 
ATOM      4  O   UNL A   1      34.126  32.420  27.957  1.00  0.00    -0.269 OA
ATOM      5  C   UNL A   1      34.331  31.211  27.825  1.00  0.00     0.251 C 
ATOM      6  H   UNL A   1      32.381  30.938  27.758  1.00  0.00     0.163 HD
BRANCH   5   7
ATOM      7  C   UNL A   1      35.719  30.694  27.972  1.00  0.00     0.039 A 
ATOM      8  C   UNL A   1      36.151  29.398  27.684  1.00  0.00     0.014 A 
ATOM      9  C   UNL A   1      36.646  31.603  28.518  1.00  0.00     0.014 A 
ATOM     10  C   UNL A   1      37.437  28.990  28.028  1.00  0.00     0.010 A 
ATOM     11  C   UNL A   1      37.933  31.205  28.855  1.00  0.00     0.010 A 
ATOM     12  C   UNL A   1      38.311  29.884  28.650  1.00  0.00    -0.014 A 
BRANCH  12  13
ATOM     13  C   UNL A   1      39.671  29.442  28.940  1.00  0.00     0.031 A 
ATOM     14  C   UNL A   1      39.945  29.227  30.388  1.00  0.00     0.074 A 
ATOM     15  C   UNL A   1      40.563  29.102  27.987  1.00  0.00     0.049 A 
ATOM     16  N   UNL A   1      40.761  29.877  31.152  1.00  0.00    -0.248 NA
ATOM     17  C   UNL A   1      39.104  28.254  31.106  1.00  0.00     0.031 C 
ATOM     18  C   UNL A   1      40.336  28.987  26.544  1.00  0.00     0.029 A 
ATOM     19  N   UNL A   1      41.847  28.667  28.128  1.00  0.00    -0.354 N 
ATOM     20  C   UNL A   1      40.701  29.251  32.396  1.00  0.00     0.074 A 
ATOM     21  C   UNL A   1      39.549  28.387  32.355  1.00  0.00     0.031 C 
ATOM     22  C   UNL A   1      41.353  28.288  25.987  1.00  0.00     0.029 A 
ATOM     23  C   UNL A   1      42.362  28.031  27.001  1.00  0.00     0.049 A 
ATOM     24  H   UNL A   1      42.366  28.791  28.955  1.00  0.00     0.167 HD
ATOM     25  C   UNL A   1      41.739  29.301  33.278  1.00  0.00     0.031 A 
ATOM     26  C   UNL A   1      43.500  27.291  26.929  1.00  0.00     0.031 A 
ATOM     27  C   UNL A   1      42.677  30.340  32.938  1.00  0.00     0.049 A 
ATOM     28  C   UNL A   1      44.346  27.670  28.085  1.00  0.00     0.074 A 
ATOM     29  C   UNL A   1      42.616  31.711  32.802  1.00  0.00     0.029 A 
ATOM     30  N   UNL A   1      43.838  29.949  32.313  1.00  0.00    -0.354 N 
ATOM     31  N   UNL A   1      44.881  28.850  28.226  1.00  0.00    -0.248 NA
ATOM     32  C   UNL A   1      44.226  26.890  29.308  1.00  0.00     0.031 C 
ATOM     33  C   UNL A   1      43.468  32.008  31.700  1.00  0.00     0.029 A 
ATOM     34  C   UNL A   1      44.052  30.813  31.273  1.00  0.00     0.049 A 
ATOM     35  H   UNL A   1      44.410  29.190  32.566  1.00  0.00     0.167 HD
ATOM     36  C   UNL A   1      44.757  29.136  29.576  1.00  0.00     0.074 A 
ATOM     37  C   UNL A   1      44.432  27.857  30.207  1.00  0.00     0.031 C 
ATOM     38  C   UNL A   1      44.657  30.425  30.019  1.00  0.00     0.031 A 
BRANCH  25  39
ATOM     39  C   UNL A   1      42.136  28.142  34.168  1.00  0.00    -0.014 A 
ATOM     40  C   UNL A   1      42.038  28.305  35.567  1.00  0.00     0.010 A 
ATOM     41  C   UNL A   1      42.886  27.041  33.708  1.00  0.00     0.010 A 
ATOM     42  C   UNL A   1      42.754  27.484  36.447  1.00  0.00     0.020 A 
ATOM     43  C   UNL A   1      43.566  26.189  34.580  1.00  0.00     0.020 A 
ATOM     44  C   UNL A   1      43.533  26.445  35.944  1.00  0.00     0.054 A 
BRANCH  44  45
ATOM     45  S   UNL A   1      44.570  25.483  37.070  1.00  0.00     0.124 S 
ATOM     46  O   UNL A   1      45.907  25.976  36.735  1.00  0.00    -0.237 OA
ATOM     47  O   UNL A   1      44.059  25.889  38.378  1.00  0.00    -0.237 OA
ATOM     48  O   UNL A   1      44.295  24.105  36.697  1.00  0.00    -0.744 OA
ENDBRANCH  44  45
ENDBRANCH  25  39
BRANCH  26  49
ATOM     49  C   UNL A   1      43.743  26.056  26.137  1.00  0.00    -0.014 A 
ATOM     50  C   UNL A   1      45.005  25.779  25.575  1.00  0.00     0.010 A 
ATOM     51  C   UNL A   1      42.806  25.002  26.179  1.00  0.00     0.010 A 
ATOM     52  C   UNL A   1      45.335  24.484  25.128  1.00  0.00     0.020 A 
ATOM     53  C   UNL A   1      43.124  23.714  25.733  1.00  0.00     0.020 A 
ATOM     54  C   UNL A   1      44.396  23.453  25.229  1.00  0.00     0.054 A 
BRANCH  54  55
ATOM     55  S   UNL A   1      44.880  21.748  24.819  1.00  0.00     0.124 S 
ATOM     56  O   UNL A   1      46.303  21.741  25.147  1.00  0.00    -0.237 OA
ATOM     57  O   UNL A   1      44.025  20.954  25.695  1.00  0.00    -0.237 OA
ATOM     58  O   UNL A   1      44.574  21.636  23.393  1.00  0.00    -0.744 OA
ENDBRANCH  54  55
ENDBRANCH  26  49
BRANCH  38  59
ATOM     59  C   UNL A   1      44.979  31.547  29.060  1.00  0.00    -0.014 A 
ATOM     60  C   UNL A   1      46.256  32.129  28.930  1.00  0.00     0.010 A 
ATOM     61  C   UNL A   1      43.978  31.913  28.144  1.00  0.00     0.010 A 
ATOM     62  C   UNL A   1      46.512  33.071  27.921  1.00  0.00     0.020 A 
ATOM     63  C   UNL A   1      44.231  32.834  27.127  1.00  0.00     0.020 A 
ATOM     64  C   UNL A   1      45.495  33.415  27.025  1.00  0.00     0.054 A 
BRANCH  64  65
ATOM     65  S   UNL A   1      45.842  34.594  25.689  1.00  0.00     0.124 S 
ATOM     66  O   UNL A   1      45.501  35.876  26.298  1.00  0.00    -0.237 OA
ATOM     67  O   UNL A   1      47.264  34.379  25.427  1.00  0.00    -0.237 OA
ATOM     68  O   UNL A   1      44.954  34.167  24.607  1.00  0.00    -0.744 OA
ENDBRANCH  64  65
ENDBRANCH  38  59
ENDBRANCH  12  13
ENDBRANCH   5   7
ENDBRANCH   2   3
ENDBRANCH   1   2
BRANCH   1  69
ATOM     69  C   UNL A   1      31.970  29.267  24.895  1.00  0.00     0.002 C 
BRANCH  69  70
ATOM     70  C   UNL A   1      30.705  29.744  24.177  1.00  0.00     0.002 C 
BRANCH  70  71
ATOM     71  C   UNL A   1      30.542  29.251  22.735  1.00  0.00     0.021 C 
BRANCH  71  72
ATOM     72  C   UNL A   1      30.474  27.732  22.582  1.00  0.00     0.116 C 
BRANCH  72  73
ATOM     73  N   UNL A   1      31.600  27.236  21.811  1.00  0.00    -0.356 N 
ATOM     74  C   UNL A   1      32.633  26.430  22.168  1.00  0.00     0.223 C 
ATOM     75  H   UNL A   1      31.617  27.534  20.873  1.00  0.00     0.163 HD
ATOM     76  O   UNL A   1      33.505  26.212  21.327  1.00  0.00    -0.275 OA
BRANCH  74  77
ATOM     77  C   UNL A   1      32.709  25.862  23.578  1.00  0.00     0.087 C 
ATOM     78  C   UNL A   1      34.091  25.248  23.838  1.00  0.00     0.068 C 
ATOM     79  C   UNL A   1      31.573  24.854  23.813  1.00  0.00     0.068 C 
ATOM     80  C   UNL A   1      34.249  23.871  23.200  1.00  0.00     0.277 C 
ATOM     81  C   UNL A   1      31.816  23.498  23.148  1.00  0.00     0.277 C 
ATOM     82  N   UNL A   1      33.127  23.013  23.557  1.00  0.00    -0.230 N 
ATOM     83  C   UNL A   1      33.281  21.767  24.133  1.00  0.00     0.383 C 
ATOM     84  N   UNL A   1      32.659  20.721  23.662  1.00  0.00    -0.155 N 
ATOM     85  C   UNL A   1      34.196  21.602  25.330  1.00  0.00     0.523 C 
ATOM     86  C   UNL A   1      32.884  19.497  24.244  1.00  0.00     0.414 C 
ATOM     87  H   UNL A   1      32.037  20.807  22.903  1.00  0.00     0.367 HD
ATOM     88  C   UNL A   1      33.660  20.436  26.069  1.00  0.00     0.389 C 
ATOM     89  N   UNL A   1      34.051  22.667  26.350  1.00  0.00     0.003 NA
ATOM     90  Cl  UNL A   1      32.477  18.136  23.289  1.00  0.00     0.028 Cl
ATOM     91  N   UNL A   1      33.377  19.287  25.421  1.00  0.00    -0.155 N 
ATOM     92  N   UNL A   1      33.394  20.681  27.302  1.00  0.00    -0.169 N 
ATOM     93  C   UNL A   1      33.632  22.030  27.404  1.00  0.00     0.532 C 
ATOM     94  H   UNL A   1      33.528  18.391  25.801  1.00  0.00     0.367 HD
ATOM     95  H   UNL A   1      33.093  20.056  27.999  1.00  0.00     0.365 HD
ENDBRANCH  74  77
ENDBRANCH  72  73
ENDBRANCH  71  72
ENDBRANCH  70  71
ENDBRANCH  69  70
ENDBRANCH   1  69
TORSDOF 16
ENDMDL
MODEL 2
REMARK VINA RESULT:     -13.1      3.096      9.514
REMARK SMILES O=C(NCCCCCCNC(=O)C1CCN(C2=[NH+]C(Cl)=[NH+]C3=[NH+]C=N[C@@H]32)CC1)c1ccc(-c2c3nc(c(-c4ccc(S(=O)(=O)[O-])cc4)c4ccc([nH]4)c(-c4ccc(S(=O)(=O)[O-])cc4)c4nc(c(-c5ccc(S(=O)(=O)[O-])cc5)c5ccc2[nH]5)C=C4)C=C3)cc1
REMARK SMILES IDX 5 1 4 2 3 3 1 4 2 5 29 7 30 8 88 9 31 10 87 11 32 12 33 13
REMARK SMILES IDX 34 14 81 15 35 16 86 17 80 18 82 19 36 20 85 21 79 22 78 23
REMARK SMILES IDX 37 25 67 26 48 27 66 28 49 29 52 30 65 31 83 32 50 33 51 34
REMARK SMILES IDX 64 36 84 37 53 38 38 39 39 40 47 41 40 42 46 43 41 44 42 45
REMARK SMILES IDX 43 46 44 47 45 48 68 49 69 50 77 51 70 52 76 53 71 54 72 55
REMARK SMILES IDX 73 56 74 57 75 58 54 59 55 60 63 61 56 62 62 63 57 64 58 65
REMARK SMILES IDX 59 66 60 67 61 68 6 69 7 70 8 71 9 72 10 73 11 74 12 76
REMARK SMILES IDX 13 77 14 78 28 79 15 80 27 81 16 82 17 83 18 84 26 85 19 86
REMARK SMILES IDX 22 88 25 89 20 90 21 91 23 92 24 93
REMARK H PARENT 3 6 82 24 52 35 10 75 18 87 21 94 23 95
REMARK Flexibility Score: inf
ROOT
ATOM      1  C   UNL A   1      36.492  21.426  24.583  1.00  0.00     0.021 C 
ENDROOT
BRANCH   1   2
ATOM      2  C   UNL A   1      37.362  21.964  25.718  1.00  0.00     0.116 C 
BRANCH   2   3
ATOM      3  N   UNL A   1      38.768  21.659  25.579  1.00  0.00    -0.352 N 
ATOM      4  O   UNL A   1      40.944  21.524  25.897  1.00  0.00    -0.269 OA
ATOM      5  C   UNL A   1      39.917  22.173  26.112  1.00  0.00     0.251 C 
ATOM      6  H   UNL A   1      38.936  20.911  24.961  1.00  0.00     0.163 HD
BRANCH   5   7
ATOM      7  C   UNL A   1      40.020  23.464  26.847  1.00  0.00     0.039 A 
ATOM      8  C   UNL A   1      39.201  24.580  26.670  1.00  0.00     0.014 A 
ATOM      9  C   UNL A   1      41.096  23.559  27.751  1.00  0.00     0.014 A 
ATOM     10  C   UNL A   1      39.509  25.787  27.293  1.00  0.00     0.010 A 
ATOM     11  C   UNL A   1      41.403  24.757  28.383  1.00  0.00     0.010 A 
ATOM     12  C   UNL A   1      40.633  25.882  28.116  1.00  0.00    -0.014 A 
BRANCH  12  13
ATOM     13  C   UNL A   1      40.890  27.143  28.802  1.00  0.00     0.031 A 
ATOM     14  C   UNL A   1      42.018  27.930  28.228  1.00  0.00     0.074 A 
ATOM     15  C   UNL A   1      40.091  27.642  29.768  1.00  0.00     0.049 A 
ATOM     16  N   UNL A   1      43.148  28.225  28.782  1.00  0.00    -0.248 NA
ATOM     17  C   UNL A   1      41.928  28.318  26.811  1.00  0.00     0.031 C 
ATOM     18  C   UNL A   1      38.800  27.122  30.224  1.00  0.00     0.029 A 
ATOM     19  N   UNL A   1      40.215  28.804  30.470  1.00  0.00    -0.354 N 
ATOM     20  C   UNL A   1      43.825  29.027  27.864  1.00  0.00     0.074 A 
ATOM     21  C   UNL A   1      43.111  28.901  26.619  1.00  0.00     0.031 C 
ATOM     22  C   UNL A   1      38.158  28.080  30.933  1.00  0.00     0.029 A 
ATOM     23  C   UNL A   1      39.044  29.220  31.098  1.00  0.00     0.049 A 
ATOM     24  H   UNL A   1      41.060  29.306  30.529  1.00  0.00     0.167 HD
ATOM     25  C   UNL A   1      44.772  29.925  28.254  1.00  0.00     0.031 A 
ATOM     26  C   UNL A   1      38.801  30.438  31.651  1.00  0.00     0.031 A 
ATOM     27  C   UNL A   1      45.226  29.672  29.597  1.00  0.00     0.049 A 
ATOM     28  C   UNL A   1      40.115  31.070  31.919  1.00  0.00     0.074 A 
ATOM     29  C   UNL A   1      45.839  28.617  30.244  1.00  0.00     0.029 A 
ATOM     30  N   UNL A   1      44.721  30.480  30.588  1.00  0.00    -0.354 N 
ATOM     31  N   UNL A   1      40.964  30.615  32.796  1.00  0.00    -0.248 NA
ATOM     32  C   UNL A   1      40.680  31.936  30.895  1.00  0.00     0.031 C 
ATOM     33  C   UNL A   1      45.251  28.593  31.541  1.00  0.00     0.029 A 
ATOM     34  C   UNL A   1      44.369  29.671  31.635  1.00  0.00     0.049 A 
ATOM     35  H   UNL A   1      44.629  31.459  30.552  1.00  0.00     0.167 HD
ATOM     36  C   UNL A   1      42.206  30.763  32.197  1.00  0.00     0.074 A 
ATOM     37  C   UNL A   1      41.977  31.667  31.070  1.00  0.00     0.031 C 
ATOM     38  C   UNL A   1      43.242  29.928  32.504  1.00  0.00     0.031 A 
BRANCH  25  39
ATOM     39  C   UNL A   1      44.958  31.280  27.604  1.00  0.00    -0.014 A 
ATOM     40  C   UNL A   1      46.244  31.634  27.142  1.00  0.00     0.010 A 
ATOM     41  C   UNL A   1      44.015  32.321  27.714  1.00  0.00     0.010 A 
ATOM     42  C   UNL A   1      46.598  32.971  26.925  1.00  0.00     0.020 A 
ATOM     43  C   UNL A   1      44.344  33.653  27.454  1.00  0.00     0.020 A 
ATOM     44  C   UNL A   1      45.649  33.974  27.107  1.00  0.00     0.054 A 
BRANCH  44  45
ATOM     45  S   UNL A   1      46.147  35.708  26.970  1.00  0.00     0.124 S 
ATOM     46  O   UNL A   1      47.025  35.856  28.130  1.00  0.00    -0.237 OA
ATOM     47  O   UNL A   1      46.814  35.731  25.668  1.00  0.00    -0.237 OA
ATOM     48  O   UNL A   1      44.889  36.433  27.035  1.00  0.00    -0.744 OA
ENDBRANCH  44  45
ENDBRANCH  25  39
BRANCH  26  49
ATOM     49  C   UNL A   1      37.533  31.215  31.642  1.00  0.00    -0.014 A 
ATOM     50  C   UNL A   1      36.734  31.334  32.796  1.00  0.00     0.010 A 
ATOM     51  C   UNL A   1      37.254  32.085  30.567  1.00  0.00     0.010 A 
ATOM     52  C   UNL A   1      35.737  32.324  32.892  1.00  0.00     0.020 A 
ATOM     53  C   UNL A   1      36.261  33.069  30.653  1.00  0.00     0.020 A 
ATOM     54  C   UNL A   1      35.520  33.199  31.825  1.00  0.00     0.054 A 
BRANCH  54  55
ATOM     55  S   UNL A   1      34.359  34.587  32.017  1.00  0.00     0.124 S 
ATOM     56  O   UNL A   1      33.282  33.985  32.797  1.00  0.00    -0.237 OA
ATOM     57  O   UNL A   1      35.164  35.584  32.714  1.00  0.00    -0.237 OA
ATOM     58  O   UNL A   1      34.006  34.933  30.640  1.00  0.00    -0.744 OA
ENDBRANCH  54  55
ENDBRANCH  26  49
BRANCH  38  59
ATOM     59  C   UNL A   1      43.115  29.030  33.712  1.00  0.00    -0.014 A 
ATOM     60  C   UNL A   1      43.305  29.465  35.039  1.00  0.00     0.010 A 
ATOM     61  C   UNL A   1      42.629  27.730  33.495  1.00  0.00     0.010 A 
ATOM     62  C   UNL A   1      43.034  28.608  36.117  1.00  0.00     0.020 A 
ATOM     63  C   UNL A   1      42.340  26.879  34.563  1.00  0.00     0.020 A 
ATOM     64  C   UNL A   1      42.551  27.319  35.869  1.00  0.00     0.054 A 
BRANCH  64  65
ATOM     65  S   UNL A   1      42.153  26.229  37.265  1.00  0.00     0.124 S 
ATOM     66  O   UNL A   1      42.302  24.899  36.684  1.00  0.00    -0.237 OA
ATOM     67  O   UNL A   1      43.156  26.599  38.262  1.00  0.00    -0.237 OA
ATOM     68  O   UNL A   1      40.782  26.600  37.616  1.00  0.00    -0.744 OA
ENDBRANCH  64  65
ENDBRANCH  38  59
ENDBRANCH  12  13
ENDBRANCH   5   7
ENDBRANCH   2   3
ENDBRANCH   1   2
BRANCH   1  69
ATOM     69  C   UNL A   1      35.020  21.852  24.644  1.00  0.00     0.002 C 
BRANCH  69  70
ATOM     70  C   UNL A   1      34.003  20.707  24.634  1.00  0.00     0.002 C 
BRANCH  70  71
ATOM     71  C   UNL A   1      33.311  20.431  25.974  1.00  0.00     0.021 C 
BRANCH  71  72
ATOM     72  C   UNL A   1      33.476  21.535  27.018  1.00  0.00     0.116 C 
BRANCH  72  73
ATOM     73  N   UNL A   1      32.206  22.175  27.305  1.00  0.00    -0.356 N 
ATOM     74  C   UNL A   1      31.683  23.346  26.860  1.00  0.00     0.223 C 
ATOM     75  H   UNL A   1      31.627  21.677  27.926  1.00  0.00     0.163 HD
ATOM     76  O   UNL A   1      30.595  23.697  27.317  1.00  0.00    -0.275 OA
BRANCH  74  77
ATOM     77  C   UNL A   1      32.454  24.198  25.861  1.00  0.00     0.087 C 
ATOM     78  C   UNL A   1      32.665  25.614  26.412  1.00  0.00     0.068 C 
ATOM     79  C   UNL A   1      31.742  24.205  24.499  1.00  0.00     0.068 C 
ATOM     80  C   UNL A   1      31.416  26.482  26.292  1.00  0.00     0.277 C 
ATOM     81  C   UNL A   1      30.507  25.107  24.463  1.00  0.00     0.277 C 
ATOM     82  N   UNL A   1      30.889  26.431  24.935  1.00  0.00    -0.230 N 
ATOM     83  C   UNL A   1      30.646  27.559  24.175  1.00  0.00     0.383 C 
ATOM     84  N   UNL A   1      29.508  27.729  23.558  1.00  0.00    -0.155 N 
ATOM     85  C   UNL A   1      31.714  28.628  24.057  1.00  0.00     0.523 C 
ATOM     86  C   UNL A   1      29.302  28.890  22.854  1.00  0.00     0.414 C 
ATOM     87  H   UNL A   1      28.810  27.036  23.596  1.00  0.00     0.367 HD
ATOM     88  C   UNL A   1      31.458  29.289  22.758  1.00  0.00     0.389 C 
ATOM     89  N   UNL A   1      33.078  28.095  23.833  1.00  0.00     0.003 NA
ATOM     90  Cl  UNL A   1      27.668  29.279  22.529  1.00  0.00     0.028 Cl
ATOM     91  N   UNL A   1      30.215  29.704  22.434  1.00  0.00    -0.155 N 
ATOM     92  N   UNL A   1      32.475  29.302  21.973  1.00  0.00    -0.169 N 
ATOM     93  C   UNL A   1      33.403  28.562  22.662  1.00  0.00     0.532 C 
ATOM     94  H   UNL A   1      30.025  30.532  21.936  1.00  0.00     0.367 HD
ATOM     95  H   UNL A   1      32.565  29.736  21.094  1.00  0.00     0.365 HD
ENDBRANCH  74  77
ENDBRANCH  72  73
ENDBRANCH  71  72
ENDBRANCH  70  71
ENDBRANCH  69  70
ENDBRANCH   1  69
TORSDOF 16
ENDMDL
MODEL 3
REMARK VINA RESULT:     -13.0      1.473      2.084
REMARK SMILES O=C(NCCCCCCNC(=O)C1CCN(C2=[NH+]C(Cl)=[NH+]C3=[NH+]C=N[C@@H]32)CC1)c1ccc(-c2c3nc(c(-c4ccc(S(=O)(=O)[O-])cc4)c4ccc([nH]4)c(-c4ccc(S(=O)(=O)[O-])cc4)c4nc(c(-c5ccc(S(=O)(=O)[O-])cc5)c5ccc2[nH]5)C=C4)C=C3)cc1
REMARK SMILES IDX 5 1 4 2 3 3 1 4 2 5 29 7 30 8 88 9 31 10 87 11 32 12 33 13
REMARK SMILES IDX 34 14 81 15 35 16 86 17 80 18 82 19 36 20 85 21 79 22 78 23
REMARK SMILES IDX 37 25 67 26 48 27 66 28 49 29 52 30 65 31 83 32 50 33 51 34
REMARK SMILES IDX 64 36 84 37 53 38 38 39 39 40 47 41 40 42 46 43 41 44 42 45
REMARK SMILES IDX 43 46 44 47 45 48 68 49 69 50 77 51 70 52 76 53 71 54 72 55
REMARK SMILES IDX 73 56 74 57 75 58 54 59 55 60 63 61 56 62 62 63 57 64 58 65
REMARK SMILES IDX 59 66 60 67 61 68 6 69 7 70 8 71 9 72 10 73 11 74 12 76
REMARK SMILES IDX 13 77 14 78 28 79 15 80 27 81 16 82 17 83 18 84 26 85 19 86
REMARK SMILES IDX 22 88 25 89 20 90 21 91 23 92 24 93
REMARK H PARENT 3 6 82 24 52 35 10 75 18 87 21 94 23 95
REMARK Flexibility Score: inf
ROOT
ATOM      1  C   UNL A   1      32.906  29.702  25.148  1.00  0.00     0.021 C 
ENDROOT
BRANCH   1   2
ATOM      2  C   UNL A   1      32.986  29.587  26.670  1.00  0.00     0.116 C 
BRANCH   2   3
ATOM      3  N   UNL A   1      33.177  30.849  27.348  1.00  0.00    -0.352 N 
ATOM      4  O   UNL A   1      34.053  32.694  28.174  1.00  0.00    -0.269 OA
ATOM      5  C   UNL A   1      34.268  31.538  27.798  1.00  0.00     0.251 C 
ATOM      6  H   UNL A   1      32.330  31.319  27.524  1.00  0.00     0.163 HD
BRANCH   5   7
ATOM      7  C   UNL A   1      35.641  30.979  27.935  1.00  0.00     0.039 A 
ATOM      8  C   UNL A   1      36.024  29.662  27.678  1.00  0.00     0.014 A 
ATOM      9  C   UNL A   1      36.608  31.872  28.437  1.00  0.00     0.014 A 
ATOM     10  C   UNL A   1      37.302  29.220  28.010  1.00  0.00     0.010 A 
ATOM     11  C   UNL A   1      37.888  31.441  28.762  1.00  0.00     0.010 A 
ATOM     12  C   UNL A   1      38.217  30.102  28.589  1.00  0.00    -0.014 A 
BRANCH  12  13
ATOM     13  C   UNL A   1      39.567  29.622  28.867  1.00  0.00     0.031 A 
ATOM     14  C   UNL A   1      39.905  29.564  30.317  1.00  0.00     0.074 A 
ATOM     15  C   UNL A   1      40.389  29.124  27.922  1.00  0.00     0.049 A 
ATOM     16  N   UNL A   1      40.791  30.254  30.959  1.00  0.00    -0.248 NA
ATOM     17  C   UNL A   1      39.056  28.731  31.184  1.00  0.00     0.031 C 
ATOM     18  C   UNL A   1      40.082  28.853  26.515  1.00  0.00     0.029 A 
ATOM     19  N   UNL A   1      41.656  28.638  28.056  1.00  0.00    -0.354 N 
ATOM     20  C   UNL A   1      40.766  29.784  32.270  1.00  0.00     0.074 A 
ATOM     21  C   UNL A   1      39.571  28.985  32.387  1.00  0.00     0.031 C 
ATOM     22  C   UNL A   1      41.033  28.038  26.001  1.00  0.00     0.029 A 
ATOM     23  C   UNL A   1      42.079  27.846  26.991  1.00  0.00     0.049 A 
ATOM     24  H   UNL A   1      42.223  28.830  28.836  1.00  0.00     0.167 HD
ATOM     25  C   UNL A   1      41.849  29.880  33.091  1.00  0.00     0.031 A 
ATOM     26  C   UNL A   1      43.174  27.041  26.955  1.00  0.00     0.031 A 
ATOM     27  C   UNL A   1      42.819  30.817  32.586  1.00  0.00     0.049 A 
ATOM     28  C   UNL A   1      44.098  27.506  28.017  1.00  0.00     0.074 A 
ATOM     29  C   UNL A   1      42.818  32.165  32.288  1.00  0.00     0.029 A 
ATOM     30  N   UNL A   1      43.925  30.292  31.959  1.00  0.00    -0.354 N 
ATOM     31  N   UNL A   1      44.697  28.663  27.990  1.00  0.00    -0.248 NA
ATOM     32  C   UNL A   1      44.003  26.883  29.329  1.00  0.00     0.031 C 
ATOM     33  C   UNL A   1      43.626  32.282  31.120  1.00  0.00     0.029 A 
ATOM     34  C   UNL A   1      44.127  31.015  30.814  1.00  0.00     0.049 A 
ATOM     35  H   UNL A   1      44.470  29.537  32.276  1.00  0.00     0.167 HD
ATOM     36  C   UNL A   1      44.657  29.113  29.301  1.00  0.00     0.074 A 
ATOM     37  C   UNL A   1      44.303  27.937  30.095  1.00  0.00     0.031 C 
ATOM     38  C   UNL A   1      44.645  30.448  29.589  1.00  0.00     0.031 A 
BRANCH  25  39
ATOM     39  C   UNL A   1      42.234  28.813  34.094  1.00  0.00    -0.014 A 
ATOM     40  C   UNL A   1      42.740  27.587  33.611  1.00  0.00     0.010 A 
ATOM     41  C   UNL A   1      41.829  28.845  35.444  1.00  0.00     0.010 A 
ATOM     42  C   UNL A   1      42.723  26.430  34.401  1.00  0.00     0.020 A 
ATOM     43  C   UNL A   1      41.851  27.708  36.254  1.00  0.00     0.020 A 
ATOM     44  C   UNL A   1      42.254  26.496  35.711  1.00  0.00     0.054 A 
BRANCH  44  45
ATOM     45  S   UNL A   1      42.094  24.975  36.677  1.00  0.00     0.124 S 
ATOM     46  O   UNL A   1      42.038  23.960  35.624  1.00  0.00    -0.237 OA
ATOM     47  O   UNL A   1      43.320  24.989  37.474  1.00  0.00    -0.237 OA
ATOM     48  O   UNL A   1      40.865  25.172  37.427  1.00  0.00    -0.744 OA
ENDBRANCH  44  45
ENDBRANCH  25  39
BRANCH  26  49
ATOM     49  C   UNL A   1      43.314  25.709  26.308  1.00  0.00    -0.014 A 
ATOM     50  C   UNL A   1      44.287  25.472  25.318  1.00  0.00     0.010 A 
ATOM     51  C   UNL A   1      42.677  24.586  26.874  1.00  0.00     0.010 A 
ATOM     52  C   UNL A   1      44.650  24.160  24.953  1.00  0.00     0.020 A 
ATOM     53  C   UNL A   1      43.027  23.279  26.514  1.00  0.00     0.020 A 
ATOM     54  C   UNL A   1      44.030  23.070  25.570  1.00  0.00     0.054 A 
BRANCH  54  55
ATOM     55  S   UNL A   1      44.622  21.383  25.230  1.00  0.00     0.124 S 
ATOM     56  O   UNL A   1      45.969  21.408  25.792  1.00  0.00    -0.237 OA
ATOM     57  O   UNL A   1      43.654  20.555  25.943  1.00  0.00    -0.237 OA
ATOM     58  O   UNL A   1      44.561  21.285  23.772  1.00  0.00    -0.744 OA
ENDBRANCH  54  55
ENDBRANCH  26  49
BRANCH  38  59
ATOM     59  C   UNL A   1      44.971  31.429  28.488  1.00  0.00    -0.014 A 
ATOM     60  C   UNL A   1      44.013  31.975  27.611  1.00  0.00     0.010 A 
ATOM     61  C   UNL A   1      46.282  31.934  28.449  1.00  0.00     0.010 A 
ATOM     62  C   UNL A   1      44.369  32.986  26.703  1.00  0.00     0.020 A 
ATOM     63  C   UNL A   1      46.638  32.951  27.562  1.00  0.00     0.020 A 
ATOM     64  C   UNL A   1      45.682  33.468  26.688  1.00  0.00     0.054 A 
BRANCH  64  65
ATOM     65  S   UNL A   1      46.129  34.810  25.550  1.00  0.00     0.124 S 
ATOM     66  O   UNL A   1      45.264  34.556  24.403  1.00  0.00    -0.237 OA
ATOM     67  O   UNL A   1      45.816  36.009  26.324  1.00  0.00    -0.237 OA
ATOM     68  O   UNL A   1      47.557  34.599  25.307  1.00  0.00    -0.744 OA
ENDBRANCH  64  65
ENDBRANCH  38  59
ENDBRANCH  12  13
ENDBRANCH   5   7
ENDBRANCH   2   3
ENDBRANCH   1   2
BRANCH   1  69
ATOM     69  C   UNL A   1      33.585  28.562  24.380  1.00  0.00     0.002 C 
BRANCH  69  70
ATOM     70  C   UNL A   1      32.964  28.222  23.022  1.00  0.00     0.002 C 
BRANCH  70  71
ATOM     71  C   UNL A   1      31.450  28.440  22.918  1.00  0.00     0.021 C 
BRANCH  71  72
ATOM     72  C   UNL A   1      30.600  27.267  23.406  1.00  0.00     0.116 C 
BRANCH  72  73
ATOM     73  N   UNL A   1      30.648  27.155  24.852  1.00  0.00    -0.356 N 
ATOM     74  C   UNL A   1      30.631  26.062  25.657  1.00  0.00     0.223 C 
ATOM     75  H   UNL A   1      30.702  28.015  25.328  1.00  0.00     0.163 HD
ATOM     76  O   UNL A   1      30.615  26.249  26.874  1.00  0.00    -0.275 OA
BRANCH  74  77
ATOM     77  C   UNL A   1      30.593  24.666  25.052  1.00  0.00     0.087 C 
ATOM     78  C   UNL A   1      30.665  23.600  26.154  1.00  0.00     0.068 C 
ATOM     79  C   UNL A   1      31.711  24.501  24.011  1.00  0.00     0.068 C 
ATOM     80  C   UNL A   1      32.081  23.404  26.688  1.00  0.00     0.277 C 
ATOM     81  C   UNL A   1      33.095  24.300  24.630  1.00  0.00     0.277 C 
ATOM     82  N   UNL A   1      33.016  23.206  25.589  1.00  0.00    -0.230 N 
ATOM     83  C   UNL A   1      33.867  22.121  25.506  1.00  0.00     0.383 C 
ATOM     84  N   UNL A   1      35.141  22.275  25.264  1.00  0.00    -0.155 N 
ATOM     85  C   UNL A   1      33.321  20.722  25.710  1.00  0.00     0.523 C 
ATOM     86  C   UNL A   1      35.950  21.165  25.239  1.00  0.00     0.414 C 
ATOM     87  H   UNL A   1      35.514  23.170  25.099  1.00  0.00     0.367 HD
ATOM     88  C   UNL A   1      34.228  19.837  24.945  1.00  0.00     0.389 C 
ATOM     89  N   UNL A   1      32.037  20.470  25.015  1.00  0.00     0.003 NA
ATOM     90  Cl  UNL A   1      37.623  21.464  25.441  1.00  0.00     0.028 Cl
ATOM     91  N   UNL A   1      35.566  19.939  25.090  1.00  0.00    -0.155 N 
ATOM     92  N   UNL A   1      33.626  19.095  24.086  1.00  0.00    -0.169 N 
ATOM     93  C   UNL A   1      32.326  19.530  24.163  1.00  0.00     0.532 C 
ATOM     94  H   UNL A   1      36.179  19.169  25.083  1.00  0.00     0.367 HD
ATOM     95  H   UNL A   1      34.005  18.389  23.515  1.00  0.00     0.365 HD
ENDBRANCH  74  77
ENDBRANCH  72  73
ENDBRANCH  71  72
ENDBRANCH  70  71
ENDBRANCH  69  70
ENDBRANCH   1  69
TORSDOF 16
ENDMDL
