MODEL 1
REMARK VINA RESULT:     -11.1      0.000      0.000
REMARK SMILES Cc1ccc(C(=O)NCCCCCCNC(=O)c2ccc(-c3c4nc(c(-c5ccc(S(=O)(=O)[O-])cc5)c5ccc([nH]5)c(-c5ccc(S(=O)(=O)[O-])cc5)c5nc(c(-c6ccc(S(=O)(=O)[O-])cc6)c6ccc3[nH]6)C=C5)C=C4)cc2)cc1-c1ccc(/C=C2/SC(=O)N(Cc3ccccc3)C2=O)o1
REMARK SMILES IDX 11 1 10 2 9 3 8 4 6 5 7 6 5 8 1 9 2 10 3 11 79 12 4 13 78 14
REMARK SMILES IDX 80 15 81 16 99 17 82 18 83 19 84 20 85 21 86 22 97 23 87 24
REMARK SMILES IDX 89 25 98 26 88 27 90 28 91 29 92 30 96 31 93 32 95 33 94 34
REMARK SMILES IDX 12 35 13 36 14 37 15 38 16 39 17 41 18 42 19 43 77 44 20 45
REMARK SMILES IDX 76 46 21 47 22 48 23 49 70 50 24 51 75 52 69 53 71 54 25 55
REMARK SMILES IDX 74 56 68 57 67 58 26 60 56 61 37 62 55 63 38 64 41 65 54 66
REMARK SMILES IDX 72 67 39 68 40 69 53 71 73 72 42 73 27 74 28 75 36 76 29 77
REMARK SMILES IDX 35 78 30 79 31 80 32 81 33 82 34 83 57 84 58 85 66 86 59 87
REMARK SMILES IDX 65 88 60 89 61 90 62 91 63 92 64 93 43 94 44 95 52 96 45 97
REMARK SMILES IDX 51 98 46 99 47 100 48 101 49 102 50 103
REMARK H PARENT 8 7 15 40 71 59 41 70
REMARK Flexibility Score: inf
ROOT
ATOM      1  C   UNL A   1      37.027  31.253  29.458  1.00  0.00     0.002 C 
ENDROOT
BRANCH   1   2
ATOM      2  C   UNL A   1      36.948  30.526  28.105  1.00  0.00     0.021 C 
BRANCH   2   3
ATOM      3  C   UNL A   1      35.828  29.486  28.005  1.00  0.00     0.116 C 
BRANCH   3   4
ATOM      4  N   UNL A   1      34.543  30.114  27.762  1.00  0.00    -0.352 N 
ATOM      5  C   UNL A   1      33.517  29.868  26.890  1.00  0.00     0.251 C 
ATOM      6  O   UNL A   1      32.499  30.554  27.023  1.00  0.00    -0.269 OA
ATOM      7  H   UNL A   1      34.373  30.885  28.352  1.00  0.00     0.163 HD
BRANCH   5   8
ATOM      8  C   UNL A   1      33.528  28.816  25.828  1.00  0.00     0.040 A 
ATOM      9  C   UNL A   1      33.524  26.068  22.460  1.00  0.00     0.045 C 
ATOM     10  C   UNL A   1      33.517  26.984  23.655  1.00  0.00    -0.040 A 
ATOM     11  C   UNL A   1      33.406  28.362  23.432  1.00  0.00     0.005 A 
ATOM     12  C   UNL A   1      33.671  26.525  24.977  1.00  0.00     0.021 A 
ATOM     13  C   UNL A   1      33.393  29.260  24.503  1.00  0.00     0.014 A 
ATOM     14  C   UNL A   1      33.711  27.449  26.043  1.00  0.00     0.026 A 
BRANCH  12  15
ATOM     15  C   UNL A   1      33.776  25.112  25.297  1.00  0.00     0.135 A 
ATOM     16  C   UNL A   1      33.016  24.229  26.025  1.00  0.00     0.051 A 
ATOM     17  O   UNL A   1      34.864  24.476  24.780  1.00  0.00    -0.457 OA
ATOM     18  C   UNL A   1      33.678  22.981  25.936  1.00  0.00     0.051 A 
ATOM     19  C   UNL A   1      34.838  23.164  25.193  1.00  0.00     0.128 A 
BRANCH  19  20
ATOM     20  C   UNL A   1      35.820  22.201  24.853  1.00  0.00     0.068 C 
ATOM     21  C   UNL A   1      37.077  22.222  25.315  1.00  0.00     0.086 C 
ATOM     22  S   UNL A   1      38.198  20.955  24.940  1.00  0.00    -0.022 SA
ATOM     23  C   UNL A   1      37.725  23.191  26.255  1.00  0.00     0.268 C 
ATOM     24  C   UNL A   1      39.419  21.583  26.028  1.00  0.00     0.293 C 
ATOM     25  N   UNL A   1      39.021  22.802  26.512  1.00  0.00    -0.264 N 
ATOM     26  O   UNL A   1      37.168  24.141  26.783  1.00  0.00    -0.268 OA
ATOM     27  O   UNL A   1      40.435  20.975  26.296  1.00  0.00    -0.261 OA
BRANCH  25  28
ATOM     28  C   UNL A   1      39.872  23.549  27.417  1.00  0.00     0.165 C 
BRANCH  28  29
ATOM     29  C   UNL A   1      40.528  24.787  26.833  1.00  0.00    -0.028 A 
ATOM     30  C   UNL A   1      41.585  24.606  25.922  1.00  0.00     0.005 A 
ATOM     31  C   UNL A   1      40.120  26.098  27.120  1.00  0.00     0.005 A 
ATOM     32  C   UNL A   1      42.204  25.698  25.310  1.00  0.00     0.000 A 
ATOM     33  C   UNL A   1      40.737  27.191  26.501  1.00  0.00     0.000 A 
ATOM     34  C   UNL A   1      41.775  26.991  25.595  1.00  0.00     0.000 A 
ENDBRANCH  28  29
ENDBRANCH  25  28
ENDBRANCH  19  20
ENDBRANCH  12  15
ENDBRANCH   5   8
ENDBRANCH   3   4
ENDBRANCH   2   3
ENDBRANCH   1   2
BRANCH   1  35
ATOM     35  C   UNL A   1      38.146  32.299  29.612  1.00  0.00     0.002 C 
BRANCH  35  36
ATOM     36  C   UNL A   1      38.725  32.460  31.018  1.00  0.00     0.021 C 
BRANCH  36  37
ATOM     37  C   UNL A   1      39.826  31.455  31.336  1.00  0.00     0.116 C 
BRANCH  37  38
ATOM     38  N   UNL A   1      39.783  30.987  32.716  1.00  0.00    -0.352 N 
ATOM     39  C   UNL A   1      40.024  29.706  33.170  1.00  0.00     0.251 C 
ATOM     40  H   UNL A   1      39.557  31.659  33.400  1.00  0.00     0.163 HD
ATOM     41  O   UNL A   1      39.698  29.316  34.284  1.00  0.00    -0.269 OA
BRANCH  39  42
ATOM     42  C   UNL A   1      40.842  28.851  32.292  1.00  0.00     0.039 A 
ATOM     43  C   UNL A   1      42.219  28.815  32.545  1.00  0.00     0.014 A 
ATOM     44  C   UNL A   1      40.307  28.373  31.100  1.00  0.00     0.014 A 
ATOM     45  C   UNL A   1      43.088  28.440  31.526  1.00  0.00     0.010 A 
ATOM     46  C   UNL A   1      41.173  28.087  30.064  1.00  0.00     0.010 A 
ATOM     47  C   UNL A   1      42.560  28.160  30.266  1.00  0.00    -0.014 A 
BRANCH  47  48
ATOM     48  C   UNL A   1      43.380  27.976  29.078  1.00  0.00     0.031 A 
ATOM     49  C   UNL A   1      43.875  26.627  28.735  1.00  0.00     0.074 A 
ATOM     50  C   UNL A   1      43.630  29.016  28.251  1.00  0.00     0.049 A 
ATOM     51  N   UNL A   1      44.936  26.396  28.037  1.00  0.00    -0.248 NA
ATOM     52  C   UNL A   1      43.211  25.410  29.199  1.00  0.00     0.031 C 
ATOM     53  C   UNL A   1      44.188  28.946  26.903  1.00  0.00     0.029 A 
ATOM     54  N   UNL A   1      43.638  30.380  28.548  1.00  0.00    -0.354 N 
ATOM     55  C   UNL A   1      44.905  25.065  27.691  1.00  0.00     0.074 A 
ATOM     56  C   UNL A   1      43.872  24.475  28.511  1.00  0.00     0.031 C 
ATOM     57  C   UNL A   1      44.760  30.127  26.616  1.00  0.00     0.029 A 
ATOM     58  C   UNL A   1      44.712  30.927  27.827  1.00  0.00     0.049 A 
ATOM     59  H   UNL A   1      43.016  30.862  29.140  1.00  0.00     0.167 HD
ATOM     60  C   UNL A   1      45.628  24.618  26.627  1.00  0.00     0.031 A 
ATOM     61  C   UNL A   1      45.786  31.540  28.408  1.00  0.00     0.031 A 
ATOM     62  C   UNL A   1      46.421  25.679  26.018  1.00  0.00     0.049 A 
ATOM     63  C   UNL A   1      47.107  30.903  28.023  1.00  0.00     0.074 A 
ATOM     64  C   UNL A   1      46.240  26.464  24.890  1.00  0.00     0.029 A 
ATOM     65  N   UNL A   1      47.439  26.276  26.750  1.00  0.00    -0.354 N 
ATOM     66  N   UNL A   1      47.221  29.715  27.495  1.00  0.00    -0.248 NA
ATOM     67  C   UNL A   1      48.404  31.537  28.235  1.00  0.00     0.031 C 
ATOM     68  C   UNL A   1      47.123  27.569  24.975  1.00  0.00     0.029 A 
ATOM     69  C   UNL A   1      47.855  27.444  26.142  1.00  0.00     0.049 A 
ATOM     70  H   UNL A   1      47.813  25.915  27.588  1.00  0.00     0.167 HD
ATOM     71  C   UNL A   1      48.545  29.423  27.278  1.00  0.00     0.074 A 
ATOM     72  C   UNL A   1      49.245  30.601  27.759  1.00  0.00     0.031 C 
ATOM     73  C   UNL A   1      48.935  28.236  26.722  1.00  0.00     0.031 A 
BRANCH  60  74
ATOM     74  C   UNL A   1      45.325  23.294  25.969  1.00  0.00    -0.014 A 
ATOM     75  C   UNL A   1      44.143  22.603  26.303  1.00  0.00     0.010 A 
ATOM     76  C   UNL A   1      46.196  22.654  25.067  1.00  0.00     0.010 A 
ATOM     77  C   UNL A   1      43.894  21.300  25.853  1.00  0.00     0.020 A 
ATOM     78  C   UNL A   1      45.977  21.334  24.639  1.00  0.00     0.020 A 
ATOM     79  C   UNL A   1      44.830  20.659  25.047  1.00  0.00     0.054 A 
BRANCH  79  80
ATOM     80  S   UNL A   1      44.537  18.936  24.568  1.00  0.00     0.124 S 
ATOM     81  O   UNL A   1      45.447  18.204  25.447  1.00  0.00    -0.237 OA
ATOM     82  O   UNL A   1      43.115  18.770  24.854  1.00  0.00    -0.237 OA
ATOM     83  O   UNL A   1      44.896  18.905  23.151  1.00  0.00    -0.744 OA
ENDBRANCH  79  80
ENDBRANCH  60  74
BRANCH  61  84
ATOM     84  C   UNL A   1      45.493  32.182  29.720  1.00  0.00    -0.014 A 
ATOM     85  C   UNL A   1      45.138  33.549  29.714  1.00  0.00     0.010 A 
ATOM     86  C   UNL A   1      45.155  31.399  30.837  1.00  0.00     0.010 A 
ATOM     87  C   UNL A   1      44.323  34.080  30.718  1.00  0.00     0.020 A 
ATOM     88  C   UNL A   1      44.344  31.933  31.851  1.00  0.00     0.020 A 
ATOM     89  C   UNL A   1      43.882  33.250  31.749  1.00  0.00     0.054 A 
BRANCH  89  90
ATOM     90  S   UNL A   1      42.560  33.864  32.838  1.00  0.00     0.124 S 
ATOM     91  O   UNL A   1      42.164  32.658  33.557  1.00  0.00    -0.237 OA
ATOM     92  O   UNL A   1      43.260  34.870  33.636  1.00  0.00    -0.237 OA
ATOM     93  O   UNL A   1      41.574  34.394  31.902  1.00  0.00    -0.744 OA
ENDBRANCH  89  90
ENDBRANCH  61  84
BRANCH  73  94
ATOM     94  C   UNL A   1      50.347  27.696  26.572  1.00  0.00    -0.014 A 
ATOM     95  C   UNL A   1      51.138  27.198  27.617  1.00  0.00     0.010 A 
ATOM     96  C   UNL A   1      50.894  27.588  25.265  1.00  0.00     0.010 A 
ATOM     97  C   UNL A   1      52.415  26.660  27.378  1.00  0.00     0.020 A 
ATOM     98  C   UNL A   1      52.144  27.016  25.010  1.00  0.00     0.020 A 
ATOM     99  C   UNL A   1      52.910  26.572  26.076  1.00  0.00     0.054 A 
BRANCH  99 100
ATOM    100  S   UNL A   1      54.524  25.808  25.780  1.00  0.00     0.124 S 
ATOM    101  O   UNL A   1      55.416  26.688  26.531  1.00  0.00    -0.237 OA
ATOM    102  O   UNL A   1      54.354  24.467  26.335  1.00  0.00    -0.237 OA
ATOM    103  O   UNL A   1      54.668  25.859  24.328  1.00  0.00    -0.744 OA
ENDBRANCH  99 100
ENDBRANCH  73  94
ENDBRANCH  47  48
ENDBRANCH  39  42
ENDBRANCH  37  38
ENDBRANCH  36  37
ENDBRANCH  35  36
ENDBRANCH   1  35
TORSDOF 20
ENDMDL
MODEL 2
REMARK VINA RESULT:     -10.1      4.140      7.008
REMARK SMILES Cc1ccc(C(=O)NCCCCCCNC(=O)c2ccc(-c3c4nc(c(-c5ccc(S(=O)(=O)[O-])cc5)c5ccc([nH]5)c(-c5ccc(S(=O)(=O)[O-])cc5)c5nc(c(-c6ccc(S(=O)(=O)[O-])cc6)c6ccc3[nH]6)C=C5)C=C4)cc2)cc1-c1ccc(/C=C2/SC(=O)N(Cc3ccccc3)C2=O)o1
REMARK SMILES IDX 11 1 10 2 9 3 8 4 6 5 7 6 5 8 1 9 2 10 3 11 79 12 4 13 78 14
REMARK SMILES IDX 80 15 81 16 99 17 82 18 83 19 84 20 85 21 86 22 97 23 87 24
REMARK SMILES IDX 89 25 98 26 88 27 90 28 91 29 92 30 96 31 93 32 95 33 94 34
REMARK SMILES IDX 12 35 13 36 14 37 15 38 16 39 17 41 18 42 19 43 77 44 20 45
REMARK SMILES IDX 76 46 21 47 22 48 23 49 70 50 24 51 75 52 69 53 71 54 25 55
REMARK SMILES IDX 74 56 68 57 67 58 26 60 56 61 37 62 55 63 38 64 41 65 54 66
REMARK SMILES IDX 72 67 39 68 40 69 53 71 73 72 42 73 27 74 28 75 36 76 29 77
REMARK SMILES IDX 35 78 30 79 31 80 32 81 33 82 34 83 57 84 58 85 66 86 59 87
REMARK SMILES IDX 65 88 60 89 61 90 62 91 63 92 64 93 43 94 44 95 52 96 45 97
REMARK SMILES IDX 51 98 46 99 47 100 48 101 49 102 50 103
REMARK H PARENT 8 7 15 40 71 59 41 70
REMARK Flexibility Score: inf
ROOT
ATOM      1  C   UNL A   1      36.173  31.440  28.645  1.00  0.00     0.002 C 
ENDROOT
BRANCH   1   2
ATOM      2  C   UNL A   1      36.536  30.377  27.595  1.00  0.00     0.021 C 
BRANCH   2   3
ATOM      3  C   UNL A   1      35.477  29.288  27.397  1.00  0.00     0.116 C 
BRANCH   3   4
ATOM      4  N   UNL A   1      34.271  29.827  26.796  1.00  0.00    -0.352 N 
ATOM      5  C   UNL A   1      33.389  29.359  25.859  1.00  0.00     0.251 C 
ATOM      6  O   UNL A   1      32.389  30.050  25.645  1.00  0.00    -0.269 OA
ATOM      7  H   UNL A   1      34.037  30.721  27.135  1.00  0.00     0.163 HD
BRANCH   5   8
ATOM      8  C   UNL A   1      33.531  28.070  25.116  1.00  0.00     0.040 A 
ATOM      9  C   UNL A   1      33.820  24.529  22.611  1.00  0.00     0.045 C 
ATOM     10  C   UNL A   1      33.721  25.728  23.516  1.00  0.00    -0.040 A 
ATOM     11  C   UNL A   1      33.306  26.945  22.960  1.00  0.00     0.005 A 
ATOM     12  C   UNL A   1      34.077  25.695  24.877  1.00  0.00     0.021 A 
ATOM     13  C   UNL A   1      33.196  28.091  23.753  1.00  0.00     0.014 A 
ATOM     14  C   UNL A   1      34.013  26.874  25.651  1.00  0.00     0.026 A 
BRANCH  12  15
ATOM     15  C   UNL A   1      34.501  24.472  25.536  1.00  0.00     0.135 A 
ATOM     16  C   UNL A   1      33.976  23.677  26.526  1.00  0.00     0.051 A 
ATOM     17  O   UNL A   1      35.689  23.960  25.107  1.00  0.00    -0.457 OA
ATOM     18  C   UNL A   1      34.895  22.616  26.702  1.00  0.00     0.051 A 
ATOM     19  C   UNL A   1      35.965  22.830  25.841  1.00  0.00     0.128 A 
BRANCH  19  20
ATOM     20  C   UNL A   1      37.127  22.036  25.675  1.00  0.00     0.068 C 
ATOM     21  C   UNL A   1      38.352  22.415  26.061  1.00  0.00     0.086 C 
ATOM     22  S   UNL A   1      39.713  21.351  25.921  1.00  0.00    -0.022 SA
ATOM     23  C   UNL A   1      38.783  23.680  26.734  1.00  0.00     0.268 C 
ATOM     24  C   UNL A   1      40.775  22.441  26.786  1.00  0.00     0.293 C 
ATOM     25  N   UNL A   1      40.132  23.631  27.010  1.00  0.00    -0.264 N 
ATOM     26  O   UNL A   1      38.040  24.592  27.067  1.00  0.00    -0.268 OA
ATOM     27  O   UNL A   1      41.896  22.129  27.133  1.00  0.00    -0.261 OA
BRANCH  25  28
ATOM     28  C   UNL A   1      40.808  24.719  27.687  1.00  0.00     0.165 C 
BRANCH  28  29
ATOM     29  C   UNL A   1      41.286  25.854  26.798  1.00  0.00    -0.028 A 
ATOM     30  C   UNL A   1      40.791  27.146  27.054  1.00  0.00     0.005 A 
ATOM     31  C   UNL A   1      42.218  25.696  25.762  1.00  0.00     0.005 A 
ATOM     32  C   UNL A   1      41.223  28.244  26.307  1.00  0.00     0.000 A 
ATOM     33  C   UNL A   1      42.653  26.798  25.019  1.00  0.00     0.000 A 
ATOM     34  C   UNL A   1      42.159  28.070  25.293  1.00  0.00     0.000 A 
ENDBRANCH  28  29
ENDBRANCH  25  28
ENDBRANCH  19  20
ENDBRANCH  12  15
ENDBRANCH   5   8
ENDBRANCH   3   4
ENDBRANCH   2   3
ENDBRANCH   1   2
BRANCH   1  35
ATOM     35  C   UNL A   1      35.247  32.578  28.178  1.00  0.00     0.002 C 
BRANCH  35  36
ATOM     36  C   UNL A   1      34.278  33.129  29.226  1.00  0.00     0.021 C 
BRANCH  36  37
ATOM     37  C   UNL A   1      34.464  34.617  29.496  1.00  0.00     0.116 C 
BRANCH  37  38
ATOM     38  N   UNL A   1      34.464  34.938  30.918  1.00  0.00    -0.352 N 
ATOM     39  C   UNL A   1      35.189  34.314  31.914  1.00  0.00     0.251 C 
ATOM     40  H   UNL A   1      33.884  35.682  31.199  1.00  0.00     0.163 HD
ATOM     41  O   UNL A   1      34.935  34.437  33.105  1.00  0.00    -0.269 OA
BRANCH  39  42
ATOM     42  C   UNL A   1      36.400  33.596  31.481  1.00  0.00     0.039 A 
ATOM     43  C   UNL A   1      36.646  32.351  32.074  1.00  0.00     0.014 A 
ATOM     44  C   UNL A   1      37.386  34.272  30.769  1.00  0.00     0.014 A 
ATOM     45  C   UNL A   1      37.942  31.849  32.087  1.00  0.00     0.010 A 
ATOM     46  C   UNL A   1      38.686  33.816  30.861  1.00  0.00     0.010 A 
ATOM     47  C   UNL A   1      38.968  32.628  31.553  1.00  0.00    -0.014 A 
BRANCH  47  48
ATOM     48  C   UNL A   1      40.380  32.310  31.709  1.00  0.00     0.031 A 
ATOM     49  C   UNL A   1      40.974  31.219  30.909  1.00  0.00     0.074 A 
ATOM     50  C   UNL A   1      41.162  33.051  32.525  1.00  0.00     0.049 A 
ATOM     51  N   UNL A   1      42.017  30.545  31.260  1.00  0.00    -0.248 NA
ATOM     52  C   UNL A   1      40.397  30.776  29.642  1.00  0.00     0.031 C 
ATOM     53  C   UNL A   1      42.622  33.042  32.582  1.00  0.00     0.029 A 
ATOM     54  N   UNL A   1      40.787  33.810  33.635  1.00  0.00    -0.354 N 
ATOM     55  C   UNL A   1      42.427  29.839  30.152  1.00  0.00     0.074 A 
ATOM     56  C   UNL A   1      41.341  29.938  29.205  1.00  0.00     0.031 C 
ATOM     57  C   UNL A   1      43.004  33.471  33.795  1.00  0.00     0.029 A 
ATOM     58  C   UNL A   1      41.798  33.622  34.592  1.00  0.00     0.049 A 
ATOM     59  H   UNL A   1      39.979  34.365  33.729  1.00  0.00     0.167 HD
ATOM     60  C   UNL A   1      43.708  29.384  30.067  1.00  0.00     0.031 A 
ATOM     61  C   UNL A   1      41.592  33.063  35.820  1.00  0.00     0.031 A 
ATOM     62  C   UNL A   1      44.478  29.684  31.268  1.00  0.00     0.049 A 
ATOM     63  C   UNL A   1      42.464  31.848  36.069  1.00  0.00     0.074 A 
ATOM     64  C   UNL A   1      45.407  30.666  31.572  1.00  0.00     0.029 A 
ATOM     65  N   UNL A   1      44.111  29.105  32.476  1.00  0.00    -0.354 N 
ATOM     66  N   UNL A   1      43.086  31.188  35.130  1.00  0.00    -0.248 NA
ATOM     67  C   UNL A   1      42.679  31.260  37.387  1.00  0.00     0.031 C 
ATOM     68  C   UNL A   1      45.559  30.710  32.981  1.00  0.00     0.029 A 
ATOM     69  C   UNL A   1      44.739  29.740  33.530  1.00  0.00     0.049 A 
ATOM     70  H   UNL A   1      43.489  28.347  32.568  1.00  0.00     0.167 HD
ATOM     71  C   UNL A   1      43.777  30.135  35.675  1.00  0.00     0.074 A 
ATOM     72  C   UNL A   1      43.489  30.227  37.095  1.00  0.00     0.031 C 
ATOM     73  C   UNL A   1      44.522  29.288  34.900  1.00  0.00     0.031 A 
BRANCH  60  74
ATOM     74  C   UNL A   1      44.312  28.975  28.746  1.00  0.00    -0.014 A 
ATOM     75  C   UNL A   1      44.589  27.616  28.496  1.00  0.00     0.010 A 
ATOM     76  C   UNL A   1      44.687  29.890  27.743  1.00  0.00     0.010 A 
ATOM     77  C   UNL A   1      45.300  27.201  27.363  1.00  0.00     0.020 A 
ATOM     78  C   UNL A   1      45.433  29.492  26.621  1.00  0.00     0.020 A 
ATOM     79  C   UNL A   1      45.747  28.147  26.445  1.00  0.00     0.054 A 
BRANCH  79  80
ATOM     80  S   UNL A   1      46.758  27.597  25.045  1.00  0.00     0.124 S 
ATOM     81  O   UNL A   1      46.132  26.328  24.681  1.00  0.00    -0.237 OA
ATOM     82  O   UNL A   1      46.582  28.684  24.087  1.00  0.00    -0.237 OA
ATOM     83  O   UNL A   1      48.099  27.478  25.613  1.00  0.00    -0.744 OA
ENDBRANCH  79  80
ENDBRANCH  60  74
BRANCH  61  84
ATOM     84  C   UNL A   1      40.217  33.256  36.361  1.00  0.00    -0.014 A 
ATOM     85  C   UNL A   1      39.295  32.199  36.197  1.00  0.00     0.010 A 
ATOM     86  C   UNL A   1      39.971  34.223  37.351  1.00  0.00     0.010 A 
ATOM     87  C   UNL A   1      38.247  32.019  37.104  1.00  0.00     0.020 A 
ATOM     88  C   UNL A   1      38.913  34.047  38.258  1.00  0.00     0.020 A 
ATOM     89  C   UNL A   1      38.100  32.912  38.165  1.00  0.00     0.054 A 
BRANCH  89  90
ATOM     90  S   UNL A   1      36.959  32.467  39.510  1.00  0.00     0.124 S 
ATOM     91  O   UNL A   1      35.655  32.596  38.867  1.00  0.00    -0.237 OA
ATOM     92  O   UNL A   1      37.371  31.100  39.826  1.00  0.00    -0.237 OA
ATOM     93  O   UNL A   1      37.255  33.456  40.541  1.00  0.00    -0.744 OA
ENDBRANCH  89  90
ENDBRANCH  61  84
BRANCH  73  94
ATOM     94  C   UNL A   1      45.201  27.996  35.319  1.00  0.00    -0.014 A 
ATOM     95  C   UNL A   1      44.550  26.774  35.540  1.00  0.00     0.010 A 
ATOM     96  C   UNL A   1      46.619  27.975  35.408  1.00  0.00     0.010 A 
ATOM     97  C   UNL A   1      45.266  25.610  35.867  1.00  0.00     0.020 A 
ATOM     98  C   UNL A   1      47.345  26.814  35.690  1.00  0.00     0.020 A 
ATOM     99  C   UNL A   1      46.659  25.637  35.940  1.00  0.00     0.054 A 
BRANCH  99 100
ATOM    100  S   UNL A   1      47.569  24.111  36.289  1.00  0.00     0.124 S 
ATOM    101  O   UNL A   1      48.856  24.376  35.652  1.00  0.00    -0.237 OA
ATOM    102  O   UNL A   1      47.589  24.073  37.749  1.00  0.00    -0.237 OA
ATOM    103  O   UNL A   1      46.758  23.074  35.658  1.00  0.00    -0.744 OA
ENDBRANCH  99 100
ENDBRANCH  73  94
ENDBRANCH  47  48
ENDBRANCH  39  42
ENDBRANCH  37  38
ENDBRANCH  36  37
ENDBRANCH  35  36
ENDBRANCH   1  35
TORSDOF 20
ENDMDL
MODEL 3
REMARK VINA RESULT:      -9.9      5.623     11.624
REMARK SMILES Cc1ccc(C(=O)NCCCCCCNC(=O)c2ccc(-c3c4nc(c(-c5ccc(S(=O)(=O)[O-])cc5)c5ccc([nH]5)c(-c5ccc(S(=O)(=O)[O-])cc5)c5nc(c(-c6ccc(S(=O)(=O)[O-])cc6)c6ccc3[nH]6)C=C5)C=C4)cc2)cc1-c1ccc(/C=C2/SC(=O)N(Cc3ccccc3)C2=O)o1
REMARK SMILES IDX 11 1 10 2 9 3 8 4 6 5 7 6 5 8 1 9 2 10 3 11 79 12 4 13 78 14
REMARK SMILES IDX 80 15 81 16 99 17 82 18 83 19 84 20 85 21 86 22 97 23 87 24
REMARK SMILES IDX 89 25 98 26 88 27 90 28 91 29 92 30 96 31 93 32 95 33 94 34
REMARK SMILES IDX 12 35 13 36 14 37 15 38 16 39 17 41 18 42 19 43 77 44 20 45
REMARK SMILES IDX 76 46 21 47 22 48 23 49 70 50 24 51 75 52 69 53 71 54 25 55
REMARK SMILES IDX 74 56 68 57 67 58 26 60 56 61 37 62 55 63 38 64 41 65 54 66
REMARK SMILES IDX 72 67 39 68 40 69 53 71 73 72 42 73 27 74 28 75 36 76 29 77
REMARK SMILES IDX 35 78 30 79 31 80 32 81 33 82 34 83 57 84 58 85 66 86 59 87
REMARK SMILES IDX 65 88 60 89 61 90 62 91 63 92 64 93 43 94 44 95 52 96 45 97
REMARK SMILES IDX 51 98 46 99 47 100 48 101 49 102 50 103
REMARK H PARENT 8 7 15 40 71 59 41 70
REMARK Flexibility Score: inf
ROOT
ATOM      1  C   UNL A   1      46.806  31.719  28.131  1.00  0.00     0.002 C 
ENDROOT
BRANCH   1   2
ATOM      2  C   UNL A   1      46.076  32.035  29.447  1.00  0.00     0.021 C 
BRANCH   2   3
ATOM      3  C   UNL A   1      44.612  32.454  29.280  1.00  0.00     0.116 C 
BRANCH   3   4
ATOM      4  N   UNL A   1      43.950  32.587  30.564  1.00  0.00    -0.352 N 
ATOM      5  C   UNL A   1      42.877  31.967  31.146  1.00  0.00     0.251 C 
ATOM      6  O   UNL A   1      42.637  32.262  32.321  1.00  0.00    -0.269 OA
ATOM      7  H   UNL A   1      44.361  33.272  31.141  1.00  0.00     0.163 HD
BRANCH   5   8
ATOM      8  C   UNL A   1      42.013  30.945  30.481  1.00  0.00     0.040 A 
ATOM      9  C   UNL A   1      39.235  28.013  28.874  1.00  0.00     0.045 C 
ATOM     10  C   UNL A   1      40.229  29.014  29.400  1.00  0.00    -0.040 A 
ATOM     11  C   UNL A   1      39.957  29.634  30.626  1.00  0.00     0.005 A 
ATOM     12  C   UNL A   1      41.387  29.392  28.695  1.00  0.00     0.021 A 
ATOM     13  C   UNL A   1      40.845  30.571  31.164  1.00  0.00     0.014 A 
ATOM     14  C   UNL A   1      42.244  30.379  29.227  1.00  0.00     0.026 A 
BRANCH  12  15
ATOM     15  C   UNL A   1      41.753  28.786  27.427  1.00  0.00     0.135 A 
ATOM     16  C   UNL A   1      41.627  29.154  26.109  1.00  0.00     0.051 A 
ATOM     17  O   UNL A   1      42.362  27.570  27.516  1.00  0.00    -0.457 OA
ATOM     18  C   UNL A   1      42.201  28.104  25.355  1.00  0.00     0.051 A 
ATOM     19  C   UNL A   1      42.616  27.118  26.242  1.00  0.00     0.128 A 
BRANCH  19  20
ATOM     20  C   UNL A   1      43.236  25.878  25.945  1.00  0.00     0.068 C 
ATOM     21  C   UNL A   1      42.656  24.687  26.141  1.00  0.00     0.086 C 
ATOM     22  S   UNL A   1      43.432  23.214  25.659  1.00  0.00    -0.022 SA
ATOM     23  C   UNL A   1      41.293  24.374  26.674  1.00  0.00     0.268 C 
ATOM     24  C   UNL A   1      42.024  22.240  26.029  1.00  0.00     0.293 C 
ATOM     25  N   UNL A   1      41.079  23.013  26.651  1.00  0.00    -0.264 N 
ATOM     26  O   UNL A   1      40.457  25.202  27.006  1.00  0.00    -0.268 OA
ATOM     27  O   UNL A   1      41.943  21.066  25.733  1.00  0.00    -0.261 OA
BRANCH  25  28
ATOM     28  C   UNL A   1      39.824  22.435  27.087  1.00  0.00     0.165 C 
BRANCH  28  29
ATOM     29  C   UNL A   1      38.683  22.507  26.088  1.00  0.00    -0.028 A 
ATOM     30  C   UNL A   1      38.368  21.345  25.361  1.00  0.00     0.005 A 
ATOM     31  C   UNL A   1      37.902  23.652  25.874  1.00  0.00     0.005 A 
ATOM     32  C   UNL A   1      37.302  21.325  24.459  1.00  0.00     0.000 A 
ATOM     33  C   UNL A   1      36.830  23.629  24.975  1.00  0.00     0.000 A 
ATOM     34  C   UNL A   1      36.529  22.466  24.272  1.00  0.00     0.000 A 
ENDBRANCH  28  29
ENDBRANCH  25  28
ENDBRANCH  19  20
ENDBRANCH  12  15
ENDBRANCH   5   8
ENDBRANCH   3   4
ENDBRANCH   2   3
ENDBRANCH   1   2
BRANCH   1  35
ATOM     35  C   UNL A   1      47.162  30.243  27.879  1.00  0.00     0.002 C 
BRANCH  35  36
ATOM     36  C   UNL A   1      46.559  29.231  28.856  1.00  0.00     0.021 C 
BRANCH  36  37
ATOM     37  C   UNL A   1      45.683  28.186  28.176  1.00  0.00     0.116 C 
BRANCH  37  38
ATOM     38  N   UNL A   1      46.446  27.259  27.349  1.00  0.00    -0.352 N 
ATOM     39  C   UNL A   1      47.122  26.131  27.769  1.00  0.00     0.251 C 
ATOM     40  H   UNL A   1      46.484  27.460  26.386  1.00  0.00     0.163 HD
ATOM     41  O   UNL A   1      47.967  25.563  27.088  1.00  0.00    -0.269 OA
BRANCH  39  42
ATOM     42  C   UNL A   1      46.668  25.538  29.038  1.00  0.00     0.039 A 
ATOM     43  C   UNL A   1      45.427  24.888  29.027  1.00  0.00     0.014 A 
ATOM     44  C   UNL A   1      47.296  25.889  30.229  1.00  0.00     0.014 A 
ATOM     45  C   UNL A   1      44.732  24.730  30.221  1.00  0.00     0.010 A 
ATOM     46  C   UNL A   1      46.567  25.811  31.399  1.00  0.00     0.010 A 
ATOM     47  C   UNL A   1      45.273  25.270  31.387  1.00  0.00    -0.014 A 
BRANCH  47  48
ATOM     48  C   UNL A   1      44.540  25.362  32.641  1.00  0.00     0.031 A 
ATOM     49  C   UNL A   1      44.078  26.681  33.120  1.00  0.00     0.074 A 
ATOM     50  C   UNL A   1      44.219  24.245  33.330  1.00  0.00     0.049 A 
ATOM     51  N   UNL A   1      43.857  26.969  34.359  1.00  0.00    -0.248 NA
ATOM     52  C   UNL A   1      43.862  27.810  32.217  1.00  0.00     0.031 C 
ATOM     53  C   UNL A   1      43.269  24.140  34.434  1.00  0.00     0.029 A 
ATOM     54  N   UNL A   1      44.856  23.002  33.317  1.00  0.00    -0.354 N 
ATOM     55  C   UNL A   1      43.176  28.164  34.376  1.00  0.00     0.074 A 
ATOM     56  C   UNL A   1      43.287  28.692  33.036  1.00  0.00     0.031 C 
ATOM     57  C   UNL A   1      43.588  23.066  35.173  1.00  0.00     0.029 A 
ATOM     58  C   UNL A   1      44.837  22.544  34.645  1.00  0.00     0.049 A 
ATOM     59  H   UNL A   1      45.240  22.540  32.537  1.00  0.00     0.167 HD
ATOM     60  C   UNL A   1      42.437  28.514  35.465  1.00  0.00     0.031 A 
ATOM     61  C   UNL A   1      45.959  22.294  35.381  1.00  0.00     0.031 A 
ATOM     62  C   UNL A   1      42.537  27.531  36.536  1.00  0.00     0.049 A 
ATOM     63  C   UNL A   1      46.006  23.089  36.672  1.00  0.00     0.074 A 
ATOM     64  C   UNL A   1      41.704  26.507  36.959  1.00  0.00     0.029 A 
ATOM     65  N   UNL A   1      43.764  27.317  37.153  1.00  0.00    -0.354 N 
ATOM     66  N   UNL A   1      45.268  24.137  36.914  1.00  0.00    -0.248 NA
ATOM     67  C   UNL A   1      46.910  22.787  37.777  1.00  0.00     0.031 C 
ATOM     68  C   UNL A   1      42.455  25.644  37.797  1.00  0.00     0.029 A 
ATOM     69  C   UNL A   1      43.736  26.155  37.900  1.00  0.00     0.049 A 
ATOM     70  H   UNL A   1      44.544  27.912  37.070  1.00  0.00     0.167 HD
ATOM     71  C   UNL A   1      45.557  24.638  38.159  1.00  0.00     0.074 A 
ATOM     72  C   UNL A   1      46.592  23.752  38.659  1.00  0.00     0.031 C 
ATOM     73  C   UNL A   1      44.911  25.736  38.657  1.00  0.00     0.031 A 
BRANCH  60  74
ATOM     74  C   UNL A   1      41.374  29.583  35.385  1.00  0.00    -0.014 A 
ATOM     75  C   UNL A   1      41.480  30.735  36.190  1.00  0.00     0.010 A 
ATOM     76  C   UNL A   1      40.219  29.476  34.586  1.00  0.00     0.010 A 
ATOM     77  C   UNL A   1      40.445  31.673  36.281  1.00  0.00     0.020 A 
ATOM     78  C   UNL A   1      39.158  30.390  34.696  1.00  0.00     0.020 A 
ATOM     79  C   UNL A   1      39.273  31.479  35.555  1.00  0.00     0.054 A 
BRANCH  79  80
ATOM     80  S   UNL A   1      37.905  32.648  35.773  1.00  0.00     0.124 S 
ATOM     81  O   UNL A   1      37.386  32.286  37.091  1.00  0.00    -0.237 OA
ATOM     82  O   UNL A   1      38.583  33.939  35.697  1.00  0.00    -0.237 OA
ATOM     83  O   UNL A   1      37.011  32.346  34.658  1.00  0.00    -0.744 OA
ENDBRANCH  79  80
ENDBRANCH  60  74
BRANCH  61  84
ATOM     84  C   UNL A   1      47.148  21.895  34.576  1.00  0.00    -0.014 A 
ATOM     85  C   UNL A   1      48.188  22.840  34.434  1.00  0.00     0.010 A 
ATOM     86  C   UNL A   1      47.430  20.538  34.345  1.00  0.00     0.010 A 
ATOM     87  C   UNL A   1      49.507  22.425  34.232  1.00  0.00     0.020 A 
ATOM     88  C   UNL A   1      48.753  20.121  34.133  1.00  0.00     0.020 A 
ATOM     89  C   UNL A   1      49.788  21.062  34.143  1.00  0.00     0.054 A 
BRANCH  89  90
ATOM     90  S   UNL A   1      51.529  20.538  34.226  1.00  0.00     0.124 S 
ATOM     91  O   UNL A   1      51.992  20.780  32.863  1.00  0.00    -0.237 OA
ATOM     92  O   UNL A   1      52.074  21.435  35.244  1.00  0.00    -0.237 OA
ATOM     93  O   UNL A   1      51.437  19.136  34.621  1.00  0.00    -0.744 OA
ENDBRANCH  89  90
ENDBRANCH  61  84
BRANCH  73  94
ATOM     94  C   UNL A   1      45.225  26.505  39.929  1.00  0.00    -0.014 A 
ATOM     95  C   UNL A   1      46.367  27.289  40.140  1.00  0.00     0.010 A 
ATOM     96  C   UNL A   1      44.253  26.523  40.966  1.00  0.00     0.010 A 
ATOM     97  C   UNL A   1      46.549  28.017  41.328  1.00  0.00     0.020 A 
ATOM     98  C   UNL A   1      44.402  27.276  42.134  1.00  0.00     0.020 A 
ATOM     99  C   UNL A   1      45.565  28.007  42.317  1.00  0.00     0.054 A 
BRANCH  99 100
ATOM    100  S   UNL A   1      45.782  29.010  43.809  1.00  0.00     0.124 S 
ATOM    101  O   UNL A   1      45.135  30.262  43.426  1.00  0.00    -0.237 OA
ATOM    102  O   UNL A   1      45.084  28.230  44.828  1.00  0.00    -0.237 OA
ATOM    103  O   UNL A   1      47.232  29.077  43.971  1.00  0.00    -0.744 OA
ENDBRANCH  99 100
ENDBRANCH  73  94
ENDBRANCH  47  48
ENDBRANCH  39  42
ENDBRANCH  37  38
ENDBRANCH  36  37
ENDBRANCH  35  36
ENDBRANCH   1  35
TORSDOF 20
ENDMDL
