MODEL 1
REMARK VINA RESULT:     -11.1      0.000      0.000
REMARK SMILES COc1ccc(CCNC(=O)c2cccnc2C(=O)NCCCCCCNC(=O)c2ccc(-c3c4nc(c(-c5ccc(S(=O)(=O)[O-])cc5)c5ccc([nH]5)c(-c5ccc(S(=O)(=O)[O-])cc5)c5nc(c(-c6ccc(S(=O)(=O)[O-])cc6)c6ccc3[nH]6)C=C5)C=C4)cc2)cc1OC
REMARK SMILES IDX 22 1 21 2 20 3 18 4 19 5 17 7 12 8 13 9 14 10 16 11 15 12
REMARK SMILES IDX 10 13 9 14 11 16 8 17 7 18 6 19 3 20 4 21 91 22 5 23 90 24
REMARK SMILES IDX 2 25 1 26 92 27 93 28 23 29 24 30 25 31 26 32 27 33 28 34
REMARK SMILES IDX 29 36 30 37 31 38 89 39 32 40 88 41 33 42 34 43 35 44 82 45
REMARK SMILES IDX 36 46 87 47 81 48 83 49 37 50 86 51 80 52 79 53 38 55 68 56
REMARK SMILES IDX 49 57 67 58 50 59 53 60 66 61 84 62 51 63 52 64 65 66 85 67
REMARK SMILES IDX 54 68 39 69 40 70 48 71 41 72 47 73 42 74 43 75 44 76 45 77
REMARK SMILES IDX 46 78 69 79 70 80 78 81 71 82 77 83 72 84 73 85 74 86 75 87
REMARK SMILES IDX 76 88 55 89 56 90 64 91 57 92 63 93 58 94 59 95 60 96 61 97
REMARK SMILES IDX 62 98
REMARK H PARENT 20 6 9 15 27 35 83 54 53 65
REMARK Flexibility Score: inf
ROOT
ATOM      1  C   UNL A   1      38.463  21.481  25.776  1.00  0.00     0.021 C 
ENDROOT
BRANCH   1   2
ATOM      2  C   UNL A   1      37.184  22.150  25.290  1.00  0.00     0.116 C 
BRANCH   2   3
ATOM      3  N   UNL A   1      36.272  22.569  26.318  1.00  0.00    -0.351 N 
ATOM      4  C   UNL A   1      34.927  22.332  26.506  1.00  0.00     0.270 C 
ATOM      5  O   UNL A   1      34.478  22.779  27.570  1.00  0.00    -0.267 OA
ATOM      6  H   UNL A   1      36.682  23.128  27.016  1.00  0.00     0.163 HD
BRANCH   4   7
ATOM      7  C   UNL A   1      33.952  21.669  25.540  1.00  0.00     0.140 A 
ATOM      8  C   UNL A   1      33.446  22.116  24.320  1.00  0.00     0.071 A 
ATOM      9  C   UNL A   1      32.711  21.216  23.522  1.00  0.00     0.018 A 
ATOM     10  C   UNL A   1      32.430  19.932  23.971  1.00  0.00     0.021 A 
ATOM     11  N   UNL A   1      33.637  20.404  25.988  1.00  0.00    -0.250 NA
ATOM     12  C   UNL A   1      32.906  19.577  25.212  1.00  0.00     0.112 A 
BRANCH   8  13
ATOM     13  C   UNL A   1      33.750  23.400  23.683  1.00  0.00     0.253 C 
ATOM     14  N   UNL A   1      33.175  24.570  24.146  1.00  0.00    -0.352 N 
ATOM     15  H   UNL A   1      33.476  25.384  23.680  1.00  0.00     0.163 HD
ATOM     16  O   UNL A   1      34.500  23.413  22.713  1.00  0.00    -0.269 OA
BRANCH  14  17
ATOM     17  C   UNL A   1      32.195  24.806  25.212  1.00  0.00     0.121 C 
BRANCH  17  18
ATOM     18  C   UNL A   1      30.750  25.041  24.747  1.00  0.00     0.057 C 
BRANCH  18  19
ATOM     19  C   UNL A   1      30.373  26.463  24.397  1.00  0.00    -0.042 A 
ATOM     20  C   UNL A   1      29.764  29.085  23.529  1.00  0.00     0.160 A 
ATOM     21  C   UNL A   1      28.892  28.020  23.297  1.00  0.00     0.051 A 
ATOM     22  C   UNL A   1      30.936  28.861  24.252  1.00  0.00     0.160 A 
ATOM     23  C   UNL A   1      29.180  26.729  23.736  1.00  0.00     0.008 A 
ATOM     24  C   UNL A   1      31.233  27.544  24.664  1.00  0.00     0.054 A 
BRANCH  20  25
ATOM     25  O   UNL A   1      29.370  30.333  23.130  1.00  0.00    -0.493 OA
ATOM     26  C   UNL A   1      29.290  30.464  21.709  1.00  0.00     0.278 C 
ENDBRANCH  20  25
BRANCH  22  27
ATOM     27  O   UNL A   1      31.889  29.772  24.624  1.00  0.00    -0.493 OA
ATOM     28  C   UNL A   1      31.904  30.231  25.971  1.00  0.00     0.278 C 
ENDBRANCH  22  27
ENDBRANCH  18  19
ENDBRANCH  17  18
ENDBRANCH  14  17
ENDBRANCH   8  13
ENDBRANCH   4   7
ENDBRANCH   2   3
ENDBRANCH   1   2
BRANCH   1  29
ATOM     29  C   UNL A   1      39.649  22.371  26.153  1.00  0.00     0.002 C 
BRANCH  29  30
ATOM     30  C   UNL A   1      40.403  22.086  27.457  1.00  0.00     0.002 C 
BRANCH  30  31
ATOM     31  C   UNL A   1      41.921  21.879  27.405  1.00  0.00     0.021 C 
BRANCH  31  32
ATOM     32  C   UNL A   1      42.806  23.123  27.355  1.00  0.00     0.116 C 
BRANCH  32  33
ATOM     33  N   UNL A   1      42.610  23.947  26.177  1.00  0.00    -0.352 N 
ATOM     34  C   UNL A   1      42.201  25.259  26.040  1.00  0.00     0.251 C 
ATOM     35  H   UNL A   1      42.801  23.492  25.325  1.00  0.00     0.163 HD
ATOM     36  O   UNL A   1      42.045  25.712  24.912  1.00  0.00    -0.269 OA
BRANCH  34  37
ATOM     37  C   UNL A   1      41.940  26.136  27.216  1.00  0.00     0.039 A 
ATOM     38  C   UNL A   1      42.802  27.204  27.483  1.00  0.00     0.014 A 
ATOM     39  C   UNL A   1      40.909  25.874  28.112  1.00  0.00     0.014 A 
ATOM     40  C   UNL A   1      42.586  28.026  28.601  1.00  0.00     0.010 A 
ATOM     41  C   UNL A   1      40.636  26.741  29.176  1.00  0.00     0.010 A 
ATOM     42  C   UNL A   1      41.482  27.823  29.446  1.00  0.00    -0.014 A 
BRANCH  42  43
ATOM     43  C   UNL A   1      41.202  28.725  30.602  1.00  0.00     0.031 A 
ATOM     44  C   UNL A   1      42.001  28.623  31.881  1.00  0.00     0.074 A 
ATOM     45  C   UNL A   1      40.183  29.605  30.529  1.00  0.00     0.049 A 
ATOM     46  N   UNL A   1      41.889  29.324  32.984  1.00  0.00    -0.248 NA
ATOM     47  C   UNL A   1      43.047  27.589  31.943  1.00  0.00     0.031 C 
ATOM     48  C   UNL A   1      39.281  29.764  29.385  1.00  0.00     0.029 A 
ATOM     49  N   UNL A   1      39.725  30.529  31.438  1.00  0.00    -0.354 N 
ATOM     50  C   UNL A   1      42.831  28.808  33.868  1.00  0.00     0.074 A 
ATOM     51  C   UNL A   1      43.479  27.706  33.191  1.00  0.00     0.031 C 
ATOM     52  C   UNL A   1      38.396  30.739  29.651  1.00  0.00     0.029 A 
ATOM     53  C   UNL A   1      38.646  31.258  30.993  1.00  0.00     0.049 A 
ATOM     54  H   UNL A   1      40.131  30.658  32.326  1.00  0.00     0.167 HD
ATOM     55  C   UNL A   1      43.145  29.224  35.119  1.00  0.00     0.031 A 
ATOM     56  C   UNL A   1      37.936  32.236  31.589  1.00  0.00     0.031 A 
ATOM     57  C   UNL A   1      42.520  30.337  35.787  1.00  0.00     0.049 A 
ATOM     58  C   UNL A   1      38.328  32.703  32.965  1.00  0.00     0.074 A 
ATOM     59  C   UNL A   1      42.830  30.882  37.022  1.00  0.00     0.029 A 
ATOM     60  N   UNL A   1      41.463  31.075  35.280  1.00  0.00    -0.354 N 
ATOM     61  N   UNL A   1      39.289  32.262  33.742  1.00  0.00    -0.248 NA
ATOM     62  C   UNL A   1      37.556  33.817  33.536  1.00  0.00     0.031 C 
ATOM     63  C   UNL A   1      41.930  31.920  37.283  1.00  0.00     0.029 A 
ATOM     64  C   UNL A   1      41.099  32.061  36.184  1.00  0.00     0.049 A 
ATOM     65  H   UNL A   1      41.034  30.923  34.407  1.00  0.00     0.167 HD
ATOM     66  C   UNL A   1      39.261  33.072  34.874  1.00  0.00     0.074 A 
ATOM     67  C   UNL A   1      38.198  34.035  34.675  1.00  0.00     0.031 C 
ATOM     68  C   UNL A   1      40.050  33.024  35.975  1.00  0.00     0.031 A 
BRANCH  55  69
ATOM     69  C   UNL A   1      44.230  28.486  35.864  1.00  0.00    -0.014 A 
ATOM     70  C   UNL A   1      43.926  27.381  36.679  1.00  0.00     0.010 A 
ATOM     71  C   UNL A   1      45.579  28.838  35.668  1.00  0.00     0.010 A 
ATOM     72  C   UNL A   1      44.947  26.657  37.302  1.00  0.00     0.020 A 
ATOM     73  C   UNL A   1      46.605  28.101  36.268  1.00  0.00     0.020 A 
ATOM     74  C   UNL A   1      46.280  27.020  37.090  1.00  0.00     0.054 A 
BRANCH  74  75
ATOM     75  S   UNL A   1      47.586  26.028  37.868  1.00  0.00     0.124 S 
ATOM     76  O   UNL A   1      46.862  25.387  38.964  1.00  0.00    -0.237 OA
ATOM     77  O   UNL A   1      48.001  25.140  36.785  1.00  0.00    -0.237 OA
ATOM     78  O   UNL A   1      48.579  27.018  38.275  1.00  0.00    -0.744 OA
ENDBRANCH  74  75
ENDBRANCH  55  69
BRANCH  56  79
ATOM     79  C   UNL A   1      36.786  32.865  30.879  1.00  0.00    -0.014 A 
ATOM     80  C   UNL A   1      37.004  33.732  29.793  1.00  0.00     0.010 A 
ATOM     81  C   UNL A   1      35.468  32.613  31.298  1.00  0.00     0.010 A 
ATOM     82  C   UNL A   1      35.928  34.367  29.166  1.00  0.00     0.020 A 
ATOM     83  C   UNL A   1      34.387  33.220  30.653  1.00  0.00     0.020 A 
ATOM     84  C   UNL A   1      34.626  34.109  29.603  1.00  0.00     0.054 A 
BRANCH  84  85
ATOM     85  S   UNL A   1      33.241  34.927  28.763  1.00  0.00     0.124 S 
ATOM     86  O   UNL A   1      32.417  35.357  29.888  1.00  0.00    -0.237 OA
ATOM     87  O   UNL A   1      33.907  35.995  28.021  1.00  0.00    -0.237 OA
ATOM     88  O   UNL A   1      32.670  33.867  27.935  1.00  0.00    -0.744 OA
ENDBRANCH  84  85
ENDBRANCH  56  79
BRANCH  68  89
ATOM     89  C   UNL A   1      39.839  34.078  37.029  1.00  0.00    -0.014 A 
ATOM     90  C   UNL A   1      39.027  33.844  38.152  1.00  0.00     0.010 A 
ATOM     91  C   UNL A   1      40.506  35.313  36.913  1.00  0.00     0.010 A 
ATOM     92  C   UNL A   1      38.853  34.840  39.119  1.00  0.00     0.020 A 
ATOM     93  C   UNL A   1      40.357  36.299  37.890  1.00  0.00     0.020 A 
ATOM     94  C   UNL A   1      39.517  36.063  38.979  1.00  0.00     0.054 A 
BRANCH  94  95
ATOM     95  S   UNL A   1      39.300  37.328  40.261  1.00  0.00     0.124 S 
ATOM     96  O   UNL A   1      38.605  36.583  41.308  1.00  0.00    -0.237 OA
ATOM     97  O   UNL A   1      40.675  37.712  40.569  1.00  0.00    -0.237 OA
ATOM     98  O   UNL A   1      38.505  38.359  39.598  1.00  0.00    -0.744 OA
ENDBRANCH  94  95
ENDBRANCH  68  89
ENDBRANCH  42  43
ENDBRANCH  34  37
ENDBRANCH  32  33
ENDBRANCH  31  32
ENDBRANCH  30  31
ENDBRANCH  29  30
ENDBRANCH   1  29
TORSDOF 22
ENDMDL
MODEL 2
REMARK VINA RESULT:     -10.5      0.894      7.912
REMARK SMILES COc1ccc(CCNC(=O)c2cccnc2C(=O)NCCCCCCNC(=O)c2ccc(-c3c4nc(c(-c5ccc(S(=O)(=O)[O-])cc5)c5ccc([nH]5)c(-c5ccc(S(=O)(=O)[O-])cc5)c5nc(c(-c6ccc(S(=O)(=O)[O-])cc6)c6ccc3[nH]6)C=C5)C=C4)cc2)cc1OC
REMARK SMILES IDX 22 1 21 2 20 3 18 4 19 5 17 7 12 8 13 9 14 10 16 11 15 12
REMARK SMILES IDX 10 13 9 14 11 16 8 17 7 18 6 19 3 20 4 21 91 22 5 23 90 24
REMARK SMILES IDX 2 25 1 26 92 27 93 28 23 29 24 30 25 31 26 32 27 33 28 34
REMARK SMILES IDX 29 36 30 37 31 38 89 39 32 40 88 41 33 42 34 43 35 44 82 45
REMARK SMILES IDX 36 46 87 47 81 48 83 49 37 50 86 51 80 52 79 53 38 55 68 56
REMARK SMILES IDX 49 57 67 58 50 59 53 60 66 61 84 62 51 63 52 64 65 66 85 67
REMARK SMILES IDX 54 68 39 69 40 70 48 71 41 72 47 73 42 74 43 75 44 76 45 77
REMARK SMILES IDX 46 78 69 79 70 80 78 81 71 82 77 83 72 84 73 85 74 86 75 87
REMARK SMILES IDX 76 88 55 89 56 90 64 91 57 92 63 93 58 94 59 95 60 96 61 97
REMARK SMILES IDX 62 98
REMARK H PARENT 20 6 9 15 27 35 83 54 53 65
REMARK Flexibility Score: inf
ROOT
ATOM      1  C   UNL A   1      38.541  20.685  25.276  1.00  0.00     0.021 C 
ENDROOT
BRANCH   1   2
ATOM      2  C   UNL A   1      37.184  21.286  24.937  1.00  0.00     0.116 C 
BRANCH   2   3
ATOM      3  N   UNL A   1      36.291  21.470  26.047  1.00  0.00    -0.351 N 
ATOM      4  C   UNL A   1      34.915  21.521  26.122  1.00  0.00     0.270 C 
ATOM      5  O   UNL A   1      34.473  21.599  27.277  1.00  0.00    -0.267 OA
ATOM      6  H   UNL A   1      36.744  21.580  26.914  1.00  0.00     0.163 HD
BRANCH   4   7
ATOM      7  C   UNL A   1      33.919  21.568  24.970  1.00  0.00     0.140 A 
ATOM      8  C   UNL A   1      33.803  22.472  23.915  1.00  0.00     0.071 A 
ATOM      9  C   UNL A   1      32.913  22.172  22.862  1.00  0.00     0.018 A 
ATOM     10  C   UNL A   1      32.113  21.038  22.909  1.00  0.00     0.021 A 
ATOM     11  N   UNL A   1      33.095  20.464  25.019  1.00  0.00    -0.250 NA
ATOM     12  C   UNL A   1      32.233  20.222  24.010  1.00  0.00     0.112 A 
BRANCH   8  13
ATOM     13  C   UNL A   1      34.651  23.645  23.690  1.00  0.00     0.253 C 
ATOM     14  N   UNL A   1      34.561  24.749  24.517  1.00  0.00    -0.352 N 
ATOM     15  H   UNL A   1      35.203  25.467  24.311  1.00  0.00     0.163 HD
ATOM     16  O   UNL A   1      35.423  23.639  22.736  1.00  0.00    -0.269 OA
BRANCH  14  17
ATOM     17  C   UNL A   1      33.672  25.035  25.650  1.00  0.00     0.121 C 
BRANCH  17  18
ATOM     18  C   UNL A   1      33.535  26.517  26.030  1.00  0.00     0.057 C 
BRANCH  18  19
ATOM     19  C   UNL A   1      32.416  27.286  25.366  1.00  0.00    -0.042 A 
ATOM     20  C   UNL A   1      30.471  28.768  23.944  1.00  0.00     0.160 A 
ATOM     21  C   UNL A   1      30.645  27.400  23.729  1.00  0.00     0.051 A 
ATOM     22  C   UNL A   1      31.236  29.407  24.920  1.00  0.00     0.160 A 
ATOM     23  C   UNL A   1      31.591  26.662  24.438  1.00  0.00     0.008 A 
ATOM     24  C   UNL A   1      32.213  28.657  25.610  1.00  0.00     0.054 A 
BRANCH  20  25
ATOM     25  O   UNL A   1      29.469  29.401  23.260  1.00  0.00    -0.493 OA
ATOM     26  C   UNL A   1      29.894  29.907  21.993  1.00  0.00     0.278 C 
ENDBRANCH  20  25
BRANCH  22  27
ATOM     27  O   UNL A   1      31.183  30.718  25.314  1.00  0.00    -0.493 OA
ATOM     28  C   UNL A   1      31.797  31.086  26.543  1.00  0.00     0.278 C 
ENDBRANCH  22  27
ENDBRANCH  18  19
ENDBRANCH  17  18
ENDBRANCH  14  17
ENDBRANCH   8  13
ENDBRANCH   4   7
ENDBRANCH   2   3
ENDBRANCH   1   2
BRANCH   1  29
ATOM     29  C   UNL A   1      39.487  21.487  26.172  1.00  0.00     0.002 C 
BRANCH  29  30
ATOM     30  C   UNL A   1      40.815  20.853  26.601  1.00  0.00     0.002 C 
BRANCH  30  31
ATOM     31  C   UNL A   1      42.044  21.753  26.775  1.00  0.00     0.021 C 
BRANCH  31  32
ATOM     32  C   UNL A   1      41.806  23.217  27.137  1.00  0.00     0.116 C 
BRANCH  32  33
ATOM     33  N   UNL A   1      41.880  24.130  26.011  1.00  0.00    -0.352 N 
ATOM     34  C   UNL A   1      41.744  25.502  25.939  1.00  0.00     0.251 C 
ATOM     35  H   UNL A   1      42.058  23.695  25.146  1.00  0.00     0.163 HD
ATOM     36  O   UNL A   1      41.782  26.040  24.839  1.00  0.00    -0.269 OA
BRANCH  34  37
ATOM     37  C   UNL A   1      41.550  26.345  27.152  1.00  0.00     0.039 A 
ATOM     38  C   UNL A   1      42.380  27.449  27.364  1.00  0.00     0.014 A 
ATOM     39  C   UNL A   1      40.617  26.017  28.131  1.00  0.00     0.014 A 
ATOM     40  C   UNL A   1      42.227  28.241  28.515  1.00  0.00     0.010 A 
ATOM     41  C   UNL A   1      40.401  26.851  29.233  1.00  0.00     0.010 A 
ATOM     42  C   UNL A   1      41.215  27.969  29.450  1.00  0.00    -0.014 A 
BRANCH  42  43
ATOM     43  C   UNL A   1      40.999  28.836  30.646  1.00  0.00     0.031 A 
ATOM     44  C   UNL A   1      39.885  29.857  30.677  1.00  0.00     0.074 A 
ATOM     45  C   UNL A   1      41.845  28.751  31.693  1.00  0.00     0.049 A 
ATOM     46  N   UNL A   1      39.558  30.694  31.632  1.00  0.00    -0.248 NA
ATOM     47  C   UNL A   1      39.040  29.970  29.477  1.00  0.00     0.031 C 
ATOM     48  C   UNL A   1      43.008  27.862  31.772  1.00  0.00     0.029 A 
ATOM     49  N   UNL A   1      41.867  29.426  32.890  1.00  0.00    -0.354 N 
ATOM     50  C   UNL A   1      38.489  31.439  31.144  1.00  0.00     0.074 A 
ATOM     51  C   UNL A   1      38.247  30.986  29.791  1.00  0.00     0.031 C 
ATOM     52  C   UNL A   1      43.613  28.030  32.959  1.00  0.00     0.029 A 
ATOM     53  C   UNL A   1      42.902  29.056  33.717  1.00  0.00     0.049 A 
ATOM     54  H   UNL A   1      41.203  30.110  33.134  1.00  0.00     0.167 HD
ATOM     55  C   UNL A   1      37.760  32.397  31.767  1.00  0.00     0.031 A 
ATOM     56  C   UNL A   1      43.246  29.487  34.947  1.00  0.00     0.031 A 
ATOM     57  C   UNL A   1      37.981  32.833  33.122  1.00  0.00     0.049 A 
ATOM     58  C   UNL A   1      42.399  30.526  35.631  1.00  0.00     0.074 A 
ATOM     59  C   UNL A   1      37.241  33.738  33.865  1.00  0.00     0.029 A 
ATOM     60  N   UNL A   1      39.013  32.398  33.938  1.00  0.00    -0.354 N 
ATOM     61  N   UNL A   1      41.332  31.145  35.184  1.00  0.00    -0.248 NA
ATOM     62  C   UNL A   1      42.787  30.907  36.998  1.00  0.00     0.031 C 
ATOM     63  C   UNL A   1      37.852  33.886  35.114  1.00  0.00     0.029 A 
ATOM     64  C   UNL A   1      38.938  33.028  35.170  1.00  0.00     0.049 A 
ATOM     65  H   UNL A   1      39.698  31.739  33.681  1.00  0.00     0.167 HD
ATOM     66  C   UNL A   1      40.900  31.957  36.228  1.00  0.00     0.074 A 
ATOM     67  C   UNL A   1      41.812  31.742  37.332  1.00  0.00     0.031 C 
ATOM     68  C   UNL A   1      39.840  32.799  36.269  1.00  0.00     0.031 A 
BRANCH  55  69
ATOM     69  C   UNL A   1      36.632  33.045  31.003  1.00  0.00    -0.014 A 
ATOM     70  C   UNL A   1      35.292  32.846  31.382  1.00  0.00     0.010 A 
ATOM     71  C   UNL A   1      36.919  33.944  29.958  1.00  0.00     0.010 A 
ATOM     72  C   UNL A   1      34.260  33.513  30.716  1.00  0.00     0.020 A 
ATOM     73  C   UNL A   1      35.892  34.633  29.306  1.00  0.00     0.020 A 
ATOM     74  C   UNL A   1      34.567  34.405  29.684  1.00  0.00     0.054 A 
BRANCH  74  75
ATOM     75  S   UNL A   1      33.209  35.298  28.874  1.00  0.00     0.124 S 
ATOM     76  O   UNL A   1      32.410  35.730  30.019  1.00  0.00    -0.237 OA
ATOM     77  O   UNL A   1      33.908  36.362  28.159  1.00  0.00    -0.237 OA
ATOM     78  O   UNL A   1      32.585  34.286  28.027  1.00  0.00    -0.744 OA
ENDBRANCH  74  75
ENDBRANCH  55  69
BRANCH  56  79
ATOM     79  C   UNL A   1      44.441  28.919  35.632  1.00  0.00    -0.014 A 
ATOM     80  C   UNL A   1      45.705  29.518  35.479  1.00  0.00     0.010 A 
ATOM     81  C   UNL A   1      44.324  27.766  36.428  1.00  0.00     0.010 A 
ATOM     82  C   UNL A   1      46.835  28.950  36.076  1.00  0.00     0.020 A 
ATOM     83  C   UNL A   1      45.445  27.214  37.052  1.00  0.00     0.020 A 
ATOM     84  C   UNL A   1      46.698  27.800  36.856  1.00  0.00     0.054 A 
BRANCH  84  85
ATOM     85  S   UNL A   1      48.174  27.090  37.638  1.00  0.00     0.124 S 
ATOM     86  O   UNL A   1      48.505  28.103  38.635  1.00  0.00    -0.237 OA
ATOM     87  O   UNL A   1      47.674  25.822  38.164  1.00  0.00    -0.237 OA
ATOM     88  O   UNL A   1      49.120  26.966  36.531  1.00  0.00    -0.744 OA
ENDBRANCH  84  85
ENDBRANCH  56  79
BRANCH  68  89
ATOM     89  C   UNL A   1      39.565  33.512  37.568  1.00  0.00    -0.014 A 
ATOM     90  C   UNL A   1      38.876  32.884  38.620  1.00  0.00     0.010 A 
ATOM     91  C   UNL A   1      40.047  34.821  37.750  1.00  0.00     0.010 A 
ATOM     92  C   UNL A   1      38.640  33.569  39.817  1.00  0.00     0.020 A 
ATOM     93  C   UNL A   1      39.838  35.498  38.954  1.00  0.00     0.020 A 
ATOM     94  C   UNL A   1      39.119  34.873  39.975  1.00  0.00     0.054 A 
BRANCH  94  95
ATOM     95  S   UNL A   1      38.827  35.729  41.547  1.00  0.00     0.124 S 
ATOM     96  O   UNL A   1      38.946  37.131  41.155  1.00  0.00    -0.237 OA
ATOM     97  O   UNL A   1      37.482  35.289  41.906  1.00  0.00    -0.237 OA
ATOM     98  O   UNL A   1      39.892  35.232  42.415  1.00  0.00    -0.744 OA
ENDBRANCH  94  95
ENDBRANCH  68  89
ENDBRANCH  42  43
ENDBRANCH  34  37
ENDBRANCH  32  33
ENDBRANCH  31  32
ENDBRANCH  30  31
ENDBRANCH  29  30
ENDBRANCH   1  29
TORSDOF 22
ENDMDL
MODEL 3
REMARK VINA RESULT:     -10.0      4.936      9.262
REMARK SMILES COc1ccc(CCNC(=O)c2cccnc2C(=O)NCCCCCCNC(=O)c2ccc(-c3c4nc(c(-c5ccc(S(=O)(=O)[O-])cc5)c5ccc([nH]5)c(-c5ccc(S(=O)(=O)[O-])cc5)c5nc(c(-c6ccc(S(=O)(=O)[O-])cc6)c6ccc3[nH]6)C=C5)C=C4)cc2)cc1OC
REMARK SMILES IDX 22 1 21 2 20 3 18 4 19 5 17 7 12 8 13 9 14 10 16 11 15 12
REMARK SMILES IDX 10 13 9 14 11 16 8 17 7 18 6 19 3 20 4 21 91 22 5 23 90 24
REMARK SMILES IDX 2 25 1 26 92 27 93 28 23 29 24 30 25 31 26 32 27 33 28 34
REMARK SMILES IDX 29 36 30 37 31 38 89 39 32 40 88 41 33 42 34 43 35 44 82 45
REMARK SMILES IDX 36 46 87 47 81 48 83 49 37 50 86 51 80 52 79 53 38 55 68 56
REMARK SMILES IDX 49 57 67 58 50 59 53 60 66 61 84 62 51 63 52 64 65 66 85 67
REMARK SMILES IDX 54 68 39 69 40 70 48 71 41 72 47 73 42 74 43 75 44 76 45 77
REMARK SMILES IDX 46 78 69 79 70 80 78 81 71 82 77 83 72 84 73 85 74 86 75 87
REMARK SMILES IDX 76 88 55 89 56 90 64 91 57 92 63 93 58 94 59 95 60 96 61 97
REMARK SMILES IDX 62 98
REMARK H PARENT 20 6 9 15 27 35 83 54 53 65
REMARK Flexibility Score: inf
ROOT
ATOM      1  C   UNL A   1      33.294  21.480  27.255  1.00  0.00     0.021 C 
ENDROOT
BRANCH   1   2
ATOM      2  C   UNL A   1      33.246  22.980  27.511  1.00  0.00     0.116 C 
BRANCH   2   3
ATOM      3  N   UNL A   1      32.016  23.633  27.157  1.00  0.00    -0.351 N 
ATOM      4  C   UNL A   1      31.456  23.938  25.935  1.00  0.00     0.270 C 
ATOM      5  O   UNL A   1      30.320  24.427  26.006  1.00  0.00    -0.267 OA
ATOM      6  H   UNL A   1      31.474  23.914  27.929  1.00  0.00     0.163 HD
BRANCH   4   7
ATOM      7  C   UNL A   1      32.096  23.813  24.558  1.00  0.00     0.140 A 
ATOM      8  C   UNL A   1      33.076  24.592  23.945  1.00  0.00     0.071 A 
ATOM      9  C   UNL A   1      33.643  24.138  22.735  1.00  0.00     0.018 A 
ATOM     10  C   UNL A   1      33.184  22.977  22.127  1.00  0.00     0.021 A 
ATOM     11  N   UNL A   1      31.627  22.681  23.925  1.00  0.00    -0.250 NA
ATOM     12  C   UNL A   1      32.171  22.290  22.754  1.00  0.00     0.112 A 
BRANCH   8  13
ATOM     13  C   UNL A   1      33.720  25.774  24.522  1.00  0.00     0.253 C 
ATOM     14  N   UNL A   1      33.668  26.994  23.872  1.00  0.00    -0.352 N 
ATOM     15  H   UNL A   1      34.092  27.735  24.362  1.00  0.00     0.163 HD
ATOM     16  O   UNL A   1      34.331  25.654  25.580  1.00  0.00    -0.269 OA
BRANCH  14  17
ATOM     17  C   UNL A   1      33.089  27.371  22.577  1.00  0.00     0.121 C 
BRANCH  17  18
ATOM     18  C   UNL A   1      32.496  28.787  22.502  1.00  0.00     0.057 C 
BRANCH  18  19
ATOM     19  C   UNL A   1      31.000  28.905  22.681  1.00  0.00    -0.042 A 
ATOM     20  C   UNL A   1      28.176  28.962  22.845  1.00  0.00     0.160 A 
ATOM     21  C   UNL A   1      28.931  28.050  23.585  1.00  0.00     0.051 A 
ATOM     22  C   UNL A   1      28.833  29.902  22.049  1.00  0.00     0.160 A 
ATOM     23  C   UNL A   1      30.323  28.027  23.519  1.00  0.00     0.008 A 
ATOM     24  C   UNL A   1      30.241  29.850  21.966  1.00  0.00     0.054 A 
BRANCH  20  25
ATOM     25  O   UNL A   1      26.820  28.965  23.025  1.00  0.00    -0.493 OA
ATOM     26  C   UNL A   1      26.353  27.831  23.758  1.00  0.00     0.278 C 
ENDBRANCH  20  25
BRANCH  22  27
ATOM     27  O   UNL A   1      28.282  30.903  21.293  1.00  0.00    -0.493 OA
ATOM     28  C   UNL A   1      28.342  32.238  21.783  1.00  0.00     0.278 C 
ENDBRANCH  22  27
ENDBRANCH  18  19
ENDBRANCH  17  18
ENDBRANCH  14  17
ENDBRANCH   8  13
ENDBRANCH   4   7
ENDBRANCH   2   3
ENDBRANCH   1   2
BRANCH   1  29
ATOM     29  C   UNL A   1      33.839  20.990  25.912  1.00  0.00     0.002 C 
BRANCH  29  30
ATOM     30  C   UNL A   1      35.338  21.134  25.625  1.00  0.00     0.002 C 
BRANCH  30  31
ATOM     31  C   UNL A   1      35.863  22.470  25.086  1.00  0.00     0.021 C 
BRANCH  31  32
ATOM     32  C   UNL A   1      37.213  22.963  25.604  1.00  0.00     0.116 C 
BRANCH  32  33
ATOM     33  N   UNL A   1      38.172  21.906  25.870  1.00  0.00    -0.352 N 
ATOM     34  C   UNL A   1      39.463  21.948  26.358  1.00  0.00     0.251 C 
ATOM     35  H   UNL A   1      37.846  21.000  25.665  1.00  0.00     0.163 HD
ATOM     36  O   UNL A   1      40.100  20.904  26.428  1.00  0.00    -0.269 OA
BRANCH  34  37
ATOM     37  C   UNL A   1      40.103  23.219  26.798  1.00  0.00     0.039 A 
ATOM     38  C   UNL A   1      40.785  23.261  28.018  1.00  0.00     0.014 A 
ATOM     39  C   UNL A   1      39.973  24.398  26.070  1.00  0.00     0.014 A 
ATOM     40  C   UNL A   1      41.374  24.457  28.461  1.00  0.00     0.010 A 
ATOM     41  C   UNL A   1      40.632  25.568  26.461  1.00  0.00     0.010 A 
ATOM     42  C   UNL A   1      41.330  25.620  27.673  1.00  0.00    -0.014 A 
BRANCH  42  43
ATOM     43  C   UNL A   1      42.004  26.882  28.099  1.00  0.00     0.031 A 
ATOM     44  C   UNL A   1      41.209  28.041  28.654  1.00  0.00     0.074 A 
ATOM     45  C   UNL A   1      43.336  27.015  27.933  1.00  0.00     0.049 A 
ATOM     46  N   UNL A   1      41.633  29.211  29.068  1.00  0.00    -0.248 NA
ATOM     47  C   UNL A   1      39.748  27.879  28.737  1.00  0.00     0.031 C 
ATOM     48  C   UNL A   1      44.221  26.006  27.343  1.00  0.00     0.029 A 
ATOM     49  N   UNL A   1      44.181  28.056  28.235  1.00  0.00    -0.354 N 
ATOM     50  C   UNL A   1      40.498  29.923  29.442  1.00  0.00     0.074 A 
ATOM     51  C   UNL A   1      39.361  29.072  29.166  1.00  0.00     0.031 C 
ATOM     52  C   UNL A   1      45.482  26.467  27.348  1.00  0.00     0.029 A 
ATOM     53  C   UNL A   1      45.497  27.813  27.914  1.00  0.00     0.049 A 
ATOM     54  H   UNL A   1      43.874  28.896  28.645  1.00  0.00     0.167 HD
ATOM     55  C   UNL A   1      40.408  31.163  29.984  1.00  0.00     0.031 A 
ATOM     56  C   UNL A   1      46.596  28.580  28.058  1.00  0.00     0.031 A 
ATOM     57  C   UNL A   1      41.539  32.003  30.283  1.00  0.00     0.049 A 
ATOM     58  C   UNL A   1      46.473  29.938  28.696  1.00  0.00     0.074 A 
ATOM     59  C   UNL A   1      41.549  33.238  30.910  1.00  0.00     0.029 A 
ATOM     60  N   UNL A   1      42.857  31.698  29.984  1.00  0.00    -0.354 N 
ATOM     61  N   UNL A   1      45.397  30.549  29.131  1.00  0.00    -0.248 NA
ATOM     62  C   UNL A   1      47.717  30.700  28.885  1.00  0.00     0.031 C 
ATOM     63  C   UNL A   1      42.868  33.702  30.945  1.00  0.00     0.029 A 
ATOM     64  C   UNL A   1      43.686  32.729  30.397  1.00  0.00     0.049 A 
ATOM     65  H   UNL A   1      43.159  30.872  29.542  1.00  0.00     0.167 HD
ATOM     66  C   UNL A   1      45.841  31.748  29.681  1.00  0.00     0.074 A 
ATOM     67  C   UNL A   1      47.281  31.771  29.534  1.00  0.00     0.031 C 
ATOM     68  C   UNL A   1      45.119  32.738  30.261  1.00  0.00     0.031 A 
BRANCH  55  69
ATOM     69  C   UNL A   1      39.036  31.699  30.311  1.00  0.00    -0.014 A 
ATOM     70  C   UNL A   1      38.450  31.471  31.569  1.00  0.00     0.010 A 
ATOM     71  C   UNL A   1      38.369  32.526  29.388  1.00  0.00     0.010 A 
ATOM     72  C   UNL A   1      37.213  32.039  31.889  1.00  0.00     0.020 A 
ATOM     73  C   UNL A   1      37.144  33.118  29.713  1.00  0.00     0.020 A 
ATOM     74  C   UNL A   1      36.570  32.862  30.960  1.00  0.00     0.054 A 
BRANCH  74  75
ATOM     75  S   UNL A   1      34.991  33.628  31.424  1.00  0.00     0.124 S 
ATOM     76  O   UNL A   1      34.175  32.461  31.748  1.00  0.00    -0.237 OA
ATOM     77  O   UNL A   1      35.365  34.468  32.559  1.00  0.00    -0.237 OA
ATOM     78  O   UNL A   1      34.590  34.352  30.221  1.00  0.00    -0.744 OA
ENDBRANCH  74  75
ENDBRANCH  55  69
BRANCH  56  79
ATOM     79  C   UNL A   1      47.925  28.075  27.611  1.00  0.00    -0.014 A 
ATOM     80  C   UNL A   1      48.388  28.336  26.309  1.00  0.00     0.010 A 
ATOM     81  C   UNL A   1      48.727  27.317  28.482  1.00  0.00     0.010 A 
ATOM     82  C   UNL A   1      49.609  27.813  25.873  1.00  0.00     0.020 A 
ATOM     83  C   UNL A   1      49.963  26.819  28.061  1.00  0.00     0.020 A 
ATOM     84  C   UNL A   1      50.387  27.054  26.751  1.00  0.00     0.054 A 
BRANCH  84  85
ATOM     85  S   UNL A   1      51.978  26.400  26.172  1.00  0.00     0.124 S 
ATOM     86  O   UNL A   1      51.930  26.707  24.746  1.00  0.00    -0.237 OA
ATOM     87  O   UNL A   1      52.941  27.172  26.954  1.00  0.00    -0.237 OA
ATOM     88  O   UNL A   1      51.906  24.980  26.511  1.00  0.00    -0.744 OA
ENDBRANCH  84  85
ENDBRANCH  56  79
BRANCH  68  89
ATOM     89  C   UNL A   1      45.875  33.906  30.838  1.00  0.00    -0.014 A 
ATOM     90  C   UNL A   1      46.130  35.064  30.081  1.00  0.00     0.010 A 
ATOM     91  C   UNL A   1      46.298  33.858  32.179  1.00  0.00     0.010 A 
ATOM     92  C   UNL A   1      46.830  36.135  30.645  1.00  0.00     0.020 A 
ATOM     93  C   UNL A   1      46.973  34.938  32.754  1.00  0.00     0.020 A 
ATOM     94  C   UNL A   1      47.250  36.064  31.977  1.00  0.00     0.054 A 
BRANCH  94  95
ATOM     95  S   UNL A   1      48.130  37.479  32.695  1.00  0.00     0.124 S 
ATOM     96  O   UNL A   1      49.133  36.821  33.527  1.00  0.00    -0.237 OA
ATOM     97  O   UNL A   1      48.645  38.168  31.515  1.00  0.00    -0.237 OA
ATOM     98  O   UNL A   1      47.090  38.199  33.425  1.00  0.00    -0.744 OA
ENDBRANCH  94  95
ENDBRANCH  68  89
ENDBRANCH  42  43
ENDBRANCH  34  37
ENDBRANCH  32  33
ENDBRANCH  31  32
ENDBRANCH  30  31
ENDBRANCH  29  30
ENDBRANCH   1  29
TORSDOF 22
ENDMDL
