MODEL 1
REMARK VINA RESULT:     -11.4      0.000      0.000
REMARK SMILES CCOc1ccc2[nH]c(C)c/c(=N\c3cccc(C(=O)NCCCCCCNC(=O)c4ccc(-c5c6nc(c(-c7ccc(S(=O)(=O)[O-])cc7)c7ccc([nH]7)c(-c7ccc(S(=O)(=O)[O-])cc7)c7nc(c(-c8ccc(S(=O)(=O)[O-])cc8)c8ccc5[nH]8)C=C7)C=C6)cc4)c3)c2c1
REMARK SMILES IDX 24 1 23 2 22 3 21 4 19 5 20 6 18 8 14 9 15 10 91 11 16 12
REMARK SMILES IDX 17 13 13 14 4 15 5 16 93 17 6 18 92 19 7 20 12 21 8 22 11 23
REMARK SMILES IDX 9 24 10 26 3 27 2 28 1 29 25 30 26 31 27 32 28 33 29 34
REMARK SMILES IDX 30 36 31 37 32 38 90 39 33 40 89 41 34 42 35 43 36 44 83 45
REMARK SMILES IDX 37 46 88 47 82 48 84 49 38 50 87 51 81 52 80 53 39 55 69 56
REMARK SMILES IDX 50 57 68 58 51 59 54 60 67 61 85 62 52 63 53 64 66 66 86 67
REMARK SMILES IDX 55 68 40 69 41 70 49 71 42 72 48 73 43 74 44 75 45 76 46 77
REMARK SMILES IDX 47 78 70 79 71 80 79 81 72 82 78 83 73 84 74 85 75 86 76 87
REMARK SMILES IDX 77 88 56 89 57 90 65 91 58 92 64 93 59 94 60 95 61 96 62 97
REMARK SMILES IDX 63 98
REMARK H PARENT 21 7 8 25 28 35 84 54 54 65
REMARK Flexibility Score: inf
ROOT
ATOM      1  C   UNL A   1      39.869  22.295  26.457  1.00  0.00     0.002 C 
ENDROOT
BRANCH   1   2
ATOM      2  C   UNL A   1      39.338  23.665  26.880  1.00  0.00     0.021 C 
BRANCH   2   3
ATOM      3  C   UNL A   1      37.971  24.086  26.354  1.00  0.00     0.116 C 
BRANCH   3   4
ATOM      4  N   UNL A   1      37.685  23.657  24.999  1.00  0.00    -0.352 N 
ATOM      5  C   UNL A   1      36.493  23.456  24.341  1.00  0.00     0.251 C 
ATOM      6  O   UNL A   1      36.544  23.080  23.168  1.00  0.00    -0.269 OA
ATOM      7  H   UNL A   1      38.485  23.476  24.454  1.00  0.00     0.163 HD
BRANCH   5   8
ATOM      8  C   UNL A   1      35.159  23.610  24.991  1.00  0.00     0.041 A 
ATOM      9  C   UNL A   1      32.989  24.670  25.250  1.00  0.00     0.064 A 
ATOM     10  C   UNL A   1      32.748  23.911  26.399  1.00  0.00     0.028 A 
ATOM     11  C   UNL A   1      34.141  24.427  24.500  1.00  0.00     0.042 A 
ATOM     12  C   UNL A   1      33.717  23.023  26.864  1.00  0.00     0.003 A 
ATOM     13  C   UNL A   1      34.928  22.896  26.178  1.00  0.00     0.014 A 
BRANCH   9  14
ATOM     14  N   UNL A   1      32.157  25.728  24.851  1.00  0.00    -0.248 NA
ATOM     15  C   UNL A   1      29.934  28.988  23.208  1.00  0.00     0.120 A 
ATOM     16  C   UNL A   1      30.074  30.242  23.800  1.00  0.00     0.048 A 
ATOM     17  C   UNL A   1      30.670  27.898  23.675  1.00  0.00     0.059 A 
ATOM     18  C   UNL A   1      31.009  30.435  24.815  1.00  0.00     0.030 A 
ATOM     19  C   UNL A   1      31.602  28.087  24.704  1.00  0.00     0.027 A 
ATOM     20  C   UNL A   1      31.788  29.366  25.266  1.00  0.00     0.048 A 
ATOM     21  C   UNL A   1      32.439  26.950  25.216  1.00  0.00     0.075 A 
ATOM     22  N   UNL A   1      32.759  29.578  26.251  1.00  0.00    -0.359 N 
ATOM     23  C   UNL A   1      33.569  27.349  26.129  1.00  0.00     0.050 A 
ATOM     24  C   UNL A   1      33.642  28.596  26.620  1.00  0.00     0.014 A 
ATOM     25  H   UNL A   1      32.809  30.458  26.691  1.00  0.00     0.166 HD
ATOM     26  C   UNL A   1      34.705  28.974  27.614  1.00  0.00     0.064 C 
BRANCH  15  27
ATOM     27  O   UNL A   1      28.991  28.785  22.240  1.00  0.00    -0.494 OA
BRANCH  27  28
ATOM     28  C   UNL A   1      27.944  29.768  22.252  1.00  0.00     0.226 C 
ATOM     29  C   UNL A   1      28.000  30.679  21.034  1.00  0.00     0.049 C 
ENDBRANCH  27  28
ENDBRANCH  15  27
ENDBRANCH   9  14
ENDBRANCH   5   8
ENDBRANCH   3   4
ENDBRANCH   2   3
ENDBRANCH   1   2
BRANCH   1  30
ATOM     30  C   UNL A   1      40.783  21.557  27.436  1.00  0.00     0.002 C 
BRANCH  30  31
ATOM     31  C   UNL A   1      42.290  21.722  27.243  1.00  0.00     0.021 C 
BRANCH  31  32
ATOM     32  C   UNL A   1      42.869  23.102  27.525  1.00  0.00     0.116 C 
BRANCH  32  33
ATOM     33  N   UNL A   1      43.240  23.843  26.332  1.00  0.00    -0.352 N 
ATOM     34  C   UNL A   1      43.101  25.188  26.062  1.00  0.00     0.251 C 
ATOM     35  H   UNL A   1      43.650  23.309  25.614  1.00  0.00     0.163 HD
ATOM     36  O   UNL A   1      43.412  25.629  24.962  1.00  0.00    -0.269 OA
BRANCH  34  37
ATOM     37  C   UNL A   1      42.526  26.090  27.088  1.00  0.00     0.039 A 
ATOM     38  C   UNL A   1      42.912  27.430  27.170  1.00  0.00     0.014 A 
ATOM     39  C   UNL A   1      41.614  25.569  28.012  1.00  0.00     0.014 A 
ATOM     40  C   UNL A   1      42.528  28.193  28.271  1.00  0.00     0.010 A 
ATOM     41  C   UNL A   1      41.166  26.363  29.073  1.00  0.00     0.010 A 
ATOM     42  C   UNL A   1      41.664  27.663  29.245  1.00  0.00    -0.014 A 
BRANCH  42  43
ATOM     43  C   UNL A   1      41.312  28.477  30.439  1.00  0.00     0.031 A 
ATOM     44  C   UNL A   1      42.186  28.458  31.667  1.00  0.00     0.074 A 
ATOM     45  C   UNL A   1      40.242  29.294  30.394  1.00  0.00     0.049 A 
ATOM     46  N   UNL A   1      42.056  29.138  32.779  1.00  0.00    -0.248 NA
ATOM     47  C   UNL A   1      43.360  27.570  31.645  1.00  0.00     0.031 C 
ATOM     48  C   UNL A   1      39.340  29.431  29.249  1.00  0.00     0.029 A 
ATOM     49  N   UNL A   1      39.751  30.188  31.313  1.00  0.00    -0.354 N 
ATOM     50  C   UNL A   1      43.120  28.756  33.588  1.00  0.00     0.074 A 
ATOM     51  C   UNL A   1      43.869  27.760  32.856  1.00  0.00     0.031 C 
ATOM     52  C   UNL A   1      38.453  30.403  29.504  1.00  0.00     0.029 A 
ATOM     53  C   UNL A   1      38.674  30.911  30.855  1.00  0.00     0.049 A 
ATOM     54  H   UNL A   1      40.133  30.301  32.213  1.00  0.00     0.167 HD
ATOM     55  C   UNL A   1      43.451  29.206  34.822  1.00  0.00     0.031 A 
ATOM     56  C   UNL A   1      37.939  31.873  31.449  1.00  0.00     0.031 A 
ATOM     57  C   UNL A   1      42.703  30.196  35.551  1.00  0.00     0.049 A 
ATOM     58  C   UNL A   1      38.280  32.302  32.847  1.00  0.00     0.074 A 
ATOM     59  C   UNL A   1      42.957  30.706  36.812  1.00  0.00     0.029 A 
ATOM     60  N   UNL A   1      41.559  30.830  35.088  1.00  0.00    -0.354 N 
ATOM     61  N   UNL A   1      39.278  31.912  33.602  1.00  0.00    -0.248 NA
ATOM     62  C   UNL A   1      37.395  33.292  33.475  1.00  0.00     0.031 C 
ATOM     63  C   UNL A   1      41.940  31.607  37.134  1.00  0.00     0.029 A 
ATOM     64  C   UNL A   1      41.086  31.710  36.047  1.00  0.00     0.049 A 
ATOM     65  H   UNL A   1      41.145  30.677  34.207  1.00  0.00     0.167 HD
ATOM     66  C   UNL A   1      39.145  32.611  34.795  1.00  0.00     0.074 A 
ATOM     67  C   UNL A   1      37.982  33.463  34.655  1.00  0.00     0.031 C 
ATOM     68  C   UNL A   1      39.919  32.546  35.905  1.00  0.00     0.031 A 
BRANCH  55  69
ATOM     69  C   UNL A   1      44.680  28.631  35.479  1.00  0.00    -0.014 A 
ATOM     70  C   UNL A   1      44.569  27.502  36.311  1.00  0.00     0.010 A 
ATOM     71  C   UNL A   1      45.931  29.262  35.348  1.00  0.00     0.010 A 
ATOM     72  C   UNL A   1      45.679  27.022  37.012  1.00  0.00     0.020 A 
ATOM     73  C   UNL A   1      47.050  28.770  36.026  1.00  0.00     0.020 A 
ATOM     74  C   UNL A   1      46.913  27.664  36.869  1.00  0.00     0.054 A 
BRANCH  74  75
ATOM     75  S   UNL A   1      48.347  27.024  37.776  1.00  0.00     0.124 S 
ATOM     76  O   UNL A   1      48.556  28.053  38.789  1.00  0.00    -0.237 OA
ATOM     77  O   UNL A   1      47.866  25.736  38.274  1.00  0.00    -0.237 OA
ATOM     78  O   UNL A   1      49.384  26.933  36.750  1.00  0.00    -0.744 OA
ENDBRANCH  74  75
ENDBRANCH  55  69
BRANCH  56  79
ATOM     79  C   UNL A   1      36.830  32.505  30.683  1.00  0.00    -0.014 A 
ATOM     80  C   UNL A   1      37.062  33.662  29.916  1.00  0.00     0.010 A 
ATOM     81  C   UNL A   1      35.517  32.021  30.815  1.00  0.00     0.010 A 
ATOM     82  C   UNL A   1      35.993  34.367  29.359  1.00  0.00     0.020 A 
ATOM     83  C   UNL A   1      34.448  32.710  30.234  1.00  0.00     0.020 A 
ATOM     84  C   UNL A   1      34.690  33.897  29.541  1.00  0.00     0.054 A 
BRANCH  84  85
ATOM     85  S   UNL A   1      33.310  34.875  28.886  1.00  0.00     0.124 S 
ATOM     86  O   UNL A   1      32.560  35.182  30.102  1.00  0.00    -0.237 OA
ATOM     87  O   UNL A   1      33.987  36.009  28.262  1.00  0.00    -0.237 OA
ATOM     88  O   UNL A   1      32.651  33.958  27.960  1.00  0.00    -0.744 OA
ENDBRANCH  84  85
ENDBRANCH  56  79
BRANCH  68  89
ATOM     89  C   UNL A   1      39.548  33.408  37.083  1.00  0.00    -0.014 A 
ATOM     90  C   UNL A   1      40.070  34.711  37.186  1.00  0.00     0.010 A 
ATOM     91  C   UNL A   1      38.798  32.881  38.149  1.00  0.00     0.010 A 
ATOM     92  C   UNL A   1      39.881  35.459  38.350  1.00  0.00     0.020 A 
ATOM     93  C   UNL A   1      38.586  33.638  39.306  1.00  0.00     0.020 A 
ATOM     94  C   UNL A   1      39.151  34.911  39.409  1.00  0.00     0.054 A 
BRANCH  94  95
ATOM     95  S   UNL A   1      38.953  35.880  40.930  1.00  0.00     0.124 S 
ATOM     96  O   UNL A   1      40.063  35.399  41.748  1.00  0.00    -0.237 OA
ATOM     97  O   UNL A   1      39.072  37.256  40.454  1.00  0.00    -0.237 OA
ATOM     98  O   UNL A   1      37.621  35.507  41.401  1.00  0.00    -0.744 OA
ENDBRANCH  94  95
ENDBRANCH  68  89
ENDBRANCH  42  43
ENDBRANCH  34  37
ENDBRANCH  32  33
ENDBRANCH  31  32
ENDBRANCH  30  31
ENDBRANCH   1  30
TORSDOF 19
ENDMDL
MODEL 2
REMARK VINA RESULT:     -11.3      5.444     10.435
REMARK SMILES CCOc1ccc2[nH]c(C)c/c(=N\c3cccc(C(=O)NCCCCCCNC(=O)c4ccc(-c5c6nc(c(-c7ccc(S(=O)(=O)[O-])cc7)c7ccc([nH]7)c(-c7ccc(S(=O)(=O)[O-])cc7)c7nc(c(-c8ccc(S(=O)(=O)[O-])cc8)c8ccc5[nH]8)C=C7)C=C6)cc4)c3)c2c1
REMARK SMILES IDX 24 1 23 2 22 3 21 4 19 5 20 6 18 8 14 9 15 10 91 11 16 12
REMARK SMILES IDX 17 13 13 14 4 15 5 16 93 17 6 18 92 19 7 20 12 21 8 22 11 23
REMARK SMILES IDX 9 24 10 26 3 27 2 28 1 29 25 30 26 31 27 32 28 33 29 34
REMARK SMILES IDX 30 36 31 37 32 38 90 39 33 40 89 41 34 42 35 43 36 44 83 45
REMARK SMILES IDX 37 46 88 47 82 48 84 49 38 50 87 51 81 52 80 53 39 55 69 56
REMARK SMILES IDX 50 57 68 58 51 59 54 60 67 61 85 62 52 63 53 64 66 66 86 67
REMARK SMILES IDX 55 68 40 69 41 70 49 71 42 72 48 73 43 74 44 75 45 76 46 77
REMARK SMILES IDX 47 78 70 79 71 80 79 81 72 82 78 83 73 84 74 85 75 86 76 87
REMARK SMILES IDX 77 88 56 89 57 90 65 91 58 92 64 93 59 94 60 95 61 96 62 97
REMARK SMILES IDX 63 98
REMARK H PARENT 21 7 8 25 28 35 84 54 54 65
REMARK Flexibility Score: inf
ROOT
ATOM      1  C   UNL A   1      35.669  21.939  24.529  1.00  0.00     0.002 C 
ENDROOT
BRANCH   1   2
ATOM      2  C   UNL A   1      34.900  21.334  25.704  1.00  0.00     0.021 C 
BRANCH   2   3
ATOM      3  C   UNL A   1      34.044  22.271  26.546  1.00  0.00     0.116 C 
BRANCH   3   4
ATOM      4  N   UNL A   1      32.629  21.955  26.556  1.00  0.00    -0.352 N 
ATOM      5  C   UNL A   1      31.601  22.353  25.731  1.00  0.00     0.251 C 
ATOM      6  O   UNL A   1      30.473  21.923  25.975  1.00  0.00    -0.269 OA
ATOM      7  H   UNL A   1      32.355  21.347  27.281  1.00  0.00     0.163 HD
BRANCH   5   8
ATOM      8  C   UNL A   1      31.777  23.317  24.606  1.00  0.00     0.041 A 
ATOM      9  C   UNL A   1      31.408  25.454  23.512  1.00  0.00     0.064 A 
ATOM     10  C   UNL A   1      32.042  24.981  22.359  1.00  0.00     0.028 A 
ATOM     11  C   UNL A   1      31.385  24.654  24.656  1.00  0.00     0.042 A 
ATOM     12  C   UNL A   1      32.520  23.672  22.313  1.00  0.00     0.003 A 
ATOM     13  C   UNL A   1      32.361  22.836  23.422  1.00  0.00     0.014 A 
BRANCH   9  14
ATOM     14  N   UNL A   1      30.719  26.677  23.552  1.00  0.00    -0.248 NA
ATOM     15  C   UNL A   1      28.864  30.513  23.216  1.00  0.00     0.120 A 
ATOM     16  C   UNL A   1      29.309  31.532  24.056  1.00  0.00     0.048 A 
ATOM     17  C   UNL A   1      29.464  29.253  23.252  1.00  0.00     0.059 A 
ATOM     18  C   UNL A   1      30.410  31.324  24.885  1.00  0.00     0.030 A 
ATOM     19  C   UNL A   1      30.564  29.039  24.094  1.00  0.00     0.027 A 
ATOM     20  C   UNL A   1      31.053  30.085  24.901  1.00  0.00     0.048 A 
ATOM     21  C   UNL A   1      31.261  27.709  24.141  1.00  0.00     0.075 A 
ATOM     22  N   UNL A   1      32.188  29.899  25.699  1.00  0.00    -0.359 N 
ATOM     23  C   UNL A   1      32.572  27.701  24.885  1.00  0.00     0.050 A 
ATOM     24  C   UNL A   1      32.934  28.750  25.640  1.00  0.00     0.014 A 
ATOM     25  H   UNL A   1      32.457  30.614  26.321  1.00  0.00     0.166 HD
ATOM     26  C   UNL A   1      34.188  28.709  26.468  1.00  0.00     0.064 C 
BRANCH  15  27
ATOM     27  O   UNL A   1      27.761  30.699  22.432  1.00  0.00    -0.494 OA
BRANCH  27  28
ATOM     28  C   UNL A   1      28.067  30.771  21.030  1.00  0.00     0.226 C 
ATOM     29  C   UNL A   1      27.925  32.184  20.485  1.00  0.00     0.049 C 
ENDBRANCH  27  28
ENDBRANCH  15  27
ENDBRANCH   9  14
ENDBRANCH   5   8
ENDBRANCH   3   4
ENDBRANCH   2   3
ENDBRANCH   1   2
BRANCH   1  30
ATOM     30  C   UNL A   1      37.186  22.072  24.668  1.00  0.00     0.002 C 
BRANCH  30  31
ATOM     31  C   UNL A   1      37.964  20.814  25.050  1.00  0.00     0.021 C 
BRANCH  31  32
ATOM     32  C   UNL A   1      39.228  21.016  25.876  1.00  0.00     0.116 C 
BRANCH  32  33
ATOM     33  N   UNL A   1      40.065  19.832  25.976  1.00  0.00    -0.352 N 
ATOM     34  C   UNL A   1      41.423  19.740  26.196  1.00  0.00     0.251 C 
ATOM     35  H   UNL A   1      39.595  18.973  25.873  1.00  0.00     0.163 HD
ATOM     36  O   UNL A   1      41.975  18.646  26.182  1.00  0.00    -0.269 OA
BRANCH  34  37
ATOM     37  C   UNL A   1      42.222  20.972  26.400  1.00  0.00     0.039 A 
ATOM     38  C   UNL A   1      42.539  21.424  27.682  1.00  0.00     0.014 A 
ATOM     39  C   UNL A   1      42.624  21.709  25.281  1.00  0.00     0.014 A 
ATOM     40  C   UNL A   1      43.095  22.690  27.851  1.00  0.00     0.010 A 
ATOM     41  C   UNL A   1      43.256  22.946  25.451  1.00  0.00     0.010 A 
ATOM     42  C   UNL A   1      43.445  23.473  26.737  1.00  0.00    -0.014 A 
BRANCH  42  43
ATOM     43  C   UNL A   1      43.986  24.844  26.941  1.00  0.00     0.031 A 
ATOM     44  C   UNL A   1      43.131  25.926  27.549  1.00  0.00     0.074 A 
ATOM     45  C   UNL A   1      45.276  25.099  26.646  1.00  0.00     0.049 A 
ATOM     46  N   UNL A   1      43.452  27.161  27.840  1.00  0.00    -0.248 NA
ATOM     47  C   UNL A   1      41.739  25.579  27.880  1.00  0.00     0.031 C 
ATOM     48  C   UNL A   1      46.216  24.126  26.090  1.00  0.00     0.029 A 
ATOM     49  N   UNL A   1      46.029  26.236  26.806  1.00  0.00    -0.354 N 
ATOM     50  C   UNL A   1      42.308  27.739  28.378  1.00  0.00     0.074 A 
ATOM     51  C   UNL A   1      41.272  26.731  28.343  1.00  0.00     0.031 C 
ATOM     52  C   UNL A   1      47.434  24.682  26.022  1.00  0.00     0.029 A 
ATOM     53  C   UNL A   1      47.350  26.072  26.463  1.00  0.00     0.049 A 
ATOM     54  H   UNL A   1      45.658  27.087  27.135  1.00  0.00     0.167 HD
ATOM     55  C   UNL A   1      42.139  28.989  28.870  1.00  0.00     0.031 A 
ATOM     56  C   UNL A   1      48.385  26.937  26.493  1.00  0.00     0.031 A 
ATOM     57  C   UNL A   1      43.170  29.993  28.901  1.00  0.00     0.049 A 
ATOM     58  C   UNL A   1      48.157  28.341  26.972  1.00  0.00     0.074 A 
ATOM     59  C   UNL A   1      43.089  31.292  29.373  1.00  0.00     0.029 A 
ATOM     60  N   UNL A   1      44.470  29.813  28.451  1.00  0.00    -0.354 N 
ATOM     61  N   UNL A   1      47.060  28.872  27.456  1.00  0.00    -0.248 NA
ATOM     62  C   UNL A   1      49.297  29.264  26.903  1.00  0.00     0.031 C 
ATOM     63  C   UNL A   1      44.321  31.914  29.158  1.00  0.00     0.029 A 
ATOM     64  C   UNL A   1      45.192  30.984  28.613  1.00  0.00     0.049 A 
ATOM     65  H   UNL A   1      44.826  28.977  28.071  1.00  0.00     0.167 HD
ATOM     66  C   UNL A   1      47.379  30.191  27.755  1.00  0.00     0.074 A 
ATOM     67  C   UNL A   1      48.775  30.373  27.415  1.00  0.00     0.031 C 
ATOM     68  C   UNL A   1      46.580  31.162  28.261  1.00  0.00     0.031 A 
BRANCH  55  69
ATOM     69  C   UNL A   1      40.784  29.359  29.417  1.00  0.00    -0.014 A 
ATOM     70  C   UNL A   1      39.727  29.651  28.536  1.00  0.00     0.010 A 
ATOM     71  C   UNL A   1      40.580  29.508  30.801  1.00  0.00     0.010 A 
ATOM     72  C   UNL A   1      38.496  30.099  29.024  1.00  0.00     0.020 A 
ATOM     73  C   UNL A   1      39.342  29.930  31.296  1.00  0.00     0.020 A 
ATOM     74  C   UNL A   1      38.314  30.241  30.402  1.00  0.00     0.054 A 
BRANCH  74  75
ATOM     75  S   UNL A   1      36.708  30.813  31.023  1.00  0.00     0.124 S 
ATOM     76  O   UNL A   1      36.149  31.489  29.856  1.00  0.00    -0.237 OA
ATOM     77  O   UNL A   1      36.048  29.566  31.407  1.00  0.00    -0.237 OA
ATOM     78  O   UNL A   1      37.066  31.684  32.140  1.00  0.00    -0.744 OA
ENDBRANCH  74  75
ENDBRANCH  55  69
BRANCH  56  79
ATOM     79  C   UNL A   1      49.732  26.459  26.079  1.00  0.00    -0.014 A 
ATOM     80  C   UNL A   1      50.583  25.832  27.008  1.00  0.00     0.010 A 
ATOM     81  C   UNL A   1      50.213  26.738  24.788  1.00  0.00     0.010 A 
ATOM     82  C   UNL A   1      51.913  25.561  26.679  1.00  0.00     0.020 A 
ATOM     83  C   UNL A   1      51.537  26.442  24.447  1.00  0.00     0.020 A 
ATOM     84  C   UNL A   1      52.387  25.888  25.407  1.00  0.00     0.054 A 
BRANCH  84  85
ATOM     85  S   UNL A   1      54.139  25.612  25.030  1.00  0.00     0.124 S 
ATOM     86  O   UNL A   1      54.270  26.262  23.728  1.00  0.00    -0.237 OA
ATOM     87  O   UNL A   1      54.815  26.281  26.138  1.00  0.00    -0.237 OA
ATOM     88  O   UNL A   1      54.260  24.156  25.016  1.00  0.00    -0.744 OA
ENDBRANCH  84  85
ENDBRANCH  56  79
BRANCH  68  89
ATOM     89  C   UNL A   1      47.173  32.528  28.482  1.00  0.00    -0.014 A 
ATOM     90  C   UNL A   1      47.259  33.432  27.407  1.00  0.00     0.010 A 
ATOM     91  C   UNL A   1      47.766  32.862  29.712  1.00  0.00     0.010 A 
ATOM     92  C   UNL A   1      47.962  34.632  27.547  1.00  0.00     0.020 A 
ATOM     93  C   UNL A   1      48.448  34.074  29.862  1.00  0.00     0.020 A 
ATOM     94  C   UNL A   1      48.564  34.938  28.770  1.00  0.00     0.054 A 
BRANCH  94  95
ATOM     95  S   UNL A   1      49.508  36.480  28.921  1.00  0.00     0.124 S 
ATOM     96  O   UNL A   1      50.664  36.056  29.705  1.00  0.00    -0.237 OA
ATOM     97  O   UNL A   1      49.784  36.826  27.528  1.00  0.00    -0.237 OA
ATOM     98  O   UNL A   1      48.585  37.381  29.605  1.00  0.00    -0.744 OA
ENDBRANCH  94  95
ENDBRANCH  68  89
ENDBRANCH  42  43
ENDBRANCH  34  37
ENDBRANCH  32  33
ENDBRANCH  31  32
ENDBRANCH  30  31
ENDBRANCH   1  30
TORSDOF 19
ENDMDL
MODEL 3
REMARK VINA RESULT:     -11.1      4.441      8.572
REMARK SMILES CCOc1ccc2[nH]c(C)c/c(=N\c3cccc(C(=O)NCCCCCCNC(=O)c4ccc(-c5c6nc(c(-c7ccc(S(=O)(=O)[O-])cc7)c7ccc([nH]7)c(-c7ccc(S(=O)(=O)[O-])cc7)c7nc(c(-c8ccc(S(=O)(=O)[O-])cc8)c8ccc5[nH]8)C=C7)C=C6)cc4)c3)c2c1
REMARK SMILES IDX 24 1 23 2 22 3 21 4 19 5 20 6 18 8 14 9 15 10 91 11 16 12
REMARK SMILES IDX 17 13 13 14 4 15 5 16 93 17 6 18 92 19 7 20 12 21 8 22 11 23
REMARK SMILES IDX 9 24 10 26 3 27 2 28 1 29 25 30 26 31 27 32 28 33 29 34
REMARK SMILES IDX 30 36 31 37 32 38 90 39 33 40 89 41 34 42 35 43 36 44 83 45
REMARK SMILES IDX 37 46 88 47 82 48 84 49 38 50 87 51 81 52 80 53 39 55 69 56
REMARK SMILES IDX 50 57 68 58 51 59 54 60 67 61 85 62 52 63 53 64 66 66 86 67
REMARK SMILES IDX 55 68 40 69 41 70 49 71 42 72 48 73 43 74 44 75 45 76 46 77
REMARK SMILES IDX 47 78 70 79 71 80 79 81 72 82 78 83 73 84 74 85 75 86 76 87
REMARK SMILES IDX 77 88 56 89 57 90 65 91 58 92 64 93 59 94 60 95 61 96 62 97
REMARK SMILES IDX 63 98
REMARK H PARENT 21 7 8 25 28 35 84 54 54 65
REMARK Flexibility Score: inf
ROOT
ATOM      1  C   UNL A   1      43.761  23.620  28.836  1.00  0.00     0.002 C 
ENDROOT
BRANCH   1   2
ATOM      2  C   UNL A   1      43.949  23.328  30.326  1.00  0.00     0.021 C 
BRANCH   2   3
ATOM      3  C   UNL A   1      44.344  24.489  31.230  1.00  0.00     0.116 C 
BRANCH   3   4
ATOM      4  N   UNL A   1      45.207  24.128  32.337  1.00  0.00    -0.352 N 
ATOM      5  C   UNL A   1      45.019  24.202  33.699  1.00  0.00     0.251 C 
ATOM      6  O   UNL A   1      45.939  23.820  34.425  1.00  0.00    -0.269 OA
ATOM      7  H   UNL A   1      46.082  23.766  32.067  1.00  0.00     0.163 HD
BRANCH   5   8
ATOM      8  C   UNL A   1      43.794  24.774  34.330  1.00  0.00     0.041 A 
ATOM      9  C   UNL A   1      42.359  26.622  34.981  1.00  0.00     0.064 A 
ATOM     10  C   UNL A   1      41.536  25.742  35.690  1.00  0.00     0.028 A 
ATOM     11  C   UNL A   1      43.411  26.110  34.219  1.00  0.00     0.042 A 
ATOM     12  C   UNL A   1      41.850  24.385  35.746  1.00  0.00     0.003 A 
ATOM     13  C   UNL A   1      42.991  23.910  35.093  1.00  0.00     0.014 A 
BRANCH   9  14
ATOM     14  N   UNL A   1      42.225  28.018  35.060  1.00  0.00    -0.248 NA
ATOM     15  C   UNL A   1      41.522  32.180  35.734  1.00  0.00     0.120 A 
ATOM     16  C   UNL A   1      40.632  32.840  34.889  1.00  0.00     0.048 A 
ATOM     17  C   UNL A   1      41.755  30.811  35.588  1.00  0.00     0.059 A 
ATOM     18  C   UNL A   1      39.909  32.122  33.938  1.00  0.00     0.030 A 
ATOM     19  C   UNL A   1      41.037  30.090  34.625  1.00  0.00     0.027 A 
ATOM     20  C   UNL A   1      40.094  30.744  33.807  1.00  0.00     0.048 A 
ATOM     21  C   UNL A   1      41.232  28.611  34.454  1.00  0.00     0.075 A 
ATOM     22  N   UNL A   1      39.328  30.022  32.884  1.00  0.00    -0.359 N 
ATOM     23  C   UNL A   1      40.216  27.930  33.572  1.00  0.00     0.050 A 
ATOM     24  C   UNL A   1      39.371  28.653  32.821  1.00  0.00     0.014 A 
ATOM     25  H   UNL A   1      38.741  30.512  32.263  1.00  0.00     0.166 HD
ATOM     26  C   UNL A   1      38.427  27.985  31.860  1.00  0.00     0.064 C 
BRANCH  15  27
ATOM     27  O   UNL A   1      42.263  32.885  36.640  1.00  0.00    -0.494 OA
BRANCH  27  28
ATOM     28  C   UNL A   1      42.309  34.293  36.363  1.00  0.00     0.226 C 
ATOM     29  C   UNL A   1      42.111  35.130  37.617  1.00  0.00     0.049 C 
ENDBRANCH  27  28
ENDBRANCH  15  27
ENDBRANCH   9  14
ENDBRANCH   5   8
ENDBRANCH   3   4
ENDBRANCH   2   3
ENDBRANCH   1   2
BRANCH   1  30
ATOM     30  C   UNL A   1      43.580  22.427  27.898  1.00  0.00     0.002 C 
BRANCH  30  31
ATOM     31  C   UNL A   1      42.336  22.420  27.011  1.00  0.00     0.021 C 
BRANCH  31  32
ATOM     32  C   UNL A   1      41.112  21.695  27.555  1.00  0.00     0.116 C 
BRANCH  32  33
ATOM     33  N   UNL A   1      39.988  21.658  26.634  1.00  0.00    -0.352 N 
ATOM     34  C   UNL A   1      39.148  22.679  26.244  1.00  0.00     0.251 C 
ATOM     35  H   UNL A   1      39.801  20.779  26.232  1.00  0.00     0.163 HD
ATOM     36  O   UNL A   1      38.201  22.444  25.502  1.00  0.00    -0.269 OA
BRANCH  34  37
ATOM     37  C   UNL A   1      39.362  24.050  26.764  1.00  0.00     0.039 A 
ATOM     38  C   UNL A   1      40.026  25.016  26.004  1.00  0.00     0.014 A 
ATOM     39  C   UNL A   1      38.923  24.359  28.055  1.00  0.00     0.014 A 
ATOM     40  C   UNL A   1      40.407  26.218  26.595  1.00  0.00     0.010 A 
ATOM     41  C   UNL A   1      39.237  25.600  28.619  1.00  0.00     0.010 A 
ATOM     42  C   UNL A   1      40.031  26.518  27.916  1.00  0.00    -0.014 A 
BRANCH  42  43
ATOM     43  C   UNL A   1      40.495  27.784  28.545  1.00  0.00     0.031 A 
ATOM     44  C   UNL A   1      41.953  27.994  28.866  1.00  0.00     0.074 A 
ATOM     45  C   UNL A   1      39.614  28.780  28.761  1.00  0.00     0.049 A 
ATOM     46  N   UNL A   1      42.539  29.049  29.372  1.00  0.00    -0.248 NA
ATOM     47  C   UNL A   1      42.874  26.882  28.577  1.00  0.00     0.031 C 
ATOM     48  C   UNL A   1      38.184  28.713  28.457  1.00  0.00     0.029 A 
ATOM     49  N   UNL A   1      39.792  30.050  29.250  1.00  0.00    -0.354 N 
ATOM     50  C   UNL A   1      43.888  28.729  29.470  1.00  0.00     0.074 A 
ATOM     51  C   UNL A   1      44.032  27.368  29.002  1.00  0.00     0.031 C 
ATOM     52  C   UNL A   1      37.629  29.910  28.697  1.00  0.00     0.029 A 
ATOM     53  C   UNL A   1      38.645  30.809  29.238  1.00  0.00     0.049 A 
ATOM     54  H   UNL A   1      40.657  30.386  29.577  1.00  0.00     0.167 HD
ATOM     55  C   UNL A   1      44.916  29.502  29.894  1.00  0.00     0.031 A 
ATOM     56  C   UNL A   1      38.425  32.084  29.619  1.00  0.00     0.031 A 
ATOM     57  C   UNL A   1      44.771  30.856  30.362  1.00  0.00     0.049 A 
ATOM     58  C   UNL A   1      39.565  32.898  30.158  1.00  0.00     0.074 A 
ATOM     59  C   UNL A   1      45.755  31.714  30.821  1.00  0.00     0.029 A 
ATOM     60  N   UNL A   1      43.573  31.552  30.426  1.00  0.00    -0.354 N 
ATOM     61  N   UNL A   1      40.829  32.567  30.262  1.00  0.00    -0.248 NA
ATOM     62  C   UNL A   1      39.252  34.251  30.638  1.00  0.00     0.031 C 
ATOM     63  C   UNL A   1      45.146  32.908  31.214  1.00  0.00     0.029 A 
ATOM     64  C   UNL A   1      43.791  32.820  30.938  1.00  0.00     0.049 A 
ATOM     65  H   UNL A   1      42.697  31.197  30.148  1.00  0.00     0.167 HD
ATOM     66  C   UNL A   1      41.466  33.672  30.815  1.00  0.00     0.074 A 
ATOM     67  C   UNL A   1      40.451  34.688  31.006  1.00  0.00     0.031 C 
ATOM     68  C   UNL A   1      42.773  33.823  31.137  1.00  0.00     0.031 A 
BRANCH  55  69
ATOM     69  C   UNL A   1      46.301  28.908  29.883  1.00  0.00    -0.014 A 
ATOM     70  C   UNL A   1      47.092  28.992  28.722  1.00  0.00     0.010 A 
ATOM     71  C   UNL A   1      46.786  28.186  30.989  1.00  0.00     0.010 A 
ATOM     72  C   UNL A   1      48.334  28.354  28.660  1.00  0.00     0.020 A 
ATOM     73  C   UNL A   1      48.040  27.568  30.941  1.00  0.00     0.020 A 
ATOM     74  C   UNL A   1      48.798  27.641  29.769  1.00  0.00     0.054 A 
BRANCH  74  75
ATOM     75  S   UNL A   1      50.416  26.827  29.677  1.00  0.00     0.124 S 
ATOM     76  O   UNL A   1      51.128  27.662  28.716  1.00  0.00    -0.237 OA
ATOM     77  O   UNL A   1      50.894  26.903  31.057  1.00  0.00    -0.237 OA
ATOM     78  O   UNL A   1      50.092  25.478  29.217  1.00  0.00    -0.744 OA
ENDBRANCH  74  75
ENDBRANCH  55  69
BRANCH  56  79
ATOM     79  C   UNL A   1      37.060  32.655  29.462  1.00  0.00    -0.014 A 
ATOM     80  C   UNL A   1      36.640  33.170  28.221  1.00  0.00     0.010 A 
ATOM     81  C   UNL A   1      36.220  32.794  30.581  1.00  0.00     0.010 A 
ATOM     82  C   UNL A   1      35.442  33.880  28.118  1.00  0.00     0.020 A 
ATOM     83  C   UNL A   1      35.007  33.480  30.474  1.00  0.00     0.020 A 
ATOM     84  C   UNL A   1      34.644  34.049  29.251  1.00  0.00     0.054 A 
BRANCH  84  85
ATOM     85  S   UNL A   1      33.138  35.051  29.117  1.00  0.00     0.124 S 
ATOM     86  O   UNL A   1      33.679  36.351  28.726  1.00  0.00    -0.237 OA
ATOM     87  O   UNL A   1      32.378  34.351  28.085  1.00  0.00    -0.237 OA
ATOM     88  O   UNL A   1      32.566  34.989  30.459  1.00  0.00    -0.744 OA
ENDBRANCH  84  85
ENDBRANCH  56  79
BRANCH  68  89
ATOM     89  C   UNL A   1      43.210  35.131  31.743  1.00  0.00    -0.014 A 
ATOM     90  C   UNL A   1      43.060  35.342  33.126  1.00  0.00     0.010 A 
ATOM     91  C   UNL A   1      43.637  36.193  30.926  1.00  0.00     0.010 A 
ATOM     92  C   UNL A   1      43.294  36.604  33.678  1.00  0.00     0.020 A 
ATOM     93  C   UNL A   1      43.895  37.451  31.481  1.00  0.00     0.020 A 
ATOM     94  C   UNL A   1      43.696  37.654  32.848  1.00  0.00     0.054 A 
BRANCH  94  95
ATOM     95  S   UNL A   1      43.953  39.297  33.575  1.00  0.00     0.124 S 
ATOM     96  O   UNL A   1      42.782  40.028  33.101  1.00  0.00    -0.237 OA
ATOM     97  O   UNL A   1      43.981  39.014  35.008  1.00  0.00    -0.237 OA
ATOM     98  O   UNL A   1      45.229  39.725  33.009  1.00  0.00    -0.744 OA
ENDBRANCH  94  95
ENDBRANCH  68  89
ENDBRANCH  42  43
ENDBRANCH  34  37
ENDBRANCH  32  33
ENDBRANCH  31  32
ENDBRANCH  30  31
ENDBRANCH   1  30
TORSDOF 19
ENDMDL
