MODEL 1
REMARK VINA RESULT:     -11.1      0.000      0.000
REMARK SMILES C[C@@H]1OCC[C@@H]1C(=O)Nc1ccc(C(=O)NCCCCCCNC(=O)c2ccc(-c3c4nc(c(-c5ccc(S(=O)(=O)[O-])cc5)c5ccc([nH]5)c(-c5ccc(S(=O)(=O)[O-])cc5)c5nc(c(-c6ccc(S(=O)(=O)[O-])cc6)c6ccc3[nH]6)C=C5)C=C4)cc2)cc1F
REMARK SMILES IDX 20 1 19 2 18 3 17 4 16 5 14 6 15 7 13 9 10 10 11 11 87 12
REMARK SMILES IDX 12 13 86 14 88 15 9 16 7 17 8 18 6 20 1 21 2 22 3 23 4 24
REMARK SMILES IDX 5 25 21 26 22 27 23 28 24 29 25 31 26 32 27 33 85 34 28 35
REMARK SMILES IDX 84 36 29 37 30 38 31 39 78 40 32 41 83 42 77 43 79 44 33 45
REMARK SMILES IDX 82 46 76 47 75 48 34 50 64 51 45 52 63 53 46 54 49 55 62 56
REMARK SMILES IDX 80 57 47 58 48 59 61 61 81 62 50 63 35 64 36 65 44 66 37 67
REMARK SMILES IDX 43 68 38 69 39 70 40 71 41 72 42 73 65 74 66 75 74 76 67 77
REMARK SMILES IDX 73 78 68 79 69 80 70 81 71 82 72 83 51 84 52 85 60 86 53 87
REMARK SMILES IDX 59 88 54 89 55 90 56 91 57 92 58 93
REMARK H PARENT 16 8 9 19 23 30 79 49 49 60
REMARK Flexibility Score: inf
ROOT
ATOM      1  C   UNL A   1      41.667  22.101  26.866  1.00  0.00     0.002 C 
ENDROOT
BRANCH   1   2
ATOM      2  C   UNL A   1      40.180  21.864  27.153  1.00  0.00     0.002 C 
BRANCH   2   3
ATOM      3  C   UNL A   1      39.240  22.764  26.349  1.00  0.00     0.021 C 
BRANCH   3   4
ATOM      4  C   UNL A   1      38.019  21.998  25.815  1.00  0.00     0.116 C 
BRANCH   4   5
ATOM      5  N   UNL A   1      37.709  22.409  24.444  1.00  0.00    -0.352 N 
ATOM      6  C   UNL A   1      36.570  22.873  23.815  1.00  0.00     0.251 C 
ATOM      7  O   UNL A   1      36.630  23.151  22.619  1.00  0.00    -0.269 OA
ATOM      8  H   UNL A   1      38.480  22.339  23.837  1.00  0.00     0.163 HD
BRANCH   6   9
ATOM      9  C   UNL A   1      35.300  23.131  24.545  1.00  0.00     0.042 A 
ATOM     10  C   UNL A   1      32.801  24.041  25.534  1.00  0.00     0.077 A 
ATOM     11  C   UNL A   1      32.881  22.862  24.778  1.00  0.00     0.030 A 
ATOM     12  C   UNL A   1      33.998  24.707  25.731  1.00  0.00     0.147 A 
ATOM     13  C   UNL A   1      34.115  22.453  24.221  1.00  0.00     0.016 A 
ATOM     14  C   UNL A   1      35.220  24.139  25.467  1.00  0.00     0.055 A 
ATOM     15  F   UNL A   1      34.083  26.008  25.985  1.00  0.00    -0.205 F 
BRANCH  10  16
ATOM     16  N   UNL A   1      31.551  24.417  26.078  1.00  0.00    -0.323 N 
ATOM     17  C   UNL A   1      30.632  25.395  25.779  1.00  0.00     0.230 C 
ATOM     18  O   UNL A   1      29.695  25.538  26.571  1.00  0.00    -0.274 OA
ATOM     19  H   UNL A   1      31.279  23.854  26.840  1.00  0.00     0.170 HD
BRANCH  17  20
ATOM     20  C   UNL A   1      30.712  26.227  24.515  1.00  0.00     0.110 C 
ATOM     21  C   UNL A   1      31.574  28.279  25.853  1.00  0.00     0.039 C 
ATOM     22  C   UNL A   1      31.584  27.494  24.551  1.00  0.00     0.127 C 
ATOM     23  O   UNL A   1      31.089  28.355  23.500  1.00  0.00    -0.378 OA
ATOM     24  C   UNL A   1      29.957  27.708  22.903  1.00  0.00     0.161 C 
ATOM     25  C   UNL A   1      29.409  26.799  23.984  1.00  0.00     0.044 C 
ENDBRANCH  17  20
ENDBRANCH  10  16
ENDBRANCH   6   9
ENDBRANCH   4   5
ENDBRANCH   3   4
ENDBRANCH   2   3
ENDBRANCH   1   2
BRANCH   1  26
ATOM     26  C   UNL A   1      42.440  22.792  27.993  1.00  0.00     0.021 C 
BRANCH  26  27
ATOM     27  C   UNL A   1      43.230  24.017  27.548  1.00  0.00     0.116 C 
BRANCH  27  28
ATOM     28  N   UNL A   1      42.675  24.595  26.332  1.00  0.00    -0.352 N 
ATOM     29  C   UNL A   1      41.784  25.629  26.187  1.00  0.00     0.251 C 
ATOM     30  H   UNL A   1      42.986  24.185  25.492  1.00  0.00     0.163 HD
ATOM     31  O   UNL A   1      41.226  25.813  25.114  1.00  0.00    -0.269 OA
BRANCH  29  32
ATOM     32  C   UNL A   1      41.500  26.510  27.339  1.00  0.00     0.039 A 
ATOM     33  C   UNL A   1      40.484  26.161  28.230  1.00  0.00     0.014 A 
ATOM     34  C   UNL A   1      42.232  27.686  27.529  1.00  0.00     0.014 A 
ATOM     35  C   UNL A   1      40.237  26.967  29.343  1.00  0.00     0.010 A 
ATOM     36  C   UNL A   1      42.039  28.443  28.678  1.00  0.00     0.010 A 
ATOM     37  C   UNL A   1      41.033  28.099  29.591  1.00  0.00    -0.014 A 
BRANCH  37  38
ATOM     38  C   UNL A   1      40.826  28.938  30.797  1.00  0.00     0.031 A 
ATOM     39  C   UNL A   1      39.739  29.978  30.816  1.00  0.00     0.074 A 
ATOM     40  C   UNL A   1      41.654  28.805  31.851  1.00  0.00     0.049 A 
ATOM     41  N   UNL A   1      39.428  30.830  31.761  1.00  0.00    -0.248 NA
ATOM     42  C   UNL A   1      38.909  30.093  29.607  1.00  0.00     0.031 C 
ATOM     43  C   UNL A   1      42.765  27.855  31.938  1.00  0.00     0.029 A 
ATOM     44  N   UNL A   1      41.691  29.471  33.048  1.00  0.00    -0.354 N 
ATOM     45  C   UNL A   1      38.379  31.588  31.254  1.00  0.00     0.074 A 
ATOM     46  C   UNL A   1      38.149  31.138  29.899  1.00  0.00     0.031 C 
ATOM     47  C   UNL A   1      43.347  27.970  33.142  1.00  0.00     0.029 A 
ATOM     48  C   UNL A   1      42.683  29.032  33.892  1.00  0.00     0.049 A 
ATOM     49  H   UNL A   1      41.065  30.194  33.283  1.00  0.00     0.167 HD
ATOM     50  C   UNL A   1      37.657  32.557  31.868  1.00  0.00     0.031 A 
ATOM     51  C   UNL A   1      43.023  29.439  35.130  1.00  0.00     0.031 A 
ATOM     52  C   UNL A   1      37.901  33.009  33.213  1.00  0.00     0.049 A 
ATOM     53  C   UNL A   1      42.235  30.543  35.780  1.00  0.00     0.074 A 
ATOM     54  C   UNL A   1      37.202  33.954  33.944  1.00  0.00     0.029 A 
ATOM     55  N   UNL A   1      38.929  32.554  34.026  1.00  0.00    -0.354 N 
ATOM     56  N   UNL A   1      41.206  31.206  35.311  1.00  0.00    -0.248 NA
ATOM     57  C   UNL A   1      42.651  30.945  37.130  1.00  0.00     0.031 C 
ATOM     58  C   UNL A   1      37.846  34.113  35.177  1.00  0.00     0.029 A 
ATOM     59  C   UNL A   1      38.903  33.220  35.241  1.00  0.00     0.049 A 
ATOM     60  H   UNL A   1      39.581  31.860  33.777  1.00  0.00     0.167 HD
ATOM     61  C   UNL A   1      40.830  32.085  36.320  1.00  0.00     0.074 A 
ATOM     62  C   UNL A   1      41.738  31.859  37.428  1.00  0.00     0.031 C 
ATOM     63  C   UNL A   1      39.822  32.992  36.331  1.00  0.00     0.031 A 
BRANCH  50  64
ATOM     64  C   UNL A   1      36.555  33.205  31.067  1.00  0.00    -0.014 A 
ATOM     65  C   UNL A   1      36.836  33.939  29.899  1.00  0.00     0.010 A 
ATOM     66  C   UNL A   1      35.219  33.087  31.491  1.00  0.00     0.010 A 
ATOM     67  C   UNL A   1      35.814  34.604  29.215  1.00  0.00     0.020 A 
ATOM     68  C   UNL A   1      34.189  33.722  30.790  1.00  0.00     0.020 A 
ATOM     69  C   UNL A   1      34.498  34.500  29.672  1.00  0.00     0.054 A 
BRANCH  69  70
ATOM     70  S   UNL A   1      33.196  35.397  28.784  1.00  0.00     0.124 S 
ATOM     71  O   UNL A   1      33.975  36.322  27.964  1.00  0.00    -0.237 OA
ATOM     72  O   UNL A   1      32.515  34.332  28.052  1.00  0.00    -0.237 OA
ATOM     73  O   UNL A   1      32.412  36.016  29.849  1.00  0.00    -0.744 OA
ENDBRANCH  69  70
ENDBRANCH  50  64
BRANCH  51  74
ATOM     74  C   UNL A   1      44.138  28.762  35.847  1.00  0.00    -0.014 A 
ATOM     75  C   UNL A   1      45.452  29.249  35.728  1.00  0.00     0.010 A 
ATOM     76  C   UNL A   1      43.889  27.663  36.688  1.00  0.00     0.010 A 
ATOM     77  C   UNL A   1      46.496  28.649  36.438  1.00  0.00     0.020 A 
ATOM     78  C   UNL A   1      44.927  27.077  37.421  1.00  0.00     0.020 A 
ATOM     79  C   UNL A   1      46.225  27.572  37.287  1.00  0.00     0.054 A 
BRANCH  79  80
ATOM     80  S   UNL A   1      47.584  26.867  38.261  1.00  0.00     0.124 S 
ATOM     81  O   UNL A   1      48.458  28.020  38.446  1.00  0.00    -0.237 OA
ATOM     82  O   UNL A   1      46.896  26.394  39.461  1.00  0.00    -0.237 OA
ATOM     83  O   UNL A   1      48.111  25.811  37.398  1.00  0.00    -0.744 OA
ENDBRANCH  79  80
ENDBRANCH  51  74
BRANCH  63  84
ATOM     84  C   UNL A   1      39.623  33.792  37.593  1.00  0.00    -0.014 A 
ATOM     85  C   UNL A   1      38.779  33.341  38.622  1.00  0.00     0.010 A 
ATOM     86  C   UNL A   1      40.339  34.992  37.771  1.00  0.00     0.010 A 
ATOM     87  C   UNL A   1      38.630  34.090  39.793  1.00  0.00     0.020 A 
ATOM     88  C   UNL A   1      40.217  35.727  38.951  1.00  0.00     0.020 A 
ATOM     89  C   UNL A   1      39.351  35.278  39.951  1.00  0.00     0.054 A 
BRANCH  89  90
ATOM     90  S   UNL A   1      39.173  36.207  41.499  1.00  0.00     0.124 S 
ATOM     91  O   UNL A   1      40.412  35.874  42.197  1.00  0.00    -0.237 OA
ATOM     92  O   UNL A   1      39.065  37.587  41.032  1.00  0.00    -0.237 OA
ATOM     93  O   UNL A   1      37.956  35.660  42.094  1.00  0.00    -0.744 OA
ENDBRANCH  89  90
ENDBRANCH  63  84
ENDBRANCH  37  38
ENDBRANCH  29  32
ENDBRANCH  27  28
ENDBRANCH  26  27
ENDBRANCH   1  26
TORSDOF 18
ENDMDL
MODEL 2
REMARK VINA RESULT:     -10.9      4.620      9.970
REMARK SMILES C[C@@H]1OCC[C@@H]1C(=O)Nc1ccc(C(=O)NCCCCCCNC(=O)c2ccc(-c3c4nc(c(-c5ccc(S(=O)(=O)[O-])cc5)c5ccc([nH]5)c(-c5ccc(S(=O)(=O)[O-])cc5)c5nc(c(-c6ccc(S(=O)(=O)[O-])cc6)c6ccc3[nH]6)C=C5)C=C4)cc2)cc1F
REMARK SMILES IDX 20 1 19 2 18 3 17 4 16 5 14 6 15 7 13 9 10 10 11 11 87 12
REMARK SMILES IDX 12 13 86 14 88 15 9 16 7 17 8 18 6 20 1 21 2 22 3 23 4 24
REMARK SMILES IDX 5 25 21 26 22 27 23 28 24 29 25 31 26 32 27 33 85 34 28 35
REMARK SMILES IDX 84 36 29 37 30 38 31 39 78 40 32 41 83 42 77 43 79 44 33 45
REMARK SMILES IDX 82 46 76 47 75 48 34 50 64 51 45 52 63 53 46 54 49 55 62 56
REMARK SMILES IDX 80 57 47 58 48 59 61 61 81 62 50 63 35 64 36 65 44 66 37 67
REMARK SMILES IDX 43 68 38 69 39 70 40 71 41 72 42 73 65 74 66 75 74 76 67 77
REMARK SMILES IDX 73 78 68 79 69 80 70 81 71 82 72 83 51 84 52 85 60 86 53 87
REMARK SMILES IDX 59 88 54 89 55 90 56 91 57 92 58 93
REMARK H PARENT 16 8 9 19 23 30 79 49 49 60
REMARK Flexibility Score: inf
ROOT
ATOM      1  C   UNL A   1      33.336  28.116  24.655  1.00  0.00     0.002 C 
ENDROOT
BRANCH   1   2
ATOM      2  C   UNL A   1      31.845  28.058  25.011  1.00  0.00     0.002 C 
BRANCH   2   3
ATOM      3  C   UNL A   1      30.914  28.406  23.847  1.00  0.00     0.021 C 
BRANCH   3   4
ATOM      4  C   UNL A   1      30.594  27.182  22.974  1.00  0.00     0.116 C 
BRANCH   4   5
ATOM      5  N   UNL A   1      31.620  26.996  21.947  1.00  0.00    -0.352 N 
ATOM      6  C   UNL A   1      32.523  25.989  21.663  1.00  0.00     0.251 C 
ATOM      7  O   UNL A   1      33.271  26.126  20.697  1.00  0.00    -0.269 OA
ATOM      8  H   UNL A   1      31.683  27.754  21.323  1.00  0.00     0.163 HD
BRANCH   6   9
ATOM      9  C   UNL A   1      32.565  24.713  22.423  1.00  0.00     0.042 A 
ATOM     10  C   UNL A   1      32.080  22.239  23.727  1.00  0.00     0.077 A 
ATOM     11  C   UNL A   1      32.742  22.275  22.490  1.00  0.00     0.030 A 
ATOM     12  C   UNL A   1      31.682  23.466  24.226  1.00  0.00     0.147 A 
ATOM     13  C   UNL A   1      32.913  23.501  21.807  1.00  0.00     0.016 A 
ATOM     14  C   UNL A   1      32.132  24.660  23.721  1.00  0.00     0.055 A 
ATOM     15  F   UNL A   1      30.679  23.621  25.085  1.00  0.00    -0.205 F 
BRANCH  10  16
ATOM     16  N   UNL A   1      31.931  20.995  24.383  1.00  0.00    -0.323 N 
ATOM     17  C   UNL A   1      32.757  20.217  25.160  1.00  0.00     0.230 C 
ATOM     18  O   UNL A   1      32.344  19.091  25.454  1.00  0.00    -0.274 OA
ATOM     19  H   UNL A   1      31.039  20.598  24.255  1.00  0.00     0.170 HD
BRANCH  17  20
ATOM     20  C   UNL A   1      34.085  20.719  25.689  1.00  0.00     0.110 C 
ATOM     21  C   UNL A   1      32.885  22.355  27.310  1.00  0.00     0.039 C 
ATOM     22  C   UNL A   1      34.080  21.455  27.040  1.00  0.00     0.127 C 
ATOM     23  O   UNL A   1      35.274  22.271  27.060  1.00  0.00    -0.378 OA
ATOM     24  C   UNL A   1      35.934  22.110  25.797  1.00  0.00     0.161 C 
ATOM     25  C   UNL A   1      34.836  21.720  24.828  1.00  0.00     0.044 C 
ENDBRANCH  17  20
ENDBRANCH  10  16
ENDBRANCH   6   9
ENDBRANCH   4   5
ENDBRANCH   3   4
ENDBRANCH   2   3
ENDBRANCH   1   2
BRANCH   1  26
ATOM     26  C   UNL A   1      34.286  28.102  25.855  1.00  0.00     0.021 C 
BRANCH  26  27
ATOM     27  C   UNL A   1      33.612  28.406  27.188  1.00  0.00     0.116 C 
BRANCH  27  28
ATOM     28  N   UNL A   1      33.547  29.839  27.437  1.00  0.00    -0.352 N 
ATOM     29  C   UNL A   1      34.445  30.652  28.082  1.00  0.00     0.251 C 
ATOM     30  H   UNL A   1      32.742  30.290  27.092  1.00  0.00     0.163 HD
ATOM     31  O   UNL A   1      34.114  31.778  28.430  1.00  0.00    -0.269 OA
BRANCH  29  32
ATOM     32  C   UNL A   1      35.809  30.155  28.355  1.00  0.00     0.039 A 
ATOM     33  C   UNL A   1      36.776  30.233  27.350  1.00  0.00     0.014 A 
ATOM     34  C   UNL A   1      36.127  29.604  29.600  1.00  0.00     0.014 A 
ATOM     35  C   UNL A   1      38.078  29.803  27.614  1.00  0.00     0.010 A 
ATOM     36  C   UNL A   1      37.441  29.252  29.885  1.00  0.00     0.010 A 
ATOM     37  C   UNL A   1      38.428  29.337  28.893  1.00  0.00    -0.014 A 
BRANCH  37  38
ATOM     38  C   UNL A   1      39.818  28.929  29.212  1.00  0.00     0.031 A 
ATOM     39  C   UNL A   1      40.746  29.888  29.908  1.00  0.00     0.074 A 
ATOM     40  C   UNL A   1      40.263  27.719  28.823  1.00  0.00     0.049 A 
ATOM     41  N   UNL A   1      42.003  29.727  30.237  1.00  0.00    -0.248 NA
ATOM     42  C   UNL A   1      40.198  31.207  30.257  1.00  0.00     0.031 C 
ATOM     43  C   UNL A   1      39.468  26.715  28.112  1.00  0.00     0.029 A 
ATOM     44  N   UNL A   1      41.492  27.129  28.968  1.00  0.00    -0.354 N 
ATOM     45  C   UNL A   1      42.397  30.928  30.817  1.00  0.00     0.074 A 
ATOM     46  C   UNL A   1      41.265  31.825  30.737  1.00  0.00     0.031 C 
ATOM     47  C   UNL A   1      40.217  25.618  27.922  1.00  0.00     0.029 A 
ATOM     48  C   UNL A   1      41.556  25.857  28.451  1.00  0.00     0.049 A 
ATOM     49  H   UNL A   1      42.256  27.574  29.401  1.00  0.00     0.167 HD
ATOM     50  C   UNL A   1      43.585  31.248  31.385  1.00  0.00     0.031 A 
ATOM     51  C   UNL A   1      42.578  24.980  28.409  1.00  0.00     0.031 A 
ATOM     52  C   UNL A   1      44.710  30.353  31.449  1.00  0.00     0.049 A 
ATOM     53  C   UNL A   1      43.901  25.368  29.008  1.00  0.00     0.074 A 
ATOM     54  C   UNL A   1      45.945  30.562  32.038  1.00  0.00     0.029 A 
ATOM     55  N   UNL A   1      44.742  29.081  30.896  1.00  0.00    -0.354 N 
ATOM     56  N   UNL A   1      44.237  26.484  29.609  1.00  0.00    -0.248 NA
ATOM     57  C   UNL A   1      44.979  24.373  28.931  1.00  0.00     0.031 C 
ATOM     58  C   UNL A   1      46.743  29.440  31.788  1.00  0.00     0.029 A 
ATOM     59  C   UNL A   1      45.984  28.504  31.102  1.00  0.00     0.049 A 
ATOM     60  H   UNL A   1      43.992  28.651  30.425  1.00  0.00     0.167 HD
ATOM     61  C   UNL A   1      45.558  26.316  30.009  1.00  0.00     0.074 A 
ATOM     62  C   UNL A   1      45.953  24.985  29.590  1.00  0.00     0.031 C 
ATOM     63  C   UNL A   1      46.368  27.181  30.669  1.00  0.00     0.031 A 
BRANCH  50  64
ATOM     64  C   UNL A   1      43.722  32.638  31.954  1.00  0.00    -0.014 A 
ATOM     65  C   UNL A   1      44.183  33.708  31.164  1.00  0.00     0.010 A 
ATOM     66  C   UNL A   1      43.396  32.879  33.301  1.00  0.00     0.010 A 
ATOM     67  C   UNL A   1      44.387  34.971  31.727  1.00  0.00     0.020 A 
ATOM     68  C   UNL A   1      43.564  34.149  33.860  1.00  0.00     0.020 A 
ATOM     69  C   UNL A   1      44.086  35.181  33.075  1.00  0.00     0.054 A 
BRANCH  69  70
ATOM     70  S   UNL A   1      44.387  36.821  33.788  1.00  0.00     0.124 S 
ATOM     71  O   UNL A   1      45.624  37.217  33.120  1.00  0.00    -0.237 OA
ATOM     72  O   UNL A   1      43.194  37.566  33.392  1.00  0.00    -0.237 OA
ATOM     73  O   UNL A   1      44.507  36.560  35.221  1.00  0.00    -0.744 OA
ENDBRANCH  69  70
ENDBRANCH  50  64
BRANCH  51  74
ATOM     74  C   UNL A   1      42.367  23.634  27.810  1.00  0.00    -0.014 A 
ATOM     75  C   UNL A   1      42.788  23.373  26.494  1.00  0.00     0.010 A 
ATOM     76  C   UNL A   1      41.793  22.595  28.564  1.00  0.00     0.010 A 
ATOM     77  C   UNL A   1      42.640  22.097  25.943  1.00  0.00     0.020 A 
ATOM     78  C   UNL A   1      41.667  21.310  28.025  1.00  0.00     0.020 A 
ATOM     79  C   UNL A   1      42.088  21.071  26.715  1.00  0.00     0.054 A 
BRANCH  79  80
ATOM     80  S   UNL A   1      41.984  19.404  26.005  1.00  0.00     0.124 S 
ATOM     81  O   UNL A   1      42.519  18.579  27.084  1.00  0.00    -0.237 OA
ATOM     82  O   UNL A   1      40.552  19.262  25.749  1.00  0.00    -0.237 OA
ATOM     83  O   UNL A   1      42.818  19.489  24.808  1.00  0.00    -0.744 OA
ENDBRANCH  79  80
ENDBRANCH  51  74
BRANCH  63  84
ATOM     84  C   UNL A   1      47.757  26.708  31.009  1.00  0.00    -0.014 A 
ATOM     85  C   UNL A   1      48.851  26.981  30.169  1.00  0.00     0.010 A 
ATOM     86  C   UNL A   1      47.978  26.024  32.220  1.00  0.00     0.010 A 
ATOM     87  C   UNL A   1      50.134  26.550  30.518  1.00  0.00     0.020 A 
ATOM     88  C   UNL A   1      49.263  25.620  32.587  1.00  0.00     0.020 A 
ATOM     89  C   UNL A   1      50.333  25.874  31.726  1.00  0.00     0.054 A 
BRANCH  89  90
ATOM     90  S   UNL A   1      52.015  25.367  32.176  1.00  0.00     0.124 S 
ATOM     91  O   UNL A   1      51.866  23.924  32.334  1.00  0.00    -0.237 OA
ATOM     92  O   UNL A   1      52.799  25.797  31.021  1.00  0.00    -0.237 OA
ATOM     93  O   UNL A   1      52.281  26.105  33.410  1.00  0.00    -0.744 OA
ENDBRANCH  89  90
ENDBRANCH  63  84
ENDBRANCH  37  38
ENDBRANCH  29  32
ENDBRANCH  27  28
ENDBRANCH  26  27
ENDBRANCH   1  26
TORSDOF 18
ENDMDL
MODEL 3
REMARK VINA RESULT:     -10.7      6.066     11.792
REMARK SMILES C[C@@H]1OCC[C@@H]1C(=O)Nc1ccc(C(=O)NCCCCCCNC(=O)c2ccc(-c3c4nc(c(-c5ccc(S(=O)(=O)[O-])cc5)c5ccc([nH]5)c(-c5ccc(S(=O)(=O)[O-])cc5)c5nc(c(-c6ccc(S(=O)(=O)[O-])cc6)c6ccc3[nH]6)C=C5)C=C4)cc2)cc1F
REMARK SMILES IDX 20 1 19 2 18 3 17 4 16 5 14 6 15 7 13 9 10 10 11 11 87 12
REMARK SMILES IDX 12 13 86 14 88 15 9 16 7 17 8 18 6 20 1 21 2 22 3 23 4 24
REMARK SMILES IDX 5 25 21 26 22 27 23 28 24 29 25 31 26 32 27 33 85 34 28 35
REMARK SMILES IDX 84 36 29 37 30 38 31 39 78 40 32 41 83 42 77 43 79 44 33 45
REMARK SMILES IDX 82 46 76 47 75 48 34 50 64 51 45 52 63 53 46 54 49 55 62 56
REMARK SMILES IDX 80 57 47 58 48 59 61 61 81 62 50 63 35 64 36 65 44 66 37 67
REMARK SMILES IDX 43 68 38 69 39 70 40 71 41 72 42 73 65 74 66 75 74 76 67 77
REMARK SMILES IDX 73 78 68 79 69 80 70 81 71 82 72 83 51 84 52 85 60 86 53 87
REMARK SMILES IDX 59 88 54 89 55 90 56 91 57 92 58 93
REMARK H PARENT 16 8 9 19 23 30 79 49 49 60
REMARK Flexibility Score: inf
ROOT
ATOM      1  C   UNL A   1      35.580  32.522  27.775  1.00  0.00     0.002 C 
ENDROOT
BRANCH   1   2
ATOM      2  C   UNL A   1      34.649  31.318  27.961  1.00  0.00     0.002 C 
BRANCH   2   3
ATOM      3  C   UNL A   1      35.341  29.964  27.791  1.00  0.00     0.021 C 
BRANCH   3   4
ATOM      4  C   UNL A   1      34.470  28.958  27.022  1.00  0.00     0.116 C 
BRANCH   4   5
ATOM      5  N   UNL A   1      33.175  28.784  27.683  1.00  0.00    -0.352 N 
ATOM      6  C   UNL A   1      32.032  28.069  27.381  1.00  0.00     0.251 C 
ATOM      7  O   UNL A   1      31.084  28.118  28.164  1.00  0.00    -0.269 OA
ATOM      8  H   UNL A   1      33.101  29.286  28.526  1.00  0.00     0.163 HD
BRANCH   6   9
ATOM      9  C   UNL A   1      31.934  27.177  26.196  1.00  0.00     0.042 A 
ATOM     10  C   UNL A   1      32.271  25.284  24.110  1.00  0.00     0.077 A 
ATOM     11  C   UNL A   1      31.436  25.001  25.200  1.00  0.00     0.030 A 
ATOM     12  C   UNL A   1      32.907  26.512  24.149  1.00  0.00     0.147 A 
ATOM     13  C   UNL A   1      31.330  25.913  26.275  1.00  0.00     0.016 A 
ATOM     14  C   UNL A   1      32.552  27.510  25.021  1.00  0.00     0.055 A 
ATOM     15  F   UNL A   1      34.043  26.773  23.509  1.00  0.00    -0.205 F 
BRANCH  10  16
ATOM     16  N   UNL A   1      32.349  24.350  23.051  1.00  0.00    -0.323 N 
ATOM     17  C   UNL A   1      32.808  23.058  22.946  1.00  0.00     0.230 C 
ATOM     18  O   UNL A   1      32.865  22.579  21.808  1.00  0.00    -0.274 OA
ATOM     19  H   UNL A   1      31.996  24.702  22.201  1.00  0.00     0.170 HD
BRANCH  17  20
ATOM     20  C   UNL A   1      33.176  22.225  24.156  1.00  0.00     0.110 C 
ATOM     21  C   UNL A   1      35.703  22.696  23.783  1.00  0.00     0.039 C 
ATOM     22  C   UNL A   1      34.573  22.434  24.767  1.00  0.00     0.127 C 
ATOM     23  O   UNL A   1      34.880  21.225  25.497  1.00  0.00    -0.378 OA
ATOM     24  C   UNL A   1      33.795  20.308  25.301  1.00  0.00     0.161 C 
ATOM     25  C   UNL A   1      33.171  20.716  23.982  1.00  0.00     0.044 C 
ENDBRANCH  17  20
ENDBRANCH  10  16
ENDBRANCH   6   9
ENDBRANCH   4   5
ENDBRANCH   3   4
ENDBRANCH   2   3
ENDBRANCH   1   2
BRANCH   1  26
ATOM     26  C   UNL A   1      35.632  33.486  28.964  1.00  0.00     0.021 C 
BRANCH  26  27
ATOM     27  C   UNL A   1      36.727  33.169  29.976  1.00  0.00     0.116 C 
BRANCH  27  28
ATOM     28  N   UNL A   1      36.291  32.165  30.935  1.00  0.00    -0.352 N 
ATOM     29  C   UNL A   1      36.813  30.922  31.192  1.00  0.00     0.251 C 
ATOM     30  H   UNL A   1      35.508  32.414  31.479  1.00  0.00     0.163 HD
ATOM     31  O   UNL A   1      36.170  30.108  31.842  1.00  0.00    -0.269 OA
BRANCH  29  32
ATOM     32  C   UNL A   1      38.152  30.575  30.673  1.00  0.00     0.039 A 
ATOM     33  C   UNL A   1      39.190  30.330  31.575  1.00  0.00     0.014 A 
ATOM     34  C   UNL A   1      38.382  30.502  29.296  1.00  0.00     0.014 A 
ATOM     35  C   UNL A   1      40.447  29.961  31.094  1.00  0.00     0.010 A 
ATOM     36  C   UNL A   1      39.610  30.057  28.823  1.00  0.00     0.010 A 
ATOM     37  C   UNL A   1      40.659  29.793  29.715  1.00  0.00    -0.014 A 
BRANCH  37  38
ATOM     38  C   UNL A   1      41.971  29.346  29.185  1.00  0.00     0.031 A 
ATOM     39  C   UNL A   1      43.120  30.314  29.098  1.00  0.00     0.074 A 
ATOM     40  C   UNL A   1      42.110  28.088  28.725  1.00  0.00     0.049 A 
ATOM     41  N   UNL A   1      44.328  30.121  28.631  1.00  0.00    -0.248 NA
ATOM     42  C   UNL A   1      42.872  31.683  29.576  1.00  0.00     0.031 C 
ATOM     43  C   UNL A   1      41.059  27.067  28.725  1.00  0.00     0.029 A 
ATOM     44  N   UNL A   1      43.190  27.454  28.169  1.00  0.00    -0.354 N 
ATOM     45  C   UNL A   1      44.976  31.346  28.746  1.00  0.00     0.074 A 
ATOM     46  C   UNL A   1      44.010  32.287  29.267  1.00  0.00     0.031 C 
ATOM     47  C   UNL A   1      41.561  25.923  28.234  1.00  0.00     0.029 A 
ATOM     48  C   UNL A   1      42.949  26.141  27.841  1.00  0.00     0.049 A 
ATOM     49  H   UNL A   1      44.058  27.895  28.020  1.00  0.00     0.167 HD
ATOM     50  C   UNL A   1      46.265  31.655  28.464  1.00  0.00     0.031 A 
ATOM     51  C   UNL A   1      43.754  25.215  27.285  1.00  0.00     0.031 A 
ATOM     52  C   UNL A   1      47.218  30.715  27.934  1.00  0.00     0.049 A 
ATOM     53  C   UNL A   1      45.170  25.588  26.942  1.00  0.00     0.074 A 
ATOM     54  C   UNL A   1      48.558  30.913  27.652  1.00  0.00     0.029 A 
ATOM     55  N   UNL A   1      46.928  29.401  27.595  1.00  0.00    -0.354 N 
ATOM     56  N   UNL A   1      45.786  26.733  27.115  1.00  0.00    -0.248 NA
ATOM     57  C   UNL A   1      46.001  24.539  26.337  1.00  0.00     0.031 C 
ATOM     58  C   UNL A   1      49.063  29.736  27.087  1.00  0.00     0.029 A 
ATOM     59  C   UNL A   1      48.056  28.784  27.079  1.00  0.00     0.049 A 
ATOM     60  H   UNL A   1      46.050  28.969  27.705  1.00  0.00     0.167 HD
ATOM     61  C   UNL A   1      47.087  26.535  26.668  1.00  0.00     0.074 A 
ATOM     62  C   UNL A   1      47.170  25.156  26.227  1.00  0.00     0.031 C 
ATOM     63  C   UNL A   1      48.121  27.412  26.632  1.00  0.00     0.031 A 
BRANCH  50  64
ATOM     64  C   UNL A   1      46.699  33.079  28.704  1.00  0.00    -0.014 A 
ATOM     65  C   UNL A   1      47.213  33.485  29.950  1.00  0.00     0.010 A 
ATOM     66  C   UNL A   1      46.582  34.031  27.675  1.00  0.00     0.010 A 
ATOM     67  C   UNL A   1      47.531  34.826  30.185  1.00  0.00     0.020 A 
ATOM     68  C   UNL A   1      46.932  35.366  27.894  1.00  0.00     0.020 A 
ATOM     69  C   UNL A   1      47.378  35.760  29.158  1.00  0.00     0.054 A 
BRANCH  69  70
ATOM     70  S   UNL A   1      47.770  37.498  29.498  1.00  0.00     0.124 S 
ATOM     71  O   UNL A   1      49.149  37.407  29.974  1.00  0.00    -0.237 OA
ATOM     72  O   UNL A   1      47.597  38.127  28.192  1.00  0.00    -0.237 OA
ATOM     73  O   UNL A   1      46.787  37.885  30.507  1.00  0.00    -0.744 OA
ENDBRANCH  69  70
ENDBRANCH  50  64
BRANCH  51  74
ATOM     74  C   UNL A   1      43.243  23.836  27.060  1.00  0.00    -0.014 A 
ATOM     75  C   UNL A   1      42.857  23.426  25.772  1.00  0.00     0.010 A 
ATOM     76  C   UNL A   1      43.188  22.910  28.118  1.00  0.00     0.010 A 
ATOM     77  C   UNL A   1      42.424  22.117  25.544  1.00  0.00     0.020 A 
ATOM     78  C   UNL A   1      42.781  21.591  27.888  1.00  0.00     0.020 A 
ATOM     79  C   UNL A   1      42.398  21.205  26.603  1.00  0.00     0.054 A 
BRANCH  79  80
ATOM     80  S   UNL A   1      41.913  19.490  26.264  1.00  0.00     0.124 S 
ATOM     81  O   UNL A   1      42.665  19.194  25.049  1.00  0.00    -0.237 OA
ATOM     82  O   UNL A   1      42.359  18.794  27.469  1.00  0.00    -0.237 OA
ATOM     83  O   UNL A   1      40.463  19.570  26.101  1.00  0.00    -0.744 OA
ENDBRANCH  79  80
ENDBRANCH  51  74
BRANCH  63  84
ATOM     84  C   UNL A   1      49.445  26.903  26.125  1.00  0.00    -0.014 A 
ATOM     85  C   UNL A   1      49.795  26.996  24.767  1.00  0.00     0.010 A 
ATOM     86  C   UNL A   1      50.376  26.370  27.037  1.00  0.00     0.010 A 
ATOM     87  C   UNL A   1      51.039  26.536  24.325  1.00  0.00     0.020 A 
ATOM     88  C   UNL A   1      51.632  25.939  26.605  1.00  0.00     0.020 A 
ATOM     89  C   UNL A   1      51.951  26.012  25.247  1.00  0.00     0.054 A 
BRANCH  89  90
ATOM     90  S   UNL A   1      53.576  25.466  24.654  1.00  0.00     0.124 S 
ATOM     91  O   UNL A   1      53.461  24.014  24.750  1.00  0.00    -0.237 OA
ATOM     92  O   UNL A   1      53.619  26.007  23.298  1.00  0.00    -0.237 OA
ATOM     93  O   UNL A   1      54.512  26.081  25.593  1.00  0.00    -0.744 OA
ENDBRANCH  89  90
ENDBRANCH  63  84
ENDBRANCH  37  38
ENDBRANCH  29  32
ENDBRANCH  27  28
ENDBRANCH  26  27
ENDBRANCH   1  26
TORSDOF 18
ENDMDL
