MODEL 1
REMARK VINA RESULT:      -9.4      0.000      0.000
REMARK SMILES CC[C@@H]1CCC[C@](CCCCCO)(C(=O)NCCCCCCNC(=O)c2ccc(-c3c4nc(c(-c5ccc(S(=O)(=O)[O-])cc5)c5ccc([nH]5)c(-c5ccc(S(=O)(=O)[O-])cc5)c5nc(c(-c6ccc(S(=O)(=O)[O-])cc6)c6ccc3[nH]6)C=C5)C=C4)cc2)C1
REMARK SMILES IDX 18 1 17 2 16 3 14 4 15 5 7 7 3 8 4 9 86 10 5 11 6 12 2 13
REMARK SMILES IDX 1 14 8 15 9 16 10 17 11 18 12 19 13 20 19 22 20 23 21 24
REMARK SMILES IDX 22 25 23 26 24 27 25 29 26 30 27 31 85 32 28 33 84 34 29 35
REMARK SMILES IDX 30 36 31 37 78 38 32 39 83 40 77 41 79 42 33 43 82 44 76 45
REMARK SMILES IDX 75 46 34 48 64 49 45 50 63 51 46 52 49 53 62 54 80 55 47 56
REMARK SMILES IDX 48 57 61 59 81 60 50 61 35 62 36 63 44 64 37 65 43 66 38 67
REMARK SMILES IDX 39 68 40 69 41 70 42 71 65 72 66 73 74 74 67 75 73 76 68 77
REMARK SMILES IDX 69 78 70 79 71 80 72 81 51 82 52 83 60 84 53 85 59 86 54 87
REMARK SMILES IDX 55 88 56 89 57 90 58 91
REMARK H PARENT 16 6 13 21 23 28 79 47 49 58
REMARK Flexibility Score: inf
ROOT
ATOM      1  C   UNL A   1      36.305  23.303  24.730  1.00  0.00     0.021 C 
ENDROOT
BRANCH   1   2
ATOM      2  C   UNL A   1      35.058  24.147  24.528  1.00  0.00     0.116 C 
BRANCH   2   3
ATOM      3  N   UNL A   1      34.345  23.863  23.295  1.00  0.00    -0.356 N 
ATOM      4  C   UNL A   1      33.474  24.608  22.549  1.00  0.00     0.226 C 
ATOM      5  O   UNL A   1      33.295  24.222  21.388  1.00  0.00    -0.274 OA
ATOM      6  H   UNL A   1      34.522  22.967  22.927  1.00  0.00     0.163 HD
BRANCH   4   7
ATOM      7  C   UNL A   1      32.734  25.857  23.101  1.00  0.00     0.049 C 
ATOM      8  C   UNL A   1      30.833  26.360  24.860  1.00  0.00    -0.010 C 
ATOM      9  C   UNL A   1      29.883  26.801  23.749  1.00  0.00     0.003 C 
ATOM     10  C   UNL A   1      31.908  25.404  24.335  1.00  0.00     0.020 C 
ATOM     11  C   UNL A   1      30.648  27.307  22.532  1.00  0.00     0.001 C 
ATOM     12  C   UNL A   1      31.654  26.266  22.029  1.00  0.00     0.017 C 
BRANCH   8  13
ATOM     13  C   UNL A   1      30.093  25.741  26.071  1.00  0.00     0.000 C 
ATOM     14  C   UNL A   1      30.549  24.347  26.495  1.00  0.00     0.004 C 
ENDBRANCH   8  13
BRANCH   7  15
ATOM     15  C   UNL A   1      33.645  27.124  23.282  1.00  0.00     0.017 C 
BRANCH  15  16
ATOM     16  C   UNL A   1      33.686  27.962  24.567  1.00  0.00     0.001 C 
BRANCH  16  17
ATOM     17  C   UNL A   1      32.920  29.297  24.550  1.00  0.00     0.002 C 
BRANCH  17  18
ATOM     18  C   UNL A   1      32.834  30.048  25.881  1.00  0.00     0.028 C 
BRANCH  18  19
ATOM     19  C   UNL A   1      32.280  29.217  27.033  1.00  0.00     0.156 C 
BRANCH  19  20
ATOM     20  O   UNL A   1      33.297  28.935  27.985  1.00  0.00    -0.396 OA
ATOM     21  H   UNL A   1      34.146  28.827  27.529  1.00  0.00     0.210 HD
ENDBRANCH  19  20
ENDBRANCH  18  19
ENDBRANCH  17  18
ENDBRANCH  16  17
ENDBRANCH  15  16
ENDBRANCH   7  15
ENDBRANCH   4   7
ENDBRANCH   2   3
ENDBRANCH   1   2
BRANCH   1  22
ATOM     22  C   UNL A   1      36.025  21.800  24.792  1.00  0.00     0.002 C 
BRANCH  22  23
ATOM     23  C   UNL A   1      37.142  20.882  24.269  1.00  0.00     0.002 C 
BRANCH  23  24
ATOM     24  C   UNL A   1      37.937  20.110  25.328  1.00  0.00     0.021 C 
BRANCH  24  25
ATOM     25  C   UNL A   1      39.341  20.639  25.607  1.00  0.00     0.116 C 
BRANCH  25  26
ATOM     26  N   UNL A   1      40.274  19.585  25.959  1.00  0.00    -0.352 N 
ATOM     27  C   UNL A   1      41.579  19.666  26.369  1.00  0.00     0.251 C 
ATOM     28  H   UNL A   1      39.914  18.672  25.893  1.00  0.00     0.163 HD
ATOM     29  O   UNL A   1      42.236  18.639  26.491  1.00  0.00    -0.269 OA
BRANCH  27  30
ATOM     30  C   UNL A   1      42.202  20.981  26.636  1.00  0.00     0.039 A 
ATOM     31  C   UNL A   1      42.600  21.756  25.543  1.00  0.00     0.014 A 
ATOM     32  C   UNL A   1      42.415  21.447  27.937  1.00  0.00     0.014 A 
ATOM     33  C   UNL A   1      43.164  23.014  25.755  1.00  0.00     0.010 A 
ATOM     34  C   UNL A   1      42.911  22.733  28.145  1.00  0.00     0.010 A 
ATOM     35  C   UNL A   1      43.293  23.529  27.056  1.00  0.00    -0.014 A 
BRANCH  35  36
ATOM     36  C   UNL A   1      43.802  24.907  27.271  1.00  0.00     0.031 A 
ATOM     37  C   UNL A   1      45.252  25.237  27.044  1.00  0.00     0.074 A 
ATOM     38  C   UNL A   1      42.950  25.862  27.695  1.00  0.00     0.049 A 
ATOM     39  N   UNL A   1      45.858  26.393  27.149  1.00  0.00    -0.248 NA
ATOM     40  C   UNL A   1      46.143  24.127  26.672  1.00  0.00     0.031 C 
ATOM     41  C   UNL A   1      41.531  25.653  27.997  1.00  0.00     0.029 A 
ATOM     42  N   UNL A   1      43.146  27.198  27.937  1.00  0.00    -0.354 N 
ATOM     43  C   UNL A   1      47.196  26.150  26.860  1.00  0.00     0.074 A 
ATOM     44  C   UNL A   1      47.324  24.727  26.632  1.00  0.00     0.031 C 
ATOM     45  C   UNL A   1      40.977  26.826  28.340  1.00  0.00     0.029 A 
ATOM     46  C   UNL A   1      42.004  27.861  28.323  1.00  0.00     0.049 A 
ATOM     47  H   UNL A   1      44.020  27.639  27.843  1.00  0.00     0.167 HD
ATOM     48  C   UNL A   1      48.220  27.033  26.773  1.00  0.00     0.031 A 
ATOM     49  C   UNL A   1      41.804  29.158  28.627  1.00  0.00     0.031 A 
ATOM     50  C   UNL A   1      48.086  28.448  27.004  1.00  0.00     0.049 A 
ATOM     51  C   UNL A   1      42.959  30.115  28.534  1.00  0.00     0.074 A 
ATOM     52  C   UNL A   1      49.051  29.434  26.889  1.00  0.00     0.029 A 
ATOM     53  N   UNL A   1      46.917  29.079  27.405  1.00  0.00    -0.354 N 
ATOM     54  N   UNL A   1      44.201  29.878  28.182  1.00  0.00    -0.248 NA
ATOM     55  C   UNL A   1      42.682  31.519  28.866  1.00  0.00     0.031 C 
ATOM     56  C   UNL A   1      48.482  30.651  27.280  1.00  0.00     0.029 A 
ATOM     57  C   UNL A   1      47.144  30.436  27.573  1.00  0.00     0.049 A 
ATOM     58  H   UNL A   1      46.053  28.630  27.549  1.00  0.00     0.167 HD
ATOM     59  C   UNL A   1      44.849  31.107  28.231  1.00  0.00     0.074 A 
ATOM     60  C   UNL A   1      43.856  32.087  28.621  1.00  0.00     0.031 C 
ATOM     61  C   UNL A   1      46.149  31.398  27.978  1.00  0.00     0.031 A 
BRANCH  48  62
ATOM     62  C   UNL A   1      49.582  26.492  26.420  1.00  0.00    -0.014 A 
ATOM     63  C   UNL A   1      50.033  26.466  25.087  1.00  0.00     0.010 A 
ATOM     64  C   UNL A   1      50.444  26.044  27.439  1.00  0.00     0.010 A 
ATOM     65  C   UNL A   1      51.301  25.967  24.776  1.00  0.00     0.020 A 
ATOM     66  C   UNL A   1      51.724  25.572  27.135  1.00  0.00     0.020 A 
ATOM     67  C   UNL A   1      52.138  25.522  25.802  1.00  0.00     0.054 A 
BRANCH  67  68
ATOM     68  S   UNL A   1      53.787  24.902  25.370  1.00  0.00     0.124 S 
ATOM     69  O   UNL A   1      54.540  25.171  26.592  1.00  0.00    -0.237 OA
ATOM     70  O   UNL A   1      53.535  23.492  25.086  1.00  0.00    -0.237 OA
ATOM     71  O   UNL A   1      54.170  25.710  24.213  1.00  0.00    -0.744 OA
ENDBRANCH  67  68
ENDBRANCH  48  62
BRANCH  49  72
ATOM     72  C   UNL A   1      40.450  29.625  29.032  1.00  0.00    -0.014 A 
ATOM     73  C   UNL A   1      40.185  29.993  30.363  1.00  0.00     0.010 A 
ATOM     74  C   UNL A   1      39.417  29.720  28.080  1.00  0.00     0.010 A 
ATOM     75  C   UNL A   1      38.911  30.427  30.739  1.00  0.00     0.020 A 
ATOM     76  C   UNL A   1      38.151  30.183  28.445  1.00  0.00     0.020 A 
ATOM     77  C   UNL A   1      37.902  30.522  29.776  1.00  0.00     0.054 A 
BRANCH  77  78
ATOM     78  S   UNL A   1      36.269  31.134  30.275  1.00  0.00     0.124 S 
ATOM     79  O   UNL A   1      36.545  32.541  30.551  1.00  0.00    -0.237 OA
ATOM     80  O   UNL A   1      35.457  30.868  29.090  1.00  0.00    -0.237 OA
ATOM     81  O   UNL A   1      35.941  30.319  31.442  1.00  0.00    -0.744 OA
ENDBRANCH  77  78
ENDBRANCH  49  72
BRANCH  61  82
ATOM     82  C   UNL A   1      46.567  32.841  28.097  1.00  0.00    -0.014 A 
ATOM     83  C   UNL A   1      46.472  33.720  27.003  1.00  0.00     0.010 A 
ATOM     84  C   UNL A   1      47.034  33.330  29.330  1.00  0.00     0.010 A 
ATOM     85  C   UNL A   1      46.878  35.051  27.129  1.00  0.00     0.020 A 
ATOM     86  C   UNL A   1      47.409  34.669  29.469  1.00  0.00     0.020 A 
ATOM     87  C   UNL A   1      47.346  35.516  28.361  1.00  0.00     0.054 A 
BRANCH  87  88
ATOM     88  S   UNL A   1      47.843  37.254  28.504  1.00  0.00     0.124 S 
ATOM     89  O   UNL A   1      49.300  37.152  28.526  1.00  0.00    -0.237 OA
ATOM     90  O   UNL A   1      47.274  37.851  27.298  1.00  0.00    -0.237 OA
ATOM     91  O   UNL A   1      47.230  37.690  29.757  1.00  0.00    -0.744 OA
ENDBRANCH  87  88
ENDBRANCH  61  82
ENDBRANCH  35  36
ENDBRANCH  27  30
ENDBRANCH  25  26
ENDBRANCH  24  25
ENDBRANCH  23  24
ENDBRANCH  22  23
ENDBRANCH   1  22
TORSDOF 23
ENDMDL
MODEL 2
REMARK VINA RESULT:      -9.4      2.321      8.922
REMARK SMILES CC[C@@H]1CCC[C@](CCCCCO)(C(=O)NCCCCCCNC(=O)c2ccc(-c3c4nc(c(-c5ccc(S(=O)(=O)[O-])cc5)c5ccc([nH]5)c(-c5ccc(S(=O)(=O)[O-])cc5)c5nc(c(-c6ccc(S(=O)(=O)[O-])cc6)c6ccc3[nH]6)C=C5)C=C4)cc2)C1
REMARK SMILES IDX 18 1 17 2 16 3 14 4 15 5 7 7 3 8 4 9 86 10 5 11 6 12 2 13
REMARK SMILES IDX 1 14 8 15 9 16 10 17 11 18 12 19 13 20 19 22 20 23 21 24
REMARK SMILES IDX 22 25 23 26 24 27 25 29 26 30 27 31 85 32 28 33 84 34 29 35
REMARK SMILES IDX 30 36 31 37 78 38 32 39 83 40 77 41 79 42 33 43 82 44 76 45
REMARK SMILES IDX 75 46 34 48 64 49 45 50 63 51 46 52 49 53 62 54 80 55 47 56
REMARK SMILES IDX 48 57 61 59 81 60 50 61 35 62 36 63 44 64 37 65 43 66 38 67
REMARK SMILES IDX 39 68 40 69 41 70 42 71 65 72 66 73 74 74 67 75 73 76 68 77
REMARK SMILES IDX 69 78 70 79 71 80 72 81 51 82 52 83 60 84 53 85 59 86 54 87
REMARK SMILES IDX 55 88 56 89 57 90 58 91
REMARK H PARENT 16 6 13 21 23 28 79 47 49 58
REMARK Flexibility Score: inf
ROOT
ATOM      1  C   UNL A   1      35.175  29.823  27.317  1.00  0.00     0.021 C 
ENDROOT
BRANCH   1   2
ATOM      2  C   UNL A   1      34.415  28.532  27.062  1.00  0.00     0.116 C 
BRANCH   2   3
ATOM      3  N   UNL A   1      33.092  28.497  27.659  1.00  0.00    -0.356 N 
ATOM      4  C   UNL A   1      31.918  27.927  27.250  1.00  0.00     0.226 C 
ATOM      5  O   UNL A   1      31.055  27.786  28.125  1.00  0.00    -0.274 OA
ATOM      6  H   UNL A   1      33.027  28.972  28.519  1.00  0.00     0.163 HD
BRANCH   4   7
ATOM      7  C   UNL A   1      31.652  27.485  25.785  1.00  0.00     0.049 C 
ATOM      8  C   UNL A   1      30.460  28.477  23.650  1.00  0.00    -0.010 C 
ATOM      9  C   UNL A   1      29.367  27.414  23.732  1.00  0.00     0.003 C 
ATOM     10  C   UNL A   1      31.112  28.720  25.014  1.00  0.00     0.020 C 
ATOM     11  C   UNL A   1      29.865  26.157  24.434  1.00  0.00     0.001 C 
ATOM     12  C   UNL A   1      30.440  26.478  25.818  1.00  0.00     0.017 C 
BRANCH   8  13
ATOM     13  C   UNL A   1      29.958  29.808  23.038  1.00  0.00     0.000 C 
ATOM     14  C   UNL A   1      29.752  29.815  21.525  1.00  0.00     0.004 C 
ENDBRANCH   8  13
BRANCH   7  15
ATOM     15  C   UNL A   1      32.834  26.694  25.120  1.00  0.00     0.017 C 
BRANCH  15  16
ATOM     16  C   UNL A   1      33.333  25.332  25.622  1.00  0.00     0.001 C 
BRANCH  16  17
ATOM     17  C   UNL A   1      32.989  24.106  24.759  1.00  0.00     0.002 C 
BRANCH  17  18
ATOM     18  C   UNL A   1      32.660  24.380  23.289  1.00  0.00     0.028 C 
BRANCH  18  19
ATOM     19  C   UNL A   1      33.871  24.728  22.432  1.00  0.00     0.156 C 
BRANCH  19  20
ATOM     20  O   UNL A   1      33.869  26.108  22.093  1.00  0.00    -0.396 OA
ATOM     21  H   UNL A   1      33.486  26.223  21.208  1.00  0.00     0.210 HD
ENDBRANCH  19  20
ENDBRANCH  18  19
ENDBRANCH  17  18
ENDBRANCH  16  17
ENDBRANCH  15  16
ENDBRANCH   7  15
ENDBRANCH   4   7
ENDBRANCH   2   3
ENDBRANCH   1   2
BRANCH   1  22
ATOM     22  C   UNL A   1      34.289  31.070  27.306  1.00  0.00     0.002 C 
BRANCH  22  23
ATOM     23  C   UNL A   1      34.718  32.213  28.239  1.00  0.00     0.002 C 
BRANCH  23  24
ATOM     24  C   UNL A   1      36.188  32.642  28.155  1.00  0.00     0.021 C 
BRANCH  24  25
ATOM     25  C   UNL A   1      36.959  32.597  29.470  1.00  0.00     0.116 C 
BRANCH  25  26
ATOM     26  N   UNL A   1      36.401  31.645  30.411  1.00  0.00    -0.352 N 
ATOM     27  C   UNL A   1      36.863  30.413  30.797  1.00  0.00     0.251 C 
ATOM     28  H   UNL A   1      35.560  31.926  30.839  1.00  0.00     0.163 HD
ATOM     29  O   UNL A   1      36.165  29.706  31.514  1.00  0.00    -0.269 OA
BRANCH  27  30
ATOM     30  C   UNL A   1      38.180  29.926  30.331  1.00  0.00     0.039 A 
ATOM     31  C   UNL A   1      38.400  29.832  28.955  1.00  0.00     0.014 A 
ATOM     32  C   UNL A   1      39.185  29.547  31.226  1.00  0.00     0.014 A 
ATOM     33  C   UNL A   1      39.639  29.406  28.478  1.00  0.00     0.010 A 
ATOM     34  C   UNL A   1      40.446  29.191  30.749  1.00  0.00     0.010 A 
ATOM     35  C   UNL A   1      40.685  29.114  29.370  1.00  0.00    -0.014 A 
BRANCH  35  36
ATOM     36  C   UNL A   1      42.031  28.756  28.856  1.00  0.00     0.031 A 
ATOM     37  C   UNL A   1      43.133  29.779  28.802  1.00  0.00     0.074 A 
ATOM     38  C   UNL A   1      42.251  27.502  28.415  1.00  0.00     0.049 A 
ATOM     39  N   UNL A   1      44.375  29.629  28.417  1.00  0.00    -0.248 NA
ATOM     40  C   UNL A   1      42.796  31.151  29.212  1.00  0.00     0.031 C 
ATOM     41  C   UNL A   1      41.248  26.434  28.370  1.00  0.00     0.029 A 
ATOM     42  N   UNL A   1      43.388  26.907  27.928  1.00  0.00    -0.354 N 
ATOM     43  C   UNL A   1      44.965  30.882  28.535  1.00  0.00     0.074 A 
ATOM     44  C   UNL A   1      43.930  31.794  28.973  1.00  0.00     0.031 C 
ATOM     45  C   UNL A   1      41.824  25.306  27.926  1.00  0.00     0.029 A 
ATOM     46  C   UNL A   1      43.224  25.577  27.616  1.00  0.00     0.049 A 
ATOM     47  H   UNL A   1      44.239  27.387  27.814  1.00  0.00     0.167 HD
ATOM     48  C   UNL A   1      46.255  31.238  28.318  1.00  0.00     0.031 A 
ATOM     49  C   UNL A   1      44.101  24.675  27.136  1.00  0.00     0.031 A 
ATOM     50  C   UNL A   1      47.279  30.326  27.880  1.00  0.00     0.049 A 
ATOM     51  C   UNL A   1      45.523  25.097  26.893  1.00  0.00     0.074 A 
ATOM     52  C   UNL A   1      48.627  30.576  27.683  1.00  0.00     0.029 A 
ATOM     53  N   UNL A   1      47.071  28.992  27.562  1.00  0.00    -0.354 N 
ATOM     54  N   UNL A   1      46.079  26.269  27.086  1.00  0.00    -0.248 NA
ATOM     55  C   UNL A   1      46.439  24.070  26.380  1.00  0.00     0.031 C 
ATOM     56  C   UNL A   1      49.220  29.410  27.188  1.00  0.00     0.029 A 
ATOM     57  C   UNL A   1      48.258  28.413  27.140  1.00  0.00     0.049 A 
ATOM     58  H   UNL A   1      46.207  28.523  27.628  1.00  0.00     0.167 HD
ATOM     59  C   UNL A   1      47.416  26.116  26.737  1.00  0.00     0.074 A 
ATOM     60  C   UNL A   1      47.588  24.731  26.347  1.00  0.00     0.031 C 
ATOM     61  C   UNL A   1      48.411  27.037  26.738  1.00  0.00     0.031 A 
BRANCH  48  62
ATOM     62  C   UNL A   1      46.629  32.680  28.545  1.00  0.00    -0.014 A 
ATOM     63  C   UNL A   1      46.395  33.658  27.561  1.00  0.00     0.010 A 
ATOM     64  C   UNL A   1      47.179  33.076  29.779  1.00  0.00     0.010 A 
ATOM     65  C   UNL A   1      46.741  34.993  27.788  1.00  0.00     0.020 A 
ATOM     66  C   UNL A   1      47.499  34.415  30.023  1.00  0.00     0.020 A 
ATOM     67  C   UNL A   1      47.293  35.362  29.018  1.00  0.00     0.054 A 
BRANCH  67  68
ATOM     68  S   UNL A   1      47.709  37.106  29.294  1.00  0.00     0.124 S 
ATOM     69  O   UNL A   1      48.507  37.036  30.515  1.00  0.00    -0.237 OA
ATOM     70  O   UNL A   1      48.447  37.454  28.083  1.00  0.00    -0.237 OA
ATOM     71  O   UNL A   1      46.408  37.756  29.437  1.00  0.00    -0.744 OA
ENDBRANCH  67  68
ENDBRANCH  48  62
BRANCH  49  72
ATOM     72  C   UNL A   1      43.658  23.278  26.870  1.00  0.00    -0.014 A 
ATOM     73  C   UNL A   1      44.068  22.604  25.706  1.00  0.00     0.010 A 
ATOM     74  C   UNL A   1      42.832  22.608  27.791  1.00  0.00     0.010 A 
ATOM     75  C   UNL A   1      43.646  21.295  25.459  1.00  0.00     0.020 A 
ATOM     76  C   UNL A   1      42.435  21.288  27.563  1.00  0.00     0.020 A 
ATOM     77  C   UNL A   1      42.834  20.644  26.392  1.00  0.00     0.054 A 
BRANCH  77  78
ATOM     78  S   UNL A   1      42.338  18.928  26.076  1.00  0.00     0.124 S 
ATOM     79  O   UNL A   1      43.229  18.552  24.982  1.00  0.00    -0.237 OA
ATOM     80  O   UNL A   1      42.602  18.282  27.360  1.00  0.00    -0.237 OA
ATOM     81  O   UNL A   1      40.925  19.040  25.722  1.00  0.00    -0.744 OA
ENDBRANCH  77  78
ENDBRANCH  49  72
BRANCH  61  82
ATOM     82  C   UNL A   1      49.781  26.571  26.320  1.00  0.00    -0.014 A 
ATOM     83  C   UNL A   1      50.261  26.794  25.017  1.00  0.00     0.010 A 
ATOM     84  C   UNL A   1      50.612  25.926  27.254  1.00  0.00     0.010 A 
ATOM     85  C   UNL A   1      51.530  26.342  24.643  1.00  0.00     0.020 A 
ATOM     86  C   UNL A   1      51.893  25.501  26.894  1.00  0.00     0.020 A 
ATOM     87  C   UNL A   1      52.336  25.696  25.584  1.00  0.00     0.054 A 
BRANCH  87  88
ATOM     88  S   UNL A   1      53.987  25.140  25.081  1.00  0.00     0.124 S 
ATOM     89  O   UNL A   1      54.166  25.834  23.809  1.00  0.00    -0.237 OA
ATOM     90  O   UNL A   1      54.831  25.608  26.177  1.00  0.00    -0.237 OA
ATOM     91  O   UNL A   1      53.850  23.688  24.984  1.00  0.00    -0.744 OA
ENDBRANCH  87  88
ENDBRANCH  61  82
ENDBRANCH  35  36
ENDBRANCH  27  30
ENDBRANCH  25  26
ENDBRANCH  24  25
ENDBRANCH  23  24
ENDBRANCH  22  23
ENDBRANCH   1  22
TORSDOF 23
ENDMDL
MODEL 3
REMARK VINA RESULT:      -9.3      2.239      8.950
REMARK SMILES CC[C@@H]1CCC[C@](CCCCCO)(C(=O)NCCCCCCNC(=O)c2ccc(-c3c4nc(c(-c5ccc(S(=O)(=O)[O-])cc5)c5ccc([nH]5)c(-c5ccc(S(=O)(=O)[O-])cc5)c5nc(c(-c6ccc(S(=O)(=O)[O-])cc6)c6ccc3[nH]6)C=C5)C=C4)cc2)C1
REMARK SMILES IDX 18 1 17 2 16 3 14 4 15 5 7 7 3 8 4 9 86 10 5 11 6 12 2 13
REMARK SMILES IDX 1 14 8 15 9 16 10 17 11 18 12 19 13 20 19 22 20 23 21 24
REMARK SMILES IDX 22 25 23 26 24 27 25 29 26 30 27 31 85 32 28 33 84 34 29 35
REMARK SMILES IDX 30 36 31 37 78 38 32 39 83 40 77 41 79 42 33 43 82 44 76 45
REMARK SMILES IDX 75 46 34 48 64 49 45 50 63 51 46 52 49 53 62 54 80 55 47 56
REMARK SMILES IDX 48 57 61 59 81 60 50 61 35 62 36 63 44 64 37 65 43 66 38 67
REMARK SMILES IDX 39 68 40 69 41 70 42 71 65 72 66 73 74 74 67 75 73 76 68 77
REMARK SMILES IDX 69 78 70 79 71 80 72 81 51 82 52 83 60 84 53 85 59 86 54 87
REMARK SMILES IDX 55 88 56 89 57 90 58 91
REMARK H PARENT 16 6 13 21 23 28 79 47 49 58
REMARK Flexibility Score: inf
ROOT
ATOM      1  C   UNL A   1      34.733  29.400  27.324  1.00  0.00     0.021 C 
ENDROOT
BRANCH   1   2
ATOM      2  C   UNL A   1      34.027  28.192  26.732  1.00  0.00     0.116 C 
BRANCH   2   3
ATOM      3  N   UNL A   1      33.948  28.204  25.282  1.00  0.00    -0.356 N 
ATOM      4  C   UNL A   1      33.639  27.230  24.374  1.00  0.00     0.226 C 
ATOM      5  O   UNL A   1      33.335  27.627  23.243  1.00  0.00    -0.274 OA
ATOM      6  H   UNL A   1      34.156  29.077  24.877  1.00  0.00     0.163 HD
BRANCH   4   7
ATOM      7  C   UNL A   1      33.671  25.713  24.709  1.00  0.00     0.049 C 
ATOM      8  C   UNL A   1      35.505  23.860  25.118  1.00  0.00    -0.010 C 
ATOM      9  C   UNL A   1      35.108  23.144  23.829  1.00  0.00     0.003 C 
ATOM     10  C   UNL A   1      35.136  25.345  25.073  1.00  0.00     0.020 C 
ATOM     11  C   UNL A   1      33.658  23.431  23.457  1.00  0.00     0.001 C 
ATOM     12  C   UNL A   1      33.389  24.937  23.367  1.00  0.00     0.017 C 
BRANCH   8  13
ATOM     13  C   UNL A   1      37.002  23.677  25.468  1.00  0.00     0.000 C 
ATOM     14  C   UNL A   1      37.450  22.251  25.776  1.00  0.00     0.004 C 
ENDBRANCH   8  13
BRANCH   7  15
ATOM     15  C   UNL A   1      32.553  25.245  25.707  1.00  0.00     0.017 C 
BRANCH  15  16
ATOM     16  C   UNL A   1      31.060  25.213  25.354  1.00  0.00     0.001 C 
BRANCH  16  17
ATOM     17  C   UNL A   1      30.506  23.888  24.802  1.00  0.00     0.002 C 
BRANCH  17  18
ATOM     18  C   UNL A   1      30.782  22.635  25.636  1.00  0.00     0.028 C 
BRANCH  18  19
ATOM     19  C   UNL A   1      30.115  22.637  27.006  1.00  0.00     0.156 C 
BRANCH  19  20
ATOM     20  O   UNL A   1      28.843  22.005  26.949  1.00  0.00    -0.396 OA
ATOM     21  H   UNL A   1      28.808  21.290  27.604  1.00  0.00     0.210 HD
ENDBRANCH  19  20
ENDBRANCH  18  19
ENDBRANCH  17  18
ENDBRANCH  16  17
ENDBRANCH  15  16
ENDBRANCH   7  15
ENDBRANCH   4   7
ENDBRANCH   2   3
ENDBRANCH   1   2
BRANCH   1  22
ATOM     22  C   UNL A   1      33.934  30.699  27.201  1.00  0.00     0.002 C 
BRANCH  22  23
ATOM     23  C   UNL A   1      34.362  31.847  28.129  1.00  0.00     0.002 C 
BRANCH  23  24
ATOM     24  C   UNL A   1      35.802  32.348  27.969  1.00  0.00     0.021 C 
BRANCH  24  25
ATOM     25  C   UNL A   1      36.636  32.365  29.246  1.00  0.00     0.116 C 
BRANCH  25  26
ATOM     26  N   UNL A   1      36.142  31.438  30.247  1.00  0.00    -0.352 N 
ATOM     27  C   UNL A   1      36.663  30.245  30.675  1.00  0.00     0.251 C 
ATOM     28  H   UNL A   1      35.303  31.706  30.685  1.00  0.00     0.163 HD
ATOM     29  O   UNL A   1      36.014  29.545  31.445  1.00  0.00    -0.269 OA
BRANCH  27  30
ATOM     30  C   UNL A   1      37.986  29.787  30.194  1.00  0.00     0.039 A 
ATOM     31  C   UNL A   1      38.181  29.668  28.816  1.00  0.00     0.014 A 
ATOM     32  C   UNL A   1      39.019  29.459  31.077  1.00  0.00     0.014 A 
ATOM     33  C   UNL A   1      39.423  29.269  28.324  1.00  0.00     0.010 A 
ATOM     34  C   UNL A   1      40.281  29.132  30.583  1.00  0.00     0.010 A 
ATOM     35  C   UNL A   1      40.495  29.030  29.201  1.00  0.00    -0.014 A 
BRANCH  35  36
ATOM     36  C   UNL A   1      41.842  28.701  28.669  1.00  0.00     0.031 A 
ATOM     37  C   UNL A   1      42.911  29.756  28.571  1.00  0.00     0.074 A 
ATOM     38  C   UNL A   1      42.092  27.445  28.250  1.00  0.00     0.049 A 
ATOM     39  N   UNL A   1      44.149  29.635  28.165  1.00  0.00    -0.248 NA
ATOM     40  C   UNL A   1      42.540  31.125  28.959  1.00  0.00     0.031 C 
ATOM     41  C   UNL A   1      41.120  26.347  28.248  1.00  0.00     0.029 A 
ATOM     42  N   UNL A   1      43.236  26.874  27.754  1.00  0.00    -0.354 N 
ATOM     43  C   UNL A   1      44.703  30.907  28.244  1.00  0.00     0.074 A 
ATOM     44  C   UNL A   1      43.649  31.797  28.683  1.00  0.00     0.031 C 
ATOM     45  C   UNL A   1      41.722  25.227  27.817  1.00  0.00     0.029 A 
ATOM     46  C   UNL A   1      43.106  25.534  27.473  1.00  0.00     0.049 A 
ATOM     47  H   UNL A   1      44.070  27.376  27.612  1.00  0.00     0.167 HD
ATOM     48  C   UNL A   1      45.977  31.297  27.995  1.00  0.00     0.031 A 
ATOM     49  C   UNL A   1      44.001  24.647  26.995  1.00  0.00     0.031 A 
ATOM     50  C   UNL A   1      47.020  30.406  27.556  1.00  0.00     0.049 A 
ATOM     51  C   UNL A   1      45.405  25.107  26.715  1.00  0.00     0.074 A 
ATOM     52  C   UNL A   1      48.355  30.692  27.327  1.00  0.00     0.029 A 
ATOM     53  N   UNL A   1      46.846  29.060  27.271  1.00  0.00    -0.354 N 
ATOM     54  N   UNL A   1      45.929  26.299  26.872  1.00  0.00    -0.248 NA
ATOM     55  C   UNL A   1      46.342  24.097  26.206  1.00  0.00     0.031 C 
ATOM     56  C   UNL A   1      48.974  29.534  26.845  1.00  0.00     0.029 A 
ATOM     57  C   UNL A   1      48.042  28.508  26.838  1.00  0.00     0.049 A 
ATOM     58  H   UNL A   1      45.999  28.567  27.364  1.00  0.00     0.167 HD
ATOM     59  C   UNL A   1      47.263  26.178  26.501  1.00  0.00     0.074 A 
ATOM     60  C   UNL A   1      47.470  24.791  26.136  1.00  0.00     0.031 C 
ATOM     61  C   UNL A   1      48.229  27.129  26.462  1.00  0.00     0.031 A 
BRANCH  48  62
ATOM     62  C   UNL A   1      46.311  32.754  28.184  1.00  0.00    -0.014 A 
ATOM     63  C   UNL A   1      46.800  33.237  29.411  1.00  0.00     0.010 A 
ATOM     64  C   UNL A   1      46.181  33.648  27.105  1.00  0.00     0.010 A 
ATOM     65  C   UNL A   1      47.113  34.590  29.569  1.00  0.00     0.020 A 
ATOM     66  C   UNL A   1      46.521  34.997  27.248  1.00  0.00     0.020 A 
ATOM     67  C   UNL A   1      46.969  35.462  28.487  1.00  0.00     0.054 A 
BRANCH  67  68
ATOM     68  S   UNL A   1      47.406  37.208  28.715  1.00  0.00     0.124 S 
ATOM     69  O   UNL A   1      48.727  37.271  28.095  1.00  0.00    -0.237 OA
ATOM     70  O   UNL A   1      46.341  37.901  27.995  1.00  0.00    -0.237 OA
ATOM     71  O   UNL A   1      47.391  37.383  30.165  1.00  0.00    -0.744 OA
ENDBRANCH  67  68
ENDBRANCH  48  62
BRANCH  49  72
ATOM     72  C   UNL A   1      43.596  23.232  26.768  1.00  0.00    -0.014 A 
ATOM     73  C   UNL A   1      43.891  22.588  25.553  1.00  0.00     0.010 A 
ATOM     74  C   UNL A   1      42.925  22.516  27.775  1.00  0.00     0.010 A 
ATOM     75  C   UNL A   1      43.505  21.261  25.343  1.00  0.00     0.020 A 
ATOM     76  C   UNL A   1      42.565  21.180  27.581  1.00  0.00     0.020 A 
ATOM     77  C   UNL A   1      42.846  20.564  26.361  1.00  0.00     0.054 A 
BRANCH  77  78
ATOM     78  S   UNL A   1      42.398  18.828  26.086  1.00  0.00     0.124 S 
ATOM     79  O   UNL A   1      43.315  18.444  25.018  1.00  0.00    -0.237 OA
ATOM     80  O   UNL A   1      42.658  18.226  27.392  1.00  0.00    -0.237 OA
ATOM     81  O   UNL A   1      40.988  18.895  25.708  1.00  0.00    -0.744 OA
ENDBRANCH  77  78
ENDBRANCH  49  72
BRANCH  61  82
ATOM     82  C   UNL A   1      49.605  26.695  26.028  1.00  0.00    -0.014 A 
ATOM     83  C   UNL A   1      50.110  27.035  24.760  1.00  0.00     0.010 A 
ATOM     84  C   UNL A   1      50.415  25.961  26.912  1.00  0.00     0.010 A 
ATOM     85  C   UNL A   1      51.383  26.612  24.368  1.00  0.00     0.020 A 
ATOM     86  C   UNL A   1      51.702  25.564  26.537  1.00  0.00     0.020 A 
ATOM     87  C   UNL A   1      52.169  25.876  25.259  1.00  0.00     0.054 A 
BRANCH  87  88
ATOM     88  S   UNL A   1      53.826  25.359  24.736  1.00  0.00     0.124 S 
ATOM     89  O   UNL A   1      53.843  23.953  25.127  1.00  0.00    -0.237 OA
ATOM     90  O   UNL A   1      53.801  25.611  23.297  1.00  0.00    -0.237 OA
ATOM     91  O   UNL A   1      54.719  26.229  25.499  1.00  0.00    -0.744 OA
ENDBRANCH  87  88
ENDBRANCH  61  82
ENDBRANCH  35  36
ENDBRANCH  27  30
ENDBRANCH  25  26
ENDBRANCH  24  25
ENDBRANCH  23  24
ENDBRANCH  22  23
ENDBRANCH   1  22
TORSDOF 23
ENDMDL
