MODEL 1
REMARK VINA RESULT:     -10.8      0.000      0.000
REMARK SMILES CC1(C)O[C@](C)(C(C)(C)O)CC[C@H]1C(=O)NCCCCCCNC(=O)c1ccc(-c2c3nc(c(-c4ccc(S(=O)(=O)[O-])cc4)c4ccc([nH]4)c(-c4ccc(S(=O)(=O)[O-])cc4)c4nc(c(-c5ccc(S(=O)(=O)[O-])cc5)c5ccc2[nH]5)C=C4)C=C3)cc1
REMARK SMILES IDX 20 1 19 2 18 3 17 4 16 5 14 6 15 7 13 9 1 10 2 11 3 12 4 13
REMARK SMILES IDX 5 14 12 15 6 16 11 17 7 18 8 19 9 20 10 21 21 23 22 24 23 25
REMARK SMILES IDX 24 26 25 28 26 29 27 30 85 31 28 32 84 33 29 34 30 35 31 36
REMARK SMILES IDX 78 37 32 38 83 39 77 40 79 41 33 42 82 43 76 44 75 45 34 47
REMARK SMILES IDX 64 48 45 49 63 50 46 51 49 52 62 53 80 54 47 55 48 56 61 58
REMARK SMILES IDX 81 59 50 60 35 61 36 62 44 63 37 64 43 65 38 66 39 67 40 68
REMARK SMILES IDX 41 69 42 70 65 71 66 72 74 73 67 74 73 75 68 76 69 77 70 78
REMARK SMILES IDX 71 79 72 80 51 81 52 82 60 83 53 84 59 85 54 86 55 87 56 88
REMARK SMILES IDX 57 89 58 90
REMARK H PARENT 16 8 10 22 23 27 79 46 49 57
REMARK Flexibility Score: inf
ROOT
ATOM      1  C   UNL A   1      35.416  23.283  23.506  1.00  0.00     0.002 C 
ENDROOT
BRANCH   1   2
ATOM      2  C   UNL A   1      34.032  23.322  22.855  1.00  0.00     0.002 C 
BRANCH   2   3
ATOM      3  C   UNL A   1      32.954  22.533  23.595  1.00  0.00     0.021 C 
BRANCH   3   4
ATOM      4  C   UNL A   1      31.670  23.318  23.859  1.00  0.00     0.116 C 
BRANCH   4   5
ATOM      5  N   UNL A   1      31.487  23.540  25.277  1.00  0.00    -0.356 N 
ATOM      6  C   UNL A   1      31.117  24.639  25.981  1.00  0.00     0.226 C 
ATOM      7  O   UNL A   1      31.174  24.547  27.214  1.00  0.00    -0.275 OA
ATOM      8  H   UNL A   1      31.664  22.748  25.834  1.00  0.00     0.163 HD
BRANCH   6   9
ATOM      9  C   UNL A   1      30.626  25.938  25.339  1.00  0.00     0.110 C 
ATOM     10  C   UNL A   1      33.028  26.667  24.454  1.00  0.00     0.043 C 
ATOM     11  C   UNL A   1      31.693  27.043  25.101  1.00  0.00     0.075 C 
ATOM     12  C   UNL A   1      32.084  27.631  26.481  1.00  0.00     0.043 C 
ATOM     13  O   UNL A   1      31.159  28.163  24.373  1.00  0.00    -0.366 OA
ATOM     14  C   UNL A   1      30.319  27.947  23.222  1.00  0.00     0.094 C 
ATOM     15  C   UNL A   1      29.601  25.718  24.222  1.00  0.00     0.019 C 
ATOM     16  C   UNL A   1      31.077  27.289  22.045  1.00  0.00     0.045 C 
ATOM     17  C   UNL A   1      29.135  27.050  23.639  1.00  0.00     0.039 C 
BRANCH  14  18
ATOM     18  C   UNL A   1      29.833  29.383  22.757  1.00  0.00     0.088 C 
ATOM     19  C   UNL A   1      28.367  29.396  22.296  1.00  0.00     0.045 C 
ATOM     20  C   UNL A   1      29.982  30.419  23.891  1.00  0.00     0.045 C 
BRANCH  18  21
ATOM     21  O   UNL A   1      30.627  29.822  21.646  1.00  0.00    -0.387 OA
ATOM     22  H   UNL A   1      30.999  29.052  21.189  1.00  0.00     0.211 HD
ENDBRANCH  18  21
ENDBRANCH  14  18
ENDBRANCH   6   9
ENDBRANCH   4   5
ENDBRANCH   3   4
ENDBRANCH   2   3
ENDBRANCH   1   2
BRANCH   1  23
ATOM     23  C   UNL A   1      35.435  22.845  24.973  1.00  0.00     0.021 C 
BRANCH  23  24
ATOM     24  C   UNL A   1      36.557  23.457  25.810  1.00  0.00     0.116 C 
BRANCH  24  25
ATOM     25  N   UNL A   1      37.710  22.577  25.899  1.00  0.00    -0.352 N 
ATOM     26  C   UNL A   1      39.001  22.868  26.256  1.00  0.00     0.251 C 
ATOM     27  H   UNL A   1      37.539  21.634  25.670  1.00  0.00     0.163 HD
ATOM     28  O   UNL A   1      39.898  22.051  26.046  1.00  0.00    -0.269 OA
BRANCH  26  29
ATOM     29  C   UNL A   1      39.313  24.170  26.877  1.00  0.00     0.039 A 
ATOM     30  C   UNL A   1      38.902  24.413  28.188  1.00  0.00     0.014 A 
ATOM     31  C   UNL A   1      40.020  25.143  26.163  1.00  0.00     0.014 A 
ATOM     32  C   UNL A   1      39.262  25.609  28.811  1.00  0.00     0.010 A 
ATOM     33  C   UNL A   1      40.434  26.305  26.808  1.00  0.00     0.010 A 
ATOM     34  C   UNL A   1      40.069  26.545  28.141  1.00  0.00    -0.014 A 
BRANCH  34  35
ATOM     35  C   UNL A   1      40.577  27.756  28.832  1.00  0.00     0.031 A 
ATOM     36  C   UNL A   1      41.949  27.766  29.446  1.00  0.00     0.074 A 
ATOM     37  C   UNL A   1      39.766  28.824  28.969  1.00  0.00     0.049 A 
ATOM     38  N   UNL A   1      42.532  28.708  30.142  1.00  0.00    -0.248 NA
ATOM     39  C   UNL A   1      42.764  26.552  29.275  1.00  0.00     0.031 C 
ATOM     40  C   UNL A   1      38.398  28.919  28.449  1.00  0.00     0.029 A 
ATOM     41  N   UNL A   1      39.966  30.029  29.594  1.00  0.00    -0.354 N 
ATOM     42  C   UNL A   1      43.775  28.200  30.500  1.00  0.00     0.074 A 
ATOM     43  C   UNL A   1      43.844  26.850  29.984  1.00  0.00     0.031 C 
ATOM     44  C   UNL A   1      37.895  30.125  28.757  1.00  0.00     0.029 A 
ATOM     45  C   UNL A   1      38.880  30.870  29.535  1.00  0.00     0.049 A 
ATOM     46  H   UNL A   1      40.809  30.269  30.042  1.00  0.00     0.167 HD
ATOM     47  C   UNL A   1      44.774  28.809  31.184  1.00  0.00     0.031 A 
ATOM     48  C   UNL A   1      38.689  32.095  30.058  1.00  0.00     0.031 A 
ATOM     49  C   UNL A   1      44.696  30.152  31.697  1.00  0.00     0.049 A 
ATOM     50  C   UNL A   1      39.800  32.736  30.843  1.00  0.00     0.074 A 
ATOM     51  C   UNL A   1      45.675  30.879  32.354  1.00  0.00     0.029 A 
ATOM     52  N   UNL A   1      43.577  30.969  31.622  1.00  0.00    -0.354 N 
ATOM     53  N   UNL A   1      40.997  32.269  31.107  1.00  0.00    -0.248 NA
ATOM     54  C   UNL A   1      39.536  34.072  31.396  1.00  0.00     0.031 C 
ATOM     55  C   UNL A   1      45.126  32.110  32.730  1.00  0.00     0.029 A 
ATOM     56  C   UNL A   1      43.828  32.176  32.252  1.00  0.00     0.049 A 
ATOM     57  H   UNL A   1      42.729  30.724  31.184  1.00  0.00     0.167 HD
ATOM     58  C   UNL A   1      41.636  33.261  31.842  1.00  0.00     0.074 A 
ATOM     59  C   UNL A   1      40.701  34.362  31.961  1.00  0.00     0.031 C 
ATOM     60  C   UNL A   1      42.883  33.259  32.372  1.00  0.00     0.031 A 
BRANCH  47  61
ATOM     61  C   UNL A   1      46.035  28.023  31.428  1.00  0.00    -0.014 A 
ATOM     62  C   UNL A   1      46.175  27.208  32.565  1.00  0.00     0.010 A 
ATOM     63  C   UNL A   1      47.077  28.060  30.482  1.00  0.00     0.010 A 
ATOM     64  C   UNL A   1      47.348  26.476  32.773  1.00  0.00     0.020 A 
ATOM     65  C   UNL A   1      48.239  27.308  30.672  1.00  0.00     0.020 A 
ATOM     66  C   UNL A   1      48.375  26.533  31.825  1.00  0.00     0.054 A 
BRANCH  66  67
ATOM     67  S   UNL A   1      49.875  25.555  32.110  1.00  0.00     0.124 S 
ATOM     68  O   UNL A   1      50.811  26.572  32.584  1.00  0.00    -0.237 OA
ATOM     69  O   UNL A   1      49.440  24.587  33.113  1.00  0.00    -0.237 OA
ATOM     70  O   UNL A   1      50.180  24.994  30.797  1.00  0.00    -0.744 OA
ENDBRANCH  66  67
ENDBRANCH  47  61
BRANCH  48  71
ATOM     71  C   UNL A   1      37.389  32.794  29.859  1.00  0.00    -0.014 A 
ATOM     72  C   UNL A   1      37.198  33.647  28.758  1.00  0.00     0.010 A 
ATOM     73  C   UNL A   1      36.328  32.592  30.762  1.00  0.00     0.010 A 
ATOM     74  C   UNL A   1      35.975  34.298  28.572  1.00  0.00     0.020 A 
ATOM     75  C   UNL A   1      35.094  33.219  30.561  1.00  0.00     0.020 A 
ATOM     76  C   UNL A   1      34.929  34.077  29.473  1.00  0.00     0.054 A 
BRANCH  76  77
ATOM     77  S   UNL A   1      33.335  34.891  29.179  1.00  0.00     0.124 S 
ATOM     78  O   UNL A   1      32.758  34.920  30.518  1.00  0.00    -0.237 OA
ATOM     79  O   UNL A   1      33.737  36.184  28.633  1.00  0.00    -0.237 OA
ATOM     80  O   UNL A   1      32.670  34.003  28.228  1.00  0.00    -0.744 OA
ENDBRANCH  76  77
ENDBRANCH  48  71
BRANCH  60  81
ATOM     81  C   UNL A   1      43.320  34.490  33.120  1.00  0.00    -0.014 A 
ATOM     82  C   UNL A   1      43.870  35.594  32.444  1.00  0.00     0.010 A 
ATOM     83  C   UNL A   1      43.121  34.569  34.511  1.00  0.00     0.010 A 
ATOM     84  C   UNL A   1      44.238  36.742  33.148  1.00  0.00     0.020 A 
ATOM     85  C   UNL A   1      43.461  35.727  35.214  1.00  0.00     0.020 A 
ATOM     86  C   UNL A   1      44.028  36.803  34.530  1.00  0.00     0.054 A 
BRANCH  86  87
ATOM     87  S   UNL A   1      44.464  38.327  35.411  1.00  0.00     0.124 S 
ATOM     88  O   UNL A   1      43.719  39.335  34.663  1.00  0.00    -0.237 OA
ATOM     89  O   UNL A   1      43.982  38.063  36.764  1.00  0.00    -0.237 OA
ATOM     90  O   UNL A   1      45.918  38.401  35.278  1.00  0.00    -0.744 OA
ENDBRANCH  86  87
ENDBRANCH  60  81
ENDBRANCH  34  35
ENDBRANCH  26  29
ENDBRANCH  24  25
ENDBRANCH  23  24
ENDBRANCH   1  23
TORSDOF 18
ENDMDL
MODEL 2
REMARK VINA RESULT:     -10.8      2.619      9.278
REMARK SMILES CC1(C)O[C@](C)(C(C)(C)O)CC[C@H]1C(=O)NCCCCCCNC(=O)c1ccc(-c2c3nc(c(-c4ccc(S(=O)(=O)[O-])cc4)c4ccc([nH]4)c(-c4ccc(S(=O)(=O)[O-])cc4)c4nc(c(-c5ccc(S(=O)(=O)[O-])cc5)c5ccc2[nH]5)C=C4)C=C3)cc1
REMARK SMILES IDX 20 1 19 2 18 3 17 4 16 5 14 6 15 7 13 9 1 10 2 11 3 12 4 13
REMARK SMILES IDX 5 14 12 15 6 16 11 17 7 18 8 19 9 20 10 21 21 23 22 24 23 25
REMARK SMILES IDX 24 26 25 28 26 29 27 30 85 31 28 32 84 33 29 34 30 35 31 36
REMARK SMILES IDX 78 37 32 38 83 39 77 40 79 41 33 42 82 43 76 44 75 45 34 47
REMARK SMILES IDX 64 48 45 49 63 50 46 51 49 52 62 53 80 54 47 55 48 56 61 58
REMARK SMILES IDX 81 59 50 60 35 61 36 62 44 63 37 64 43 65 38 66 39 67 40 68
REMARK SMILES IDX 41 69 42 70 65 71 66 72 74 73 67 74 73 75 68 76 69 77 70 78
REMARK SMILES IDX 71 79 72 80 51 81 52 82 60 83 53 84 59 85 54 86 55 87 56 88
REMARK SMILES IDX 57 89 58 90
REMARK H PARENT 16 8 10 22 23 27 79 46 49 57
REMARK Flexibility Score: inf
ROOT
ATOM      1  C   UNL A   1      31.427  28.297  25.937  1.00  0.00     0.002 C 
ENDROOT
BRANCH   1   2
ATOM      2  C   UNL A   1      31.735  28.683  24.488  1.00  0.00     0.002 C 
BRANCH   2   3
ATOM      3  C   UNL A   1      30.564  28.522  23.520  1.00  0.00     0.021 C 
BRANCH   3   4
ATOM      4  C   UNL A   1      30.497  27.156  22.838  1.00  0.00     0.116 C 
BRANCH   4   5
ATOM      5  N   UNL A   1      31.694  26.910  22.063  1.00  0.00    -0.356 N 
ATOM      6  C   UNL A   1      32.798  26.164  22.315  1.00  0.00     0.226 C 
ATOM      7  O   UNL A   1      33.723  26.256  21.498  1.00  0.00    -0.275 OA
ATOM      8  H   UNL A   1      31.711  27.370  21.193  1.00  0.00     0.163 HD
BRANCH   6   9
ATOM      9  C   UNL A   1      32.938  25.224  23.515  1.00  0.00     0.110 C 
ATOM     10  C   UNL A   1      33.189  23.022  22.041  1.00  0.00     0.043 C 
ATOM     11  C   UNL A   1      32.604  23.726  23.268  1.00  0.00     0.075 C 
ATOM     12  C   UNL A   1      31.069  23.604  23.089  1.00  0.00     0.043 C 
ATOM     13  O   UNL A   1      32.896  22.910  24.416  1.00  0.00    -0.366 OA
ATOM     14  C   UNL A   1      34.129  23.091  25.140  1.00  0.00     0.094 C 
ATOM     15  C   UNL A   1      34.162  25.523  24.385  1.00  0.00     0.019 C 
ATOM     16  C   UNL A   1      35.374  22.711  24.305  1.00  0.00     0.045 C 
ATOM     17  C   UNL A   1      34.233  24.568  25.574  1.00  0.00     0.039 C 
BRANCH  14  18
ATOM     18  C   UNL A   1      34.053  22.116  26.388  1.00  0.00     0.088 C 
ATOM     19  C   UNL A   1      33.274  22.717  27.569  1.00  0.00     0.045 C 
ATOM     20  C   UNL A   1      33.385  20.777  26.013  1.00  0.00     0.045 C 
BRANCH  18  21
ATOM     21  O   UNL A   1      35.379  21.835  26.859  1.00  0.00    -0.387 OA
ATOM     22  H   UNL A   1      35.790  22.654  27.179  1.00  0.00     0.211 HD
ENDBRANCH  18  21
ENDBRANCH  14  18
ENDBRANCH   6   9
ENDBRANCH   4   5
ENDBRANCH   3   4
ENDBRANCH   2   3
ENDBRANCH   1   2
BRANCH   1  23
ATOM     23  C   UNL A   1      32.647  27.951  26.794  1.00  0.00     0.021 C 
BRANCH  23  24
ATOM     24  C   UNL A   1      33.889  28.794  26.510  1.00  0.00     0.116 C 
BRANCH  24  25
ATOM     25  N   UNL A   1      33.764  30.141  27.044  1.00  0.00    -0.352 N 
ATOM     26  C   UNL A   1      34.563  30.797  27.944  1.00  0.00     0.251 C 
ATOM     27  H   UNL A   1      32.995  30.657  26.709  1.00  0.00     0.163 HD
ATOM     28  O   UNL A   1      34.175  31.843  28.464  1.00  0.00    -0.269 OA
BRANCH  26  29
ATOM     29  C   UNL A   1      35.880  30.234  28.301  1.00  0.00     0.039 A 
ATOM     30  C   UNL A   1      36.921  30.303  27.374  1.00  0.00     0.014 A 
ATOM     31  C   UNL A   1      36.084  29.648  29.554  1.00  0.00     0.014 A 
ATOM     32  C   UNL A   1      38.191  29.848  27.731  1.00  0.00     0.010 A 
ATOM     33  C   UNL A   1      37.365  29.256  29.930  1.00  0.00     0.010 A 
ATOM     34  C   UNL A   1      38.433  29.361  29.027  1.00  0.00    -0.014 A 
BRANCH  34  35
ATOM     35  C   UNL A   1      39.804  29.003  29.470  1.00  0.00     0.031 A 
ATOM     36  C   UNL A   1      40.642  29.990  30.234  1.00  0.00     0.074 A 
ATOM     37  C   UNL A   1      40.318  27.809  29.115  1.00  0.00     0.049 A 
ATOM     38  N   UNL A   1      41.879  29.874  30.643  1.00  0.00    -0.248 NA
ATOM     39  C   UNL A   1      40.019  31.282  30.561  1.00  0.00     0.031 C 
ATOM     40  C   UNL A   1      39.614  26.782  28.340  1.00  0.00     0.029 A 
ATOM     41  N   UNL A   1      41.553  27.258  29.348  1.00  0.00    -0.354 N 
ATOM     42  C   UNL A   1      42.186  31.077  31.267  1.00  0.00     0.074 A 
ATOM     43  C   UNL A   1      41.022  31.926  31.142  1.00  0.00     0.031 C 
ATOM     44  C   UNL A   1      40.421  25.720  28.184  1.00  0.00     0.029 A 
ATOM     45  C   UNL A   1      41.711  26.006  28.802  1.00  0.00     0.049 A 
ATOM     46  H   UNL A   1      42.259  27.716  29.858  1.00  0.00     0.167 HD
ATOM     47  C   UNL A   1      43.329  31.436  31.900  1.00  0.00     0.031 A 
ATOM     48  C   UNL A   1      42.777  25.184  28.786  1.00  0.00     0.031 A 
ATOM     49  C   UNL A   1      44.486  30.586  32.017  1.00  0.00     0.049 A 
ATOM     50  C   UNL A   1      44.046  25.619  29.465  1.00  0.00     0.074 A 
ATOM     51  C   UNL A   1      45.671  30.837  32.687  1.00  0.00     0.029 A 
ATOM     52  N   UNL A   1      44.610  29.328  31.447  1.00  0.00    -0.354 N 
ATOM     53  N   UNL A   1      44.292  26.732  30.115  1.00  0.00    -0.248 NA
ATOM     54  C   UNL A   1      45.180  24.685  29.414  1.00  0.00     0.031 C 
ATOM     55  C   UNL A   1      46.533  29.757  32.469  1.00  0.00     0.029 A 
ATOM     56  C   UNL A   1      45.863  28.806  31.717  1.00  0.00     0.049 A 
ATOM     57  H   UNL A   1      43.907  28.874  30.925  1.00  0.00     0.167 HD
ATOM     58  C   UNL A   1      45.603  26.625  30.565  1.00  0.00     0.074 A 
ATOM     59  C   UNL A   1      46.090  25.330  30.133  1.00  0.00     0.031 C 
ATOM     60  C   UNL A   1      46.337  27.519  31.271  1.00  0.00     0.031 A 
BRANCH  47  61
ATOM     61  C   UNL A   1      43.391  32.814  32.504  1.00  0.00    -0.014 A 
ATOM     62  C   UNL A   1      43.000  33.042  33.836  1.00  0.00     0.010 A 
ATOM     63  C   UNL A   1      43.892  33.889  31.746  1.00  0.00     0.010 A 
ATOM     64  C   UNL A   1      43.071  34.325  34.386  1.00  0.00     0.020 A 
ATOM     65  C   UNL A   1      43.992  35.168  32.302  1.00  0.00     0.020 A 
ATOM     66  C   UNL A   1      43.565  35.381  33.613  1.00  0.00     0.054 A 
BRANCH  66  67
ATOM     67  S   UNL A   1      43.668  37.030  34.362  1.00  0.00     0.124 S 
ATOM     68  O   UNL A   1      43.374  37.896  33.222  1.00  0.00    -0.237 OA
ATOM     69  O   UNL A   1      42.634  36.979  35.392  1.00  0.00    -0.237 OA
ATOM     70  O   UNL A   1      45.039  37.102  34.860  1.00  0.00    -0.744 OA
ENDBRANCH  66  67
ENDBRANCH  47  61
BRANCH  48  71
ATOM     71  C   UNL A   1      42.689  23.866  28.099  1.00  0.00    -0.014 A 
ATOM     72  C   UNL A   1      42.406  22.697  28.827  1.00  0.00     0.010 A 
ATOM     73  C   UNL A   1      42.870  23.777  26.706  1.00  0.00     0.010 A 
ATOM     74  C   UNL A   1      42.320  21.462  28.178  1.00  0.00     0.020 A 
ATOM     75  C   UNL A   1      42.755  22.548  26.050  1.00  0.00     0.020 A 
ATOM     76  C   UNL A   1      42.491  21.396  26.792  1.00  0.00     0.054 A 
BRANCH  76  77
ATOM     77  S   UNL A   1      42.320  19.790  25.965  1.00  0.00     0.124 S 
ATOM     78  O   UNL A   1      40.939  19.834  25.500  1.00  0.00    -0.237 OA
ATOM     79  O   UNL A   1      43.343  19.861  24.925  1.00  0.00    -0.237 OA
ATOM     80  O   UNL A   1      42.594  18.828  27.030  1.00  0.00    -0.744 OA
ENDBRANCH  76  77
ENDBRANCH  48  71
BRANCH  60  81
ATOM     81  C   UNL A   1      47.744  27.126  31.634  1.00  0.00    -0.014 A 
ATOM     82  C   UNL A   1      48.022  26.447  32.834  1.00  0.00     0.010 A 
ATOM     83  C   UNL A   1      48.795  27.386  30.735  1.00  0.00     0.010 A 
ATOM     84  C   UNL A   1      49.328  26.059  33.140  1.00  0.00     0.020 A 
ATOM     85  C   UNL A   1      50.098  26.973  31.024  1.00  0.00     0.020 A 
ATOM     86  C   UNL A   1      50.359  26.322  32.231  1.00  0.00     0.054 A 
BRANCH  86  87
ATOM     87  S   UNL A   1      52.036  25.758  32.629  1.00  0.00     0.124 S 
ATOM     88  O   UNL A   1      52.851  26.874  32.161  1.00  0.00    -0.237 OA
ATOM     89  O   UNL A   1      51.979  25.585  34.078  1.00  0.00    -0.237 OA
ATOM     90  O   UNL A   1      52.176  24.520  31.865  1.00  0.00    -0.744 OA
ENDBRANCH  86  87
ENDBRANCH  60  81
ENDBRANCH  34  35
ENDBRANCH  26  29
ENDBRANCH  24  25
ENDBRANCH  23  24
ENDBRANCH   1  23
TORSDOF 18
ENDMDL
MODEL 3
REMARK VINA RESULT:     -10.7      3.449      4.756
REMARK SMILES CC1(C)O[C@](C)(C(C)(C)O)CC[C@H]1C(=O)NCCCCCCNC(=O)c1ccc(-c2c3nc(c(-c4ccc(S(=O)(=O)[O-])cc4)c4ccc([nH]4)c(-c4ccc(S(=O)(=O)[O-])cc4)c4nc(c(-c5ccc(S(=O)(=O)[O-])cc5)c5ccc2[nH]5)C=C4)C=C3)cc1
REMARK SMILES IDX 20 1 19 2 18 3 17 4 16 5 14 6 15 7 13 9 1 10 2 11 3 12 4 13
REMARK SMILES IDX 5 14 12 15 6 16 11 17 7 18 8 19 9 20 10 21 21 23 22 24 23 25
REMARK SMILES IDX 24 26 25 28 26 29 27 30 85 31 28 32 84 33 29 34 30 35 31 36
REMARK SMILES IDX 78 37 32 38 83 39 77 40 79 41 33 42 82 43 76 44 75 45 34 47
REMARK SMILES IDX 64 48 45 49 63 50 46 51 49 52 62 53 80 54 47 55 48 56 61 58
REMARK SMILES IDX 81 59 50 60 35 61 36 62 44 63 37 64 43 65 38 66 39 67 40 68
REMARK SMILES IDX 41 69 42 70 65 71 66 72 74 73 67 74 73 75 68 76 69 77 70 78
REMARK SMILES IDX 71 79 72 80 51 81 52 82 60 83 53 84 59 85 54 86 55 87 56 88
REMARK SMILES IDX 57 89 58 90
REMARK H PARENT 16 8 10 22 23 27 79 46 49 57
REMARK Flexibility Score: inf
ROOT
ATOM      1  C   UNL A   1      41.263  21.791  26.651  1.00  0.00     0.002 C 
ENDROOT
BRANCH   1   2
ATOM      2  C   UNL A   1      39.763  22.013  26.445  1.00  0.00     0.002 C 
BRANCH   2   3
ATOM      3  C   UNL A   1      39.263  23.403  26.835  1.00  0.00     0.021 C 
BRANCH   3   4
ATOM      4  C   UNL A   1      38.039  23.873  26.050  1.00  0.00     0.116 C 
BRANCH   4   5
ATOM      5  N   UNL A   1      36.851  23.168  26.482  1.00  0.00    -0.356 N 
ATOM      6  C   UNL A   1      35.544  23.306  26.145  1.00  0.00     0.226 C 
ATOM      7  O   UNL A   1      34.735  22.629  26.791  1.00  0.00    -0.275 OA
ATOM      8  H   UNL A   1      37.022  22.459  27.142  1.00  0.00     0.163 HD
BRANCH   6   9
ATOM      9  C   UNL A   1      35.044  24.217  25.022  1.00  0.00     0.110 C 
ATOM     10  C   UNL A   1      33.889  22.254  23.644  1.00  0.00     0.043 C 
ATOM     11  C   UNL A   1      34.727  23.535  23.661  1.00  0.00     0.075 C 
ATOM     12  C   UNL A   1      36.072  23.126  23.010  1.00  0.00     0.043 C 
ATOM     13  O   UNL A   1      34.137  24.450  22.721  1.00  0.00    -0.366 OA
ATOM     14  C   UNL A   1      33.098  25.354  23.142  1.00  0.00     0.094 C 
ATOM     15  C   UNL A   1      34.062  25.292  25.499  1.00  0.00     0.019 C 
ATOM     16  C   UNL A   1      31.797  24.622  23.548  1.00  0.00     0.045 C 
ATOM     17  C   UNL A   1      33.618  26.179  24.339  1.00  0.00     0.039 C 
BRANCH  14  18
ATOM     18  C   UNL A   1      32.780  26.273  21.890  1.00  0.00     0.088 C 
ATOM     19  C   UNL A   1      32.578  25.469  20.595  1.00  0.00     0.045 C 
ATOM     20  C   UNL A   1      31.511  27.119  22.123  1.00  0.00     0.045 C 
BRANCH  18  21
ATOM     21  O   UNL A   1      33.876  27.169  21.661  1.00  0.00    -0.387 OA
ATOM     22  H   UNL A   1      33.789  27.943  22.240  1.00  0.00     0.211 HD
ENDBRANCH  18  21
ENDBRANCH  14  18
ENDBRANCH   6   9
ENDBRANCH   4   5
ENDBRANCH   3   4
ENDBRANCH   2   3
ENDBRANCH   1   2
BRANCH   1  23
ATOM     23  C   UNL A   1      41.820  22.289  27.987  1.00  0.00     0.021 C 
BRANCH  23  24
ATOM     24  C   UNL A   1      42.854  23.408  27.873  1.00  0.00     0.116 C 
BRANCH  24  25
ATOM     25  N   UNL A   1      42.834  24.033  26.560  1.00  0.00    -0.352 N 
ATOM     26  C   UNL A   1      42.345  25.259  26.188  1.00  0.00     0.251 C 
ATOM     27  H   UNL A   1      43.229  23.500  25.833  1.00  0.00     0.163 HD
ATOM     28  O   UNL A   1      42.195  25.526  24.996  1.00  0.00    -0.269 OA
BRANCH  26  29
ATOM     29  C   UNL A   1      41.984  26.248  27.222  1.00  0.00     0.039 A 
ATOM     30  C   UNL A   1      40.919  25.973  28.081  1.00  0.00     0.014 A 
ATOM     31  C   UNL A   1      42.705  27.439  27.346  1.00  0.00     0.014 A 
ATOM     32  C   UNL A   1      40.621  26.864  29.114  1.00  0.00     0.010 A 
ATOM     33  C   UNL A   1      42.449  28.292  28.415  1.00  0.00     0.010 A 
ATOM     34  C   UNL A   1      41.412  28.008  29.316  1.00  0.00    -0.014 A 
BRANCH  34  35
ATOM     35  C   UNL A   1      41.198  28.892  30.489  1.00  0.00     0.031 A 
ATOM     36  C   UNL A   1      42.035  28.732  31.728  1.00  0.00     0.074 A 
ATOM     37  C   UNL A   1      40.196  29.792  30.460  1.00  0.00     0.049 A 
ATOM     38  N   UNL A   1      41.946  29.369  32.867  1.00  0.00    -0.248 NA
ATOM     39  C   UNL A   1      43.093  27.710  31.691  1.00  0.00     0.031 C 
ATOM     40  C   UNL A   1      39.291  30.014  29.327  1.00  0.00     0.029 A 
ATOM     41  N   UNL A   1      39.760  30.682  31.409  1.00  0.00    -0.354 N 
ATOM     42  C   UNL A   1      42.927  28.822  33.685  1.00  0.00     0.074 A 
ATOM     43  C   UNL A   1      43.569  27.769  32.927  1.00  0.00     0.031 C 
ATOM     44  C   UNL A   1      38.426  30.991  29.641  1.00  0.00     0.029 A 
ATOM     45  C   UNL A   1      38.680  31.433  31.009  1.00  0.00     0.049 A 
ATOM     46  H   UNL A   1      40.182  30.774  32.294  1.00  0.00     0.167 HD
ATOM     47  C   UNL A   1      43.272  29.174  34.947  1.00  0.00     0.031 A 
ATOM     48  C   UNL A   1      37.964  32.362  31.669  1.00  0.00     0.031 A 
ATOM     49  C   UNL A   1      42.627  30.221  35.696  1.00  0.00     0.049 A 
ATOM     50  C   UNL A   1      38.344  32.711  33.082  1.00  0.00     0.074 A 
ATOM     51  C   UNL A   1      42.940  30.691  36.960  1.00  0.00     0.029 A 
ATOM     52  N   UNL A   1      41.534  30.954  35.258  1.00  0.00    -0.354 N 
ATOM     53  N   UNL A   1      39.324  32.233  33.811  1.00  0.00    -0.248 NA
ATOM     54  C   UNL A   1      37.526  33.728  33.757  1.00  0.00     0.031 C 
ATOM     55  C   UNL A   1      41.998  31.664  37.310  1.00  0.00     0.029 A 
ATOM     56  C   UNL A   1      41.137  31.845  36.240  1.00  0.00     0.049 A 
ATOM     57  H   UNL A   1      41.104  30.853  34.377  1.00  0.00     0.167 HD
ATOM     58  C   UNL A   1      39.251  32.904  35.027  1.00  0.00     0.074 A 
ATOM     59  C   UNL A   1      38.146  33.837  34.925  1.00  0.00     0.031 C 
ATOM     60  C   UNL A   1      40.028  32.760  36.128  1.00  0.00     0.031 A 
BRANCH  47  61
ATOM     61  C   UNL A   1      44.393  28.411  35.604  1.00  0.00    -0.014 A 
ATOM     62  C   UNL A   1      45.723  28.862  35.525  1.00  0.00     0.010 A 
ATOM     63  C   UNL A   1      44.107  27.253  36.352  1.00  0.00     0.010 A 
ATOM     64  C   UNL A   1      46.751  28.148  36.149  1.00  0.00     0.020 A 
ATOM     65  C   UNL A   1      45.128  26.554  37.001  1.00  0.00     0.020 A 
ATOM     66  C   UNL A   1      46.446  26.996  36.881  1.00  0.00     0.054 A 
BRANCH  66  67
ATOM     67  S   UNL A   1      47.798  26.104  37.698  1.00  0.00     0.124 S 
ATOM     68  O   UNL A   1      48.761  27.176  37.940  1.00  0.00    -0.237 OA
ATOM     69  O   UNL A   1      47.150  25.563  38.890  1.00  0.00    -0.237 OA
ATOM     70  O   UNL A   1      48.208  25.111  36.709  1.00  0.00    -0.744 OA
ENDBRANCH  66  67
ENDBRANCH  47  61
BRANCH  48  71
ATOM     71  C   UNL A   1      36.810  33.025  31.000  1.00  0.00    -0.014 A 
ATOM     72  C   UNL A   1      37.010  33.842  29.874  1.00  0.00     0.010 A 
ATOM     73  C   UNL A   1      35.501  32.824  31.477  1.00  0.00     0.010 A 
ATOM     74  C   UNL A   1      35.925  34.460  29.247  1.00  0.00     0.020 A 
ATOM     75  C   UNL A   1      34.411  33.417  30.833  1.00  0.00     0.020 A 
ATOM     76  C   UNL A   1      34.631  34.240  29.728  1.00  0.00     0.054 A 
BRANCH  76  77
ATOM     77  S   UNL A   1      33.233  35.008  28.863  1.00  0.00     0.124 S 
ATOM     78  O   UNL A   1      32.344  35.351  29.967  1.00  0.00    -0.237 OA
ATOM     79  O   UNL A   1      33.865  36.136  28.183  1.00  0.00    -0.237 OA
ATOM     80  O   UNL A   1      32.756  33.948  27.978  1.00  0.00    -0.744 OA
ENDBRANCH  76  77
ENDBRANCH  48  71
BRANCH  60  81
ATOM     81  C   UNL A   1      39.721  33.639  37.311  1.00  0.00    -0.014 A 
ATOM     82  C   UNL A   1      38.979  33.154  38.403  1.00  0.00     0.010 A 
ATOM     83  C   UNL A   1      40.233  34.949  37.359  1.00  0.00     0.010 A 
ATOM     84  C   UNL A   1      38.733  33.971  39.509  1.00  0.00     0.020 A 
ATOM     85  C   UNL A   1      40.014  35.758  38.476  1.00  0.00     0.020 A 
ATOM     86  C   UNL A   1      39.255  35.268  39.540  1.00  0.00     0.054 A 
BRANCH  86  87
ATOM     87  S   UNL A   1      38.967  36.288  41.011  1.00  0.00     0.124 S 
ATOM     88  O   UNL A   1      37.867  35.581  41.661  1.00  0.00    -0.237 OA
ATOM     89  O   UNL A   1      40.252  36.223  41.703  1.00  0.00    -0.237 OA
ATOM     90  O   UNL A   1      38.627  37.599  40.463  1.00  0.00    -0.744 OA
ENDBRANCH  86  87
ENDBRANCH  60  81
ENDBRANCH  34  35
ENDBRANCH  26  29
ENDBRANCH  24  25
ENDBRANCH  23  24
ENDBRANCH   1  23
TORSDOF 18
ENDMDL
