MODEL 1
REMARK VINA RESULT:     -10.3      0.000      0.000
REMARK SMILES C[C@H](Oc1ccccc1Cl)C(=O)N1CCCC[C@H]1C(=O)NCCCCCCNC(=O)c1ccc(-c2c3nc(c(-c4ccc(S(=O)(=O)[O-])cc4)c4ccc([nH]4)c(-c4ccc(S(=O)(=O)[O-])cc4)c4nc(c(-c5ccc(S(=O)(=O)[O-])cc5)c5ccc2[nH]5)C=C4)C=C3)cc1
REMARK SMILES IDX 24 1 23 2 22 3 21 4 19 5 20 6 18 8 13 9 14 10 15 11 17 12
REMARK SMILES IDX 16 13 11 14 12 15 2 16 1 17 3 18 4 19 5 20 9 21 6 22 8 23
REMARK SMILES IDX 10 24 7 25 25 26 26 27 27 28 28 29 29 30 30 32 31 33 32 34
REMARK SMILES IDX 90 35 33 36 89 37 34 38 35 39 36 40 83 41 37 42 88 43 82 44
REMARK SMILES IDX 84 45 38 46 87 47 81 48 80 49 39 51 69 52 50 53 68 54 51 55
REMARK SMILES IDX 54 56 67 57 85 58 52 59 53 60 66 62 86 63 55 64 40 65 41 66
REMARK SMILES IDX 49 67 42 68 48 69 43 70 44 71 45 72 46 73 47 74 70 75 71 76
REMARK SMILES IDX 79 77 72 78 78 79 73 80 74 81 75 82 76 83 77 84 56 85 57 86
REMARK SMILES IDX 65 87 58 88 64 89 59 90 60 91 61 92 62 93 63 94
REMARK H PARENT 21 7 28 31 84 50 54 61
REMARK Flexibility Score: inf
ROOT
ATOM      1  C   UNL A   1      35.113  31.567  27.694  1.00  0.00     0.002 C 
ENDROOT
BRANCH   1   2
ATOM      2  C   UNL A   1      35.114  30.073  28.034  1.00  0.00     0.021 C 
BRANCH   2   3
ATOM      3  C   UNL A   1      34.423  29.184  27.002  1.00  0.00     0.116 C 
BRANCH   3   4
ATOM      4  N   UNL A   1      33.150  29.736  26.578  1.00  0.00    -0.354 N 
ATOM      5  C   UNL A   1      32.237  29.242  25.689  1.00  0.00     0.242 C 
ATOM      6  O   UNL A   1      31.215  29.906  25.503  1.00  0.00    -0.273 OA
ATOM      7  H   UNL A   1      32.907  30.594  26.993  1.00  0.00     0.163 HD
BRANCH   5   8
ATOM      8  C   UNL A   1      32.525  27.913  24.947  1.00  0.00     0.174 C 
ATOM      9  N   UNL A   1      31.358  27.006  24.888  1.00  0.00    -0.327 N 
ATOM     10  C   UNL A   1      30.307  27.365  23.933  1.00  0.00     0.120 C 
ATOM     11  C   UNL A   1      30.843  27.638  22.535  1.00  0.00     0.022 C 
ATOM     12  C   UNL A   1      33.078  28.148  23.533  1.00  0.00     0.035 C 
ATOM     13  C   UNL A   1      32.005  28.621  22.561  1.00  0.00     0.004 C 
BRANCH   9  14
ATOM     14  C   UNL A   1      31.147  25.908  25.719  1.00  0.00     0.264 C 
ATOM     15  O   UNL A   1      31.354  25.984  26.937  1.00  0.00    -0.271 OA
BRANCH  14  16
ATOM     16  C   UNL A   1      30.855  24.512  25.098  1.00  0.00     0.259 C 
ATOM     17  C   UNL A   1      30.602  23.569  26.283  1.00  0.00     0.064 C 
BRANCH  16  18
ATOM     18  O   UNL A   1      31.860  24.091  24.184  1.00  0.00    -0.479 OA
BRANCH  18  19
ATOM     19  C   UNL A   1      33.118  23.734  24.590  1.00  0.00     0.139 A 
ATOM     20  C   UNL A   1      34.084  24.614  25.082  1.00  0.00     0.048 A 
ATOM     21  C   UNL A   1      33.460  22.374  24.470  1.00  0.00     0.083 A 
ATOM     22  C   UNL A   1      35.389  24.174  25.336  1.00  0.00     0.004 A 
ATOM     23  C   UNL A   1      34.761  21.932  24.734  1.00  0.00     0.024 A 
ATOM     24  Cl  UNL A   1      32.289  21.184  24.018  1.00  0.00    -0.080 Cl
ATOM     25  C   UNL A   1      35.733  22.839  25.145  1.00  0.00     0.002 A 
ENDBRANCH  18  19
ENDBRANCH  16  18
ENDBRANCH  14  16
ENDBRANCH   9  14
ENDBRANCH   5   8
ENDBRANCH   3   4
ENDBRANCH   2   3
ENDBRANCH   1   2
BRANCH   1  26
ATOM     26  C   UNL A   1      34.634  32.490  28.818  1.00  0.00     0.002 C 
BRANCH  26  27
ATOM     27  C   UNL A   1      35.632  33.569  29.240  1.00  0.00     0.021 C 
BRANCH  27  28
ATOM     28  C   UNL A   1      36.692  33.104  30.233  1.00  0.00     0.116 C 
BRANCH  28  29
ATOM     29  N   UNL A   1      36.234  31.990  31.048  1.00  0.00    -0.352 N 
ATOM     30  C   UNL A   1      36.809  30.757  31.232  1.00  0.00     0.251 C 
ATOM     31  H   UNL A   1      35.392  32.142  31.537  1.00  0.00     0.163 HD
ATOM     32  O   UNL A   1      36.187  29.868  31.808  1.00  0.00    -0.269 OA
BRANCH  30  33
ATOM     33  C   UNL A   1      38.170  30.497  30.714  1.00  0.00     0.039 A 
ATOM     34  C   UNL A   1      39.199  30.225  31.618  1.00  0.00     0.014 A 
ATOM     35  C   UNL A   1      38.425  30.511  29.340  1.00  0.00     0.014 A 
ATOM     36  C   UNL A   1      40.472  29.905  31.139  1.00  0.00     0.010 A 
ATOM     37  C   UNL A   1      39.670  30.113  28.864  1.00  0.00     0.010 A 
ATOM     38  C   UNL A   1      40.709  29.812  29.757  1.00  0.00    -0.014 A 
BRANCH  38  39
ATOM     39  C   UNL A   1      42.033  29.398  29.227  1.00  0.00     0.031 A 
ATOM     40  C   UNL A   1      43.168  30.384  29.164  1.00  0.00     0.074 A 
ATOM     41  C   UNL A   1      42.199  28.150  28.746  1.00  0.00     0.049 A 
ATOM     42  N   UNL A   1      44.383  30.217  28.709  1.00  0.00    -0.248 NA
ATOM     43  C   UNL A   1      42.893  31.744  29.656  1.00  0.00     0.031 C 
ATOM     44  C   UNL A   1      41.171  27.107  28.724  1.00  0.00     0.029 A 
ATOM     45  N   UNL A   1      43.296  27.545  28.186  1.00  0.00    -0.354 N 
ATOM     46  C   UNL A   1      45.011  31.450  28.844  1.00  0.00     0.074 A 
ATOM     47  C   UNL A   1      44.023  32.369  29.367  1.00  0.00     0.031 C 
ATOM     48  C   UNL A   1      41.699  25.979  28.223  1.00  0.00     0.029 A 
ATOM     49  C   UNL A   1      43.086  26.231  27.842  1.00  0.00     0.049 A 
ATOM     50  H   UNL A   1      44.153  28.009  28.043  1.00  0.00     0.167 HD
ATOM     51  C   UNL A   1      46.297  31.785  28.576  1.00  0.00     0.031 A 
ATOM     52  C   UNL A   1      43.915  25.325  27.286  1.00  0.00     0.031 A 
ATOM     53  C   UNL A   1      47.273  30.870  28.046  1.00  0.00     0.049 A 
ATOM     54  C   UNL A   1      45.324  25.731  26.954  1.00  0.00     0.074 A 
ATOM     55  C   UNL A   1      48.613  31.095  27.784  1.00  0.00     0.029 A 
ATOM     56  N   UNL A   1      47.010  29.556  27.682  1.00  0.00    -0.354 N 
ATOM     57  N   UNL A   1      45.920  26.883  27.150  1.00  0.00    -0.248 NA
ATOM     58  C   UNL A   1      46.176  24.708  26.331  1.00  0.00     0.031 C 
ATOM     59  C   UNL A   1      49.144  29.938  27.201  1.00  0.00     0.029 A 
ATOM     60  C   UNL A   1      48.154  28.969  27.167  1.00  0.00     0.049 A 
ATOM     61  H   UNL A   1      46.140  29.107  27.777  1.00  0.00     0.167 HD
ATOM     62  C   UNL A   1      47.228  26.713  26.706  1.00  0.00     0.074 A 
ATOM     63  C   UNL A   1      47.335  25.346  26.240  1.00  0.00     0.031 C 
ATOM     64  C   UNL A   1      48.247  27.609  26.694  1.00  0.00     0.031 A 
BRANCH  51  65
ATOM     65  C   UNL A   1      46.702  33.217  28.830  1.00  0.00    -0.014 A 
ATOM     66  C   UNL A   1      46.614  34.193  27.820  1.00  0.00     0.010 A 
ATOM     67  C   UNL A   1      47.191  33.590  30.095  1.00  0.00     0.010 A 
ATOM     68  C   UNL A   1      47.077  35.492  28.046  1.00  0.00     0.020 A 
ATOM     69  C   UNL A   1      47.620  34.897  30.337  1.00  0.00     0.020 A 
ATOM     70  C   UNL A   1      47.588  35.833  29.302  1.00  0.00     0.054 A 
BRANCH  70  71
ATOM     71  S   UNL A   1      48.213  37.516  29.558  1.00  0.00     0.124 S 
ATOM     72  O   UNL A   1      49.574  37.413  29.036  1.00  0.00    -0.237 OA
ATOM     73  O   UNL A   1      47.295  38.324  28.760  1.00  0.00    -0.237 OA
ATOM     74  O   UNL A   1      48.113  37.707  31.003  1.00  0.00    -0.744 OA
ENDBRANCH  70  71
ENDBRANCH  51  65
BRANCH  52  75
ATOM     75  C   UNL A   1      43.442  23.933  27.055  1.00  0.00    -0.014 A 
ATOM     76  C   UNL A   1      43.375  23.025  28.125  1.00  0.00     0.010 A 
ATOM     77  C   UNL A   1      43.019  23.519  25.779  1.00  0.00     0.010 A 
ATOM     78  C   UNL A   1      42.895  21.727  27.926  1.00  0.00     0.020 A 
ATOM     79  C   UNL A   1      42.513  22.231  25.580  1.00  0.00     0.020 A 
ATOM     80  C   UNL A   1      42.459  21.341  26.655  1.00  0.00     0.054 A 
BRANCH  80  81
ATOM     81  S   UNL A   1      41.765  19.678  26.441  1.00  0.00     0.124 S 
ATOM     82  O   UNL A   1      40.330  19.939  26.476  1.00  0.00    -0.237 OA
ATOM     83  O   UNL A   1      42.306  19.277  25.146  1.00  0.00    -0.237 OA
ATOM     84  O   UNL A   1      42.296  18.938  27.585  1.00  0.00    -0.744 OA
ENDBRANCH  80  81
ENDBRANCH  52  75
BRANCH  64  85
ATOM     85  C   UNL A   1      49.584  27.130  26.189  1.00  0.00    -0.014 A 
ATOM     86  C   UNL A   1      50.513  26.511  27.044  1.00  0.00     0.010 A 
ATOM     87  C   UNL A   1      49.892  27.257  24.822  1.00  0.00     0.010 A 
ATOM     88  C   UNL A   1      51.738  26.057  26.547  1.00  0.00     0.020 A 
ATOM     89  C   UNL A   1      51.102  26.776  24.315  1.00  0.00     0.020 A 
ATOM     90  C   UNL A   1      52.024  26.190  25.184  1.00  0.00     0.054 A 
BRANCH  90  91
ATOM     91  S   UNL A   1      53.600  25.550  24.556  1.00  0.00     0.124 S 
ATOM     92  O   UNL A   1      53.623  26.079  23.195  1.00  0.00    -0.237 OA
ATOM     93  O   UNL A   1      54.572  26.136  25.475  1.00  0.00    -0.237 OA
ATOM     94  O   UNL A   1      53.450  24.100  24.658  1.00  0.00    -0.744 OA
ENDBRANCH  90  91
ENDBRANCH  64  85
ENDBRANCH  38  39
ENDBRANCH  30  33
ENDBRANCH  28  29
ENDBRANCH  27  28
ENDBRANCH  26  27
ENDBRANCH   1  26
TORSDOF 20
ENDMDL
MODEL 2
REMARK VINA RESULT:     -10.3      5.526     10.463
REMARK SMILES C[C@H](Oc1ccccc1Cl)C(=O)N1CCCC[C@H]1C(=O)NCCCCCCNC(=O)c1ccc(-c2c3nc(c(-c4ccc(S(=O)(=O)[O-])cc4)c4ccc([nH]4)c(-c4ccc(S(=O)(=O)[O-])cc4)c4nc(c(-c5ccc(S(=O)(=O)[O-])cc5)c5ccc2[nH]5)C=C4)C=C3)cc1
REMARK SMILES IDX 24 1 23 2 22 3 21 4 19 5 20 6 18 8 13 9 14 10 15 11 17 12
REMARK SMILES IDX 16 13 11 14 12 15 2 16 1 17 3 18 4 19 5 20 9 21 6 22 8 23
REMARK SMILES IDX 10 24 7 25 25 26 26 27 27 28 28 29 29 30 30 32 31 33 32 34
REMARK SMILES IDX 90 35 33 36 89 37 34 38 35 39 36 40 83 41 37 42 88 43 82 44
REMARK SMILES IDX 84 45 38 46 87 47 81 48 80 49 39 51 69 52 50 53 68 54 51 55
REMARK SMILES IDX 54 56 67 57 85 58 52 59 53 60 66 62 86 63 55 64 40 65 41 66
REMARK SMILES IDX 49 67 42 68 48 69 43 70 44 71 45 72 46 73 47 74 70 75 71 76
REMARK SMILES IDX 79 77 72 78 78 79 73 80 74 81 75 82 76 83 77 84 56 85 57 86
REMARK SMILES IDX 65 87 58 88 64 89 59 90 60 91 61 92 62 93 63 94
REMARK H PARENT 21 7 28 31 84 50 54 61
REMARK Flexibility Score: inf
ROOT
ATOM      1  C   UNL A   1      33.521  28.020  25.902  1.00  0.00     0.002 C 
ENDROOT
BRANCH   1   2
ATOM      2  C   UNL A   1      32.710  26.995  25.102  1.00  0.00     0.021 C 
BRANCH   2   3
ATOM      3  C   UNL A   1      33.120  25.541  25.329  1.00  0.00     0.116 C 
BRANCH   3   4
ATOM      4  N   UNL A   1      33.950  25.038  24.251  1.00  0.00    -0.354 N 
ATOM      5  C   UNL A   1      34.875  24.033  24.258  1.00  0.00     0.242 C 
ATOM      6  O   UNL A   1      35.450  23.789  23.195  1.00  0.00    -0.273 OA
ATOM      7  H   UNL A   1      33.827  25.487  23.384  1.00  0.00     0.163 HD
BRANCH   5   8
ATOM      8  C   UNL A   1      35.179  23.274  25.573  1.00  0.00     0.174 C 
ATOM      9  N   UNL A   1      34.806  21.844  25.529  1.00  0.00    -0.327 N 
ATOM     10  C   UNL A   1      35.694  20.966  24.764  1.00  0.00     0.120 C 
ATOM     11  C   UNL A   1      37.159  21.124  25.147  1.00  0.00     0.022 C 
ATOM     12  C   UNL A   1      36.648  23.420  25.998  1.00  0.00     0.035 C 
ATOM     13  C   UNL A   1      37.587  22.585  25.136  1.00  0.00     0.004 C 
BRANCH   9  14
ATOM     14  C   UNL A   1      33.646  21.295  26.075  1.00  0.00     0.264 C 
ATOM     15  O   UNL A   1      33.626  20.889  27.244  1.00  0.00    -0.271 OA
BRANCH  14  16
ATOM     16  C   UNL A   1      32.429  20.990  25.157  1.00  0.00     0.259 C 
ATOM     17  C   UNL A   1      31.432  22.135  25.386  1.00  0.00     0.064 C 
BRANCH  16  18
ATOM     18  O   UNL A   1      31.909  19.679  25.343  1.00  0.00    -0.479 OA
BRANCH  18  19
ATOM     19  C   UNL A   1      32.537  18.565  24.854  1.00  0.00     0.139 A 
ATOM     20  C   UNL A   1      33.019  17.508  25.630  1.00  0.00     0.048 A 
ATOM     21  C   UNL A   1      32.731  18.507  23.462  1.00  0.00     0.083 A 
ATOM     22  C   UNL A   1      33.775  16.482  25.050  1.00  0.00     0.004 A 
ATOM     23  C   UNL A   1      33.477  17.476  22.881  1.00  0.00     0.024 A 
ATOM     24  Cl  UNL A   1      32.039  19.686  22.403  1.00  0.00    -0.080 Cl
ATOM     25  C   UNL A   1      34.019  16.474  23.680  1.00  0.00     0.002 A 
ENDBRANCH  18  19
ENDBRANCH  16  18
ENDBRANCH  14  16
ENDBRANCH   9  14
ENDBRANCH   5   8
ENDBRANCH   3   4
ENDBRANCH   2   3
ENDBRANCH   1   2
BRANCH   1  26
ATOM     26  C   UNL A   1      32.741  28.762  26.989  1.00  0.00     0.002 C 
BRANCH  26  27
ATOM     27  C   UNL A   1      32.550  30.260  26.744  1.00  0.00     0.021 C 
BRANCH  27  28
ATOM     28  C   UNL A   1      33.583  31.154  27.420  1.00  0.00     0.116 C 
BRANCH  28  29
ATOM     29  N   UNL A   1      33.123  32.528  27.553  1.00  0.00    -0.352 N 
ATOM     30  C   UNL A   1      33.546  33.503  28.420  1.00  0.00     0.251 C 
ATOM     31  H   UNL A   1      32.405  32.794  26.933  1.00  0.00     0.163 HD
ATOM     32  O   UNL A   1      32.915  34.553  28.521  1.00  0.00    -0.269 OA
BRANCH  30  33
ATOM     33  C   UNL A   1      34.750  33.277  29.249  1.00  0.00     0.039 A 
ATOM     34  C   UNL A   1      34.701  32.327  30.271  1.00  0.00     0.014 A 
ATOM     35  C   UNL A   1      35.926  33.992  29.009  1.00  0.00     0.014 A 
ATOM     36  C   UNL A   1      35.852  32.050  31.013  1.00  0.00     0.010 A 
ATOM     37  C   UNL A   1      37.090  33.658  29.692  1.00  0.00     0.010 A 
ATOM     38  C   UNL A   1      37.066  32.688  30.706  1.00  0.00    -0.014 A 
BRANCH  38  39
ATOM     39  C   UNL A   1      38.319  32.353  31.429  1.00  0.00     0.031 A 
ATOM     40  C   UNL A   1      39.281  31.348  30.857  1.00  0.00     0.074 A 
ATOM     41  C   UNL A   1      38.564  32.910  32.633  1.00  0.00     0.049 A 
ATOM     42  N   UNL A   1      40.408  30.907  31.354  1.00  0.00    -0.248 NA
ATOM     43  C   UNL A   1      38.916  30.742  29.566  1.00  0.00     0.031 C 
ATOM     44  C   UNL A   1      37.698  33.877  33.310  1.00  0.00     0.029 A 
ATOM     45  N   UNL A   1      39.616  32.744  33.497  1.00  0.00    -0.354 N 
ATOM     46  C   UNL A   1      40.877  29.962  30.449  1.00  0.00     0.074 A 
ATOM     47  C   UNL A   1      39.882  29.851  29.404  1.00  0.00     0.031 C 
ATOM     48  C   UNL A   1      38.277  34.254  34.461  1.00  0.00     0.029 A 
ATOM     49  C   UNL A   1      39.528  33.520  34.629  1.00  0.00     0.049 A 
ATOM     50  H   UNL A   1      40.363  32.127  33.324  1.00  0.00     0.167 HD
ATOM     51  C   UNL A   1      42.039  29.263  30.472  1.00  0.00     0.031 A 
ATOM     52  C   UNL A   1      40.360  33.634  35.682  1.00  0.00     0.031 A 
ATOM     53  C   UNL A   1      43.020  29.369  31.520  1.00  0.00     0.049 A 
ATOM     54  C   UNL A   1      41.621  32.815  35.711  1.00  0.00     0.074 A 
ATOM     55  C   UNL A   1      44.250  28.741  31.615  1.00  0.00     0.029 A 
ATOM     56  N   UNL A   1      42.877  30.143  32.663  1.00  0.00    -0.354 N 
ATOM     57  N   UNL A   1      42.081  31.975  34.813  1.00  0.00    -0.248 NA
ATOM     58  C   UNL A   1      42.479  32.965  36.894  1.00  0.00     0.031 C 
ATOM     59  C   UNL A   1      44.820  29.085  32.846  1.00  0.00     0.029 A 
ATOM     60  C   UNL A   1      43.981  29.983  33.485  1.00  0.00     0.049 A 
ATOM     61  H   UNL A   1      42.105  30.721  32.860  1.00  0.00     0.167 HD
ATOM     62  C   UNL A   1      43.300  31.523  35.308  1.00  0.00     0.074 A 
ATOM     63  C   UNL A   1      43.507  32.189  36.578  1.00  0.00     0.031 C 
ATOM     64  C   UNL A   1      44.171  30.642  34.754  1.00  0.00     0.031 A 
BRANCH  51  65
ATOM     65  C   UNL A   1      42.285  28.300  29.336  1.00  0.00    -0.014 A 
ATOM     66  C   UNL A   1      42.981  28.696  28.179  1.00  0.00     0.010 A 
ATOM     67  C   UNL A   1      41.803  26.981  29.422  1.00  0.00     0.010 A 
ATOM     68  C   UNL A   1      43.122  27.819  27.100  1.00  0.00     0.020 A 
ATOM     69  C   UNL A   1      41.974  26.089  28.360  1.00  0.00     0.020 A 
ATOM     70  C   UNL A   1      42.607  26.522  27.194  1.00  0.00     0.054 A 
BRANCH  70  71
ATOM     71  S   UNL A   1      42.774  25.415  25.767  1.00  0.00     0.124 S 
ATOM     72  O   UNL A   1      42.436  26.304  24.657  1.00  0.00    -0.237 OA
ATOM     73  O   UNL A   1      44.174  25.007  25.840  1.00  0.00    -0.237 OA
ATOM     74  O   UNL A   1      41.804  24.356  26.035  1.00  0.00    -0.744 OA
ENDBRANCH  70  71
ENDBRANCH  51  65
BRANCH  52  75
ATOM     75  C   UNL A   1      40.046  34.597  36.772  1.00  0.00    -0.014 A 
ATOM     76  C   UNL A   1      39.271  34.188  37.871  1.00  0.00     0.010 A 
ATOM     77  C   UNL A   1      40.548  35.911  36.740  1.00  0.00     0.010 A 
ATOM     78  C   UNL A   1      39.002  35.074  38.919  1.00  0.00     0.020 A 
ATOM     79  C   UNL A   1      40.305  36.792  37.799  1.00  0.00     0.020 A 
ATOM     80  C   UNL A   1      39.529  36.369  38.880  1.00  0.00     0.054 A 
BRANCH  80  81
ATOM     81  S   UNL A   1      39.234  37.471  40.289  1.00  0.00     0.124 S 
ATOM     82  O   UNL A   1      38.496  36.606  41.204  1.00  0.00    -0.237 OA
ATOM     83  O   UNL A   1      40.589  37.822  40.703  1.00  0.00    -0.237 OA
ATOM     84  O   UNL A   1      38.464  38.570  39.708  1.00  0.00    -0.744 OA
ENDBRANCH  80  81
ENDBRANCH  52  75
BRANCH  64  85
ATOM     85  C   UNL A   1      45.450  30.368  35.503  1.00  0.00    -0.014 A 
ATOM     86  C   UNL A   1      45.544  29.320  36.437  1.00  0.00     0.010 A 
ATOM     87  C   UNL A   1      46.592  31.143  35.227  1.00  0.00     0.010 A 
ATOM     88  C   UNL A   1      46.748  29.073  37.103  1.00  0.00     0.020 A 
ATOM     89  C   UNL A   1      47.806  30.879  35.866  1.00  0.00     0.020 A 
ATOM     90  C   UNL A   1      47.873  29.853  36.811  1.00  0.00     0.054 A 
BRANCH  90  91
ATOM     91  S   UNL A   1      49.435  29.481  37.655  1.00  0.00     0.124 S 
ATOM     92  O   UNL A   1      49.971  30.817  37.905  1.00  0.00    -0.237 OA
ATOM     93  O   UNL A   1      48.992  28.750  38.839  1.00  0.00    -0.237 OA
ATOM     94  O   UNL A   1      50.175  28.685  36.678  1.00  0.00    -0.744 OA
ENDBRANCH  90  91
ENDBRANCH  64  85
ENDBRANCH  38  39
ENDBRANCH  30  33
ENDBRANCH  28  29
ENDBRANCH  27  28
ENDBRANCH  26  27
ENDBRANCH   1  26
TORSDOF 20
ENDMDL
MODEL 3
REMARK VINA RESULT:     -10.2      0.901      8.113
REMARK SMILES C[C@H](Oc1ccccc1Cl)C(=O)N1CCCC[C@H]1C(=O)NCCCCCCNC(=O)c1ccc(-c2c3nc(c(-c4ccc(S(=O)(=O)[O-])cc4)c4ccc([nH]4)c(-c4ccc(S(=O)(=O)[O-])cc4)c4nc(c(-c5ccc(S(=O)(=O)[O-])cc5)c5ccc2[nH]5)C=C4)C=C3)cc1
REMARK SMILES IDX 24 1 23 2 22 3 21 4 19 5 20 6 18 8 13 9 14 10 15 11 17 12
REMARK SMILES IDX 16 13 11 14 12 15 2 16 1 17 3 18 4 19 5 20 9 21 6 22 8 23
REMARK SMILES IDX 10 24 7 25 25 26 26 27 27 28 28 29 29 30 30 32 31 33 32 34
REMARK SMILES IDX 90 35 33 36 89 37 34 38 35 39 36 40 83 41 37 42 88 43 82 44
REMARK SMILES IDX 84 45 38 46 87 47 81 48 80 49 39 51 69 52 50 53 68 54 51 55
REMARK SMILES IDX 54 56 67 57 85 58 52 59 53 60 66 62 86 63 55 64 40 65 41 66
REMARK SMILES IDX 49 67 42 68 48 69 43 70 44 71 45 72 46 73 47 74 70 75 71 76
REMARK SMILES IDX 79 77 72 78 78 79 73 80 74 81 75 82 76 83 77 84 56 85 57 86
REMARK SMILES IDX 65 87 58 88 64 89 59 90 60 91 61 92 62 93 63 94
REMARK H PARENT 21 7 28 31 84 50 54 61
REMARK Flexibility Score: inf
ROOT
ATOM      1  C   UNL A   1      35.057  31.441  27.676  1.00  0.00     0.002 C 
ENDROOT
BRANCH   1   2
ATOM      2  C   UNL A   1      35.082  29.954  28.044  1.00  0.00     0.021 C 
BRANCH   2   3
ATOM      3  C   UNL A   1      34.606  29.015  26.938  1.00  0.00     0.116 C 
BRANCH   3   4
ATOM      4  N   UNL A   1      33.456  29.549  26.233  1.00  0.00    -0.354 N 
ATOM      5  C   UNL A   1      32.638  28.949  25.317  1.00  0.00     0.242 C 
ATOM      6  O   UNL A   1      31.712  29.624  24.862  1.00  0.00    -0.273 OA
ATOM      7  H   UNL A   1      33.231  30.482  26.447  1.00  0.00     0.163 HD
BRANCH   5   8
ATOM      8  C   UNL A   1      32.914  27.490  24.876  1.00  0.00     0.174 C 
ATOM      9  N   UNL A   1      31.705  26.639  24.865  1.00  0.00    -0.327 N 
ATOM     10  C   UNL A   1      30.775  26.848  23.753  1.00  0.00     0.120 C 
ATOM     11  C   UNL A   1      31.461  26.820  22.394  1.00  0.00     0.022 C 
ATOM     12  C   UNL A   1      33.615  27.422  23.511  1.00  0.00     0.035 C 
ATOM     13  C   UNL A   1      32.672  27.740  22.357  1.00  0.00     0.004 C 
BRANCH   9  14
ATOM     14  C   UNL A   1      31.347  25.734  25.863  1.00  0.00     0.264 C 
ATOM     15  O   UNL A   1      31.277  26.088  27.047  1.00  0.00    -0.271 OA
BRANCH  14  16
ATOM     16  C   UNL A   1      31.240  24.219  25.530  1.00  0.00     0.259 C 
ATOM     17  C   UNL A   1      30.294  23.622  26.582  1.00  0.00     0.064 C 
BRANCH  16  18
ATOM     18  O   UNL A   1      32.509  23.584  25.417  1.00  0.00    -0.479 OA
BRANCH  18  19
ATOM     19  C   UNL A   1      32.647  22.295  24.978  1.00  0.00     0.139 A 
ATOM     20  C   UNL A   1      32.262  21.830  23.718  1.00  0.00     0.048 A 
ATOM     21  C   UNL A   1      33.194  21.371  25.886  1.00  0.00     0.083 A 
ATOM     22  C   UNL A   1      32.312  20.464  23.415  1.00  0.00     0.004 A 
ATOM     23  C   UNL A   1      33.254  20.008  25.580  1.00  0.00     0.024 A 
ATOM     24  Cl  UNL A   1      33.840  21.875  27.410  1.00  0.00    -0.080 Cl
ATOM     25  C   UNL A   1      32.791  19.551  24.350  1.00  0.00     0.002 A 
ENDBRANCH  18  19
ENDBRANCH  16  18
ENDBRANCH  14  16
ENDBRANCH   9  14
ENDBRANCH   5   8
ENDBRANCH   3   4
ENDBRANCH   2   3
ENDBRANCH   1   2
BRANCH   1  26
ATOM     26  C   UNL A   1      34.534  32.374  28.771  1.00  0.00     0.002 C 
BRANCH  26  27
ATOM     27  C   UNL A   1      35.498  33.484  29.192  1.00  0.00     0.021 C 
BRANCH  27  28
ATOM     28  C   UNL A   1      36.595  33.045  30.155  1.00  0.00     0.116 C 
BRANCH  28  29
ATOM     29  N   UNL A   1      36.195  31.905  30.966  1.00  0.00    -0.352 N 
ATOM     30  C   UNL A   1      36.808  30.686  31.110  1.00  0.00     0.251 C 
ATOM     31  H   UNL A   1      35.365  32.025  31.483  1.00  0.00     0.163 HD
ATOM     32  O   UNL A   1      36.229  29.771  31.690  1.00  0.00    -0.269 OA
BRANCH  30  33
ATOM     33  C   UNL A   1      38.158  30.472  30.544  1.00  0.00     0.039 A 
ATOM     34  C   UNL A   1      39.254  30.414  31.407  1.00  0.00     0.014 A 
ATOM     35  C   UNL A   1      38.338  30.318  29.166  1.00  0.00     0.014 A 
ATOM     36  C   UNL A   1      40.524  30.139  30.894  1.00  0.00     0.010 A 
ATOM     37  C   UNL A   1      39.587  29.964  28.668  1.00  0.00     0.010 A 
ATOM     38  C   UNL A   1      40.695  29.876  29.524  1.00  0.00    -0.014 A 
BRANCH  38  39
ATOM     39  C   UNL A   1      42.022  29.506  28.969  1.00  0.00     0.031 A 
ATOM     40  C   UNL A   1      42.277  28.106  28.481  1.00  0.00     0.074 A 
ATOM     41  C   UNL A   1      43.018  30.414  28.958  1.00  0.00     0.049 A 
ATOM     42  N   UNL A   1      43.375  27.588  27.992  1.00  0.00    -0.248 NA
ATOM     43  C   UNL A   1      41.157  27.155  28.578  1.00  0.00     0.031 C 
ATOM     44  C   UNL A   1      42.909  31.797  29.427  1.00  0.00     0.029 A 
ATOM     45  N   UNL A   1      44.319  30.311  28.532  1.00  0.00    -0.354 N 
ATOM     46  C   UNL A   1      43.085  26.253  27.739  1.00  0.00     0.074 A 
ATOM     47  C   UNL A   1      41.726  26.027  28.185  1.00  0.00     0.031 C 
ATOM     48  C   UNL A   1      44.077  32.425  29.220  1.00  0.00     0.029 A 
ATOM     49  C   UNL A   1      45.032  31.480  28.651  1.00  0.00     0.049 A 
ATOM     50  H   UNL A   1      44.704  29.478  28.176  1.00  0.00     0.167 HD
ATOM     51  C   UNL A   1      43.867  25.303  27.170  1.00  0.00     0.031 A 
ATOM     52  C   UNL A   1      46.311  31.763  28.335  1.00  0.00     0.031 A 
ATOM     53  C   UNL A   1      45.221  25.531  26.737  1.00  0.00     0.049 A 
ATOM     54  C   UNL A   1      47.177  30.683  27.747  1.00  0.00     0.074 A 
ATOM     55  C   UNL A   1      46.083  24.651  26.106  1.00  0.00     0.029 A 
ATOM     56  N   UNL A   1      45.916  26.720  26.904  1.00  0.00    -0.354 N 
ATOM     57  N   UNL A   1      46.864  29.443  27.453  1.00  0.00    -0.248 NA
ATOM     58  C   UNL A   1      48.568  31.045  27.441  1.00  0.00     0.031 C 
ATOM     59  C   UNL A   1      47.319  25.288  25.952  1.00  0.00     0.029 A 
ATOM     60  C   UNL A   1      47.207  26.588  26.420  1.00  0.00     0.049 A 
ATOM     61  H   UNL A   1      45.546  27.538  27.308  1.00  0.00     0.167 HD
ATOM     62  C   UNL A   1      48.011  28.886  26.896  1.00  0.00     0.074 A 
ATOM     63  C   UNL A   1      49.018  29.928  26.887  1.00  0.00     0.031 C 
ATOM     64  C   UNL A   1      48.206  27.628  26.427  1.00  0.00     0.031 A 
BRANCH  51  65
ATOM     65  C   UNL A   1      43.273  23.924  27.015  1.00  0.00    -0.014 A 
ATOM     66  C   UNL A   1      43.218  23.025  28.096  1.00  0.00     0.010 A 
ATOM     67  C   UNL A   1      42.774  23.516  25.764  1.00  0.00     0.010 A 
ATOM     68  C   UNL A   1      42.747  21.722  27.912  1.00  0.00     0.020 A 
ATOM     69  C   UNL A   1      42.267  22.226  25.585  1.00  0.00     0.020 A 
ATOM     70  C   UNL A   1      42.285  21.327  26.653  1.00  0.00     0.054 A 
BRANCH  70  71
ATOM     71  S   UNL A   1      41.710  19.621  26.434  1.00  0.00     0.124 S 
ATOM     72  O   UNL A   1      40.265  19.804  26.322  1.00  0.00    -0.237 OA
ATOM     73  O   UNL A   1      42.387  19.209  25.208  1.00  0.00    -0.237 OA
ATOM     74  O   UNL A   1      42.161  18.945  27.649  1.00  0.00    -0.744 OA
ENDBRANCH  70  71
ENDBRANCH  51  65
BRANCH  52  75
ATOM     75  C   UNL A   1      46.831  33.145  28.526  1.00  0.00    -0.014 A 
ATOM     76  C   UNL A   1      46.668  34.105  27.512  1.00  0.00     0.010 A 
ATOM     77  C   UNL A   1      47.454  33.520  29.730  1.00  0.00     0.010 A 
ATOM     78  C   UNL A   1      47.119  35.416  27.697  1.00  0.00     0.020 A 
ATOM     79  C   UNL A   1      47.881  34.837  29.930  1.00  0.00     0.020 A 
ATOM     80  C   UNL A   1      47.714  35.775  28.910  1.00  0.00     0.054 A 
BRANCH  80  81
ATOM     81  S   UNL A   1      48.216  37.501  29.154  1.00  0.00     0.124 S 
ATOM     82  O   UNL A   1      47.126  38.023  29.971  1.00  0.00    -0.237 OA
ATOM     83  O   UNL A   1      49.503  37.361  29.829  1.00  0.00    -0.237 OA
ATOM     84  O   UNL A   1      48.290  38.031  27.794  1.00  0.00    -0.744 OA
ENDBRANCH  80  81
ENDBRANCH  52  75
BRANCH  64  85
ATOM     85  C   UNL A   1      49.554  27.312  25.832  1.00  0.00    -0.014 A 
ATOM     86  C   UNL A   1      49.826  27.536  24.470  1.00  0.00     0.010 A 
ATOM     87  C   UNL A   1      50.582  26.830  26.664  1.00  0.00     0.010 A 
ATOM     88  C   UNL A   1      51.091  27.254  23.946  1.00  0.00     0.020 A 
ATOM     89  C   UNL A   1      51.857  26.578  26.151  1.00  0.00     0.020 A 
ATOM     90  C   UNL A   1      52.100  26.778  24.792  1.00  0.00     0.054 A 
BRANCH  90  91
ATOM     91  S   UNL A   1      53.746  26.466  24.096  1.00  0.00     0.124 S 
ATOM     92  O   UNL A   1      54.294  25.493  25.038  1.00  0.00    -0.237 OA
ATOM     93  O   UNL A   1      53.438  25.948  22.766  1.00  0.00    -0.237 OA
ATOM     94  O   UNL A   1      54.385  27.780  24.115  1.00  0.00    -0.744 OA
ENDBRANCH  90  91
ENDBRANCH  64  85
ENDBRANCH  38  39
ENDBRANCH  30  33
ENDBRANCH  28  29
ENDBRANCH  27  28
ENDBRANCH  26  27
ENDBRANCH   1  26
TORSDOF 20
ENDMDL
