MODEL 1
REMARK VINA RESULT:     -12.2      0.000      0.000
REMARK SMILES CCc1cccc(C)c1Nc1ccccc1CC(=O)NCCCCCCNC(=O)c1ccc(-c2c3nc(c(-c4ccc(S(=O)(=O)[O-])cc4)c4ccc([nH]4)c(-c4ccc(S(=O)(=O)[O-])cc4)c4nc(c(-c5ccc(S(=O)(=O)[O-])cc5)c5ccc2[nH]5)C=C4)C=C3)cc1
REMARK SMILES IDX 23 1 22 2 21 3 20 4 18 5 19 6 17 8 16 9 11 10 12 11 13 12
REMARK SMILES IDX 15 13 14 14 10 15 9 17 3 18 4 19 5 20 7 21 6 22 8 23 2 24
REMARK SMILES IDX 1 25 24 26 25 27 26 28 27 29 28 30 29 32 30 33 31 34 89 35
REMARK SMILES IDX 32 36 88 37 33 38 34 39 35 40 82 41 36 42 87 43 81 44 83 45
REMARK SMILES IDX 37 46 86 47 80 48 79 49 38 51 68 52 49 53 67 54 50 55 53 56
REMARK SMILES IDX 66 57 84 58 51 59 52 60 65 62 85 63 54 64 39 65 40 66 48 67
REMARK SMILES IDX 41 68 47 69 42 70 43 71 44 72 45 73 46 74 69 75 70 76 78 77
REMARK SMILES IDX 71 78 77 79 72 80 73 81 74 82 75 83 76 84 55 85 56 86 64 87
REMARK SMILES IDX 57 88 63 89 58 90 59 91 60 92 61 93 62 94
REMARK H PARENT 20 7 10 16 27 31 83 50 53 61
REMARK Flexibility Score: inf
ROOT
ATOM      1  C   UNL A   1      31.988  26.770  26.221  1.00  0.00     0.002 C 
ENDROOT
BRANCH   1   2
ATOM      2  C   UNL A   1      30.689  26.895  25.409  1.00  0.00     0.021 C 
BRANCH   2   3
ATOM      3  C   UNL A   1      29.666  25.777  25.613  1.00  0.00     0.116 C 
BRANCH   3   4
ATOM      4  N   UNL A   1      30.093  24.749  26.542  1.00  0.00    -0.356 N 
ATOM      5  C   UNL A   1      30.763  23.577  26.358  1.00  0.00     0.224 C 
ATOM      6  O   UNL A   1      31.261  23.058  27.364  1.00  0.00    -0.275 OA
ATOM      7  H   UNL A   1      29.856  24.932  27.479  1.00  0.00     0.163 HD
BRANCH   5   8
ATOM      8  C   UNL A   1      31.053  23.015  24.985  1.00  0.00     0.137 C 
BRANCH   8   9
ATOM      9  C   UNL A   1      32.030  23.745  24.086  1.00  0.00    -0.015 A 
ATOM     10  C   UNL A   1      33.411  23.872  24.354  1.00  0.00     0.042 A 
ATOM     11  C   UNL A   1      34.193  24.695  23.516  1.00  0.00     0.026 A 
ATOM     12  C   UNL A   1      33.641  25.377  22.434  1.00  0.00     0.002 A 
ATOM     13  C   UNL A   1      31.488  24.468  22.997  1.00  0.00     0.006 A 
ATOM     14  C   UNL A   1      32.284  25.263  22.174  1.00  0.00     0.000 A 
BRANCH  10  15
ATOM     15  N   UNL A   1      34.094  23.193  25.388  1.00  0.00    -0.355 N 
ATOM     16  H   UNL A   1      33.835  23.474  26.297  1.00  0.00     0.167 HD
BRANCH  15  17
ATOM     17  C   UNL A   1      35.086  22.182  25.352  1.00  0.00     0.045 A 
ATOM     18  C   UNL A   1      34.715  20.822  25.190  1.00  0.00    -0.024 A 
ATOM     19  C   UNL A   1      35.727  19.870  24.913  1.00  0.00     0.006 A 
ATOM     20  C   UNL A   1      37.070  20.215  24.868  1.00  0.00     0.001 A 
ATOM     21  C   UNL A   1      36.470  22.486  25.465  1.00  0.00    -0.027 A 
ATOM     22  C   UNL A   1      37.441  21.511  25.181  1.00  0.00     0.005 A 
ATOM     23  C   UNL A   1      36.970  23.804  25.993  1.00  0.00     0.046 C 
BRANCH  18  24
ATOM     24  C   UNL A   1      33.325  20.210  25.276  1.00  0.00     0.034 C 
ATOM     25  C   UNL A   1      33.076  18.738  24.995  1.00  0.00     0.009 C 
ENDBRANCH  18  24
ENDBRANCH  15  17
ENDBRANCH  10  15
ENDBRANCH   8   9
ENDBRANCH   5   8
ENDBRANCH   3   4
ENDBRANCH   2   3
ENDBRANCH   1   2
BRANCH   1  26
ATOM     26  C   UNL A   1      33.109  27.776  25.914  1.00  0.00     0.002 C 
BRANCH  26  27
ATOM     27  C   UNL A   1      33.606  28.640  27.078  1.00  0.00     0.021 C 
BRANCH  27  28
ATOM     28  C   UNL A   1      33.191  30.100  27.020  1.00  0.00     0.116 C 
BRANCH  28  29
ATOM     29  N   UNL A   1      34.262  31.080  26.956  1.00  0.00    -0.352 N 
ATOM     30  C   UNL A   1      34.862  31.427  28.170  1.00  0.00     0.251 C 
ATOM     31  H   UNL A   1      34.549  31.479  26.104  1.00  0.00     0.163 HD
ATOM     32  O   UNL A   1      34.405  32.213  28.981  1.00  0.00    -0.269 OA
BRANCH  30  33
ATOM     33  C   UNL A   1      35.918  30.466  28.557  1.00  0.00     0.039 A 
ATOM     34  C   UNL A   1      35.972  29.856  29.808  1.00  0.00     0.014 A 
ATOM     35  C   UNL A   1      36.991  30.386  27.668  1.00  0.00     0.014 A 
ATOM     36  C   UNL A   1      37.170  29.257  30.217  1.00  0.00     0.010 A 
ATOM     37  C   UNL A   1      38.195  29.895  28.111  1.00  0.00     0.010 A 
ATOM     38  C   UNL A   1      38.296  29.346  29.394  1.00  0.00    -0.014 A 
BRANCH  38  39
ATOM     39  C   UNL A   1      39.650  28.934  29.745  1.00  0.00     0.031 A 
ATOM     40  C   UNL A   1      40.192  27.656  29.228  1.00  0.00     0.074 A 
ATOM     41  C   UNL A   1      40.491  29.827  30.310  1.00  0.00     0.049 A 
ATOM     42  N   UNL A   1      41.288  27.108  29.641  1.00  0.00    -0.248 NA
ATOM     43  C   UNL A   1      39.504  26.860  28.218  1.00  0.00     0.031 C 
ATOM     44  C   UNL A   1      41.952  29.793  30.286  1.00  0.00     0.029 A 
ATOM     45  N   UNL A   1      40.196  30.837  31.224  1.00  0.00    -0.354 N 
ATOM     46  C   UNL A   1      41.613  26.114  28.745  1.00  0.00     0.074 A 
ATOM     47  C   UNL A   1      40.421  25.925  27.952  1.00  0.00     0.031 C 
ATOM     48  C   UNL A   1      42.412  30.492  31.334  1.00  0.00     0.029 A 
ATOM     49  C   UNL A   1      41.260  30.841  32.146  1.00  0.00     0.049 A 
ATOM     50  H   UNL A   1      39.407  31.426  31.224  1.00  0.00     0.167 HD
ATOM     51  C   UNL A   1      42.900  25.668  28.676  1.00  0.00     0.031 A 
ATOM     52  C   UNL A   1      41.117  30.561  33.476  1.00  0.00     0.031 A 
ATOM     53  C   UNL A   1      43.747  26.261  29.715  1.00  0.00     0.049 A 
ATOM     54  C   UNL A   1      41.990  29.419  33.965  1.00  0.00     0.074 A 
ATOM     55  C   UNL A   1      44.771  27.195  29.719  1.00  0.00     0.029 A 
ATOM     56  N   UNL A   1      43.411  26.060  31.045  1.00  0.00    -0.354 N 
ATOM     57  N   UNL A   1      42.747  28.685  33.197  1.00  0.00    -0.248 NA
ATOM     58  C   UNL A   1      41.995  28.944  35.348  1.00  0.00     0.031 C 
ATOM     59  C   UNL A   1      45.059  27.537  31.071  1.00  0.00     0.029 A 
ATOM     60  C   UNL A   1      44.216  26.806  31.885  1.00  0.00     0.049 A 
ATOM     61  H   UNL A   1      42.691  25.463  31.351  1.00  0.00     0.167 HD
ATOM     62  C   UNL A   1      43.276  27.644  33.915  1.00  0.00     0.074 A 
ATOM     63  C   UNL A   1      42.780  27.855  35.263  1.00  0.00     0.031 C 
ATOM     64  C   UNL A   1      44.034  26.672  33.324  1.00  0.00     0.031 A 
BRANCH  51  65
ATOM     65  C   UNL A   1      43.463  24.868  27.514  1.00  0.00    -0.014 A 
ATOM     66  C   UNL A   1      43.718  23.489  27.675  1.00  0.00     0.010 A 
ATOM     67  C   UNL A   1      43.815  25.410  26.264  1.00  0.00     0.010 A 
ATOM     68  C   UNL A   1      44.383  22.730  26.697  1.00  0.00     0.020 A 
ATOM     69  C   UNL A   1      44.504  24.675  25.287  1.00  0.00     0.020 A 
ATOM     70  C   UNL A   1      44.803  23.338  25.519  1.00  0.00     0.054 A 
BRANCH  70  71
ATOM     71  S   UNL A   1      45.742  22.378  24.306  1.00  0.00     0.124 S 
ATOM     72  O   UNL A   1      46.622  23.387  23.722  1.00  0.00    -0.237 OA
ATOM     73  O   UNL A   1      46.397  21.372  25.137  1.00  0.00    -0.237 OA
ATOM     74  O   UNL A   1      44.716  21.861  23.402  1.00  0.00    -0.744 OA
ENDBRANCH  70  71
ENDBRANCH  51  65
BRANCH  52  75
ATOM     75  C   UNL A   1      39.763  30.886  34.011  1.00  0.00    -0.014 A 
ATOM     76  C   UNL A   1      39.645  32.049  34.802  1.00  0.00     0.010 A 
ATOM     77  C   UNL A   1      38.619  30.374  33.372  1.00  0.00     0.010 A 
ATOM     78  C   UNL A   1      38.467  32.799  34.782  1.00  0.00     0.020 A 
ATOM     79  C   UNL A   1      37.432  31.118  33.366  1.00  0.00     0.020 A 
ATOM     80  C   UNL A   1      37.397  32.364  33.999  1.00  0.00     0.054 A 
BRANCH  80  81
ATOM     81  S   UNL A   1      36.066  33.551  33.638  1.00  0.00     0.124 S 
ATOM     82  O   UNL A   1      36.799  34.795  33.433  1.00  0.00    -0.237 OA
ATOM     83  O   UNL A   1      35.460  32.966  32.441  1.00  0.00    -0.237 OA
ATOM     84  O   UNL A   1      35.233  33.498  34.836  1.00  0.00    -0.744 OA
ENDBRANCH  80  81
ENDBRANCH  52  75
BRANCH  64  85
ATOM     85  C   UNL A   1      44.642  25.462  34.004  1.00  0.00    -0.014 A 
ATOM     86  C   UNL A   1      46.012  25.164  34.024  1.00  0.00     0.010 A 
ATOM     87  C   UNL A   1      43.779  24.501  34.591  1.00  0.00     0.010 A 
ATOM     88  C   UNL A   1      46.498  24.012  34.665  1.00  0.00     0.020 A 
ATOM     89  C   UNL A   1      44.248  23.343  35.216  1.00  0.00     0.020 A 
ATOM     90  C   UNL A   1      45.613  23.114  35.265  1.00  0.00     0.054 A 
BRANCH  90  91
ATOM     91  S   UNL A   1      46.266  21.633  36.076  1.00  0.00     0.124 S 
ATOM     92  O   UNL A   1      47.688  21.698  35.748  1.00  0.00    -0.237 OA
ATOM     93  O   UNL A   1      45.934  21.882  37.477  1.00  0.00    -0.237 OA
ATOM     94  O   UNL A   1      45.534  20.535  35.450  1.00  0.00    -0.744 OA
ENDBRANCH  90  91
ENDBRANCH  64  85
ENDBRANCH  38  39
ENDBRANCH  30  33
ENDBRANCH  28  29
ENDBRANCH  27  28
ENDBRANCH  26  27
ENDBRANCH   1  26
TORSDOF 20
ENDMDL
MODEL 2
REMARK VINA RESULT:     -11.1      1.833      2.805
REMARK SMILES CCc1cccc(C)c1Nc1ccccc1CC(=O)NCCCCCCNC(=O)c1ccc(-c2c3nc(c(-c4ccc(S(=O)(=O)[O-])cc4)c4ccc([nH]4)c(-c4ccc(S(=O)(=O)[O-])cc4)c4nc(c(-c5ccc(S(=O)(=O)[O-])cc5)c5ccc2[nH]5)C=C4)C=C3)cc1
REMARK SMILES IDX 23 1 22 2 21 3 20 4 18 5 19 6 17 8 16 9 11 10 12 11 13 12
REMARK SMILES IDX 15 13 14 14 10 15 9 17 3 18 4 19 5 20 7 21 6 22 8 23 2 24
REMARK SMILES IDX 1 25 24 26 25 27 26 28 27 29 28 30 29 32 30 33 31 34 89 35
REMARK SMILES IDX 32 36 88 37 33 38 34 39 35 40 82 41 36 42 87 43 81 44 83 45
REMARK SMILES IDX 37 46 86 47 80 48 79 49 38 51 68 52 49 53 67 54 50 55 53 56
REMARK SMILES IDX 66 57 84 58 51 59 52 60 65 62 85 63 54 64 39 65 40 66 48 67
REMARK SMILES IDX 41 68 47 69 42 70 43 71 44 72 45 73 46 74 69 75 70 76 78 77
REMARK SMILES IDX 71 78 77 79 72 80 73 81 74 82 75 83 76 84 55 85 56 86 64 87
REMARK SMILES IDX 57 88 63 89 58 90 59 91 60 92 61 93 62 94
REMARK H PARENT 20 7 10 16 27 31 83 50 53 61
REMARK Flexibility Score: inf
ROOT
ATOM      1  C   UNL A   1      32.562  28.722  27.413  1.00  0.00     0.002 C 
ENDROOT
BRANCH   1   2
ATOM      2  C   UNL A   1      31.913  29.904  26.673  1.00  0.00     0.021 C 
BRANCH   2   3
ATOM      3  C   UNL A   1      32.266  30.037  25.191  1.00  0.00     0.116 C 
BRANCH   3   4
ATOM      4  N   UNL A   1      31.134  29.870  24.300  1.00  0.00    -0.356 N 
ATOM      5  C   UNL A   1      30.384  28.781  23.974  1.00  0.00     0.224 C 
ATOM      6  O   UNL A   1      29.296  28.998  23.429  1.00  0.00    -0.275 OA
ATOM      7  H   UNL A   1      30.856  30.697  23.845  1.00  0.00     0.163 HD
BRANCH   5   8
ATOM      8  C   UNL A   1      30.756  27.380  24.408  1.00  0.00     0.137 C 
BRANCH   8   9
ATOM      9  C   UNL A   1      31.543  26.504  23.456  1.00  0.00    -0.015 A 
ATOM     10  C   UNL A   1      32.652  25.716  23.839  1.00  0.00     0.042 A 
ATOM     11  C   UNL A   1      33.392  25.052  22.837  1.00  0.00     0.026 A 
ATOM     12  C   UNL A   1      33.055  25.150  21.488  1.00  0.00     0.002 A 
ATOM     13  C   UNL A   1      31.237  26.608  22.079  1.00  0.00     0.006 A 
ATOM     14  C   UNL A   1      31.975  25.931  21.109  1.00  0.00     0.000 A 
BRANCH  10  15
ATOM     15  N   UNL A   1      33.062  25.500  25.174  1.00  0.00    -0.355 N 
ATOM     16  H   UNL A   1      33.256  26.324  25.676  1.00  0.00     0.167 HD
BRANCH  15  17
ATOM     17  C   UNL A   1      33.242  24.308  25.918  1.00  0.00     0.045 A 
ATOM     18  C   UNL A   1      34.532  23.730  26.042  1.00  0.00    -0.024 A 
ATOM     19  C   UNL A   1      34.724  22.689  26.984  1.00  0.00     0.006 A 
ATOM     20  C   UNL A   1      33.676  22.172  27.732  1.00  0.00     0.001 A 
ATOM     21  C   UNL A   1      32.157  23.659  26.567  1.00  0.00    -0.027 A 
ATOM     22  C   UNL A   1      32.392  22.630  27.495  1.00  0.00     0.005 A 
ATOM     23  C   UNL A   1      30.719  23.947  26.228  1.00  0.00     0.046 C 
BRANCH  18  24
ATOM     24  C   UNL A   1      35.797  24.082  25.274  1.00  0.00     0.034 C 
ATOM     25  C   UNL A   1      36.955  23.106  25.141  1.00  0.00     0.009 C 
ENDBRANCH  18  24
ENDBRANCH  15  17
ENDBRANCH  10  15
ENDBRANCH   8   9
ENDBRANCH   5   8
ENDBRANCH   3   4
ENDBRANCH   2   3
ENDBRANCH   1   2
BRANCH   1  26
ATOM     26  C   UNL A   1      33.910  28.213  26.879  1.00  0.00     0.002 C 
BRANCH  26  27
ATOM     27  C   UNL A   1      35.094  29.185  26.938  1.00  0.00     0.021 C 
BRANCH  27  28
ATOM     28  C   UNL A   1      35.421  29.718  28.323  1.00  0.00     0.116 C 
BRANCH  28  29
ATOM     29  N   UNL A   1      35.694  31.142  28.425  1.00  0.00    -0.352 N 
ATOM     30  C   UNL A   1      35.845  31.656  29.716  1.00  0.00     0.251 C 
ATOM     31  H   UNL A   1      35.768  31.714  27.628  1.00  0.00     0.163 HD
ATOM     32  O   UNL A   1      34.931  31.937  30.472  1.00  0.00    -0.269 OA
BRANCH  30  33
ATOM     33  C   UNL A   1      37.221  31.471  30.226  1.00  0.00     0.039 A 
ATOM     34  C   UNL A   1      38.341  32.033  29.620  1.00  0.00     0.014 A 
ATOM     35  C   UNL A   1      37.350  30.502  31.223  1.00  0.00     0.014 A 
ATOM     36  C   UNL A   1      39.607  31.527  29.937  1.00  0.00     0.010 A 
ATOM     37  C   UNL A   1      38.579  29.934  31.452  1.00  0.00     0.010 A 
ATOM     38  C   UNL A   1      39.712  30.431  30.797  1.00  0.00    -0.014 A 
BRANCH  38  39
ATOM     39  C   UNL A   1      40.927  29.681  31.089  1.00  0.00     0.031 A 
ATOM     40  C   UNL A   1      41.269  28.483  30.286  1.00  0.00     0.074 A 
ATOM     41  C   UNL A   1      41.864  30.221  31.899  1.00  0.00     0.049 A 
ATOM     42  N   UNL A   1      42.201  27.642  30.592  1.00  0.00    -0.248 NA
ATOM     43  C   UNL A   1      40.542  28.113  29.078  1.00  0.00     0.031 C 
ATOM     44  C   UNL A   1      43.289  29.899  31.930  1.00  0.00     0.029 A 
ATOM     45  N   UNL A   1      41.678  31.019  33.027  1.00  0.00    -0.354 N 
ATOM     46  C   UNL A   1      42.418  26.850  29.487  1.00  0.00     0.074 A 
ATOM     47  C   UNL A   1      41.290  27.104  28.621  1.00  0.00     0.031 C 
ATOM     48  C   UNL A   1      43.772  30.215  33.140  1.00  0.00     0.029 A 
ATOM     49  C   UNL A   1      42.634  30.583  33.964  1.00  0.00     0.049 A 
ATOM     50  H   UNL A   1      41.015  31.738  33.144  1.00  0.00     0.167 HD
ATOM     51  C   UNL A   1      43.601  26.182  29.361  1.00  0.00     0.031 A 
ATOM     52  C   UNL A   1      42.319  30.025  35.171  1.00  0.00     0.031 A 
ATOM     53  C   UNL A   1      44.443  26.322  30.554  1.00  0.00     0.049 A 
ATOM     54  C   UNL A   1      42.916  28.646  35.389  1.00  0.00     0.074 A 
ATOM     55  C   UNL A   1      45.617  26.999  30.840  1.00  0.00     0.029 A 
ATOM     56  N   UNL A   1      43.954  25.877  31.772  1.00  0.00    -0.354 N 
ATOM     57  N   UNL A   1      43.592  27.982  34.493  1.00  0.00    -0.248 NA
ATOM     58  C   UNL A   1      42.705  27.860  36.604  1.00  0.00     0.031 C 
ATOM     59  C   UNL A   1      45.837  26.938  32.246  1.00  0.00     0.029 A 
ATOM     60  C   UNL A   1      44.801  26.218  32.809  1.00  0.00     0.049 A 
ATOM     61  H   UNL A   1      43.110  25.383  31.885  1.00  0.00     0.167 HD
ATOM     62  C   UNL A   1      43.850  26.713  34.943  1.00  0.00     0.074 A 
ATOM     63  C   UNL A   1      43.278  26.688  36.277  1.00  0.00     0.031 C 
ATOM     64  C   UNL A   1      44.466  25.780  34.156  1.00  0.00     0.031 A 
BRANCH  51  65
ATOM     65  C   UNL A   1      44.111  25.590  28.060  1.00  0.00    -0.014 A 
ATOM     66  C   UNL A   1      43.569  24.375  27.585  1.00  0.00     0.010 A 
ATOM     67  C   UNL A   1      45.149  26.136  27.283  1.00  0.00     0.010 A 
ATOM     68  C   UNL A   1      44.105  23.697  26.478  1.00  0.00     0.020 A 
ATOM     69  C   UNL A   1      45.715  25.461  26.191  1.00  0.00     0.020 A 
ATOM     70  C   UNL A   1      45.200  24.230  25.805  1.00  0.00     0.054 A 
BRANCH  70  71
ATOM     71  S   UNL A   1      45.944  23.305  24.439  1.00  0.00     0.124 S 
ATOM     72  O   UNL A   1      46.486  22.129  25.116  1.00  0.00    -0.237 OA
ATOM     73  O   UNL A   1      44.801  23.059  23.564  1.00  0.00    -0.237 OA
ATOM     74  O   UNL A   1      46.948  24.222  23.904  1.00  0.00    -0.744 OA
ENDBRANCH  70  71
ENDBRANCH  51  65
BRANCH  52  75
ATOM     75  C   UNL A   1      41.005  30.478  35.713  1.00  0.00    -0.014 A 
ATOM     76  C   UNL A   1      40.960  31.758  36.307  1.00  0.00     0.010 A 
ATOM     77  C   UNL A   1      39.815  29.908  35.224  1.00  0.00     0.010 A 
ATOM     78  C   UNL A   1      39.802  32.534  36.223  1.00  0.00     0.020 A 
ATOM     79  C   UNL A   1      38.648  30.682  35.155  1.00  0.00     0.020 A 
ATOM     80  C   UNL A   1      38.679  32.014  35.576  1.00  0.00     0.054 A 
BRANCH  80  81
ATOM     81  S   UNL A   1      37.362  33.171  35.091  1.00  0.00     0.124 S 
ATOM     82  O   UNL A   1      38.098  34.210  34.381  1.00  0.00    -0.237 OA
ATOM     83  O   UNL A   1      36.505  32.320  34.265  1.00  0.00    -0.237 OA
ATOM     84  O   UNL A   1      36.779  33.571  36.369  1.00  0.00    -0.744 OA
ENDBRANCH  80  81
ENDBRANCH  52  75
BRANCH  64  85
ATOM     85  C   UNL A   1      44.772  24.344  34.531  1.00  0.00    -0.014 A 
ATOM     86  C   UNL A   1      43.894  23.267  34.339  1.00  0.00     0.010 A 
ATOM     87  C   UNL A   1      45.987  24.055  35.204  1.00  0.00     0.010 A 
ATOM     88  C   UNL A   1      44.245  21.963  34.726  1.00  0.00     0.020 A 
ATOM     89  C   UNL A   1      46.340  22.766  35.611  1.00  0.00     0.020 A 
ATOM     90  C   UNL A   1      45.470  21.720  35.351  1.00  0.00     0.054 A 
BRANCH  90  91
ATOM     91  S   UNL A   1      45.894  20.031  35.848  1.00  0.00     0.124 S 
ATOM     92  O   UNL A   1      44.936  19.233  35.087  1.00  0.00    -0.237 OA
ATOM     93  O   UNL A   1      47.284  19.925  35.412  1.00  0.00    -0.237 OA
ATOM     94  O   UNL A   1      45.694  20.027  37.295  1.00  0.00    -0.744 OA
ENDBRANCH  90  91
ENDBRANCH  64  85
ENDBRANCH  38  39
ENDBRANCH  30  33
ENDBRANCH  28  29
ENDBRANCH  27  28
ENDBRANCH  26  27
ENDBRANCH   1  26
TORSDOF 20
ENDMDL
MODEL 3
REMARK VINA RESULT:     -10.8      1.487      2.114
REMARK SMILES CCc1cccc(C)c1Nc1ccccc1CC(=O)NCCCCCCNC(=O)c1ccc(-c2c3nc(c(-c4ccc(S(=O)(=O)[O-])cc4)c4ccc([nH]4)c(-c4ccc(S(=O)(=O)[O-])cc4)c4nc(c(-c5ccc(S(=O)(=O)[O-])cc5)c5ccc2[nH]5)C=C4)C=C3)cc1
REMARK SMILES IDX 23 1 22 2 21 3 20 4 18 5 19 6 17 8 16 9 11 10 12 11 13 12
REMARK SMILES IDX 15 13 14 14 10 15 9 17 3 18 4 19 5 20 7 21 6 22 8 23 2 24
REMARK SMILES IDX 1 25 24 26 25 27 26 28 27 29 28 30 29 32 30 33 31 34 89 35
REMARK SMILES IDX 32 36 88 37 33 38 34 39 35 40 82 41 36 42 87 43 81 44 83 45
REMARK SMILES IDX 37 46 86 47 80 48 79 49 38 51 68 52 49 53 67 54 50 55 53 56
REMARK SMILES IDX 66 57 84 58 51 59 52 60 65 62 85 63 54 64 39 65 40 66 48 67
REMARK SMILES IDX 41 68 47 69 42 70 43 71 44 72 45 73 46 74 69 75 70 76 78 77
REMARK SMILES IDX 71 78 77 79 72 80 73 81 74 82 75 83 76 84 55 85 56 86 64 87
REMARK SMILES IDX 57 88 63 89 58 90 59 91 60 92 61 93 62 94
REMARK H PARENT 20 7 10 16 27 31 83 50 53 61
REMARK Flexibility Score: inf
ROOT
ATOM      1  C   UNL A   1      33.171  29.342  25.728  1.00  0.00     0.002 C 
ENDROOT
BRANCH   1   2
ATOM      2  C   UNL A   1      31.834  28.587  25.821  1.00  0.00     0.021 C 
BRANCH   2   3
ATOM      3  C   UNL A   1      31.590  27.824  27.123  1.00  0.00     0.116 C 
BRANCH   3   4
ATOM      4  N   UNL A   1      30.875  26.575  26.948  1.00  0.00    -0.356 N 
ATOM      5  C   UNL A   1      31.282  25.343  26.533  1.00  0.00     0.224 C 
ATOM      6  O   UNL A   1      30.526  24.395  26.778  1.00  0.00    -0.275 OA
ATOM      7  H   UNL A   1      29.917  26.625  27.171  1.00  0.00     0.163 HD
BRANCH   5   8
ATOM      8  C   UNL A   1      32.661  25.093  25.963  1.00  0.00     0.137 C 
BRANCH   8   9
ATOM      9  C   UNL A   1      32.790  24.688  24.509  1.00  0.00    -0.015 A 
ATOM     10  C   UNL A   1      33.373  23.478  24.073  1.00  0.00     0.042 A 
ATOM     11  C   UNL A   1      33.565  23.276  22.689  1.00  0.00     0.026 A 
ATOM     12  C   UNL A   1      33.191  24.233  21.748  1.00  0.00     0.002 A 
ATOM     13  C   UNL A   1      32.443  25.655  23.537  1.00  0.00     0.006 A 
ATOM     14  C   UNL A   1      32.629  25.427  22.174  1.00  0.00     0.000 A 
BRANCH  10  15
ATOM     15  N   UNL A   1      33.747  22.413  24.924  1.00  0.00    -0.355 N 
ATOM     16  H   UNL A   1      33.033  22.112  25.533  1.00  0.00     0.167 HD
BRANCH  15  17
ATOM     17  C   UNL A   1      34.965  21.702  25.057  1.00  0.00     0.045 A 
ATOM     18  C   UNL A   1      35.005  20.302  24.829  1.00  0.00    -0.024 A 
ATOM     19  C   UNL A   1      36.267  19.665  24.729  1.00  0.00     0.006 A 
ATOM     20  C   UNL A   1      37.455  20.355  24.918  1.00  0.00     0.001 A 
ATOM     21  C   UNL A   1      36.178  22.354  25.409  1.00  0.00    -0.027 A 
ATOM     22  C   UNL A   1      37.408  21.685  25.294  1.00  0.00     0.005 A 
ATOM     23  C   UNL A   1      36.211  23.730  26.020  1.00  0.00     0.046 C 
BRANCH  18  24
ATOM     24  C   UNL A   1      33.836  19.342  24.671  1.00  0.00     0.034 C 
ATOM     25  C   UNL A   1      32.881  19.043  25.815  1.00  0.00     0.009 C 
ENDBRANCH  18  24
ENDBRANCH  15  17
ENDBRANCH  10  15
ENDBRANCH   8   9
ENDBRANCH   5   8
ENDBRANCH   3   4
ENDBRANCH   2   3
ENDBRANCH   1   2
BRANCH   1  26
ATOM     26  C   UNL A   1      34.351  28.787  26.541  1.00  0.00     0.002 C 
BRANCH  26  27
ATOM     27  C   UNL A   1      34.769  29.574  27.787  1.00  0.00     0.021 C 
BRANCH  27  28
ATOM     28  C   UNL A   1      36.160  30.182  27.729  1.00  0.00     0.116 C 
BRANCH  28  29
ATOM     29  N   UNL A   1      36.302  31.535  28.240  1.00  0.00    -0.352 N 
ATOM     30  C   UNL A   1      36.301  31.679  29.630  1.00  0.00     0.251 C 
ATOM     31  H   UNL A   1      36.395  32.310  27.639  1.00  0.00     0.163 HD
ATOM     32  O   UNL A   1      35.307  31.686  30.335  1.00  0.00    -0.269 OA
BRANCH  30  33
ATOM     33  C   UNL A   1      37.641  31.439  30.211  1.00  0.00     0.039 A 
ATOM     34  C   UNL A   1      38.796  32.064  29.747  1.00  0.00     0.014 A 
ATOM     35  C   UNL A   1      37.708  30.368  31.103  1.00  0.00     0.014 A 
ATOM     36  C   UNL A   1      40.041  31.527  30.094  1.00  0.00     0.010 A 
ATOM     37  C   UNL A   1      38.924  29.779  31.354  1.00  0.00     0.010 A 
ATOM     38  C   UNL A   1      40.094  30.344  30.835  1.00  0.00    -0.014 A 
BRANCH  38  39
ATOM     39  C   UNL A   1      41.293  29.567  31.127  1.00  0.00     0.031 A 
ATOM     40  C   UNL A   1      41.605  28.358  30.328  1.00  0.00     0.074 A 
ATOM     41  C   UNL A   1      42.243  30.087  31.934  1.00  0.00     0.049 A 
ATOM     42  N   UNL A   1      42.517  27.496  30.635  1.00  0.00    -0.248 NA
ATOM     43  C   UNL A   1      40.866  28.001  29.122  1.00  0.00     0.031 C 
ATOM     44  C   UNL A   1      43.660  29.731  31.963  1.00  0.00     0.029 A 
ATOM     45  N   UNL A   1      42.078  30.892  33.059  1.00  0.00    -0.354 N 
ATOM     46  C   UNL A   1      42.713  26.695  29.532  1.00  0.00     0.074 A 
ATOM     47  C   UNL A   1      41.589  26.973  28.667  1.00  0.00     0.031 C 
ATOM     48  C   UNL A   1      44.153  30.040  33.171  1.00  0.00     0.029 A 
ATOM     49  C   UNL A   1      43.026  30.438  33.996  1.00  0.00     0.049 A 
ATOM     50  H   UNL A   1      41.433  31.627  33.175  1.00  0.00     0.167 HD
ATOM     51  C   UNL A   1      43.879  25.999  29.406  1.00  0.00     0.031 A 
ATOM     52  C   UNL A   1      42.701  29.891  35.206  1.00  0.00     0.031 A 
ATOM     53  C   UNL A   1      44.727  26.124  30.596  1.00  0.00     0.049 A 
ATOM     54  C   UNL A   1      43.266  28.499  35.426  1.00  0.00     0.074 A 
ATOM     55  C   UNL A   1      45.918  26.774  30.878  1.00  0.00     0.029 A 
ATOM     56  N   UNL A   1      44.230  25.695  31.817  1.00  0.00    -0.354 N 
ATOM     57  N   UNL A   1      43.924  27.816  34.531  1.00  0.00    -0.248 NA
ATOM     58  C   UNL A   1      43.039  27.722  36.645  1.00  0.00     0.031 C 
ATOM     59  C   UNL A   1      46.139  26.712  32.283  1.00  0.00     0.029 A 
ATOM     60  C   UNL A   1      45.088  26.019  32.850  1.00  0.00     0.049 A 
ATOM     61  H   UNL A   1      43.376  25.221  31.933  1.00  0.00     0.167 HD
ATOM     62  C   UNL A   1      44.153  26.543  34.985  1.00  0.00     0.074 A 
ATOM     63  C   UNL A   1      43.584  26.536  36.321  1.00  0.00     0.031 C 
ATOM     64  C   UNL A   1      44.745  25.594  34.200  1.00  0.00     0.031 A 
BRANCH  51  65
ATOM     65  C   UNL A   1      44.373  25.391  28.105  1.00  0.00    -0.014 A 
ATOM     66  C   UNL A   1      43.614  24.381  27.475  1.00  0.00     0.010 A 
ATOM     67  C   UNL A   1      45.588  25.720  27.477  1.00  0.00     0.010 A 
ATOM     68  C   UNL A   1      44.091  23.670  26.361  1.00  0.00     0.020 A 
ATOM     69  C   UNL A   1      46.092  25.003  26.381  1.00  0.00     0.020 A 
ATOM     70  C   UNL A   1      45.346  23.965  25.840  1.00  0.00     0.054 A 
BRANCH  70  71
ATOM     71  S   UNL A   1      45.993  22.981  24.465  1.00  0.00     0.124 S 
ATOM     72  O   UNL A   1      44.796  22.736  23.664  1.00  0.00    -0.237 OA
ATOM     73  O   UNL A   1      46.979  23.880  23.870  1.00  0.00    -0.237 OA
ATOM     74  O   UNL A   1      46.550  21.797  25.116  1.00  0.00    -0.744 OA
ENDBRANCH  70  71
ENDBRANCH  51  65
BRANCH  52  75
ATOM     75  C   UNL A   1      41.399  30.376  35.748  1.00  0.00    -0.014 A 
ATOM     76  C   UNL A   1      41.400  31.628  36.401  1.00  0.00     0.010 A 
ATOM     77  C   UNL A   1      40.193  29.884  35.216  1.00  0.00     0.010 A 
ATOM     78  C   UNL A   1      40.279  32.458  36.336  1.00  0.00     0.020 A 
ATOM     79  C   UNL A   1      39.063  30.711  35.166  1.00  0.00     0.020 A 
ATOM     80  C   UNL A   1      39.146  32.019  35.650  1.00  0.00     0.054 A 
BRANCH  80  81
ATOM     81  S   UNL A   1      37.888  33.255  35.200  1.00  0.00     0.124 S 
ATOM     82  O   UNL A   1      38.687  34.456  34.984  1.00  0.00    -0.237 OA
ATOM     83  O   UNL A   1      37.298  32.660  34.002  1.00  0.00    -0.237 OA
ATOM     84  O   UNL A   1      37.011  33.281  36.368  1.00  0.00    -0.744 OA
ENDBRANCH  80  81
ENDBRANCH  52  75
BRANCH  64  85
ATOM     85  C   UNL A   1      45.019  24.152  34.579  1.00  0.00    -0.014 A 
ATOM     86  C   UNL A   1      44.113  23.096  34.396  1.00  0.00     0.010 A 
ATOM     87  C   UNL A   1      46.229  23.837  35.247  1.00  0.00     0.010 A 
ATOM     88  C   UNL A   1      44.435  21.785  34.786  1.00  0.00     0.020 A 
ATOM     89  C   UNL A   1      46.553  22.541  35.657  1.00  0.00     0.020 A 
ATOM     90  C   UNL A   1      45.657  21.515  35.406  1.00  0.00     0.054 A 
BRANCH  90  91
ATOM     91  S   UNL A   1      46.042  19.818  35.908  1.00  0.00     0.124 S 
ATOM     92  O   UNL A   1      45.704  19.829  37.329  1.00  0.00    -0.237 OA
ATOM     93  O   UNL A   1      45.147  19.038  35.056  1.00  0.00    -0.237 OA
ATOM     94  O   UNL A   1      47.465  19.676  35.610  1.00  0.00    -0.744 OA
ENDBRANCH  90  91
ENDBRANCH  64  85
ENDBRANCH  38  39
ENDBRANCH  30  33
ENDBRANCH  28  29
ENDBRANCH  27  28
ENDBRANCH  26  27
ENDBRANCH   1  26
TORSDOF 20
ENDMDL
