MODEL 1
REMARK VINA RESULT:     -12.0      0.000      0.000
REMARK SMILES Cc1c(CC(=O)NCCCCCCNC(=O)c2ccc(-c3c4nc(c(-c5ccc(S(=O)(=O)[O-])cc5)c5ccc([nH]5)c(-c5ccc(S(=O)(=O)[O-])cc5)c5nc(c(-c6ccc(S(=O)(=O)[O-])cc6)c6ccc3[nH]6)C=C5)C=C4)cc2)cc(-c2ccccc2)cc1-c1ccccc1
REMARK SMILES IDX 11 1 10 2 9 3 8 4 7 5 5 6 6 7 4 9 3 10 1 11 2 12 86 13 77 14
REMARK SMILES IDX 85 15 78 16 87 17 88 18 92 19 89 20 91 21 90 22 79 23 80 24
REMARK SMILES IDX 84 25 81 26 83 27 82 28 12 29 13 30 14 31 15 32 16 34 17 35
REMARK SMILES IDX 18 36 76 37 19 38 75 39 20 40 21 41 22 42 69 43 23 44 74 45
REMARK SMILES IDX 68 46 70 47 24 48 73 49 67 50 66 51 25 53 55 54 36 55 54 56
REMARK SMILES IDX 37 57 40 58 53 59 71 60 38 61 39 62 52 64 72 65 41 66 26 67
REMARK SMILES IDX 27 68 35 69 28 70 34 71 29 72 30 73 31 74 32 75 33 76 56 77
REMARK SMILES IDX 57 78 65 79 58 80 64 81 59 82 60 83 61 84 62 85 63 86 42 87
REMARK SMILES IDX 43 88 51 89 44 90 50 91 45 92 46 93 47 94 48 95 49 96
REMARK H PARENT 7 8 14 33 70 52 40 63
REMARK Flexibility Score: inf
ROOT
ATOM      1  C   UNL A   1      34.371  29.387  27.300  1.00  0.00     0.002 C 
ENDROOT
BRANCH   1   2
ATOM      2  C   UNL A   1      33.456  28.200  26.952  1.00  0.00     0.002 C 
BRANCH   2   3
ATOM      3  C   UNL A   1      31.976  28.523  26.701  1.00  0.00     0.021 C 
BRANCH   3   4
ATOM      4  C   UNL A   1      31.177  27.400  26.040  1.00  0.00     0.116 C 
BRANCH   4   5
ATOM      5  N   UNL A   1      31.244  26.154  26.778  1.00  0.00    -0.356 N 
ATOM      6  C   UNL A   1      31.898  25.000  26.455  1.00  0.00     0.224 C 
ATOM      7  O   UNL A   1      31.850  24.053  27.245  1.00  0.00    -0.275 OA
ATOM      8  H   UNL A   1      30.750  26.138  27.630  1.00  0.00     0.163 HD
BRANCH   6   9
ATOM      9  C   UNL A   1      32.717  24.907  25.172  1.00  0.00     0.135 C 
BRANCH   9  10
ATOM     10  C   UNL A   1      33.615  23.685  25.085  1.00  0.00    -0.035 A 
ATOM     11  C   UNL A   1      31.781  22.249  24.051  1.00  0.00     0.045 C 
ATOM     12  C   UNL A   1      33.178  22.421  24.607  1.00  0.00    -0.040 A 
ATOM     13  C   UNL A   1      34.086  21.327  24.613  1.00  0.00    -0.015 A 
ATOM     14  C   UNL A   1      34.953  23.845  25.498  1.00  0.00     0.013 A 
ATOM     15  C   UNL A   1      35.408  21.536  25.058  1.00  0.00     0.017 A 
ATOM     16  C   UNL A   1      35.865  22.786  25.490  1.00  0.00    -0.017 A 
BRANCH  13  17
ATOM     17  C   UNL A   1      33.705  19.960  24.205  1.00  0.00    -0.018 A 
ATOM     18  C   UNL A   1      32.623  19.757  23.331  1.00  0.00     0.009 A 
ATOM     19  C   UNL A   1      34.397  18.832  24.677  1.00  0.00     0.009 A 
ATOM     20  C   UNL A   1      32.255  18.471  22.930  1.00  0.00     0.001 A 
ATOM     21  C   UNL A   1      34.037  17.546  24.263  1.00  0.00     0.001 A 
ATOM     22  C   UNL A   1      32.966  17.366  23.390  1.00  0.00     0.000 A 
ENDBRANCH  13  17
BRANCH  16  23
ATOM     23  C   UNL A   1      37.259  22.987  25.913  1.00  0.00    -0.018 A 
ATOM     24  C   UNL A   1      38.200  21.946  25.834  1.00  0.00     0.009 A 
ATOM     25  C   UNL A   1      37.684  24.224  26.425  1.00  0.00     0.009 A 
ATOM     26  C   UNL A   1      39.518  22.135  26.257  1.00  0.00     0.001 A 
ATOM     27  C   UNL A   1      39.002  24.413  26.851  1.00  0.00     0.001 A 
ATOM     28  C   UNL A   1      39.918  23.367  26.768  1.00  0.00     0.000 A 
ENDBRANCH  16  23
ENDBRANCH   9  10
ENDBRANCH   6   9
ENDBRANCH   4   5
ENDBRANCH   3   4
ENDBRANCH   2   3
ENDBRANCH   1   2
BRANCH   1  29
ATOM     29  C   UNL A   1      35.870  29.086  27.388  1.00  0.00     0.021 C 
BRANCH  29  30
ATOM     30  C   UNL A   1      36.535  29.645  28.639  1.00  0.00     0.116 C 
BRANCH  30  31
ATOM     31  N   UNL A   1      35.742  30.680  29.291  1.00  0.00    -0.352 N 
ATOM     32  C   UNL A   1      35.978  31.289  30.507  1.00  0.00     0.251 C 
ATOM     33  H   UNL A   1      34.941  30.981  28.804  1.00  0.00     0.163 HD
ATOM     34  O   UNL A   1      35.130  31.937  31.111  1.00  0.00    -0.269 OA
BRANCH  32  35
ATOM     35  C   UNL A   1      37.374  31.298  30.982  1.00  0.00     0.039 A 
ATOM     36  C   UNL A   1      38.313  31.900  30.134  1.00  0.00     0.014 A 
ATOM     37  C   UNL A   1      37.767  30.481  32.039  1.00  0.00     0.014 A 
ATOM     38  C   UNL A   1      39.644  31.518  30.224  1.00  0.00     0.010 A 
ATOM     39  C   UNL A   1      39.071  30.031  32.066  1.00  0.00     0.010 A 
ATOM     40  C   UNL A   1      39.987  30.506  31.121  1.00  0.00    -0.014 A 
BRANCH  40  41
ATOM     41  C   UNL A   1      41.281  29.845  31.084  1.00  0.00     0.031 A 
ATOM     42  C   UNL A   1      41.415  28.587  30.325  1.00  0.00     0.074 A 
ATOM     43  C   UNL A   1      42.323  30.366  31.766  1.00  0.00     0.049 A 
ATOM     44  N   UNL A   1      42.250  27.643  30.600  1.00  0.00    -0.248 NA
ATOM     45  C   UNL A   1      40.518  28.267  29.219  1.00  0.00     0.031 C 
ATOM     46  C   UNL A   1      43.715  29.934  31.708  1.00  0.00     0.029 A 
ATOM     47  N   UNL A   1      42.281  31.245  32.854  1.00  0.00    -0.354 N 
ATOM     48  C   UNL A   1      42.193  26.733  29.567  1.00  0.00     0.074 A 
ATOM     49  C   UNL A   1      41.041  27.117  28.786  1.00  0.00     0.031 C 
ATOM     50  C   UNL A   1      44.312  30.276  32.862  1.00  0.00     0.029 A 
ATOM     51  C   UNL A   1      43.281  30.819  33.737  1.00  0.00     0.049 A 
ATOM     52  H   UNL A   1      41.670  32.008  32.974  1.00  0.00     0.167 HD
ATOM     53  C   UNL A   1      43.210  25.843  29.388  1.00  0.00     0.031 A 
ATOM     54  C   UNL A   1      43.040  30.407  35.014  1.00  0.00     0.031 A 
ATOM     55  C   UNL A   1      44.191  25.931  30.467  1.00  0.00     0.049 A 
ATOM     56  C   UNL A   1      43.509  28.990  35.258  1.00  0.00     0.074 A 
ATOM     57  C   UNL A   1      45.394  26.608  30.579  1.00  0.00     0.029 A 
ATOM     58  N   UNL A   1      43.830  25.549  31.755  1.00  0.00    -0.354 N 
ATOM     59  N   UNL A   1      43.733  28.121  34.308  1.00  0.00    -0.248 NA
ATOM     60  C   UNL A   1      43.744  28.436  36.589  1.00  0.00     0.031 C 
ATOM     61  C   UNL A   1      45.694  26.735  31.960  1.00  0.00     0.029 A 
ATOM     62  C   UNL A   1      44.700  26.093  32.681  1.00  0.00     0.049 A 
ATOM     63  H   UNL A   1      43.063  24.972  31.976  1.00  0.00     0.167 HD
ATOM     64  C   UNL A   1      44.163  26.942  34.860  1.00  0.00     0.074 A 
ATOM     65  C   UNL A   1      44.149  27.188  36.292  1.00  0.00     0.031 C 
ATOM     66  C   UNL A   1      44.511  25.860  34.106  1.00  0.00     0.031 A 
BRANCH  53  67
ATOM     67  C   UNL A   1      43.460  25.169  28.054  1.00  0.00    -0.014 A 
ATOM     68  C   UNL A   1      43.243  23.782  27.922  1.00  0.00     0.010 A 
ATOM     69  C   UNL A   1      43.999  25.820  26.928  1.00  0.00     0.010 A 
ATOM     70  C   UNL A   1      43.661  23.069  26.787  1.00  0.00     0.020 A 
ATOM     71  C   UNL A   1      44.466  25.116  25.808  1.00  0.00     0.020 A 
ATOM     72  C   UNL A   1      44.308  23.736  25.751  1.00  0.00     0.054 A 
BRANCH  72  73
ATOM     73  S   UNL A   1      44.954  22.789  24.347  1.00  0.00     0.124 S 
ATOM     74  O   UNL A   1      45.478  21.586  24.991  1.00  0.00    -0.237 OA
ATOM     75  O   UNL A   1      43.763  22.597  23.526  1.00  0.00    -0.237 OA
ATOM     76  O   UNL A   1      45.970  23.668  23.773  1.00  0.00    -0.744 OA
ENDBRANCH  72  73
ENDBRANCH  53  67
BRANCH  54  77
ATOM     77  C   UNL A   1      41.881  31.056  35.687  1.00  0.00    -0.014 A 
ATOM     78  C   UNL A   1      41.992  32.425  36.010  1.00  0.00     0.010 A 
ATOM     79  C   UNL A   1      40.605  30.468  35.673  1.00  0.00     0.010 A 
ATOM     80  C   UNL A   1      40.853  33.216  36.185  1.00  0.00     0.020 A 
ATOM     81  C   UNL A   1      39.458  31.262  35.842  1.00  0.00     0.020 A 
ATOM     82  C   UNL A   1      39.591  32.640  36.040  1.00  0.00     0.054 A 
BRANCH  82  83
ATOM     83  S   UNL A   1      38.137  33.734  36.019  1.00  0.00     0.124 S 
ATOM     84  O   UNL A   1      38.528  34.760  35.056  1.00  0.00    -0.237 OA
ATOM     85  O   UNL A   1      37.077  32.829  35.574  1.00  0.00    -0.237 OA
ATOM     86  O   UNL A   1      38.038  34.184  37.404  1.00  0.00    -0.744 OA
ENDBRANCH  82  83
ENDBRANCH  54  77
BRANCH  66  87
ATOM     87  C   UNL A   1      44.809  24.484  34.647  1.00  0.00    -0.014 A 
ATOM     88  C   UNL A   1      44.045  23.345  34.344  1.00  0.00     0.010 A 
ATOM     89  C   UNL A   1      45.998  24.285  35.389  1.00  0.00     0.010 A 
ATOM     90  C   UNL A   1      44.418  22.077  34.810  1.00  0.00     0.020 A 
ATOM     91  C   UNL A   1      46.401  23.020  35.821  1.00  0.00     0.020 A 
ATOM     92  C   UNL A   1      45.593  21.922  35.547  1.00  0.00     0.054 A 
BRANCH  92  93
ATOM     93  S   UNL A   1      46.112  20.271  36.079  1.00  0.00     0.124 S 
ATOM     94  O   UNL A   1      45.823  20.311  37.509  1.00  0.00    -0.237 OA
ATOM     95  O   UNL A   1      45.255  19.386  35.292  1.00  0.00    -0.237 OA
ATOM     96  O   UNL A   1      47.528  20.230  35.724  1.00  0.00    -0.744 OA
ENDBRANCH  92  93
ENDBRANCH  66  87
ENDBRANCH  40  41
ENDBRANCH  32  35
ENDBRANCH  30  31
ENDBRANCH  29  30
ENDBRANCH   1  29
TORSDOF 19
ENDMDL
MODEL 2
REMARK VINA RESULT:     -11.6      0.492      2.983
REMARK SMILES Cc1c(CC(=O)NCCCCCCNC(=O)c2ccc(-c3c4nc(c(-c5ccc(S(=O)(=O)[O-])cc5)c5ccc([nH]5)c(-c5ccc(S(=O)(=O)[O-])cc5)c5nc(c(-c6ccc(S(=O)(=O)[O-])cc6)c6ccc3[nH]6)C=C5)C=C4)cc2)cc(-c2ccccc2)cc1-c1ccccc1
REMARK SMILES IDX 11 1 10 2 9 3 8 4 7 5 5 6 6 7 4 9 3 10 1 11 2 12 86 13 77 14
REMARK SMILES IDX 85 15 78 16 87 17 88 18 92 19 89 20 91 21 90 22 79 23 80 24
REMARK SMILES IDX 84 25 81 26 83 27 82 28 12 29 13 30 14 31 15 32 16 34 17 35
REMARK SMILES IDX 18 36 76 37 19 38 75 39 20 40 21 41 22 42 69 43 23 44 74 45
REMARK SMILES IDX 68 46 70 47 24 48 73 49 67 50 66 51 25 53 55 54 36 55 54 56
REMARK SMILES IDX 37 57 40 58 53 59 71 60 38 61 39 62 52 64 72 65 41 66 26 67
REMARK SMILES IDX 27 68 35 69 28 70 34 71 29 72 30 73 31 74 32 75 33 76 56 77
REMARK SMILES IDX 57 78 65 79 58 80 64 81 59 82 60 83 61 84 62 85 63 86 42 87
REMARK SMILES IDX 43 88 51 89 44 90 50 91 45 92 46 93 47 94 48 95 49 96
REMARK H PARENT 7 8 14 33 70 52 40 63
REMARK Flexibility Score: inf
ROOT
ATOM      1  C   UNL A   1      34.460  29.546  27.026  1.00  0.00     0.002 C 
ENDROOT
BRANCH   1   2
ATOM      2  C   UNL A   1      33.536  28.323  27.164  1.00  0.00     0.002 C 
BRANCH   2   3
ATOM      3  C   UNL A   1      32.437  28.166  26.103  1.00  0.00     0.021 C 
BRANCH   3   4
ATOM      4  C   UNL A   1      32.557  26.916  25.233  1.00  0.00     0.116 C 
BRANCH   4   5
ATOM      5  N   UNL A   1      31.772  25.806  25.737  1.00  0.00    -0.356 N 
ATOM      6  C   UNL A   1      31.726  24.515  25.291  1.00  0.00     0.224 C 
ATOM      7  O   UNL A   1      31.003  23.711  25.885  1.00  0.00    -0.275 OA
ATOM      8  H   UNL A   1      31.192  26.010  26.505  1.00  0.00     0.163 HD
BRANCH   6   9
ATOM      9  C   UNL A   1      32.596  24.069  24.120  1.00  0.00     0.135 C 
BRANCH   9  10
ATOM     10  C   UNL A   1      33.682  23.074  24.487  1.00  0.00    -0.035 A 
ATOM     11  C   UNL A   1      35.223  24.889  25.395  1.00  0.00     0.045 C 
ATOM     12  C   UNL A   1      34.936  23.446  25.040  1.00  0.00    -0.040 A 
ATOM     13  C   UNL A   1      35.904  22.438  25.303  1.00  0.00    -0.015 A 
ATOM     14  C   UNL A   1      33.400  21.710  24.265  1.00  0.00     0.013 A 
ATOM     15  C   UNL A   1      35.578  21.090  25.041  1.00  0.00     0.017 A 
ATOM     16  C   UNL A   1      34.332  20.704  24.538  1.00  0.00    -0.017 A 
BRANCH  13  17
ATOM     17  C   UNL A   1      37.260  22.733  25.808  1.00  0.00    -0.018 A 
ATOM     18  C   UNL A   1      38.255  21.741  25.783  1.00  0.00     0.009 A 
ATOM     19  C   UNL A   1      37.594  23.993  26.330  1.00  0.00     0.009 A 
ATOM     20  C   UNL A   1      39.545  22.004  26.250  1.00  0.00     0.001 A 
ATOM     21  C   UNL A   1      38.888  24.261  26.783  1.00  0.00     0.001 A 
ATOM     22  C   UNL A   1      39.863  23.266  26.743  1.00  0.00     0.000 A 
ENDBRANCH  13  17
BRANCH  16  23
ATOM     23  C   UNL A   1      34.003  19.289  24.309  1.00  0.00    -0.018 A 
ATOM     24  C   UNL A   1      32.741  18.906  23.825  1.00  0.00     0.009 A 
ATOM     25  C   UNL A   1      34.939  18.279  24.585  1.00  0.00     0.009 A 
ATOM     26  C   UNL A   1      32.425  17.559  23.628  1.00  0.00     0.001 A 
ATOM     27  C   UNL A   1      34.624  16.931  24.392  1.00  0.00     0.001 A 
ATOM     28  C   UNL A   1      33.365  16.572  23.915  1.00  0.00     0.000 A 
ENDBRANCH  16  23
ENDBRANCH   9  10
ENDBRANCH   6   9
ENDBRANCH   4   5
ENDBRANCH   3   4
ENDBRANCH   2   3
ENDBRANCH   1   2
BRANCH   1  29
ATOM     29  C   UNL A   1      35.958  29.291  27.204  1.00  0.00     0.021 C 
BRANCH  29  30
ATOM     30  C   UNL A   1      36.472  29.606  28.603  1.00  0.00     0.116 C 
BRANCH  30  31
ATOM     31  N   UNL A   1      35.664  30.603  29.293  1.00  0.00    -0.352 N 
ATOM     32  C   UNL A   1      35.921  31.210  30.507  1.00  0.00     0.251 C 
ATOM     33  H   UNL A   1      34.835  30.878  28.840  1.00  0.00     0.163 HD
ATOM     34  O   UNL A   1      35.070  31.818  31.148  1.00  0.00    -0.269 OA
BRANCH  32  35
ATOM     35  C   UNL A   1      37.332  31.269  30.932  1.00  0.00     0.039 A 
ATOM     36  C   UNL A   1      38.232  31.822  30.012  1.00  0.00     0.014 A 
ATOM     37  C   UNL A   1      37.773  30.531  32.028  1.00  0.00     0.014 A 
ATOM     38  C   UNL A   1      39.571  31.464  30.081  1.00  0.00     0.010 A 
ATOM     39  C   UNL A   1      39.083  30.100  32.040  1.00  0.00     0.010 A 
ATOM     40  C   UNL A   1      39.959  30.520  31.034  1.00  0.00    -0.014 A 
BRANCH  40  41
ATOM     41  C   UNL A   1      41.261  29.874  30.996  1.00  0.00     0.031 A 
ATOM     42  C   UNL A   1      41.406  28.610  30.250  1.00  0.00     0.074 A 
ATOM     43  C   UNL A   1      42.300  30.415  31.668  1.00  0.00     0.049 A 
ATOM     44  N   UNL A   1      42.254  27.679  30.531  1.00  0.00    -0.248 NA
ATOM     45  C   UNL A   1      40.508  28.267  29.152  1.00  0.00     0.031 C 
ATOM     46  C   UNL A   1      43.697  29.999  31.607  1.00  0.00     0.029 A 
ATOM     47  N   UNL A   1      42.253  31.305  32.746  1.00  0.00    -0.354 N 
ATOM     48  C   UNL A   1      42.202  26.758  29.508  1.00  0.00     0.074 A 
ATOM     49  C   UNL A   1      41.041  27.120  28.729  1.00  0.00     0.031 C 
ATOM     50  C   UNL A   1      44.295  30.360  32.754  1.00  0.00     0.029 A 
ATOM     51  C   UNL A   1      43.263  30.900  33.629  1.00  0.00     0.049 A 
ATOM     52  H   UNL A   1      41.634  32.062  32.862  1.00  0.00     0.167 HD
ATOM     53  C   UNL A   1      43.229  25.877  29.333  1.00  0.00     0.031 A 
ATOM     54  C   UNL A   1      43.032  30.498  34.911  1.00  0.00     0.031 A 
ATOM     55  C   UNL A   1      44.214  25.988  30.406  1.00  0.00     0.049 A 
ATOM     56  C   UNL A   1      43.520  29.090  35.168  1.00  0.00     0.074 A 
ATOM     57  C   UNL A   1      45.409  26.681  30.505  1.00  0.00     0.029 A 
ATOM     58  N   UNL A   1      43.864  25.616  31.699  1.00  0.00    -0.354 N 
ATOM     59  N   UNL A   1      43.749  28.214  34.226  1.00  0.00    -0.248 NA
ATOM     60  C   UNL A   1      43.768  28.553  36.503  1.00  0.00     0.031 C 
ATOM     61  C   UNL A   1      45.714  26.826  31.883  1.00  0.00     0.029 A 
ATOM     62  C   UNL A   1      44.732  26.180  32.615  1.00  0.00     0.049 A 
ATOM     63  H   UNL A   1      43.105  25.033  31.931  1.00  0.00     0.167 HD
ATOM     64  C   UNL A   1      44.196  27.046  34.788  1.00  0.00     0.074 A 
ATOM     65  C   UNL A   1      44.186  27.307  36.218  1.00  0.00     0.031 C 
ATOM     66  C   UNL A   1      44.553  25.960  34.044  1.00  0.00     0.031 A 
BRANCH  53  67
ATOM     67  C   UNL A   1      43.480  25.193  28.005  1.00  0.00    -0.014 A 
ATOM     68  C   UNL A   1      43.174  23.825  27.857  1.00  0.00     0.010 A 
ATOM     69  C   UNL A   1      44.103  25.809  26.903  1.00  0.00     0.010 A 
ATOM     70  C   UNL A   1      43.583  23.088  26.733  1.00  0.00     0.020 A 
ATOM     71  C   UNL A   1      44.561  25.078  25.796  1.00  0.00     0.020 A 
ATOM     72  C   UNL A   1      44.311  23.713  25.725  1.00  0.00     0.054 A 
BRANCH  72  73
ATOM     73  S   UNL A   1      44.941  22.728  24.340  1.00  0.00     0.124 S 
ATOM     74  O   UNL A   1      45.992  23.584  23.794  1.00  0.00    -0.237 OA
ATOM     75  O   UNL A   1      45.400  21.512  25.005  1.00  0.00    -0.237 OA
ATOM     76  O   UNL A   1      43.775  22.561  23.475  1.00  0.00    -0.744 OA
ENDBRANCH  72  73
ENDBRANCH  53  67
BRANCH  54  77
ATOM     77  C   UNL A   1      41.870  31.141  35.583  1.00  0.00    -0.014 A 
ATOM     78  C   UNL A   1      41.943  32.527  35.840  1.00  0.00     0.010 A 
ATOM     79  C   UNL A   1      40.613  30.513  35.629  1.00  0.00     0.010 A 
ATOM     80  C   UNL A   1      40.783  33.288  36.008  1.00  0.00     0.020 A 
ATOM     81  C   UNL A   1      39.445  31.276  35.791  1.00  0.00     0.020 A 
ATOM     82  C   UNL A   1      39.537  32.666  35.922  1.00  0.00     0.054 A 
BRANCH  82  83
ATOM     83  S   UNL A   1      38.048  33.711  35.888  1.00  0.00     0.124 S 
ATOM     84  O   UNL A   1      38.445  34.799  34.999  1.00  0.00    -0.237 OA
ATOM     85  O   UNL A   1      37.043  32.796  35.347  1.00  0.00    -0.237 OA
ATOM     86  O   UNL A   1      37.869  34.082  37.288  1.00  0.00    -0.744 OA
ENDBRANCH  82  83
ENDBRANCH  54  77
BRANCH  66  87
ATOM     87  C   UNL A   1      44.870  24.594  34.598  1.00  0.00    -0.014 A 
ATOM     88  C   UNL A   1      43.922  23.565  34.727  1.00  0.00     0.010 A 
ATOM     89  C   UNL A   1      46.218  24.267  34.877  1.00  0.00     0.010 A 
ATOM     90  C   UNL A   1      44.292  22.289  35.172  1.00  0.00     0.020 A 
ATOM     91  C   UNL A   1      46.604  22.986  35.280  1.00  0.00     0.020 A 
ATOM     92  C   UNL A   1      45.631  22.007  35.447  1.00  0.00     0.054 A 
BRANCH  92  93
ATOM     93  S   UNL A   1      46.116  20.335  35.945  1.00  0.00     0.124 S 
ATOM     94  O   UNL A   1      45.229  19.510  35.130  1.00  0.00    -0.237 OA
ATOM     95  O   UNL A   1      47.530  20.280  35.582  1.00  0.00    -0.237 OA
ATOM     96  O   UNL A   1      45.847  20.318  37.380  1.00  0.00    -0.744 OA
ENDBRANCH  92  93
ENDBRANCH  66  87
ENDBRANCH  40  41
ENDBRANCH  32  35
ENDBRANCH  30  31
ENDBRANCH  29  30
ENDBRANCH   1  29
TORSDOF 19
ENDMDL
MODEL 3
REMARK VINA RESULT:     -11.4      4.122      9.057
REMARK SMILES Cc1c(CC(=O)NCCCCCCNC(=O)c2ccc(-c3c4nc(c(-c5ccc(S(=O)(=O)[O-])cc5)c5ccc([nH]5)c(-c5ccc(S(=O)(=O)[O-])cc5)c5nc(c(-c6ccc(S(=O)(=O)[O-])cc6)c6ccc3[nH]6)C=C5)C=C4)cc2)cc(-c2ccccc2)cc1-c1ccccc1
REMARK SMILES IDX 11 1 10 2 9 3 8 4 7 5 5 6 6 7 4 9 3 10 1 11 2 12 86 13 77 14
REMARK SMILES IDX 85 15 78 16 87 17 88 18 92 19 89 20 91 21 90 22 79 23 80 24
REMARK SMILES IDX 84 25 81 26 83 27 82 28 12 29 13 30 14 31 15 32 16 34 17 35
REMARK SMILES IDX 18 36 76 37 19 38 75 39 20 40 21 41 22 42 69 43 23 44 74 45
REMARK SMILES IDX 68 46 70 47 24 48 73 49 67 50 66 51 25 53 55 54 36 55 54 56
REMARK SMILES IDX 37 57 40 58 53 59 71 60 38 61 39 62 52 64 72 65 41 66 26 67
REMARK SMILES IDX 27 68 35 69 28 70 34 71 29 72 30 73 31 74 32 75 33 76 56 77
REMARK SMILES IDX 57 78 65 79 58 80 64 81 59 82 60 83 61 84 62 85 63 86 42 87
REMARK SMILES IDX 43 88 51 89 44 90 50 91 45 92 46 93 47 94 48 95 49 96
REMARK H PARENT 7 8 14 33 70 52 40 63
REMARK Flexibility Score: inf
ROOT
ATOM      1  C   UNL A   1      32.738  28.803  27.189  1.00  0.00     0.002 C 
ENDROOT
BRANCH   1   2
ATOM      2  C   UNL A   1      32.462  28.155  25.821  1.00  0.00     0.002 C 
BRANCH   2   3
ATOM      3  C   UNL A   1      33.564  27.248  25.254  1.00  0.00     0.021 C 
BRANCH   3   4
ATOM      4  C   UNL A   1      33.140  26.390  24.062  1.00  0.00     0.116 C 
BRANCH   4   5
ATOM      5  N   UNL A   1      32.042  25.497  24.376  1.00  0.00    -0.356 N 
ATOM      6  C   UNL A   1      31.828  24.218  23.950  1.00  0.00     0.224 C 
ATOM      7  O   UNL A   1      30.833  23.616  24.362  1.00  0.00    -0.275 OA
ATOM      8  H   UNL A   1      31.356  25.864  24.981  1.00  0.00     0.163 HD
BRANCH   6   9
ATOM      9  C   UNL A   1      32.830  23.531  23.028  1.00  0.00     0.135 C 
BRANCH   9  10
ATOM     10  C   UNL A   1      33.674  22.462  23.701  1.00  0.00    -0.035 A 
ATOM     11  C   UNL A   1      32.076  20.594  23.031  1.00  0.00     0.045 C 
ATOM     12  C   UNL A   1      33.310  21.090  23.751  1.00  0.00    -0.040 A 
ATOM     13  C   UNL A   1      34.147  20.177  24.450  1.00  0.00    -0.015 A 
ATOM     14  C   UNL A   1      34.885  22.880  24.290  1.00  0.00     0.013 A 
ATOM     15  C   UNL A   1      35.337  20.653  25.041  1.00  0.00     0.017 A 
ATOM     16  C   UNL A   1      35.730  21.993  24.961  1.00  0.00    -0.017 A 
BRANCH  13  17
ATOM     17  C   UNL A   1      33.818  18.748  24.621  1.00  0.00    -0.018 A 
ATOM     18  C   UNL A   1      34.435  17.778  23.812  1.00  0.00     0.009 A 
ATOM     19  C   UNL A   1      32.884  18.317  25.577  1.00  0.00     0.009 A 
ATOM     20  C   UNL A   1      34.141  16.421  23.965  1.00  0.00     0.001 A 
ATOM     21  C   UNL A   1      32.601  16.958  25.741  1.00  0.00     0.001 A 
ATOM     22  C   UNL A   1      33.229  16.011  24.934  1.00  0.00     0.000 A 
ENDBRANCH  13  17
BRANCH  16  23
ATOM     23  C   UNL A   1      36.994  22.457  25.553  1.00  0.00    -0.018 A 
ATOM     24  C   UNL A   1      38.106  21.602  25.653  1.00  0.00     0.009 A 
ATOM     25  C   UNL A   1      37.119  23.764  26.050  1.00  0.00     0.009 A 
ATOM     26  C   UNL A   1      39.298  22.041  26.236  1.00  0.00     0.001 A 
ATOM     27  C   UNL A   1      38.310  24.202  26.636  1.00  0.00     0.001 A 
ATOM     28  C   UNL A   1      39.399  23.339  26.729  1.00  0.00     0.000 A 
ENDBRANCH  16  23
ENDBRANCH   9  10
ENDBRANCH   6   9
ENDBRANCH   4   5
ENDBRANCH   3   4
ENDBRANCH   2   3
ENDBRANCH   1   2
BRANCH   1  29
ATOM     29  C   UNL A   1      32.727  30.333  27.231  1.00  0.00     0.021 C 
BRANCH  29  30
ATOM     30  C   UNL A   1      34.098  30.949  27.474  1.00  0.00     0.116 C 
BRANCH  30  31
ATOM     31  N   UNL A   1      35.191  30.109  27.003  1.00  0.00    -0.352 N 
ATOM     32  C   UNL A   1      36.497  30.086  27.451  1.00  0.00     0.251 C 
ATOM     33  H   UNL A   1      34.972  29.481  26.278  1.00  0.00     0.163 HD
ATOM     34  O   UNL A   1      37.413  29.563  26.826  1.00  0.00    -0.269 OA
BRANCH  32  35
ATOM     35  C   UNL A   1      36.732  30.557  28.828  1.00  0.00     0.039 A 
ATOM     36  C   UNL A   1      37.643  31.611  28.974  1.00  0.00     0.014 A 
ATOM     37  C   UNL A   1      36.326  29.790  29.918  1.00  0.00     0.014 A 
ATOM     38  C   UNL A   1      38.303  31.768  30.185  1.00  0.00     0.010 A 
ATOM     39  C   UNL A   1      37.048  29.886  31.089  1.00  0.00     0.010 A 
ATOM     40  C   UNL A   1      38.072  30.833  31.195  1.00  0.00    -0.014 A 
BRANCH  40  41
ATOM     41  C   UNL A   1      38.917  30.745  32.375  1.00  0.00     0.031 A 
ATOM     42  C   UNL A   1      39.074  31.938  33.229  1.00  0.00     0.074 A 
ATOM     43  C   UNL A   1      39.570  29.595  32.650  1.00  0.00     0.049 A 
ATOM     44  N   UNL A   1      40.117  32.206  33.938  1.00  0.00    -0.248 NA
ATOM     45  C   UNL A   1      38.058  32.984  33.266  1.00  0.00     0.031 C 
ATOM     46  C   UNL A   1      40.317  29.278  33.863  1.00  0.00     0.029 A 
ATOM     47  N   UNL A   1      39.896  28.562  31.765  1.00  0.00    -0.354 N 
ATOM     48  C   UNL A   1      39.808  33.296  34.722  1.00  0.00     0.074 A 
ATOM     49  C   UNL A   1      38.557  33.796  34.201  1.00  0.00     0.031 C 
ATOM     50  C   UNL A   1      41.236  28.346  33.560  1.00  0.00     0.029 A 
ATOM     51  C   UNL A   1      41.184  28.139  32.118  1.00  0.00     0.049 A 
ATOM     52  H   UNL A   1      39.334  28.205  31.039  1.00  0.00     0.167 HD
ATOM     53  C   UNL A   1      40.557  33.574  35.827  1.00  0.00     0.031 A 
ATOM     54  C   UNL A   1      42.257  28.195  31.279  1.00  0.00     0.031 A 
ATOM     55  C   UNL A   1      41.710  32.682  35.927  1.00  0.00     0.049 A 
ATOM     56  C   UNL A   1      43.381  29.038  31.839  1.00  0.00     0.074 A 
ATOM     57  C   UNL A   1      41.919  31.505  36.624  1.00  0.00     0.029 A 
ATOM     58  N   UNL A   1      42.726  32.768  34.981  1.00  0.00    -0.354 N 
ATOM     59  N   UNL A   1      43.224  29.930  32.781  1.00  0.00    -0.248 NA
ATOM     60  C   UNL A   1      44.761  28.956  31.370  1.00  0.00     0.031 C 
ATOM     61  C   UNL A   1      43.002  30.822  36.011  1.00  0.00     0.029 A 
ATOM     62  C   UNL A   1      43.479  31.609  34.975  1.00  0.00     0.049 A 
ATOM     63  H   UNL A   1      42.889  33.546  34.399  1.00  0.00     0.167 HD
ATOM     64  C   UNL A   1      44.435  30.503  33.072  1.00  0.00     0.074 A 
ATOM     65  C   UNL A   1      45.366  29.863  32.158  1.00  0.00     0.031 C 
ATOM     66  C   UNL A   1      44.589  31.446  34.046  1.00  0.00     0.031 A 
BRANCH  53  67
ATOM     67  C   UNL A   1      40.022  34.414  36.968  1.00  0.00    -0.014 A 
ATOM     68  C   UNL A   1      40.101  35.820  36.896  1.00  0.00     0.010 A 
ATOM     69  C   UNL A   1      39.524  33.884  38.174  1.00  0.00     0.010 A 
ATOM     70  C   UNL A   1      39.825  36.639  38.003  1.00  0.00     0.020 A 
ATOM     71  C   UNL A   1      39.291  34.684  39.304  1.00  0.00     0.020 A 
ATOM     72  C   UNL A   1      39.460  36.061  39.216  1.00  0.00     0.054 A 
BRANCH  72  73
ATOM     73  S   UNL A   1      39.227  37.116  40.671  1.00  0.00     0.124 S 
ATOM     74  O   UNL A   1      38.328  38.153  40.170  1.00  0.00    -0.237 OA
ATOM     75  O   UNL A   1      38.646  36.191  41.638  1.00  0.00    -0.237 OA
ATOM     76  O   UNL A   1      40.579  37.576  40.986  1.00  0.00    -0.744 OA
ENDBRANCH  72  73
ENDBRANCH  53  67
BRANCH  54  77
ATOM     77  C   UNL A   1      41.946  28.028  29.833  1.00  0.00    -0.014 A 
ATOM     78  C   UNL A   1      42.002  29.175  29.013  1.00  0.00     0.010 A 
ATOM     79  C   UNL A   1      41.964  26.762  29.223  1.00  0.00     0.010 A 
ATOM     80  C   UNL A   1      42.203  29.063  27.634  1.00  0.00     0.020 A 
ATOM     81  C   UNL A   1      42.172  26.647  27.838  1.00  0.00     0.020 A 
ATOM     82  C   UNL A   1      42.346  27.798  27.064  1.00  0.00     0.054 A 
BRANCH  82  83
ATOM     83  S   UNL A   1      42.859  27.687  25.321  1.00  0.00     0.124 S 
ATOM     84  O   UNL A   1      42.453  26.332  24.959  1.00  0.00    -0.237 OA
ATOM     85  O   UNL A   1      42.079  28.759  24.703  1.00  0.00    -0.237 OA
ATOM     86  O   UNL A   1      44.299  27.913  25.382  1.00  0.00    -0.744 OA
ENDBRANCH  82  83
ENDBRANCH  54  77
BRANCH  66  87
ATOM     87  C   UNL A   1      45.842  32.248  34.288  1.00  0.00    -0.014 A 
ATOM     88  C   UNL A   1      46.658  32.096  35.422  1.00  0.00     0.010 A 
ATOM     89  C   UNL A   1      46.314  33.104  33.265  1.00  0.00     0.010 A 
ATOM     90  C   UNL A   1      47.857  32.810  35.554  1.00  0.00     0.020 A 
ATOM     91  C   UNL A   1      47.528  33.788  33.368  1.00  0.00     0.020 A 
ATOM     92  C   UNL A   1      48.283  33.653  34.528  1.00  0.00     0.054 A 
BRANCH  92  93
ATOM     93  S   UNL A   1      49.871  34.512  34.669  1.00  0.00     0.124 S 
ATOM     94  O   UNL A   1      50.229  34.256  36.060  1.00  0.00    -0.237 OA
ATOM     95  O   UNL A   1      50.701  33.837  33.674  1.00  0.00    -0.237 OA
ATOM     96  O   UNL A   1      49.535  35.898  34.352  1.00  0.00    -0.744 OA
ENDBRANCH  92  93
ENDBRANCH  66  87
ENDBRANCH  40  41
ENDBRANCH  32  35
ENDBRANCH  30  31
ENDBRANCH  29  30
ENDBRANCH   1  29
TORSDOF 19
ENDMDL
