MODEL 1
REMARK VINA RESULT:     -11.8      0.000      0.000
REMARK SMILES O=C(NCCCCCCNC(=O)c1cn(Cc2ccc(N3CCCC3=O)cc2)c2cc(F)c(F)cc2c1=O)c1ccc(-c2c3nc(c(-c4ccc(S(=O)(=O)[O-])cc4)c4ccc([nH]4)c(-c4ccc(S(=O)(=O)[O-])cc4)c4nc(c(-c5ccc(S(=O)(=O)[O-])cc5)c5ccc2[nH]5)C=C4)C=C3)cc1
REMARK SMILES IDX 6 1 5 2 4 3 3 4 1 5 2 6 39 8 40 9 98 10 41 11 97 12 42 13
REMARK SMILES IDX 43 14 44 15 91 16 45 17 96 18 90 19 92 20 46 21 95 22 89 23
REMARK SMILES IDX 88 24 47 26 77 27 58 28 76 29 59 30 62 31 75 32 93 33 60 34
REMARK SMILES IDX 61 35 74 37 94 38 63 39 48 40 49 41 57 42 50 43 56 44 51 45
REMARK SMILES IDX 52 46 53 47 54 48 55 49 78 50 79 51 87 52 80 53 86 54 81 55
REMARK SMILES IDX 82 56 83 57 84 58 85 59 64 60 65 61 73 62 66 63 72 64 67 65
REMARK SMILES IDX 68 66 69 67 70 68 71 69 7 70 8 71 9 72 10 73 11 74 12 76
REMARK SMILES IDX 13 77 14 78 37 79 15 80 36 81 38 82 29 83 35 84 30 85 33 86
REMARK SMILES IDX 31 87 34 88 32 89 16 90 17 91 18 92 28 93 19 94 27 95 20 96
REMARK SMILES IDX 21 97 22 98 25 99 23 100 24 101 26 102
REMARK H PARENT 3 7 92 25 62 36 10 75
REMARK Flexibility Score: inf
ROOT
ATOM      1  C   UNL A   1      31.908  29.455  26.694  1.00  0.00     0.002 C 
ENDROOT
BRANCH   1   2
ATOM      2  C   UNL A   1      31.731  30.973  26.793  1.00  0.00     0.021 C 
BRANCH   2   3
ATOM      3  C   UNL A   1      32.965  31.735  27.264  1.00  0.00     0.116 C 
BRANCH   3   4
ATOM      4  N   UNL A   1      32.695  33.151  27.431  1.00  0.00    -0.352 N 
ATOM      5  O   UNL A   1      32.694  35.141  28.476  1.00  0.00    -0.269 OA
ATOM      6  C   UNL A   1      33.212  34.036  28.342  1.00  0.00     0.251 C 
ATOM      7  H   UNL A   1      32.046  33.533  26.797  1.00  0.00     0.163 HD
BRANCH   6   8
ATOM      8  C   UNL A   1      34.389  33.667  29.159  1.00  0.00     0.039 A 
ATOM      9  C   UNL A   1      35.639  34.191  28.818  1.00  0.00     0.014 A 
ATOM     10  C   UNL A   1      34.276  32.758  30.216  1.00  0.00     0.014 A 
ATOM     11  C   UNL A   1      36.772  33.817  29.544  1.00  0.00     0.010 A 
ATOM     12  C   UNL A   1      35.393  32.443  30.983  1.00  0.00     0.010 A 
ATOM     13  C   UNL A   1      36.656  32.945  30.638  1.00  0.00    -0.014 A 
BRANCH  13  14
ATOM     14  C   UNL A   1      37.845  32.486  31.399  1.00  0.00     0.031 A 
ATOM     15  C   UNL A   1      38.704  31.385  30.838  1.00  0.00     0.074 A 
ATOM     16  C   UNL A   1      38.123  33.013  32.607  1.00  0.00     0.049 A 
ATOM     17  N   UNL A   1      39.717  30.770  31.389  1.00  0.00    -0.248 NA
ATOM     18  C   UNL A   1      38.366  30.893  29.491  1.00  0.00     0.031 C 
ATOM     19  C   UNL A   1      37.368  34.089  33.248  1.00  0.00     0.029 A 
ATOM     20  N   UNL A   1      39.111  32.711  33.512  1.00  0.00    -0.354 N 
ATOM     21  C   UNL A   1      40.119  29.808  30.470  1.00  0.00     0.074 A 
ATOM     22  C   UNL A   1      39.215  29.887  29.346  1.00  0.00     0.031 C 
ATOM     23  C   UNL A   1      37.933  34.373  34.432  1.00  0.00     0.029 A 
ATOM     24  C   UNL A   1      39.053  33.463  34.663  1.00  0.00     0.049 A 
ATOM     25  H   UNL A   1      39.795  32.022  33.353  1.00  0.00     0.167 HD
ATOM     26  C   UNL A   1      41.163  28.951  30.552  1.00  0.00     0.031 A 
ATOM     27  C   UNL A   1      39.804  33.419  35.784  1.00  0.00     0.031 A 
ATOM     28  C   UNL A   1      42.079  28.912  31.661  1.00  0.00     0.049 A 
ATOM     29  C   UNL A   1      40.936  32.435  35.871  1.00  0.00     0.074 A 
ATOM     30  C   UNL A   1      43.211  28.131  31.801  1.00  0.00     0.029 A 
ATOM     31  N   UNL A   1      41.971  29.676  32.814  1.00  0.00    -0.354 N 
ATOM     32  N   UNL A   1      41.340  31.572  34.970  1.00  0.00    -0.248 NA
ATOM     33  C   UNL A   1      41.718  32.414  37.115  1.00  0.00     0.031 C 
ATOM     34  C   UNL A   1      43.736  28.354  33.072  1.00  0.00     0.029 A 
ATOM     35  C   UNL A   1      42.988  29.344  33.692  1.00  0.00     0.049 A 
ATOM     36  H   UNL A   1      41.276  30.353  32.982  1.00  0.00     0.167 HD
ATOM     37  C   UNL A   1      42.430  30.915  35.530  1.00  0.00     0.074 A 
ATOM     38  C   UNL A   1      42.634  31.492  36.843  1.00  0.00     0.031 C 
ATOM     39  C   UNL A   1      43.187  29.922  35.000  1.00  0.00     0.031 A 
BRANCH  26  40
ATOM     40  C   UNL A   1      41.394  27.982  29.420  1.00  0.00    -0.014 A 
ATOM     41  C   UNL A   1      40.546  26.865  29.280  1.00  0.00     0.010 A 
ATOM     42  C   UNL A   1      42.516  28.094  28.580  1.00  0.00     0.010 A 
ATOM     43  C   UNL A   1      40.838  25.862  28.354  1.00  0.00     0.020 A 
ATOM     44  C   UNL A   1      42.791  27.108  27.626  1.00  0.00     0.020 A 
ATOM     45  C   UNL A   1      41.966  25.985  27.539  1.00  0.00     0.054 A 
BRANCH  45  46
ATOM     46  S   UNL A   1      42.352  24.649  26.376  1.00  0.00     0.124 S 
ATOM     47  O   UNL A   1      43.566  24.079  26.952  1.00  0.00    -0.237 OA
ATOM     48  O   UNL A   1      41.160  23.806  26.453  1.00  0.00    -0.237 OA
ATOM     49  O   UNL A   1      42.531  25.344  25.103  1.00  0.00    -0.744 OA
ENDBRANCH  45  46
ENDBRANCH  26  40
BRANCH  27  50
ATOM     50  C   UNL A   1      39.501  34.379  36.884  1.00  0.00    -0.014 A 
ATOM     51  C   UNL A   1      40.076  35.664  36.887  1.00  0.00     0.010 A 
ATOM     52  C   UNL A   1      38.754  33.963  38.000  1.00  0.00     0.010 A 
ATOM     53  C   UNL A   1      39.988  36.478  38.019  1.00  0.00     0.020 A 
ATOM     54  C   UNL A   1      38.636  34.790  39.123  1.00  0.00     0.020 A 
ATOM     55  C   UNL A   1      39.290  36.024  39.141  1.00  0.00     0.054 A 
BRANCH  55  56
ATOM     56  S   UNL A   1      39.303  37.043  40.641  1.00  0.00     0.124 S 
ATOM     57  O   UNL A   1      38.428  38.149  40.257  1.00  0.00    -0.237 OA
ATOM     58  O   UNL A   1      38.762  36.134  41.647  1.00  0.00    -0.237 OA
ATOM     59  O   UNL A   1      40.712  37.390  40.809  1.00  0.00    -0.744 OA
ENDBRANCH  55  56
ENDBRANCH  27  50
BRANCH  39  60
ATOM     60  C   UNL A   1      44.313  29.349  35.823  1.00  0.00    -0.014 A 
ATOM     61  C   UNL A   1      44.056  28.283  36.708  1.00  0.00     0.010 A 
ATOM     62  C   UNL A   1      45.560  29.995  35.874  1.00  0.00     0.010 A 
ATOM     63  C   UNL A   1      44.995  27.923  37.677  1.00  0.00     0.020 A 
ATOM     64  C   UNL A   1      46.516  29.615  36.820  1.00  0.00     0.020 A 
ATOM     65  C   UNL A   1      46.212  28.607  37.739  1.00  0.00     0.054 A 
BRANCH  65  66
ATOM     66  S   UNL A   1      47.374  28.199  39.072  1.00  0.00     0.124 S 
ATOM     67  O   UNL A   1      47.725  29.517  39.590  1.00  0.00    -0.237 OA
ATOM     68  O   UNL A   1      46.560  27.370  39.959  1.00  0.00    -0.237 OA
ATOM     69  O   UNL A   1      48.451  27.490  38.384  1.00  0.00    -0.744 OA
ENDBRANCH  65  66
ENDBRANCH  39  60
ENDBRANCH  13  14
ENDBRANCH   6   8
ENDBRANCH   3   4
ENDBRANCH   2   3
ENDBRANCH   1   2
BRANCH   1  70
ATOM     70  C   UNL A   1      33.243  28.913  27.214  1.00  0.00     0.002 C 
BRANCH  70  71
ATOM     71  C   UNL A   1      34.164  28.306  26.154  1.00  0.00     0.021 C 
BRANCH  71  72
ATOM     72  C   UNL A   1      34.267  29.097  24.855  1.00  0.00     0.116 C 
BRANCH  72  73
ATOM     73  N   UNL A   1      34.550  28.262  23.698  1.00  0.00    -0.352 N 
ATOM     74  C   UNL A   1      33.701  27.516  22.925  1.00  0.00     0.256 C 
ATOM     75  H   UNL A   1      35.497  28.229  23.429  1.00  0.00     0.163 HD
ATOM     76  O   UNL A   1      34.147  26.875  21.977  1.00  0.00    -0.269 OA
BRANCH  74  77
ATOM     77  C   UNL A   1      32.262  27.508  23.261  1.00  0.00     0.104 A 
ATOM     78  C   UNL A   1      31.740  26.511  23.992  1.00  0.00     0.104 A 
ATOM     79  C   UNL A   1      31.352  28.589  22.828  1.00  0.00     0.202 A 
ATOM     80  N   UNL A   1      30.390  26.296  24.250  1.00  0.00    -0.342 N 
ATOM     81  C   UNL A   1      29.918  28.444  23.178  1.00  0.00     0.050 A 
ATOM     82  O   UNL A   1      31.722  29.542  22.153  1.00  0.00    -0.288 OA
ATOM     83  C   UNL A   1      29.460  27.233  23.743  1.00  0.00     0.055 A 
ATOM     84  C   UNL A   1      29.044  29.502  22.880  1.00  0.00     0.056 A 
ATOM     85  C   UNL A   1      28.074  27.047  23.771  1.00  0.00     0.069 A 
ATOM     86  C   UNL A   1      27.687  29.333  23.096  1.00  0.00     0.159 A 
ATOM     87  C   UNL A   1      27.202  28.101  23.500  1.00  0.00     0.160 A 
ATOM     88  F   UNL A   1      26.847  30.354  22.883  1.00  0.00    -0.204 F 
ATOM     89  F   UNL A   1      25.886  27.912  23.663  1.00  0.00    -0.204 F 
BRANCH  80  90
ATOM     90  C   UNL A   1      29.946  25.171  25.116  1.00  0.00     0.157 C 
BRANCH  90  91
ATOM     91  C   UNL A   1      30.841  23.947  25.003  1.00  0.00    -0.028 A 
ATOM     92  C   UNL A   1      31.152  23.397  23.757  1.00  0.00     0.008 A 
ATOM     93  C   UNL A   1      31.376  23.321  26.134  1.00  0.00     0.008 A 
ATOM     94  C   UNL A   1      31.887  22.218  23.636  1.00  0.00     0.027 A 
ATOM     95  C   UNL A   1      32.129  22.139  26.013  1.00  0.00     0.027 A 
ATOM     96  C   UNL A   1      32.368  21.555  24.763  1.00  0.00     0.044 A 
BRANCH  96  97
ATOM     97  N   UNL A   1      33.050  20.322  24.619  1.00  0.00    -0.312 N 
ATOM     98  C   UNL A   1      32.387  19.092  24.252  1.00  0.00     0.126 C 
ATOM     99  C   UNL A   1      34.427  20.130  24.760  1.00  0.00     0.227 C 
ATOM    100  C   UNL A   1      33.350  18.009  24.677  1.00  0.00     0.032 C 
ATOM    101  C   UNL A   1      34.712  18.664  24.538  1.00  0.00     0.102 C 
ATOM    102  O   UNL A   1      35.299  20.950  25.021  1.00  0.00    -0.275 OA
ENDBRANCH  96  97
ENDBRANCH  90  91
ENDBRANCH  80  90
ENDBRANCH  74  77
ENDBRANCH  72  73
ENDBRANCH  71  72
ENDBRANCH  70  71
ENDBRANCH   1  70
TORSDOF 19
ENDMDL
MODEL 2
REMARK VINA RESULT:     -11.2      2.581      4.210
REMARK SMILES O=C(NCCCCCCNC(=O)c1cn(Cc2ccc(N3CCCC3=O)cc2)c2cc(F)c(F)cc2c1=O)c1ccc(-c2c3nc(c(-c4ccc(S(=O)(=O)[O-])cc4)c4ccc([nH]4)c(-c4ccc(S(=O)(=O)[O-])cc4)c4nc(c(-c5ccc(S(=O)(=O)[O-])cc5)c5ccc2[nH]5)C=C4)C=C3)cc1
REMARK SMILES IDX 6 1 5 2 4 3 3 4 1 5 2 6 39 8 40 9 98 10 41 11 97 12 42 13
REMARK SMILES IDX 43 14 44 15 91 16 45 17 96 18 90 19 92 20 46 21 95 22 89 23
REMARK SMILES IDX 88 24 47 26 77 27 58 28 76 29 59 30 62 31 75 32 93 33 60 34
REMARK SMILES IDX 61 35 74 37 94 38 63 39 48 40 49 41 57 42 50 43 56 44 51 45
REMARK SMILES IDX 52 46 53 47 54 48 55 49 78 50 79 51 87 52 80 53 86 54 81 55
REMARK SMILES IDX 82 56 83 57 84 58 85 59 64 60 65 61 73 62 66 63 72 64 67 65
REMARK SMILES IDX 68 66 69 67 70 68 71 69 7 70 8 71 9 72 10 73 11 74 12 76
REMARK SMILES IDX 13 77 14 78 37 79 15 80 36 81 38 82 29 83 35 84 30 85 33 86
REMARK SMILES IDX 31 87 34 88 32 89 16 90 17 91 18 92 28 93 19 94 27 95 20 96
REMARK SMILES IDX 21 97 22 98 25 99 23 100 24 101 26 102
REMARK H PARENT 3 7 92 25 62 36 10 75
REMARK Flexibility Score: inf
ROOT
ATOM      1  C   UNL A   1      32.048  29.936  26.489  1.00  0.00     0.002 C 
ENDROOT
BRANCH   1   2
ATOM      2  C   UNL A   1      31.879  31.437  26.742  1.00  0.00     0.021 C 
BRANCH   2   3
ATOM      3  C   UNL A   1      33.096  32.127  27.350  1.00  0.00     0.116 C 
BRANCH   3   4
ATOM      4  N   UNL A   1      32.775  33.455  27.842  1.00  0.00    -0.352 N 
ATOM      5  O   UNL A   1      32.741  35.158  29.307  1.00  0.00    -0.269 OA
ATOM      6  C   UNL A   1      33.297  34.140  28.908  1.00  0.00     0.251 C 
ATOM      7  H   UNL A   1      32.079  33.934  27.335  1.00  0.00     0.163 HD
BRANCH   6   8
ATOM      8  C   UNL A   1      34.528  33.660  29.576  1.00  0.00     0.039 A 
ATOM      9  C   UNL A   1      34.423  32.668  30.555  1.00  0.00     0.014 A 
ATOM     10  C   UNL A   1      35.773  34.229  29.287  1.00  0.00     0.014 A 
ATOM     11  C   UNL A   1      35.564  32.236  31.233  1.00  0.00     0.010 A 
ATOM     12  C   UNL A   1      36.919  33.746  29.912  1.00  0.00     0.010 A 
ATOM     13  C   UNL A   1      36.823  32.766  30.911  1.00  0.00    -0.014 A 
BRANCH  13  14
ATOM     14  C   UNL A   1      38.049  32.367  31.647  1.00  0.00     0.031 A 
ATOM     15  C   UNL A   1      39.044  31.450  30.987  1.00  0.00     0.074 A 
ATOM     16  C   UNL A   1      38.243  32.778  32.915  1.00  0.00     0.049 A 
ATOM     17  N   UNL A   1      40.116  30.900  31.492  1.00  0.00    -0.248 NA
ATOM     18  C   UNL A   1      38.787  31.084  29.584  1.00  0.00     0.031 C 
ATOM     19  C   UNL A   1      37.353  33.672  33.655  1.00  0.00     0.029 A 
ATOM     20  N   UNL A   1      39.247  32.492  33.807  1.00  0.00    -0.354 N 
ATOM     21  C   UNL A   1      40.646  30.108  30.481  1.00  0.00     0.074 A 
ATOM     22  C   UNL A   1      39.755  30.210  29.348  1.00  0.00     0.031 C 
ATOM     23  C   UNL A   1      37.862  33.881  34.879  1.00  0.00     0.029 A 
ATOM     24  C   UNL A   1      39.082  33.091  35.035  1.00  0.00     0.049 A 
ATOM     25  H   UNL A   1      40.013  31.913  33.589  1.00  0.00     0.167 HD
ATOM     26  C   UNL A   1      41.786  29.379  30.493  1.00  0.00     0.031 A 
ATOM     27  C   UNL A   1      39.816  33.006  36.164  1.00  0.00     0.031 A 
ATOM     28  C   UNL A   1      42.683  29.320  31.616  1.00  0.00     0.049 A 
ATOM     29  C   UNL A   1      41.060  32.161  36.169  1.00  0.00     0.074 A 
ATOM     30  C   UNL A   1      43.901  28.670  31.697  1.00  0.00     0.029 A 
ATOM     31  N   UNL A   1      42.467  29.925  32.845  1.00  0.00    -0.354 N 
ATOM     32  N   UNL A   1      41.578  31.464  35.186  1.00  0.00    -0.248 NA
ATOM     33  C   UNL A   1      41.821  32.088  37.424  1.00  0.00     0.031 C 
ATOM     34  C   UNL A   1      44.376  28.803  33.000  1.00  0.00     0.029 A 
ATOM     35  C   UNL A   1      43.505  29.616  33.708  1.00  0.00     0.049 A 
ATOM     36  H   UNL A   1      41.692  30.489  33.071  1.00  0.00     0.167 HD
ATOM     37  C   UNL A   1      42.732  30.882  35.698  1.00  0.00     0.074 A 
ATOM     38  C   UNL A   1      42.846  31.320  37.074  1.00  0.00     0.031 C 
ATOM     39  C   UNL A   1      43.612  30.056  35.079  1.00  0.00     0.031 A 
BRANCH  26  40
ATOM     40  C   UNL A   1      42.149  28.585  29.264  1.00  0.00    -0.014 A 
ATOM     41  C   UNL A   1      42.934  29.185  28.259  1.00  0.00     0.010 A 
ATOM     42  C   UNL A   1      41.614  27.305  29.036  1.00  0.00     0.010 A 
ATOM     43  C   UNL A   1      43.140  28.540  27.037  1.00  0.00     0.020 A 
ATOM     44  C   UNL A   1      41.850  26.641  27.827  1.00  0.00     0.020 A 
ATOM     45  C   UNL A   1      42.587  27.275  26.826  1.00  0.00     0.054 A 
BRANCH  45  46
ATOM     46  S   UNL A   1      42.828  26.476  25.216  1.00  0.00     0.124 S 
ATOM     47  O   UNL A   1      43.040  27.619  24.333  1.00  0.00    -0.237 OA
ATOM     48  O   UNL A   1      43.998  25.632  25.452  1.00  0.00    -0.237 OA
ATOM     49  O   UNL A   1      41.579  25.747  25.005  1.00  0.00    -0.744 OA
ENDBRANCH  45  46
ENDBRANCH  26  40
BRANCH  27  50
ATOM     50  C   UNL A   1      39.383  33.786  37.358  1.00  0.00    -0.014 A 
ATOM     51  C   UNL A   1      39.693  35.155  37.466  1.00  0.00     0.010 A 
ATOM     52  C   UNL A   1      38.786  33.134  38.451  1.00  0.00     0.010 A 
ATOM     53  C   UNL A   1      39.501  35.834  38.672  1.00  0.00     0.020 A 
ATOM     54  C   UNL A   1      38.561  33.819  39.650  1.00  0.00     0.020 A 
ATOM     55  C   UNL A   1      38.959  35.153  39.765  1.00  0.00     0.054 A 
BRANCH  55  56
ATOM     56  S   UNL A   1      38.843  36.020  41.354  1.00  0.00     0.124 S 
ATOM     57  O   UNL A   1      37.558  35.542  41.860  1.00  0.00    -0.237 OA
ATOM     58  O   UNL A   1      40.020  35.533  42.068  1.00  0.00    -0.237 OA
ATOM     59  O   UNL A   1      38.881  37.431  40.979  1.00  0.00    -0.744 OA
ENDBRANCH  55  56
ENDBRANCH  27  50
BRANCH  39  60
ATOM     60  C   UNL A   1      44.788  29.529  35.862  1.00  0.00    -0.014 A 
ATOM     61  C   UNL A   1      46.037  30.173  35.761  1.00  0.00     0.010 A 
ATOM     62  C   UNL A   1      44.709  28.290  36.521  1.00  0.00     0.010 A 
ATOM     63  C   UNL A   1      47.195  29.554  36.238  1.00  0.00     0.020 A 
ATOM     64  C   UNL A   1      45.861  27.684  37.031  1.00  0.00     0.020 A 
ATOM     65  C   UNL A   1      47.101  28.303  36.852  1.00  0.00     0.054 A 
BRANCH  65  66
ATOM     66  S   UNL A   1      48.627  27.468  37.368  1.00  0.00     0.124 S 
ATOM     67  O   UNL A   1      49.373  27.389  36.116  1.00  0.00    -0.237 OA
ATOM     68  O   UNL A   1      49.168  28.387  38.367  1.00  0.00    -0.237 OA
ATOM     69  O   UNL A   1      48.157  26.190  37.897  1.00  0.00    -0.744 OA
ENDBRANCH  65  66
ENDBRANCH  39  60
ENDBRANCH  13  14
ENDBRANCH   6   8
ENDBRANCH   3   4
ENDBRANCH   2   3
ENDBRANCH   1   2
BRANCH   1  70
ATOM     70  C   UNL A   1      33.402  29.348  26.899  1.00  0.00     0.002 C 
BRANCH  70  71
ATOM     71  C   UNL A   1      33.913  28.201  26.025  1.00  0.00     0.021 C 
BRANCH  71  72
ATOM     72  C   UNL A   1      32.896  27.635  25.039  1.00  0.00     0.116 C 
BRANCH  72  73
ATOM     73  N   UNL A   1      33.363  27.659  23.662  1.00  0.00    -0.352 N 
ATOM     74  C   UNL A   1      33.751  26.628  22.848  1.00  0.00     0.256 C 
ATOM     75  H   UNL A   1      33.404  28.554  23.251  1.00  0.00     0.163 HD
ATOM     76  O   UNL A   1      34.113  26.865  21.698  1.00  0.00    -0.269 OA
BRANCH  74  77
ATOM     77  C   UNL A   1      33.720  25.253  23.386  1.00  0.00     0.104 A 
ATOM     78  C   UNL A   1      34.351  24.958  24.534  1.00  0.00     0.104 A 
ATOM     79  C   UNL A   1      32.991  24.162  22.706  1.00  0.00     0.202 A 
ATOM     80  N   UNL A   1      34.534  23.689  25.072  1.00  0.00    -0.342 N 
ATOM     81  C   UNL A   1      33.079  22.812  23.311  1.00  0.00     0.050 A 
ATOM     82  O   UNL A   1      32.388  24.320  21.651  1.00  0.00    -0.288 OA
ATOM     83  C   UNL A   1      33.968  22.589  24.387  1.00  0.00     0.055 A 
ATOM     84  C   UNL A   1      32.312  21.775  22.756  1.00  0.00     0.056 A 
ATOM     85  C   UNL A   1      34.225  21.253  24.711  1.00  0.00     0.069 A 
ATOM     86  C   UNL A   1      32.471  20.488  23.239  1.00  0.00     0.159 A 
ATOM     87  C   UNL A   1      33.449  20.223  24.181  1.00  0.00     0.160 A 
ATOM     88  F   UNL A   1      31.699  19.500  22.768  1.00  0.00    -0.204 F 
ATOM     89  F   UNL A   1      33.646  18.972  24.619  1.00  0.00    -0.204 F 
BRANCH  80  90
ATOM     90  C   UNL A   1      35.218  23.503  26.381  1.00  0.00     0.157 C 
BRANCH  90  91
ATOM     91  C   UNL A   1      36.688  23.145  26.235  1.00  0.00    -0.028 A 
ATOM     92  C   UNL A   1      37.078  21.886  25.769  1.00  0.00     0.008 A 
ATOM     93  C   UNL A   1      37.702  24.049  26.570  1.00  0.00     0.008 A 
ATOM     94  C   UNL A   1      38.417  21.501  25.724  1.00  0.00     0.027 A 
ATOM     95  C   UNL A   1      39.054  23.666  26.512  1.00  0.00     0.027 A 
ATOM     96  C   UNL A   1      39.427  22.376  26.117  1.00  0.00     0.044 A 
BRANCH  96  97
ATOM     97  N   UNL A   1      40.774  21.938  26.130  1.00  0.00    -0.312 N 
ATOM     98  C   UNL A   1      41.897  22.844  26.210  1.00  0.00     0.126 C 
ATOM     99  C   UNL A   1      41.201  20.607  26.114  1.00  0.00     0.227 C 
ATOM    100  C   UNL A   1      43.071  22.026  25.721  1.00  0.00     0.032 C 
ATOM    101  C   UNL A   1      42.711  20.607  26.121  1.00  0.00     0.102 C 
ATOM    102  O   UNL A   1      40.531  19.582  26.094  1.00  0.00    -0.275 OA
ENDBRANCH  96  97
ENDBRANCH  90  91
ENDBRANCH  80  90
ENDBRANCH  74  77
ENDBRANCH  72  73
ENDBRANCH  71  72
ENDBRANCH  70  71
ENDBRANCH   1  70
TORSDOF 19
ENDMDL
MODEL 3
REMARK VINA RESULT:     -11.0      6.601     12.986
REMARK SMILES O=C(NCCCCCCNC(=O)c1cn(Cc2ccc(N3CCCC3=O)cc2)c2cc(F)c(F)cc2c1=O)c1ccc(-c2c3nc(c(-c4ccc(S(=O)(=O)[O-])cc4)c4ccc([nH]4)c(-c4ccc(S(=O)(=O)[O-])cc4)c4nc(c(-c5ccc(S(=O)(=O)[O-])cc5)c5ccc2[nH]5)C=C4)C=C3)cc1
REMARK SMILES IDX 6 1 5 2 4 3 3 4 1 5 2 6 39 8 40 9 98 10 41 11 97 12 42 13
REMARK SMILES IDX 43 14 44 15 91 16 45 17 96 18 90 19 92 20 46 21 95 22 89 23
REMARK SMILES IDX 88 24 47 26 77 27 58 28 76 29 59 30 62 31 75 32 93 33 60 34
REMARK SMILES IDX 61 35 74 37 94 38 63 39 48 40 49 41 57 42 50 43 56 44 51 45
REMARK SMILES IDX 52 46 53 47 54 48 55 49 78 50 79 51 87 52 80 53 86 54 81 55
REMARK SMILES IDX 82 56 83 57 84 58 85 59 64 60 65 61 73 62 66 63 72 64 67 65
REMARK SMILES IDX 68 66 69 67 70 68 71 69 7 70 8 71 9 72 10 73 11 74 12 76
REMARK SMILES IDX 13 77 14 78 37 79 15 80 36 81 38 82 29 83 35 84 30 85 33 86
REMARK SMILES IDX 31 87 34 88 32 89 16 90 17 91 18 92 28 93 19 94 27 95 20 96
REMARK SMILES IDX 21 97 22 98 25 99 23 100 24 101 26 102
REMARK H PARENT 3 7 92 25 62 36 10 75
REMARK Flexibility Score: inf
ROOT
ATOM      1  C   UNL A   1      50.444  25.156  34.495  1.00  0.00     0.002 C 
ENDROOT
BRANCH   1   2
ATOM      2  C   UNL A   1      49.265  25.747  35.273  1.00  0.00     0.021 C 
BRANCH   2   3
ATOM      3  C   UNL A   1      49.331  27.255  35.495  1.00  0.00     0.116 C 
BRANCH   3   4
ATOM      4  N   UNL A   1      49.318  27.594  36.906  1.00  0.00    -0.352 N 
ATOM      5  O   UNL A   1      48.735  28.751  38.742  1.00  0.00    -0.269 OA
ATOM      6  C   UNL A   1      48.454  28.402  37.600  1.00  0.00     0.251 C 
ATOM      7  H   UNL A   1      50.033  27.185  37.444  1.00  0.00     0.163 HD
BRANCH   6   8
ATOM      8  C   UNL A   1      47.186  28.849  36.981  1.00  0.00     0.039 A 
ATOM      9  C   UNL A   1      46.022  28.111  37.216  1.00  0.00     0.014 A 
ATOM     10  C   UNL A   1      47.154  29.950  36.120  1.00  0.00     0.014 A 
ATOM     11  C   UNL A   1      44.825  28.485  36.601  1.00  0.00     0.010 A 
ATOM     12  C   UNL A   1      45.946  30.364  35.566  1.00  0.00     0.010 A 
ATOM     13  C   UNL A   1      44.777  29.620  35.777  1.00  0.00    -0.014 A 
BRANCH  13  14
ATOM     14  C   UNL A   1      43.534  30.015  35.067  1.00  0.00     0.031 A 
ATOM     15  C   UNL A   1      43.264  29.474  33.689  1.00  0.00     0.074 A 
ATOM     16  C   UNL A   1      42.682  30.894  35.630  1.00  0.00     0.049 A 
ATOM     17  N   UNL A   1      42.298  29.777  32.862  1.00  0.00    -0.248 NA
ATOM     18  C   UNL A   1      44.215  28.481  33.162  1.00  0.00     0.031 C 
ATOM     19  C   UNL A   1      42.836  31.479  36.961  1.00  0.00     0.029 A 
ATOM     20  N   UNL A   1      41.523  31.453  35.149  1.00  0.00    -0.354 N 
ATOM     21  C   UNL A   1      42.540  29.033  31.713  1.00  0.00     0.074 A 
ATOM     22  C   UNL A   1      43.766  28.299  31.929  1.00  0.00     0.031 C 
ATOM     23  C   UNL A   1      41.798  32.296  37.201  1.00  0.00     0.029 A 
ATOM     24  C   UNL A   1      40.936  32.340  36.022  1.00  0.00     0.049 A 
ATOM     25  H   UNL A   1      41.148  31.239  34.265  1.00  0.00     0.167 HD
ATOM     26  C   UNL A   1      41.792  28.955  30.588  1.00  0.00     0.031 A 
ATOM     27  C   UNL A   1      39.838  33.115  35.887  1.00  0.00     0.031 A 
ATOM     28  C   UNL A   1      40.552  29.661  30.404  1.00  0.00     0.049 A 
ATOM     29  C   UNL A   1      39.040  33.042  34.615  1.00  0.00     0.074 A 
ATOM     30  C   UNL A   1      39.683  29.588  29.331  1.00  0.00     0.029 A 
ATOM     31  N   UNL A   1      40.005  30.565  31.304  1.00  0.00    -0.354 N 
ATOM     32  N   UNL A   1      39.250  32.290  33.561  1.00  0.00    -0.248 NA
ATOM     33  C   UNL A   1      37.861  33.912  34.508  1.00  0.00     0.031 C 
ATOM     34  C   UNL A   1      38.662  30.513  29.537  1.00  0.00     0.029 A 
ATOM     35  C   UNL A   1      38.837  31.096  30.783  1.00  0.00     0.049 A 
ATOM     36  H   UNL A   1      40.389  30.794  32.181  1.00  0.00     0.167 HD
ATOM     37  C   UNL A   1      38.223  32.584  32.671  1.00  0.00     0.074 A 
ATOM     38  C   UNL A   1      37.382  33.572  33.317  1.00  0.00     0.031 C 
ATOM     39  C   UNL A   1      38.004  32.081  31.431  1.00  0.00     0.031 A 
BRANCH  26  40
ATOM     40  C   UNL A   1      42.270  28.077  29.460  1.00  0.00    -0.014 A 
ATOM     41  C   UNL A   1      43.183  28.595  28.519  1.00  0.00     0.010 A 
ATOM     42  C   UNL A   1      41.727  26.798  29.248  1.00  0.00     0.010 A 
ATOM     43  C   UNL A   1      43.508  27.870  27.370  1.00  0.00     0.020 A 
ATOM     44  C   UNL A   1      42.080  26.054  28.117  1.00  0.00     0.020 A 
ATOM     45  C   UNL A   1      42.946  26.607  27.172  1.00  0.00     0.054 A 
BRANCH  45  46
ATOM     46  S   UNL A   1      43.346  25.704  25.652  1.00  0.00     0.124 S 
ATOM     47  O   UNL A   1      44.555  26.383  25.198  1.00  0.00    -0.237 OA
ATOM     48  O   UNL A   1      43.532  24.336  26.134  1.00  0.00    -0.237 OA
ATOM     49  O   UNL A   1      42.165  25.903  24.814  1.00  0.00    -0.744 OA
ENDBRANCH  45  46
ENDBRANCH  26  40
BRANCH  27  50
ATOM     50  C   UNL A   1      39.438  33.990  37.025  1.00  0.00    -0.014 A 
ATOM     51  C   UNL A   1      39.856  35.334  37.071  1.00  0.00     0.010 A 
ATOM     52  C   UNL A   1      38.761  33.449  38.131  1.00  0.00     0.010 A 
ATOM     53  C   UNL A   1      39.687  36.091  38.234  1.00  0.00     0.020 A 
ATOM     54  C   UNL A   1      38.560  34.214  39.286  1.00  0.00     0.020 A 
ATOM     55  C   UNL A   1      39.063  35.516  39.343  1.00  0.00     0.054 A 
BRANCH  55  56
ATOM     56  S   UNL A   1      38.975  36.475  40.881  1.00  0.00     0.124 S 
ATOM     57  O   UNL A   1      40.367  36.454  41.325  1.00  0.00    -0.237 OA
ATOM     58  O   UNL A   1      38.482  37.769  40.419  1.00  0.00    -0.237 OA
ATOM     59  O   UNL A   1      38.043  35.713  41.708  1.00  0.00    -0.744 OA
ENDBRANCH  55  56
ENDBRANCH  27  50
BRANCH  39  60
ATOM     60  C   UNL A   1      36.821  32.582  30.642  1.00  0.00    -0.014 A 
ATOM     61  C   UNL A   1      37.015  33.542  29.629  1.00  0.00     0.010 A 
ATOM     62  C   UNL A   1      35.511  32.263  31.040  1.00  0.00     0.010 A 
ATOM     63  C   UNL A   1      35.928  34.227  29.083  1.00  0.00     0.020 A 
ATOM     64  C   UNL A   1      34.418  32.922  30.470  1.00  0.00     0.020 A 
ATOM     65  C   UNL A   1      34.636  33.926  29.523  1.00  0.00     0.054 A 
BRANCH  65  66
ATOM     66  S   UNL A   1      33.248  34.901  28.880  1.00  0.00     0.124 S 
ATOM     67  O   UNL A   1      32.674  34.001  27.884  1.00  0.00    -0.237 OA
ATOM     68  O   UNL A   1      32.434  35.120  30.075  1.00  0.00    -0.237 OA
ATOM     69  O   UNL A   1      33.888  36.099  28.344  1.00  0.00    -0.744 OA
ENDBRANCH  65  66
ENDBRANCH  39  60
ENDBRANCH  13  14
ENDBRANCH   6   8
ENDBRANCH   3   4
ENDBRANCH   2   3
ENDBRANCH   1   2
BRANCH   1  70
ATOM     70  C   UNL A   1      50.907  23.770  34.954  1.00  0.00     0.002 C 
BRANCH  70  71
ATOM     71  C   UNL A   1      50.137  22.590  34.358  1.00  0.00     0.021 C 
BRANCH  71  72
ATOM     72  C   UNL A   1      48.636  22.591  34.629  1.00  0.00     0.116 C 
BRANCH  72  73
ATOM     73  N   UNL A   1      48.077  21.255  34.756  1.00  0.00    -0.352 N 
ATOM     74  C   UNL A   1      46.771  20.855  34.855  1.00  0.00     0.256 C 
ATOM     75  H   UNL A   1      48.739  20.525  34.773  1.00  0.00     0.163 HD
ATOM     76  O   UNL A   1      46.507  19.659  34.953  1.00  0.00    -0.269 OA
BRANCH  74  77
ATOM     77  C   UNL A   1      45.713  21.886  34.839  1.00  0.00     0.104 A 
ATOM     78  C   UNL A   1      44.985  22.095  33.731  1.00  0.00     0.104 A 
ATOM     79  C   UNL A   1      45.402  22.706  36.028  1.00  0.00     0.202 A 
ATOM     80  N   UNL A   1      44.073  23.125  33.525  1.00  0.00    -0.342 N 
ATOM     81  C   UNL A   1      44.358  23.747  35.874  1.00  0.00     0.050 A 
ATOM     82  O   UNL A   1      46.008  22.602  37.087  1.00  0.00    -0.288 OA
ATOM     83  C   UNL A   1      43.835  24.023  34.590  1.00  0.00     0.055 A 
ATOM     84  C   UNL A   1      43.959  24.471  37.009  1.00  0.00     0.056 A 
ATOM     85  C   UNL A   1      43.088  25.200  34.466  1.00  0.00     0.069 A 
ATOM     86  C   UNL A   1      43.070  25.521  36.858  1.00  0.00     0.159 A 
ATOM     87  C   UNL A   1      42.669  25.908  35.591  1.00  0.00     0.160 A 
ATOM     88  F   UNL A   1      42.626  26.178  37.938  1.00  0.00    -0.204 F 
ATOM     89  F   UNL A   1      41.849  26.955  35.430  1.00  0.00    -0.204 F 
BRANCH  80  90
ATOM     90  C   UNL A   1      43.297  23.219  32.259  1.00  0.00     0.157 C 
BRANCH  90  91
ATOM     91  C   UNL A   1      44.103  23.805  31.112  1.00  0.00    -0.028 A 
ATOM     92  C   UNL A   1      44.288  23.089  29.925  1.00  0.00     0.008 A 
ATOM     93  C   UNL A   1      44.698  25.068  31.200  1.00  0.00     0.008 A 
ATOM     94  C   UNL A   1      45.107  23.564  28.901  1.00  0.00     0.027 A 
ATOM     95  C   UNL A   1      45.512  25.553  30.162  1.00  0.00     0.027 A 
ATOM     96  C   UNL A   1      45.753  24.793  29.011  1.00  0.00     0.044 A 
BRANCH  96  97
ATOM     97  N   UNL A   1      46.635  25.221  27.989  1.00  0.00    -0.312 N 
ATOM     98  C   UNL A   1      47.312  26.497  28.015  1.00  0.00     0.126 C 
ATOM     99  C   UNL A   1      47.004  24.478  26.865  1.00  0.00     0.227 C 
ATOM    100  C   UNL A   1      47.729  26.727  26.581  1.00  0.00     0.032 C 
ATOM    101  C   UNL A   1      47.943  25.325  26.040  1.00  0.00     0.102 C 
ATOM    102  O   UNL A   1      46.663  23.346  26.541  1.00  0.00    -0.275 OA
ENDBRANCH  96  97
ENDBRANCH  90  91
ENDBRANCH  80  90
ENDBRANCH  74  77
ENDBRANCH  72  73
ENDBRANCH  71  72
ENDBRANCH  70  71
ENDBRANCH   1  70
TORSDOF 19
ENDMDL
