MODEL 1
REMARK VINA RESULT:     -12.3      0.000      0.000
REMARK SMILES O=C(NC1(C(=O)NCCCCCCNC(=O)c2ccc(-c3c4nc(c(-c5ccc(S(=O)(=O)[O-])cc5)c5ccc([nH]5)c(-c5ccc(S(=O)(=O)[O-])cc5)c5nc(c(-c6ccc(S(=O)(=O)[O-])cc6)c6ccc3[nH]6)C=C5)C=C4)cc2)CC[NH2+]CC1)OCC1c2ccccc2-c2ccccc21
REMARK SMILES IDX 10 1 9 2 8 3 7 4 5 5 6 6 4 8 77 9 81 10 78 11 80 12 79 13
REMARK SMILES IDX 3 16 1 17 2 18 82 20 83 21 84 22 85 23 96 24 86 25 90 26
REMARK SMILES IDX 91 27 95 28 87 29 89 30 92 31 94 32 88 33 93 34 11 35 12 36
REMARK SMILES IDX 13 37 14 38 15 39 16 41 17 42 18 43 76 44 19 45 75 46 20 47
REMARK SMILES IDX 21 48 22 49 69 50 23 51 74 52 68 53 70 54 24 55 73 56 67 57
REMARK SMILES IDX 66 58 25 60 55 61 36 62 54 63 37 64 40 65 53 66 71 67 38 68
REMARK SMILES IDX 39 69 52 71 72 72 41 73 26 74 27 75 35 76 28 77 34 78 29 79
REMARK SMILES IDX 30 80 31 81 32 82 33 83 56 84 57 85 65 86 58 87 64 88 59 89
REMARK SMILES IDX 60 90 61 91 62 92 63 93 42 94 43 95 51 96 44 97 50 98 45 99
REMARK SMILES IDX 46 100 47 101 48 102 49 103
REMARK H PARENT 7 7 79 14 79 15 3 19 14 40 70 59 40 70
REMARK Flexibility Score: inf
ROOT
ATOM      1  C   UNL A   1      33.991  31.599  27.678  1.00  0.00     0.002 C 
ENDROOT
BRANCH   1   2
ATOM      2  C   UNL A   1      34.691  30.222  27.641  1.00  0.00     0.021 C 
BRANCH   2   3
ATOM      3  C   UNL A   1      34.301  29.320  26.457  1.00  0.00     0.116 C 
BRANCH   3   4
ATOM      4  N   UNL A   1      33.009  29.657  25.750  1.00  0.00    -0.354 N 
ATOM      5  C   UNL A   1      31.869  29.273  25.126  1.00  0.00     0.246 C 
ATOM      6  O   UNL A   1      31.148  30.305  25.029  1.00  0.00    -0.272 OA
ATOM      7  H   UNL A   1      32.980  30.641  25.738  1.00  0.00     0.163 HD
BRANCH   5   8
ATOM      8  C   UNL A   1      31.117  27.883  24.488  1.00  0.00     0.132 C 
ATOM      9  C   UNL A   1      31.349  26.904  25.726  1.00  0.00     0.100 C 
ATOM     10  C   UNL A   1      29.814  27.379  23.799  1.00  0.00     0.100 C 
ATOM     11  C   UNL A   1      30.366  25.757  26.061  1.00  0.00     0.263 C 
ATOM     12  C   UNL A   1      29.540  25.885  23.863  1.00  0.00     0.263 C 
ATOM     13  N   UNL A   1      29.185  25.639  25.237  1.00  0.00    -0.346 N 
ATOM     14  H   UNL A   1      28.490  26.322  25.537  1.00  0.00     0.346 HD
ATOM     15  H   UNL A   1      28.797  24.700  25.328  1.00  0.00     0.346 HD
BRANCH   8  16
ATOM     16  N   UNL A   1      32.120  27.775  23.409  1.00  0.00    -0.307 N 
ATOM     17  O   UNL A   1      33.549  26.565  22.142  1.00  0.00    -0.225 OA
ATOM     18  C   UNL A   1      32.909  26.663  23.184  1.00  0.00     0.408 C 
ATOM     19  H   UNL A   1      32.235  28.547  22.809  1.00  0.00     0.168 HD
BRANCH  18  20
ATOM     20  O   UNL A   1      33.093  25.798  24.232  1.00  0.00    -0.449 OA
BRANCH  20  21
ATOM     21  C   UNL A   1      34.418  25.344  24.673  1.00  0.00     0.248 C 
BRANCH  21  22
ATOM     22  C   UNL A   1      34.535  23.784  25.053  1.00  0.00     0.088 C 
ATOM     23  C   UNL A   1      35.953  23.237  25.284  1.00  0.00    -0.029 A 
ATOM     24  C   UNL A   1      33.876  22.488  24.402  1.00  0.00    -0.029 A 
ATOM     25  C   UNL A   1      37.137  23.892  25.568  1.00  0.00     0.005 A 
ATOM     26  C   UNL A   1      35.917  21.820  25.244  1.00  0.00    -0.014 A 
ATOM     27  C   UNL A   1      34.631  21.369  24.781  1.00  0.00    -0.014 A 
ATOM     28  C   UNL A   1      32.717  22.198  23.675  1.00  0.00     0.005 A 
ATOM     29  C   UNL A   1      38.282  23.118  25.787  1.00  0.00     0.000 A 
ATOM     30  C   UNL A   1      37.043  21.056  25.482  1.00  0.00     0.009 A 
ATOM     31  C   UNL A   1      34.173  20.056  24.612  1.00  0.00     0.009 A 
ATOM     32  C   UNL A   1      32.255  20.892  23.458  1.00  0.00     0.000 A 
ATOM     33  C   UNL A   1      38.234  21.716  25.752  1.00  0.00     0.001 A 
ATOM     34  C   UNL A   1      32.962  19.821  23.969  1.00  0.00     0.001 A 
ENDBRANCH  21  22
ENDBRANCH  20  21
ENDBRANCH  18  20
ENDBRANCH   8  16
ENDBRANCH   5   8
ENDBRANCH   3   4
ENDBRANCH   2   3
ENDBRANCH   1   2
BRANCH   1  35
ATOM     35  C   UNL A   1      34.850  32.852  27.915  1.00  0.00     0.002 C 
BRANCH  35  36
ATOM     36  C   UNL A   1      35.160  33.240  29.366  1.00  0.00     0.021 C 
BRANCH  36  37
ATOM     37  C   UNL A   1      36.347  32.559  30.054  1.00  0.00     0.116 C 
BRANCH  37  38
ATOM     38  N   UNL A   1      35.983  31.392  30.846  1.00  0.00    -0.352 N 
ATOM     39  C   UNL A   1      36.635  30.201  31.063  1.00  0.00     0.251 C 
ATOM     40  H   UNL A   1      35.117  31.470  31.307  1.00  0.00     0.163 HD
ATOM     41  O   UNL A   1      36.064  29.325  31.713  1.00  0.00    -0.269 OA
BRANCH  39  42
ATOM     42  C   UNL A   1      37.993  29.929  30.524  1.00  0.00     0.039 A 
ATOM     43  C   UNL A   1      39.039  29.704  31.430  1.00  0.00     0.014 A 
ATOM     44  C   UNL A   1      38.272  29.959  29.156  1.00  0.00     0.014 A 
ATOM     45  C   UNL A   1      40.334  29.442  30.966  1.00  0.00     0.010 A 
ATOM     46  C   UNL A   1      39.552  29.639  28.692  1.00  0.00     0.010 A 
ATOM     47  C   UNL A   1      40.599  29.373  29.590  1.00  0.00    -0.014 A 
BRANCH  47  48
ATOM     48  C   UNL A   1      41.952  29.015  29.078  1.00  0.00     0.031 A 
ATOM     49  C   UNL A   1      43.035  30.058  28.976  1.00  0.00     0.074 A 
ATOM     50  C   UNL A   1      42.194  27.760  28.647  1.00  0.00     0.049 A 
ATOM     51  N   UNL A   1      44.248  29.944  28.496  1.00  0.00    -0.248 NA
ATOM     52  C   UNL A   1      42.707  31.408  29.457  1.00  0.00     0.031 C 
ATOM     53  C   UNL A   1      41.227  26.660  28.660  1.00  0.00     0.029 A 
ATOM     54  N   UNL A   1      43.324  27.199  28.104  1.00  0.00    -0.354 N 
ATOM     55  C   UNL A   1      44.820  31.209  28.598  1.00  0.00     0.074 A 
ATOM     56  C   UNL A   1      43.806  32.083  29.148  1.00  0.00     0.031 C 
ATOM     57  C   UNL A   1      41.811  25.554  28.170  1.00  0.00     0.029 A 
ATOM     58  C   UNL A   1      43.178  25.872  27.769  1.00  0.00     0.049 A 
ATOM     59  H   UNL A   1      44.161  27.700  27.966  1.00  0.00     0.167 HD
ATOM     60  C   UNL A   1      46.077  31.605  28.281  1.00  0.00     0.031 A 
ATOM     61  C   UNL A   1      44.040  25.007  27.197  1.00  0.00     0.031 A 
ATOM     62  C   UNL A   1      47.091  30.734  27.743  1.00  0.00     0.049 A 
ATOM     63  C   UNL A   1      45.426  25.472  26.842  1.00  0.00     0.074 A 
ATOM     64  C   UNL A   1      48.409  31.032  27.439  1.00  0.00     0.029 A 
ATOM     65  N   UNL A   1      46.902  29.396  27.429  1.00  0.00    -0.354 N 
ATOM     66  N   UNL A   1      45.961  26.659  27.002  1.00  0.00    -0.248 NA
ATOM     67  C   UNL A   1      46.326  24.478  26.241  1.00  0.00     0.031 C 
ATOM     68  C   UNL A   1      49.001  29.889  26.894  1.00  0.00     0.029 A 
ATOM     69  C   UNL A   1      48.072  28.862  26.914  1.00  0.00     0.049 A 
ATOM     70  H   UNL A   1      46.062  28.900  27.554  1.00  0.00     0.167 HD
ATOM     71  C   UNL A   1      47.271  26.546  26.545  1.00  0.00     0.074 A 
ATOM     72  C   UNL A   1      47.450  25.174  26.117  1.00  0.00     0.031 C 
ATOM     73  C   UNL A   1      48.238  27.495  26.489  1.00  0.00     0.031 A 
BRANCH  60  74
ATOM     74  C   UNL A   1      46.428  33.055  28.498  1.00  0.00    -0.014 A 
ATOM     75  C   UNL A   1      46.971  33.498  29.718  1.00  0.00     0.010 A 
ATOM     76  C   UNL A   1      46.252  33.982  27.454  1.00  0.00     0.010 A 
ATOM     77  C   UNL A   1      47.287  34.846  29.906  1.00  0.00     0.020 A 
ATOM     78  C   UNL A   1      46.594  35.327  27.628  1.00  0.00     0.020 A 
ATOM     79  C   UNL A   1      47.092  35.753  28.861  1.00  0.00     0.054 A 
BRANCH  79  80
ATOM     80  S   UNL A   1      47.525  37.495  29.128  1.00  0.00     0.124 S 
ATOM     81  O   UNL A   1      48.138  37.451  30.453  1.00  0.00    -0.237 OA
ATOM     82  O   UNL A   1      48.438  37.772  28.023  1.00  0.00    -0.237 OA
ATOM     83  O   UNL A   1      46.240  38.186  29.059  1.00  0.00    -0.744 OA
ENDBRANCH  79  80
ENDBRANCH  60  74
BRANCH  61  84
ATOM     84  C   UNL A   1      43.618  23.602  26.937  1.00  0.00    -0.014 A 
ATOM     85  C   UNL A   1      42.989  22.848  27.943  1.00  0.00     0.010 A 
ATOM     86  C   UNL A   1      43.834  23.015  25.677  1.00  0.00     0.010 A 
ATOM     87  C   UNL A   1      42.597  21.528  27.699  1.00  0.00     0.020 A 
ATOM     88  C   UNL A   1      43.420  21.705  25.421  1.00  0.00     0.020 A 
ATOM     89  C   UNL A   1      42.813  20.966  26.438  1.00  0.00     0.054 A 
BRANCH  89  90
ATOM     90  S   UNL A   1      42.244  19.271  26.127  1.00  0.00     0.124 S 
ATOM     91  O   UNL A   1      43.014  18.906  24.942  1.00  0.00    -0.237 OA
ATOM     92  O   UNL A   1      42.613  18.582  27.361  1.00  0.00    -0.237 OA
ATOM     93  O   UNL A   1      40.806  19.427  25.917  1.00  0.00    -0.744 OA
ENDBRANCH  89  90
ENDBRANCH  61  84
BRANCH  73  94
ATOM     94  C   UNL A   1      49.591  27.077  25.976  1.00  0.00    -0.014 A 
ATOM     95  C   UNL A   1      50.441  26.257  26.740  1.00  0.00     0.010 A 
ATOM     96  C   UNL A   1      49.994  27.468  24.686  1.00  0.00     0.010 A 
ATOM     97  C   UNL A   1      51.682  25.860  26.234  1.00  0.00     0.020 A 
ATOM     98  C   UNL A   1      51.222  27.051  24.166  1.00  0.00     0.020 A 
ATOM     99  C   UNL A   1      52.065  26.261  24.950  1.00  0.00     0.054 A 
BRANCH  99 100
ATOM    100  S   UNL A   1      53.661  25.696  24.298  1.00  0.00     0.124 S 
ATOM    101  O   UNL A   1      53.704  24.311  24.758  1.00  0.00    -0.237 OA
ATOM    102  O   UNL A   1      53.501  25.876  22.857  1.00  0.00    -0.237 OA
ATOM    103  O   UNL A   1      54.629  26.591  24.927  1.00  0.00    -0.744 OA
ENDBRANCH  99 100
ENDBRANCH  73  94
ENDBRANCH  47  48
ENDBRANCH  39  42
ENDBRANCH  37  38
ENDBRANCH  36  37
ENDBRANCH  35  36
ENDBRANCH   1  35
TORSDOF 20
ENDMDL
MODEL 2
REMARK VINA RESULT:     -12.2      1.041      7.849
REMARK SMILES O=C(NC1(C(=O)NCCCCCCNC(=O)c2ccc(-c3c4nc(c(-c5ccc(S(=O)(=O)[O-])cc5)c5ccc([nH]5)c(-c5ccc(S(=O)(=O)[O-])cc5)c5nc(c(-c6ccc(S(=O)(=O)[O-])cc6)c6ccc3[nH]6)C=C5)C=C4)cc2)CC[NH2+]CC1)OCC1c2ccccc2-c2ccccc21
REMARK SMILES IDX 10 1 9 2 8 3 7 4 5 5 6 6 4 8 77 9 81 10 78 11 80 12 79 13
REMARK SMILES IDX 3 16 1 17 2 18 82 20 83 21 84 22 85 23 96 24 86 25 90 26
REMARK SMILES IDX 91 27 95 28 87 29 89 30 92 31 94 32 88 33 93 34 11 35 12 36
REMARK SMILES IDX 13 37 14 38 15 39 16 41 17 42 18 43 76 44 19 45 75 46 20 47
REMARK SMILES IDX 21 48 22 49 69 50 23 51 74 52 68 53 70 54 24 55 73 56 67 57
REMARK SMILES IDX 66 58 25 60 55 61 36 62 54 63 37 64 40 65 53 66 71 67 38 68
REMARK SMILES IDX 39 69 52 71 72 72 41 73 26 74 27 75 35 76 28 77 34 78 29 79
REMARK SMILES IDX 30 80 31 81 32 82 33 83 56 84 57 85 65 86 58 87 64 88 59 89
REMARK SMILES IDX 60 90 61 91 62 92 63 93 42 94 43 95 51 96 44 97 50 98 45 99
REMARK SMILES IDX 46 100 47 101 48 102 49 103
REMARK H PARENT 7 7 79 14 79 15 3 19 14 40 70 59 40 70
REMARK Flexibility Score: inf
ROOT
ATOM      1  C   UNL A   1      35.553  31.940  27.770  1.00  0.00     0.002 C 
ENDROOT
BRANCH   1   2
ATOM      2  C   UNL A   1      34.989  30.516  27.980  1.00  0.00     0.021 C 
BRANCH   2   3
ATOM      3  C   UNL A   1      33.723  30.188  27.169  1.00  0.00     0.116 C 
BRANCH   3   4
ATOM      4  N   UNL A   1      33.918  29.356  25.923  1.00  0.00    -0.354 N 
ATOM      5  C   UNL A   1      33.411  28.675  24.866  1.00  0.00     0.246 C 
ATOM      6  O   UNL A   1      34.383  28.440  24.093  1.00  0.00    -0.272 OA
ATOM      7  H   UNL A   1      34.894  29.264  25.834  1.00  0.00     0.163 HD
BRANCH   5   8
ATOM      8  C   UNL A   1      31.930  28.090  24.259  1.00  0.00     0.132 C 
ATOM      9  C   UNL A   1      31.062  29.415  24.449  1.00  0.00     0.100 C 
ATOM     10  C   UNL A   1      31.289  27.343  23.051  1.00  0.00     0.100 C 
ATOM     11  C   UNL A   1      29.876  29.760  23.516  1.00  0.00     0.263 C 
ATOM     12  C   UNL A   1      29.788  27.501  22.868  1.00  0.00     0.263 C 
ATOM     13  N   UNL A   1      29.618  28.859  22.418  1.00  0.00    -0.346 N 
ATOM     14  H   UNL A   1      30.272  29.050  21.658  1.00  0.00     0.346 HD
ATOM     15  H   UNL A   1      28.663  28.992  22.083  1.00  0.00     0.346 HD
BRANCH   8  16
ATOM     16  N   UNL A   1      31.815  27.103  25.352  1.00  0.00    -0.307 N 
ATOM     17  O   UNL A   1      32.568  25.294  26.480  1.00  0.00    -0.225 OA
ATOM     18  C   UNL A   1      32.558  25.942  25.437  1.00  0.00     0.408 C 
ATOM     19  H   UNL A   1      31.166  27.286  26.069  1.00  0.00     0.168 HD
BRANCH  18  20
ATOM     20  O   UNL A   1      33.105  25.456  24.277  1.00  0.00    -0.449 OA
BRANCH  20  21
ATOM     21  C   UNL A   1      32.727  24.164  23.692  1.00  0.00     0.248 C 
BRANCH  21  22
ATOM     22  C   UNL A   1      33.375  22.863  24.384  1.00  0.00     0.088 C 
ATOM     23  C   UNL A   1      34.881  22.922  24.684  1.00  0.00    -0.029 A 
ATOM     24  C   UNL A   1      33.255  21.314  24.034  1.00  0.00    -0.029 A 
ATOM     25  C   UNL A   1      35.738  24.002  24.793  1.00  0.00     0.005 A 
ATOM     26  C   UNL A   1      35.356  21.611  24.940  1.00  0.00    -0.014 A 
ATOM     27  C   UNL A   1      34.342  20.643  24.617  1.00  0.00    -0.014 A 
ATOM     28  C   UNL A   1      32.314  20.484  23.416  1.00  0.00     0.005 A 
ATOM     29  C   UNL A   1      37.071  23.755  25.136  1.00  0.00     0.000 A 
ATOM     30  C   UNL A   1      36.668  21.370  25.300  1.00  0.00     0.009 A 
ATOM     31  C   UNL A   1      34.392  19.249  24.736  1.00  0.00     0.009 A 
ATOM     32  C   UNL A   1      32.361  19.085  23.487  1.00  0.00     0.000 A 
ATOM     33  C   UNL A   1      37.529  22.454  25.394  1.00  0.00     0.001 A 
ATOM     34  C   UNL A   1      33.378  18.468  24.190  1.00  0.00     0.001 A 
ENDBRANCH  21  22
ENDBRANCH  20  21
ENDBRANCH  18  20
ENDBRANCH   8  16
ENDBRANCH   5   8
ENDBRANCH   3   4
ENDBRANCH   2   3
ENDBRANCH   1   2
BRANCH   1  35
ATOM     35  C   UNL A   1      35.282  33.002  28.848  1.00  0.00     0.002 C 
BRANCH  35  36
ATOM     36  C   UNL A   1      36.482  33.789  29.391  1.00  0.00     0.021 C 
BRANCH  36  37
ATOM     37  C   UNL A   1      37.027  33.406  30.771  1.00  0.00     0.116 C 
BRANCH  37  38
ATOM     38  N   UNL A   1      36.490  32.158  31.295  1.00  0.00    -0.352 N 
ATOM     39  C   UNL A   1      36.959  30.867  31.230  1.00  0.00     0.251 C 
ATOM     40  H   UNL A   1      35.639  32.257  31.781  1.00  0.00     0.163 HD
ATOM     41  O   UNL A   1      36.260  29.961  31.684  1.00  0.00    -0.269 OA
BRANCH  39  42
ATOM     42  C   UNL A   1      38.267  30.529  30.613  1.00  0.00     0.039 A 
ATOM     43  C   UNL A   1      39.364  30.298  31.456  1.00  0.00     0.014 A 
ATOM     44  C   UNL A   1      38.456  30.501  29.230  1.00  0.00     0.014 A 
ATOM     45  C   UNL A   1      40.616  29.975  30.919  1.00  0.00     0.010 A 
ATOM     46  C   UNL A   1      39.691  30.120  28.695  1.00  0.00     0.010 A 
ATOM     47  C   UNL A   1      40.785  29.849  29.531  1.00  0.00    -0.014 A 
BRANCH  47  48
ATOM     48  C   UNL A   1      42.089  29.425  28.945  1.00  0.00     0.031 A 
ATOM     49  C   UNL A   1      42.299  28.005  28.485  1.00  0.00     0.074 A 
ATOM     50  C   UNL A   1      43.110  30.304  28.880  1.00  0.00     0.049 A 
ATOM     51  N   UNL A   1      43.383  27.443  28.011  1.00  0.00    -0.248 NA
ATOM     52  C   UNL A   1      41.149  27.095  28.588  1.00  0.00     0.031 C 
ATOM     53  C   UNL A   1      43.054  31.701  29.318  1.00  0.00     0.029 A 
ATOM     54  N   UNL A   1      44.399  30.152  28.429  1.00  0.00    -0.354 N 
ATOM     55  C   UNL A   1      43.052  26.112  27.779  1.00  0.00     0.074 A 
ATOM     56  C   UNL A   1      41.679  25.942  28.203  1.00  0.00     0.031 C 
ATOM     57  C   UNL A   1      44.244  32.281  29.095  1.00  0.00     0.029 A 
ATOM     58  C   UNL A   1      45.162  31.292  28.537  1.00  0.00     0.049 A 
ATOM     59  H   UNL A   1      44.745  29.306  28.062  1.00  0.00     0.167 HD
ATOM     60  C   UNL A   1      43.813  25.124  27.247  1.00  0.00     0.031 A 
ATOM     61  C   UNL A   1      46.455  31.519  28.232  1.00  0.00     0.031 A 
ATOM     62  C   UNL A   1      45.177  25.294  26.815  1.00  0.00     0.049 A 
ATOM     63  C   UNL A   1      47.284  30.405  27.654  1.00  0.00     0.074 A 
ATOM     64  C   UNL A   1      46.012  24.365  26.216  1.00  0.00     0.029 A 
ATOM     65  N   UNL A   1      45.907  26.467  26.935  1.00  0.00    -0.354 N 
ATOM     66  N   UNL A   1      46.932  29.169  27.391  1.00  0.00    -0.248 NA
ATOM     67  C   UNL A   1      48.681  30.720  27.322  1.00  0.00     0.031 C 
ATOM     68  C   UNL A   1      47.262  24.962  26.021  1.00  0.00     0.029 A 
ATOM     69  C   UNL A   1      47.188  26.280  26.443  1.00  0.00     0.049 A 
ATOM     70  H   UNL A   1      45.565  27.308  27.314  1.00  0.00     0.167 HD
ATOM     71  C   UNL A   1      48.057  28.567  26.836  1.00  0.00     0.074 A 
ATOM     72  C   UNL A   1      49.095  29.576  26.790  1.00  0.00     0.031 C 
ATOM     73  C   UNL A   1      48.214  27.292  26.403  1.00  0.00     0.031 A 
BRANCH  60  74
ATOM     74  C   UNL A   1      43.188  23.758  27.110  1.00  0.00    -0.014 A 
ATOM     75  C   UNL A   1      42.559  23.363  25.916  1.00  0.00     0.010 A 
ATOM     76  C   UNL A   1      43.269  22.841  28.175  1.00  0.00     0.010 A 
ATOM     77  C   UNL A   1      41.981  22.095  25.805  1.00  0.00     0.020 A 
ATOM     78  C   UNL A   1      42.718  21.561  28.058  1.00  0.00     0.020 A 
ATOM     79  C   UNL A   1      42.060  21.204  26.880  1.00  0.00     0.054 A 
BRANCH  79  80
ATOM     80  S   UNL A   1      41.313  19.560  26.703  1.00  0.00     0.124 S 
ATOM     81  O   UNL A   1      42.477  18.732  26.401  1.00  0.00    -0.237 OA
ATOM     82  O   UNL A   1      40.710  19.340  28.015  1.00  0.00    -0.237 OA
ATOM     83  O   UNL A   1      40.364  19.726  25.604  1.00  0.00    -0.744 OA
ENDBRANCH  79  80
ENDBRANCH  60  74
BRANCH  61  84
ATOM     84  C   UNL A   1      47.044  32.869  28.455  1.00  0.00    -0.014 A 
ATOM     85  C   UNL A   1      47.661  33.186  29.678  1.00  0.00     0.010 A 
ATOM     86  C   UNL A   1      47.003  33.842  27.440  1.00  0.00     0.010 A 
ATOM     87  C   UNL A   1      48.210  34.455  29.888  1.00  0.00     0.020 A 
ATOM     88  C   UNL A   1      47.575  35.102  27.636  1.00  0.00     0.020 A 
ATOM     89  C   UNL A   1      48.166  35.404  28.864  1.00  0.00     0.054 A 
BRANCH  89  90
ATOM     90  S   UNL A   1      48.936  37.024  29.138  1.00  0.00     0.124 S 
ATOM     91  O   UNL A   1      48.238  37.493  30.331  1.00  0.00    -0.237 OA
ATOM     92  O   UNL A   1      50.343  36.679  29.320  1.00  0.00    -0.237 OA
ATOM     93  O   UNL A   1      48.638  37.756  27.908  1.00  0.00    -0.744 OA
ENDBRANCH  89  90
ENDBRANCH  61  84
BRANCH  73  94
ATOM     94  C   UNL A   1      49.546  26.919  25.807  1.00  0.00    -0.014 A 
ATOM     95  C   UNL A   1      49.867  27.241  24.476  1.00  0.00     0.010 A 
ATOM     96  C   UNL A   1      50.512  26.287  26.611  1.00  0.00     0.010 A 
ATOM     97  C   UNL A   1      51.118  26.908  23.951  1.00  0.00     0.020 A 
ATOM     98  C   UNL A   1      51.774  25.978  26.098  1.00  0.00     0.020 A 
ATOM     99  C   UNL A   1      52.065  26.278  24.766  1.00  0.00     0.054 A 
BRANCH  99 100
ATOM    100  S   UNL A   1      53.698  25.898  24.074  1.00  0.00     0.124 S 
ATOM    101  O   UNL A   1      54.550  26.867  24.757  1.00  0.00    -0.237 OA
ATOM    102  O   UNL A   1      53.895  24.503  24.464  1.00  0.00    -0.237 OA
ATOM    103  O   UNL A   1      53.529  26.119  22.640  1.00  0.00    -0.744 OA
ENDBRANCH  99 100
ENDBRANCH  73  94
ENDBRANCH  47  48
ENDBRANCH  39  42
ENDBRANCH  37  38
ENDBRANCH  36  37
ENDBRANCH  35  36
ENDBRANCH   1  35
TORSDOF 20
ENDMDL
MODEL 3
REMARK VINA RESULT:     -11.8      5.785      7.945
REMARK SMILES O=C(NC1(C(=O)NCCCCCCNC(=O)c2ccc(-c3c4nc(c(-c5ccc(S(=O)(=O)[O-])cc5)c5ccc([nH]5)c(-c5ccc(S(=O)(=O)[O-])cc5)c5nc(c(-c6ccc(S(=O)(=O)[O-])cc6)c6ccc3[nH]6)C=C5)C=C4)cc2)CC[NH2+]CC1)OCC1c2ccccc2-c2ccccc21
REMARK SMILES IDX 10 1 9 2 8 3 7 4 5 5 6 6 4 8 77 9 81 10 78 11 80 12 79 13
REMARK SMILES IDX 3 16 1 17 2 18 82 20 83 21 84 22 85 23 96 24 86 25 90 26
REMARK SMILES IDX 91 27 95 28 87 29 89 30 92 31 94 32 88 33 93 34 11 35 12 36
REMARK SMILES IDX 13 37 14 38 15 39 16 41 17 42 18 43 76 44 19 45 75 46 20 47
REMARK SMILES IDX 21 48 22 49 69 50 23 51 74 52 68 53 70 54 24 55 73 56 67 57
REMARK SMILES IDX 66 58 25 60 55 61 36 62 54 63 37 64 40 65 53 66 71 67 38 68
REMARK SMILES IDX 39 69 52 71 72 72 41 73 26 74 27 75 35 76 28 77 34 78 29 79
REMARK SMILES IDX 30 80 31 81 32 82 33 83 56 84 57 85 65 86 58 87 64 88 59 89
REMARK SMILES IDX 60 90 61 91 62 92 63 93 42 94 43 95 51 96 44 97 50 98 45 99
REMARK SMILES IDX 46 100 47 101 48 102 49 103
REMARK H PARENT 7 7 79 14 79 15 3 19 14 40 70 59 40 70
REMARK Flexibility Score: inf
ROOT
ATOM      1  C   UNL A   1      35.603  30.862  27.689  1.00  0.00     0.002 C 
ENDROOT
BRANCH   1   2
ATOM      2  C   UNL A   1      35.480  29.344  27.422  1.00  0.00     0.021 C 
BRANCH   2   3
ATOM      3  C   UNL A   1      34.103  28.878  26.917  1.00  0.00     0.116 C 
BRANCH   3   4
ATOM      4  N   UNL A   1      33.886  28.912  25.422  1.00  0.00    -0.354 N 
ATOM      5  C   UNL A   1      33.176  28.559  24.323  1.00  0.00     0.246 C 
ATOM      6  O   UNL A   1      33.597  29.282  23.377  1.00  0.00    -0.272 OA
ATOM      7  H   UNL A   1      34.624  29.464  25.076  1.00  0.00     0.163 HD
BRANCH   5   8
ATOM      8  C   UNL A   1      31.918  27.514  23.843  1.00  0.00     0.132 C 
ATOM      9  C   UNL A   1      32.165  26.349  24.904  1.00  0.00     0.100 C 
ATOM     10  C   UNL A   1      30.394  27.467  23.523  1.00  0.00     0.100 C 
ATOM     11  C   UNL A   1      31.012  25.464  25.435  1.00  0.00     0.263 C 
ATOM     12  C   UNL A   1      29.726  26.103  23.573  1.00  0.00     0.263 C 
ATOM     13  N   UNL A   1      29.679  25.772  24.974  1.00  0.00    -0.346 N 
ATOM     14  H   UNL A   1      29.311  26.566  25.499  1.00  0.00     0.346 HD
ATOM     15  H   UNL A   1      29.073  24.964  25.115  1.00  0.00     0.346 HD
BRANCH   8  16
ATOM     16  N   UNL A   1      32.537  27.297  22.519  1.00  0.00    -0.307 N 
ATOM     17  O   UNL A   1      33.040  25.973  20.758  1.00  0.00    -0.225 OA
ATOM     18  C   UNL A   1      32.731  26.057  21.943  1.00  0.00     0.408 C 
ATOM     19  H   UNL A   1      32.831  28.089  22.015  1.00  0.00     0.168 HD
BRANCH  18  20
ATOM     20  O   UNL A   1      32.757  24.969  22.778  1.00  0.00    -0.449 OA
BRANCH  20  21
ATOM     21  C   UNL A   1      33.156  23.628  22.334  1.00  0.00     0.248 C 
BRANCH  21  22
ATOM     22  C   UNL A   1      33.448  22.560  23.503  1.00  0.00     0.088 C 
ATOM     23  C   UNL A   1      34.853  22.588  24.125  1.00  0.00    -0.029 A 
ATOM     24  C   UNL A   1      33.173  20.993  23.591  1.00  0.00    -0.029 A 
ATOM     25  C   UNL A   1      35.820  23.576  24.123  1.00  0.00     0.005 A 
ATOM     26  C   UNL A   1      35.065  21.389  24.850  1.00  0.00    -0.014 A 
ATOM     27  C   UNL A   1      34.005  20.453  24.583  1.00  0.00    -0.014 A 
ATOM     28  C   UNL A   1      32.265  20.091  23.028  1.00  0.00     0.005 A 
ATOM     29  C   UNL A   1      37.004  23.342  24.832  1.00  0.00     0.000 A 
ATOM     30  C   UNL A   1      36.225  21.167  25.568  1.00  0.00     0.009 A 
ATOM     31  C   UNL A   1      33.821  19.166  25.104  1.00  0.00     0.009 A 
ATOM     32  C   UNL A   1      32.087  18.785  23.505  1.00  0.00     0.000 A 
ATOM     33  C   UNL A   1      37.201  22.154  25.552  1.00  0.00     0.001 A 
ATOM     34  C   UNL A   1      32.836  18.337  24.576  1.00  0.00     0.001 A 
ENDBRANCH  21  22
ENDBRANCH  20  21
ENDBRANCH  18  20
ENDBRANCH   8  16
ENDBRANCH   5   8
ENDBRANCH   3   4
ENDBRANCH   2   3
ENDBRANCH   1   2
BRANCH   1  35
ATOM     35  C   UNL A   1      34.483  31.560  28.477  1.00  0.00     0.002 C 
BRANCH  35  36
ATOM     36  C   UNL A   1      33.505  32.446  27.694  1.00  0.00     0.021 C 
BRANCH  36  37
ATOM     37  C   UNL A   1      33.747  33.958  27.696  1.00  0.00     0.116 C 
BRANCH  37  38
ATOM     38  N   UNL A   1      33.045  34.669  28.755  1.00  0.00    -0.352 N 
ATOM     39  C   UNL A   1      33.303  34.782  30.102  1.00  0.00     0.251 C 
ATOM     40  H   UNL A   1      32.243  35.154  28.454  1.00  0.00     0.163 HD
ATOM     41  O   UNL A   1      32.492  35.377  30.811  1.00  0.00    -0.269 OA
BRANCH  39  42
ATOM     42  C   UNL A   1      34.514  34.192  30.729  1.00  0.00     0.039 A 
ATOM     43  C   UNL A   1      34.345  33.281  31.781  1.00  0.00     0.014 A 
ATOM     44  C   UNL A   1      35.806  34.564  30.353  1.00  0.00     0.014 A 
ATOM     45  C   UNL A   1      35.457  32.698  32.401  1.00  0.00     0.010 A 
ATOM     46  C   UNL A   1      36.915  33.938  30.931  1.00  0.00     0.010 A 
ATOM     47  C   UNL A   1      36.756  32.995  31.960  1.00  0.00    -0.014 A 
BRANCH  47  48
ATOM     48  C   UNL A   1      37.948  32.323  32.552  1.00  0.00     0.031 A 
ATOM     49  C   UNL A   1      38.455  32.721  33.914  1.00  0.00     0.074 A 
ATOM     50  C   UNL A   1      38.613  31.392  31.839  1.00  0.00     0.049 A 
ATOM     51  N   UNL A   1      39.512  32.292  34.559  1.00  0.00    -0.248 NA
ATOM     52  C   UNL A   1      37.688  33.745  34.638  1.00  0.00     0.031 C 
ATOM     53  C   UNL A   1      38.249  30.934  30.496  1.00  0.00     0.029 A 
ATOM     54  N   UNL A   1      39.743  30.669  32.138  1.00  0.00    -0.354 N 
ATOM     55  C   UNL A   1      39.548  33.008  35.751  1.00  0.00     0.074 A 
ATOM     56  C   UNL A   1      38.430  33.926  35.722  1.00  0.00     0.031 C 
ATOM     57  C   UNL A   1      39.124  29.996  30.098  1.00  0.00     0.029 A 
ATOM     58  C   UNL A   1      40.134  29.812  31.135  1.00  0.00     0.049 A 
ATOM     59  H   UNL A   1      40.227  30.757  32.991  1.00  0.00     0.167 HD
ATOM     60  C   UNL A   1      40.419  32.900  36.785  1.00  0.00     0.031 A 
ATOM     61  C   UNL A   1      41.189  28.977  31.052  1.00  0.00     0.031 A 
ATOM     62  C   UNL A   1      41.526  31.979  36.820  1.00  0.00     0.049 A 
ATOM     63  C   UNL A   1      42.150  28.883  32.205  1.00  0.00     0.074 A 
ATOM     64  C   UNL A   1      42.432  31.761  37.845  1.00  0.00     0.029 A 
ATOM     65  N   UNL A   1      41.880  31.124  35.787  1.00  0.00    -0.354 N 
ATOM     66  N   UNL A   1      42.130  29.529  33.347  1.00  0.00    -0.248 NA
ATOM     67  C   UNL A   1      43.268  27.940  32.063  1.00  0.00     0.031 C 
ATOM     68  C   UNL A   1      43.363  30.812  37.411  1.00  0.00     0.029 A 
ATOM     69  C   UNL A   1      43.003  30.394  36.141  1.00  0.00     0.049 A 
ATOM     70  H   UNL A   1      41.403  31.047  34.930  1.00  0.00     0.167 HD
ATOM     71  C   UNL A   1      43.218  29.049  34.070  1.00  0.00     0.074 A 
ATOM     72  C   UNL A   1      43.865  28.051  33.244  1.00  0.00     0.031 C 
ATOM     73  C   UNL A   1      43.640  29.404  35.309  1.00  0.00     0.031 A 
BRANCH  60  74
ATOM     74  C   UNL A   1      40.216  33.814  37.967  1.00  0.00    -0.014 A 
ATOM     75  C   UNL A   1      39.397  33.436  39.046  1.00  0.00     0.010 A 
ATOM     76  C   UNL A   1      40.887  35.050  38.020  1.00  0.00     0.010 A 
ATOM     77  C   UNL A   1      39.215  34.295  40.133  1.00  0.00     0.020 A 
ATOM     78  C   UNL A   1      40.731  35.901  39.119  1.00  0.00     0.020 A 
ATOM     79  C   UNL A   1      39.880  35.525  40.160  1.00  0.00     0.054 A 
BRANCH  79  80
ATOM     80  S   UNL A   1      39.637  36.614  41.590  1.00  0.00     0.124 S 
ATOM     81  O   UNL A   1      38.630  35.884  42.356  1.00  0.00    -0.237 OA
ATOM     82  O   UNL A   1      40.968  36.660  42.189  1.00  0.00    -0.237 OA
ATOM     83  O   UNL A   1      39.180  37.869  40.998  1.00  0.00    -0.744 OA
ENDBRANCH  79  80
ENDBRANCH  60  74
BRANCH  61  84
ATOM     84  C   UNL A   1      41.385  28.148  29.829  1.00  0.00    -0.014 A 
ATOM     85  C   UNL A   1      42.237  28.584  28.799  1.00  0.00     0.010 A 
ATOM     86  C   UNL A   1      40.728  26.912  29.694  1.00  0.00     0.010 A 
ATOM     87  C   UNL A   1      42.416  27.808  27.650  1.00  0.00     0.020 A 
ATOM     88  C   UNL A   1      40.926  26.120  28.559  1.00  0.00     0.020 A 
ATOM     89  C   UNL A   1      41.762  26.578  27.540  1.00  0.00     0.054 A 
BRANCH  89  90
ATOM     90  S   UNL A   1      42.055  25.561  26.066  1.00  0.00     0.124 S 
ATOM     91  O   UNL A   1      41.382  26.333  25.026  1.00  0.00    -0.237 OA
ATOM     92  O   UNL A   1      43.512  25.528  25.989  1.00  0.00    -0.237 OA
ATOM     93  O   UNL A   1      41.429  24.284  26.404  1.00  0.00    -0.744 OA
ENDBRANCH  89  90
ENDBRANCH  61  84
BRANCH  73  94
ATOM     94  C   UNL A   1      44.840  28.684  35.866  1.00  0.00    -0.014 A 
ATOM     95  C   UNL A   1      44.702  27.502  36.615  1.00  0.00     0.010 A 
ATOM     96  C   UNL A   1      46.130  29.171  35.587  1.00  0.00     0.010 A 
ATOM     97  C   UNL A   1      45.831  26.838  37.100  1.00  0.00     0.020 A 
ATOM     98  C   UNL A   1      47.263  28.494  36.047  1.00  0.00     0.020 A 
ATOM     99  C   UNL A   1      47.105  27.338  36.814  1.00  0.00     0.054 A 
BRANCH  99 100
ATOM    100  S   UNL A   1      48.556  26.433  37.417  1.00  0.00     0.124 S 
ATOM    101  O   UNL A   1      49.510  26.627  36.329  1.00  0.00    -0.237 OA
ATOM    102  O   UNL A   1      48.873  27.128  38.663  1.00  0.00    -0.237 OA
ATOM    103  O   UNL A   1      48.069  25.065  37.582  1.00  0.00    -0.744 OA
ENDBRANCH  99 100
ENDBRANCH  73  94
ENDBRANCH  47  48
ENDBRANCH  39  42
ENDBRANCH  37  38
ENDBRANCH  36  37
ENDBRANCH  35  36
ENDBRANCH   1  35
TORSDOF 20
ENDMDL
