MODEL 1
REMARK VINA RESULT:     -10.5      0.000      0.000
REMARK SMILES O=C(NCCCCCCNC(=O)[C@H]1C[C@H]2CCCC[C@@H]2[N@@H+]1CC[C@@H]1CCCO1)c1ccc(-c2c3nc(c(-c4ccc(S(=O)(=O)[O-])cc4)c4ccc([nH]4)c(-c4ccc(S(=O)(=O)[O-])cc4)c4nc(c(-c5ccc(S(=O)(=O)[O-])cc5)c5ccc2[nH]5)C=C4)C=C3)cc1
REMARK SMILES IDX 6 1 5 2 4 3 3 4 1 5 2 6 29 8 30 9 88 10 31 11 87 12 32 13
REMARK SMILES IDX 33 14 34 15 81 16 35 17 86 18 80 19 82 20 36 21 85 22 79 23
REMARK SMILES IDX 78 24 37 26 67 27 48 28 66 29 49 30 52 31 65 32 83 33 50 34
REMARK SMILES IDX 51 35 64 37 84 38 53 39 38 40 39 41 47 42 40 43 46 44 41 45
REMARK SMILES IDX 42 46 43 47 44 48 45 49 68 50 69 51 77 52 70 53 76 54 71 55
REMARK SMILES IDX 72 56 73 57 74 58 75 59 54 60 55 61 63 62 56 63 62 64 57 65
REMARK SMILES IDX 58 66 59 67 60 68 61 69 7 70 8 71 9 72 10 73 11 74 12 76
REMARK SMILES IDX 13 77 14 78 21 79 15 80 20 81 16 83 19 84 17 85 18 86 22 87
REMARK SMILES IDX 23 88 24 89 25 90 28 91 26 92 27 93
REMARK H PARENT 3 7 82 25 52 36 10 75 21 82
REMARK Flexibility Score: inf
ROOT
ATOM      1  C   UNL A   1      32.465  28.771  24.615  1.00  0.00     0.002 C 
ENDROOT
BRANCH   1   2
ATOM      2  C   UNL A   1      33.155  27.671  25.424  1.00  0.00     0.021 C 
BRANCH   2   3
ATOM      3  C   UNL A   1      34.021  28.184  26.567  1.00  0.00     0.116 C 
BRANCH   3   4
ATOM      4  N   UNL A   1      33.635  29.524  26.975  1.00  0.00    -0.352 N 
ATOM      5  O   UNL A   1      33.728  31.394  28.230  1.00  0.00    -0.269 OA
ATOM      6  C   UNL A   1      34.296  30.400  27.802  1.00  0.00     0.251 C 
ATOM      7  H   UNL A   1      32.781  29.850  26.609  1.00  0.00     0.163 HD
BRANCH   6   8
ATOM      8  C   UNL A   1      35.699  30.117  28.170  1.00  0.00     0.039 A 
ATOM      9  C   UNL A   1      36.720  30.303  27.235  1.00  0.00     0.014 A 
ATOM     10  C   UNL A   1      35.994  29.666  29.458  1.00  0.00     0.014 A 
ATOM     11  C   UNL A   1      38.015  29.913  27.542  1.00  0.00     0.010 A 
ATOM     12  C   UNL A   1      37.316  29.367  29.797  1.00  0.00     0.010 A 
ATOM     13  C   UNL A   1      38.334  29.469  28.836  1.00  0.00    -0.014 A 
BRANCH  13  14
ATOM     14  C   UNL A   1      39.754  29.209  29.179  1.00  0.00     0.031 A 
ATOM     15  C   UNL A   1      40.601  30.251  29.851  1.00  0.00     0.074 A 
ATOM     16  C   UNL A   1      40.267  27.997  28.884  1.00  0.00     0.049 A 
ATOM     17  N   UNL A   1      41.852  30.169  30.227  1.00  0.00    -0.248 NA
ATOM     18  C   UNL A   1      39.973  31.551  30.135  1.00  0.00     0.031 C 
ATOM     19  C   UNL A   1      39.536  26.912  28.220  1.00  0.00     0.029 A 
ATOM     20  N   UNL A   1      41.508  27.465  29.115  1.00  0.00    -0.354 N 
ATOM     21  C   UNL A   1      42.170  31.409  30.770  1.00  0.00     0.074 A 
ATOM     22  C   UNL A   1      40.985  32.233  30.656  1.00  0.00     0.031 C 
ATOM     23  C   UNL A   1      40.325  25.833  28.142  1.00  0.00     0.029 A 
ATOM     24  C   UNL A   1      41.638  26.169  28.678  1.00  0.00     0.049 A 
ATOM     25  H   UNL A   1      42.236  27.963  29.552  1.00  0.00     0.167 HD
ATOM     26  C   UNL A   1      43.342  31.818  31.312  1.00  0.00     0.031 A 
ATOM     27  C   UNL A   1      42.701  25.344  28.680  1.00  0.00     0.031 A 
ATOM     28  C   UNL A   1      44.517  30.988  31.413  1.00  0.00     0.049 A 
ATOM     29  C   UNL A   1      43.996  25.834  29.258  1.00  0.00     0.074 A 
ATOM     30  C   UNL A   1      45.741  31.298  31.978  1.00  0.00     0.029 A 
ATOM     31  N   UNL A   1      44.619  29.691  30.929  1.00  0.00    -0.354 N 
ATOM     32  N   UNL A   1      44.263  26.997  29.804  1.00  0.00    -0.248 NA
ATOM     33  C   UNL A   1      45.129  24.903  29.225  1.00  0.00     0.031 C 
ATOM     34  C   UNL A   1      46.602  30.213  31.781  1.00  0.00     0.029 A 
ATOM     35  C   UNL A   1      45.894  29.199  31.157  1.00  0.00     0.049 A 
ATOM     36  H   UNL A   1      43.891  29.193  30.490  1.00  0.00     0.167 HD
ATOM     37  C   UNL A   1      45.593  26.931  30.197  1.00  0.00     0.074 A 
ATOM     38  C   UNL A   1      46.066  25.606  29.846  1.00  0.00     0.031 C 
ATOM     39  C   UNL A   1      46.353  27.881  30.794  1.00  0.00     0.031 A 
BRANCH  26  40
ATOM     40  C   UNL A   1      43.432  33.238  31.812  1.00  0.00    -0.014 A 
ATOM     41  C   UNL A   1      43.035  33.582  33.116  1.00  0.00     0.010 A 
ATOM     42  C   UNL A   1      43.983  34.232  30.982  1.00  0.00     0.010 A 
ATOM     43  C   UNL A   1      43.157  34.899  33.568  1.00  0.00     0.020 A 
ATOM     44  C   UNL A   1      44.134  35.545  31.440  1.00  0.00     0.020 A 
ATOM     45  C   UNL A   1      43.706  35.873  32.727  1.00  0.00     0.054 A 
BRANCH  45  46
ATOM     46  S   UNL A   1      43.881  37.567  33.354  1.00  0.00     0.124 S 
ATOM     47  O   UNL A   1      42.648  37.733  34.120  1.00  0.00    -0.237 OA
ATOM     48  O   UNL A   1      45.106  37.487  34.147  1.00  0.00    -0.237 OA
ATOM     49  O   UNL A   1      43.976  38.378  32.144  1.00  0.00    -0.744 OA
ENDBRANCH  45  46
ENDBRANCH  26  40
BRANCH  27  50
ATOM     50  C   UNL A   1      42.576  23.984  28.090  1.00  0.00    -0.014 A 
ATOM     51  C   UNL A   1      42.195  22.888  28.882  1.00  0.00     0.010 A 
ATOM     52  C   UNL A   1      42.806  23.788  26.715  1.00  0.00     0.010 A 
ATOM     53  C   UNL A   1      42.057  21.619  28.312  1.00  0.00     0.020 A 
ATOM     54  C   UNL A   1      42.637  22.529  26.135  1.00  0.00     0.020 A 
ATOM     55  C   UNL A   1      42.273  21.449  26.941  1.00  0.00     0.054 A 
BRANCH  55  56
ATOM     56  S   UNL A   1      42.033  19.805  26.214  1.00  0.00     0.124 S 
ATOM     57  O   UNL A   1      42.916  19.854  25.055  1.00  0.00    -0.237 OA
ATOM     58  O   UNL A   1      42.455  18.919  27.296  1.00  0.00    -0.237 OA
ATOM     59  O   UNL A   1      40.603  19.770  25.914  1.00  0.00    -0.744 OA
ENDBRANCH  55  56
ENDBRANCH  27  50
BRANCH  39  60
ATOM     60  C   UNL A   1      47.772  27.511  31.136  1.00  0.00    -0.014 A 
ATOM     61  C   UNL A   1      48.827  27.751  30.238  1.00  0.00     0.010 A 
ATOM     62  C   UNL A   1      48.056  26.948  32.394  1.00  0.00     0.010 A 
ATOM     63  C   UNL A   1      50.137  27.401  30.579  1.00  0.00     0.020 A 
ATOM     64  C   UNL A   1      49.368  26.628  32.751  1.00  0.00     0.020 A 
ATOM     65  C   UNL A   1      50.398  26.842  31.834  1.00  0.00     0.054 A 
BRANCH  65  66
ATOM     66  S   UNL A   1      52.110  26.433  32.267  1.00  0.00     0.124 S 
ATOM     67  O   UNL A   1      52.133  26.701  33.702  1.00  0.00    -0.237 OA
ATOM     68  O   UNL A   1      52.209  25.026  31.887  1.00  0.00    -0.237 OA
ATOM     69  O   UNL A   1      52.903  27.350  31.451  1.00  0.00    -0.744 OA
ENDBRANCH  65  66
ENDBRANCH  39  60
ENDBRANCH  13  14
ENDBRANCH   6   8
ENDBRANCH   3   4
ENDBRANCH   2   3
ENDBRANCH   1   2
BRANCH   1  70
ATOM     70  C   UNL A   1      31.041  28.444  24.150  1.00  0.00     0.002 C 
BRANCH  70  71
ATOM     71  C   UNL A   1      30.557  27.039  24.503  1.00  0.00     0.021 C 
BRANCH  71  72
ATOM     72  C   UNL A   1      30.451  26.102  23.304  1.00  0.00     0.116 C 
BRANCH  72  73
ATOM     73  N   UNL A   1      31.577  26.206  22.404  1.00  0.00    -0.351 N 
ATOM     74  C   UNL A   1      32.640  25.387  22.164  1.00  0.00     0.278 C 
ATOM     75  H   UNL A   1      31.577  27.027  21.861  1.00  0.00     0.163 HD
ATOM     76  O   UNL A   1      33.411  25.756  21.268  1.00  0.00    -0.268 OA
BRANCH  74  77
ATOM     77  C   UNL A   1      32.923  24.059  22.923  1.00  0.00     0.274 C 
ATOM     78  C   UNL A   1      34.012  23.161  22.321  1.00  0.00     0.085 C 
ATOM     79  N   UNL A   1      33.301  24.321  24.345  1.00  0.00    -0.322 N 
ATOM     80  C   UNL A   1      35.038  23.021  23.441  1.00  0.00     0.054 C 
ATOM     81  C   UNL A   1      34.752  24.174  24.405  1.00  0.00     0.188 C 
ATOM     82  H   UNL A   1      33.065  25.272  24.629  1.00  0.00     0.349 HD
ATOM     83  C   UNL A   1      36.519  22.889  23.141  1.00  0.00     0.010 C 
ATOM     84  C   UNL A   1      35.517  24.106  25.728  1.00  0.00     0.065 C 
ATOM     85  C   UNL A   1      37.247  22.661  24.474  1.00  0.00     0.001 C 
ATOM     86  C   UNL A   1      37.000  23.787  25.486  1.00  0.00     0.006 C 
BRANCH  79  87
ATOM     87  C   UNL A   1      32.479  23.639  25.361  1.00  0.00     0.265 C 
BRANCH  87  88
ATOM     88  C   UNL A   1      33.037  22.497  26.256  1.00  0.00     0.093 C 
BRANCH  88  89
ATOM     89  C   UNL A   1      32.904  21.089  25.686  1.00  0.00     0.123 C 
ATOM     90  C   UNL A   1      34.221  20.413  25.353  1.00  0.00     0.034 C 
ATOM     91  O   UNL A   1      32.187  20.992  24.448  1.00  0.00    -0.378 OA
ATOM     92  C   UNL A   1      33.744  19.195  24.588  1.00  0.00     0.031 C 
ATOM     93  C   UNL A   1      32.383  19.618  24.042  1.00  0.00     0.160 C 
ENDBRANCH  88  89
ENDBRANCH  87  88
ENDBRANCH  79  87
ENDBRANCH  74  77
ENDBRANCH  72  73
ENDBRANCH  71  72
ENDBRANCH  70  71
ENDBRANCH   1  70
TORSDOF 19
ENDMDL
MODEL 2
REMARK VINA RESULT:     -10.5      3.831      5.212
REMARK SMILES O=C(NCCCCCCNC(=O)[C@H]1C[C@H]2CCCC[C@@H]2[N@@H+]1CC[C@@H]1CCCO1)c1ccc(-c2c3nc(c(-c4ccc(S(=O)(=O)[O-])cc4)c4ccc([nH]4)c(-c4ccc(S(=O)(=O)[O-])cc4)c4nc(c(-c5ccc(S(=O)(=O)[O-])cc5)c5ccc2[nH]5)C=C4)C=C3)cc1
REMARK SMILES IDX 6 1 5 2 4 3 3 4 1 5 2 6 29 8 30 9 88 10 31 11 87 12 32 13
REMARK SMILES IDX 33 14 34 15 81 16 35 17 86 18 80 19 82 20 36 21 85 22 79 23
REMARK SMILES IDX 78 24 37 26 67 27 48 28 66 29 49 30 52 31 65 32 83 33 50 34
REMARK SMILES IDX 51 35 64 37 84 38 53 39 38 40 39 41 47 42 40 43 46 44 41 45
REMARK SMILES IDX 42 46 43 47 44 48 45 49 68 50 69 51 77 52 70 53 76 54 71 55
REMARK SMILES IDX 72 56 73 57 74 58 75 59 54 60 55 61 63 62 56 63 62 64 57 65
REMARK SMILES IDX 58 66 59 67 60 68 61 69 7 70 8 71 9 72 10 73 11 74 12 76
REMARK SMILES IDX 13 77 14 78 21 79 15 80 20 81 16 83 19 84 17 85 18 86 22 87
REMARK SMILES IDX 23 88 24 89 25 90 28 91 26 92 27 93
REMARK H PARENT 3 7 82 25 52 36 10 75 21 82
REMARK Flexibility Score: inf
ROOT
ATOM      1  C   UNL A   1      32.376  29.715  26.407  1.00  0.00     0.002 C 
ENDROOT
BRANCH   1   2
ATOM      2  C   UNL A   1      32.067  31.102  26.972  1.00  0.00     0.021 C 
BRANCH   2   3
ATOM      3  C   UNL A   1      33.299  31.915  27.344  1.00  0.00     0.116 C 
BRANCH   3   4
ATOM      4  N   UNL A   1      32.954  33.278  27.713  1.00  0.00    -0.352 N 
ATOM      5  O   UNL A   1      32.879  35.082  29.062  1.00  0.00    -0.269 OA
ATOM      6  C   UNL A   1      33.440  34.043  28.746  1.00  0.00     0.251 C 
ATOM      7  H   UNL A   1      32.277  33.713  27.146  1.00  0.00     0.163 HD
BRANCH   6   8
ATOM      8  C   UNL A   1      34.644  33.586  29.471  1.00  0.00     0.039 A 
ATOM      9  C   UNL A   1      35.902  34.082  29.122  1.00  0.00     0.014 A 
ATOM     10  C   UNL A   1      34.511  32.659  30.506  1.00  0.00     0.014 A 
ATOM     11  C   UNL A   1      37.039  33.554  29.716  1.00  0.00     0.010 A 
ATOM     12  C   UNL A   1      35.652  32.201  31.171  1.00  0.00     0.010 A 
ATOM     13  C   UNL A   1      36.926  32.630  30.767  1.00  0.00    -0.014 A 
BRANCH  13  14
ATOM     14  C   UNL A   1      38.152  32.203  31.486  1.00  0.00     0.031 A 
ATOM     15  C   UNL A   1      38.520  32.783  32.822  1.00  0.00     0.074 A 
ATOM     16  C   UNL A   1      38.927  31.259  30.914  1.00  0.00     0.049 A 
ATOM     17  N   UNL A   1      39.549  32.502  33.580  1.00  0.00    -0.248 NA
ATOM     18  C   UNL A   1      37.627  33.812  33.379  1.00  0.00     0.031 C 
ATOM     19  C   UNL A   1      38.671  30.633  29.613  1.00  0.00     0.029 A 
ATOM     20  N   UNL A   1      40.074  30.650  31.352  1.00  0.00    -0.354 N 
ATOM     21  C   UNL A   1      39.444  33.332  34.690  1.00  0.00     0.074 A 
ATOM     22  C   UNL A   1      38.261  34.143  34.497  1.00  0.00     0.031 C 
ATOM     23  C   UNL A   1      39.602  29.698  29.382  1.00  0.00     0.029 A 
ATOM     24  C   UNL A   1      40.562  29.709  30.478  1.00  0.00     0.049 A 
ATOM     25  H   UNL A   1      40.505  30.865  32.210  1.00  0.00     0.167 HD
ATOM     26  C   UNL A   1      40.261  33.408  35.768  1.00  0.00     0.031 A 
ATOM     27  C   UNL A   1      41.674  28.954  30.532  1.00  0.00     0.031 A 
ATOM     28  C   UNL A   1      41.442  32.598  35.943  1.00  0.00     0.049 A 
ATOM     29  C   UNL A   1      42.577  29.081  31.723  1.00  0.00     0.074 A 
ATOM     30  C   UNL A   1      42.315  32.574  37.017  1.00  0.00     0.029 A 
ATOM     31  N   UNL A   1      41.921  31.679  35.020  1.00  0.00    -0.354 N 
ATOM     32  N   UNL A   1      42.437  29.842  32.782  1.00  0.00    -0.248 NA
ATOM     33  C   UNL A   1      43.784  28.246  31.729  1.00  0.00     0.031 C 
ATOM     34  C   UNL A   1      43.355  31.689  36.715  1.00  0.00     0.029 A 
ATOM     35  C   UNL A   1      43.093  31.106  35.486  1.00  0.00     0.049 A 
ATOM     36  H   UNL A   1      41.490  31.466  34.160  1.00  0.00     0.167 HD
ATOM     37  C   UNL A   1      43.531  29.565  33.591  1.00  0.00     0.074 A 
ATOM     38  C   UNL A   1      44.309  28.549  32.909  1.00  0.00     0.031 C 
ATOM     39  C   UNL A   1      43.861  30.102  34.791  1.00  0.00     0.031 A 
BRANCH  26  40
ATOM     40  C   UNL A   1      39.932  34.422  36.834  1.00  0.00    -0.014 A 
ATOM     41  C   UNL A   1      39.150  34.083  37.952  1.00  0.00     0.010 A 
ATOM     42  C   UNL A   1      40.470  35.720  36.745  1.00  0.00     0.010 A 
ATOM     43  C   UNL A   1      38.885  35.033  38.943  1.00  0.00     0.020 A 
ATOM     44  C   UNL A   1      40.231  36.664  37.749  1.00  0.00     0.020 A 
ATOM     45  C   UNL A   1      39.427  36.317  38.836  1.00  0.00     0.054 A 
BRANCH  45  46
ATOM     46  S   UNL A   1      39.091  37.517  40.155  1.00  0.00     0.124 S 
ATOM     47  O   UNL A   1      40.424  38.053  40.421  1.00  0.00    -0.237 OA
ATOM     48  O   UNL A   1      38.159  38.442  39.515  1.00  0.00    -0.237 OA
ATOM     49  O   UNL A   1      38.522  36.705  41.228  1.00  0.00    -0.744 OA
ENDBRANCH  45  46
ENDBRANCH  26  40
BRANCH  27  50
ATOM     50  C   UNL A   1      41.993  28.034  29.406  1.00  0.00    -0.014 A 
ATOM     51  C   UNL A   1      41.514  26.714  29.397  1.00  0.00     0.010 A 
ATOM     52  C   UNL A   1      42.753  28.495  28.314  1.00  0.00     0.010 A 
ATOM     53  C   UNL A   1      41.800  25.867  28.322  1.00  0.00     0.020 A 
ATOM     54  C   UNL A   1      43.012  27.663  27.223  1.00  0.00     0.020 A 
ATOM     55  C   UNL A   1      42.542  26.349  27.240  1.00  0.00     0.054 A 
BRANCH  55  56
ATOM     56  S   UNL A   1      42.851  25.249  25.831  1.00  0.00     0.124 S 
ATOM     57  O   UNL A   1      41.915  24.159  26.086  1.00  0.00    -0.237 OA
ATOM     58  O   UNL A   1      42.533  26.103  24.690  1.00  0.00    -0.237 OA
ATOM     59  O   UNL A   1      44.265  24.907  25.968  1.00  0.00    -0.744 OA
ENDBRANCH  55  56
ENDBRANCH  27  50
BRANCH  39  60
ATOM     60  C   UNL A   1      45.104  29.579  35.460  1.00  0.00    -0.014 A 
ATOM     61  C   UNL A   1      46.345  30.220  35.301  1.00  0.00     0.010 A 
ATOM     62  C   UNL A   1      45.017  28.448  36.292  1.00  0.00     0.010 A 
ATOM     63  C   UNL A   1      47.485  29.716  35.934  1.00  0.00     0.020 A 
ATOM     64  C   UNL A   1      46.148  27.962  36.953  1.00  0.00     0.020 A 
ATOM     65  C   UNL A   1      47.378  28.591  36.756  1.00  0.00     0.054 A 
BRANCH  65  66
ATOM     66  S   UNL A   1      48.865  27.980  37.597  1.00  0.00     0.124 S 
ATOM     67  O   UNL A   1      48.917  28.835  38.780  1.00  0.00    -0.237 OA
ATOM     68  O   UNL A   1      48.539  26.579  37.846  1.00  0.00    -0.237 OA
ATOM     69  O   UNL A   1      49.930  28.203  36.622  1.00  0.00    -0.744 OA
ENDBRANCH  65  66
ENDBRANCH  39  60
ENDBRANCH  13  14
ENDBRANCH   6   8
ENDBRANCH   3   4
ENDBRANCH   2   3
ENDBRANCH   1   2
BRANCH   1  70
ATOM     70  C   UNL A   1      31.774  28.541  27.189  1.00  0.00     0.002 C 
BRANCH  70  71
ATOM     71  C   UNL A   1      32.046  27.163  26.590  1.00  0.00     0.021 C 
BRANCH  71  72
ATOM     72  C   UNL A   1      30.852  26.561  25.858  1.00  0.00     0.116 C 
BRANCH  72  73
ATOM     73  N   UNL A   1      30.337  25.372  26.498  1.00  0.00    -0.351 N 
ATOM     74  C   UNL A   1      30.862  24.129  26.686  1.00  0.00     0.278 C 
ATOM     75  H   UNL A   1      29.431  25.482  26.870  1.00  0.00     0.163 HD
ATOM     76  O   UNL A   1      30.162  23.343  27.339  1.00  0.00    -0.268 OA
BRANCH  74  77
ATOM     77  C   UNL A   1      32.245  23.662  26.149  1.00  0.00     0.274 C 
ATOM     78  C   UNL A   1      32.771  22.334  26.712  1.00  0.00     0.085 C 
ATOM     79  N   UNL A   1      32.230  23.535  24.659  1.00  0.00    -0.322 N 
ATOM     80  C   UNL A   1      32.954  21.455  25.479  1.00  0.00     0.054 C 
ATOM     81  C   UNL A   1      32.111  22.107  24.382  1.00  0.00     0.188 C 
ATOM     82  H   UNL A   1      31.424  24.008  24.249  1.00  0.00     0.349 HD
ATOM     83  C   UNL A   1      32.738  19.955  25.543  1.00  0.00     0.010 C 
ATOM     84  C   UNL A   1      32.318  21.522  22.983  1.00  0.00     0.065 C 
ATOM     85  C   UNL A   1      33.107  19.372  24.171  1.00  0.00     0.001 C 
ATOM     86  C   UNL A   1      32.292  19.986  23.025  1.00  0.00     0.006 C 
BRANCH  79  87
ATOM     87  C   UNL A   1      33.257  24.311  23.941  1.00  0.00     0.265 C 
BRANCH  87  88
ATOM     88  C   UNL A   1      34.508  24.897  24.652  1.00  0.00     0.093 C 
BRANCH  88  89
ATOM     89  C   UNL A   1      35.743  24.004  24.656  1.00  0.00     0.123 C 
ATOM     90  C   UNL A   1      35.726  22.894  23.621  1.00  0.00     0.034 C 
ATOM     91  O   UNL A   1      35.978  23.285  25.874  1.00  0.00    -0.378 OA
ATOM     92  C   UNL A   1      36.916  22.064  24.056  1.00  0.00     0.031 C 
ATOM     93  C   UNL A   1      37.061  22.385  25.541  1.00  0.00     0.160 C 
ENDBRANCH  88  89
ENDBRANCH  87  88
ENDBRANCH  79  87
ENDBRANCH  74  77
ENDBRANCH  72  73
ENDBRANCH  71  72
ENDBRANCH  70  71
ENDBRANCH   1  70
TORSDOF 19
ENDMDL
MODEL 3
REMARK VINA RESULT:     -10.4      2.313      2.896
REMARK SMILES O=C(NCCCCCCNC(=O)[C@H]1C[C@H]2CCCC[C@@H]2[N@@H+]1CC[C@@H]1CCCO1)c1ccc(-c2c3nc(c(-c4ccc(S(=O)(=O)[O-])cc4)c4ccc([nH]4)c(-c4ccc(S(=O)(=O)[O-])cc4)c4nc(c(-c5ccc(S(=O)(=O)[O-])cc5)c5ccc2[nH]5)C=C4)C=C3)cc1
REMARK SMILES IDX 6 1 5 2 4 3 3 4 1 5 2 6 29 8 30 9 88 10 31 11 87 12 32 13
REMARK SMILES IDX 33 14 34 15 81 16 35 17 86 18 80 19 82 20 36 21 85 22 79 23
REMARK SMILES IDX 78 24 37 26 67 27 48 28 66 29 49 30 52 31 65 32 83 33 50 34
REMARK SMILES IDX 51 35 64 37 84 38 53 39 38 40 39 41 47 42 40 43 46 44 41 45
REMARK SMILES IDX 42 46 43 47 44 48 45 49 68 50 69 51 77 52 70 53 76 54 71 55
REMARK SMILES IDX 72 56 73 57 74 58 75 59 54 60 55 61 63 62 56 63 62 64 57 65
REMARK SMILES IDX 58 66 59 67 60 68 61 69 7 70 8 71 9 72 10 73 11 74 12 76
REMARK SMILES IDX 13 77 14 78 21 79 15 80 20 81 16 83 19 84 17 85 18 86 22 87
REMARK SMILES IDX 23 88 24 89 25 90 28 91 26 92 27 93
REMARK H PARENT 3 7 82 25 52 36 10 75 21 82
REMARK Flexibility Score: inf
ROOT
ATOM      1  C   UNL A   1      31.867  28.243  25.354  1.00  0.00     0.002 C 
ENDROOT
BRANCH   1   2
ATOM      2  C   UNL A   1      33.364  27.975  25.187  1.00  0.00     0.021 C 
BRANCH   2   3
ATOM      3  C   UNL A   1      34.236  28.596  26.270  1.00  0.00     0.116 C 
BRANCH   3   4
ATOM      4  N   UNL A   1      33.856  29.971  26.544  1.00  0.00    -0.352 N 
ATOM      5  O   UNL A   1      33.773  31.877  27.745  1.00  0.00    -0.269 OA
ATOM      6  C   UNL A   1      34.358  30.836  27.487  1.00  0.00     0.251 C 
ATOM      7  H   UNL A   1      33.138  30.335  25.976  1.00  0.00     0.163 HD
BRANCH   6   8
ATOM      8  C   UNL A   1      35.610  30.481  28.189  1.00  0.00     0.039 A 
ATOM      9  C   UNL A   1      36.837  30.949  27.712  1.00  0.00     0.014 A 
ATOM     10  C   UNL A   1      35.554  29.679  29.330  1.00  0.00     0.014 A 
ATOM     11  C   UNL A   1      38.016  30.508  28.295  1.00  0.00     0.010 A 
ATOM     12  C   UNL A   1      36.739  29.315  29.975  1.00  0.00     0.010 A 
ATOM     13  C   UNL A   1      37.980  29.710  29.451  1.00  0.00    -0.014 A 
BRANCH  13  14
ATOM     14  C   UNL A   1      39.252  29.385  30.141  1.00  0.00     0.031 A 
ATOM     15  C   UNL A   1      39.674  30.107  31.389  1.00  0.00     0.074 A 
ATOM     16  C   UNL A   1      40.022  28.405  29.626  1.00  0.00     0.049 A 
ATOM     17  N   UNL A   1      40.748  29.927  32.114  1.00  0.00    -0.248 NA
ATOM     18  C   UNL A   1      38.785  31.169  31.887  1.00  0.00     0.031 C 
ATOM     19  C   UNL A   1      39.715  27.643  28.411  1.00  0.00     0.029 A 
ATOM     20  N   UNL A   1      41.205  27.868  30.061  1.00  0.00    -0.354 N 
ATOM     21  C   UNL A   1      40.680  30.864  33.139  1.00  0.00     0.074 A 
ATOM     22  C   UNL A   1      39.466  31.625  32.931  1.00  0.00     0.031 C 
ATOM     23  C   UNL A   1      40.657  26.710  28.225  1.00  0.00     0.029 A 
ATOM     24  C   UNL A   1      41.672  26.853  29.260  1.00  0.00     0.049 A 
ATOM     25  H   UNL A   1      41.675  28.179  30.868  1.00  0.00     0.167 HD
ATOM     26  C   UNL A   1      41.550  31.067  34.158  1.00  0.00     0.031 A 
ATOM     27  C   UNL A   1      42.805  26.131  29.330  1.00  0.00     0.031 A 
ATOM     28  C   UNL A   1      42.758  30.305  34.349  1.00  0.00     0.049 A 
ATOM     29  C   UNL A   1      43.766  26.398  30.451  1.00  0.00     0.074 A 
ATOM     30  C   UNL A   1      43.687  30.410  35.370  1.00  0.00     0.029 A 
ATOM     31  N   UNL A   1      43.213  29.307  33.499  1.00  0.00    -0.354 N 
ATOM     32  N   UNL A   1      43.661  27.261  31.433  1.00  0.00    -0.248 NA
ATOM     33  C   UNL A   1      44.993  25.594  30.476  1.00  0.00     0.031 C 
ATOM     34  C   UNL A   1      44.733  29.520  35.104  1.00  0.00     0.029 A 
ATOM     35  C   UNL A   1      44.423  28.809  33.956  1.00  0.00     0.049 A 
ATOM     36  H   UNL A   1      42.744  28.997  32.690  1.00  0.00     0.167 HD
ATOM     37  C   UNL A   1      44.803  27.091  32.206  1.00  0.00     0.074 A 
ATOM     38  C   UNL A   1      45.570  26.028  31.588  1.00  0.00     0.031 C 
ATOM     39  C   UNL A   1      45.180  27.755  33.325  1.00  0.00     0.031 A 
BRANCH  26  40
ATOM     40  C   UNL A   1      41.250  32.178  35.132  1.00  0.00    -0.014 A 
ATOM     41  C   UNL A   1      41.646  33.503  34.876  1.00  0.00     0.010 A 
ATOM     42  C   UNL A   1      40.502  31.901  36.291  1.00  0.00     0.010 A 
ATOM     43  C   UNL A   1      41.328  34.523  35.779  1.00  0.00     0.020 A 
ATOM     44  C   UNL A   1      40.157  32.923  37.182  1.00  0.00     0.020 A 
ATOM     45  C   UNL A   1      40.586  34.226  36.927  1.00  0.00     0.054 A 
BRANCH  45  46
ATOM     46  S   UNL A   1      40.162  35.576  38.062  1.00  0.00     0.124 S 
ATOM     47  O   UNL A   1      41.353  35.644  38.906  1.00  0.00    -0.237 OA
ATOM     48  O   UNL A   1      39.970  36.706  37.156  1.00  0.00    -0.237 OA
ATOM     49  O   UNL A   1      38.952  35.103  38.730  1.00  0.00    -0.744 OA
ENDBRANCH  45  46
ENDBRANCH  26  40
BRANCH  27  50
ATOM     50  C   UNL A   1      43.090  25.108  28.287  1.00  0.00    -0.014 A 
ATOM     51  C   UNL A   1      43.819  25.440  27.133  1.00  0.00     0.010 A 
ATOM     52  C   UNL A   1      42.658  23.780  28.467  1.00  0.00     0.010 A 
ATOM     53  C   UNL A   1      44.101  24.464  26.172  1.00  0.00     0.020 A 
ATOM     54  C   UNL A   1      42.967  22.796  27.526  1.00  0.00     0.020 A 
ATOM     55  C   UNL A   1      43.678  23.148  26.378  1.00  0.00     0.054 A 
BRANCH  55  56
ATOM     56  S   UNL A   1      44.106  21.888  25.144  1.00  0.00     0.124 S 
ATOM     57  O   UNL A   1      43.927  22.617  23.893  1.00  0.00    -0.237 OA
ATOM     58  O   UNL A   1      45.485  21.560  25.496  1.00  0.00    -0.237 OA
ATOM     59  O   UNL A   1      43.138  20.823  25.394  1.00  0.00    -0.744 OA
ENDBRANCH  55  56
ENDBRANCH  27  50
BRANCH  39  60
ATOM     60  C   UNL A   1      46.470  27.330  33.974  1.00  0.00    -0.014 A 
ATOM     61  C   UNL A   1      46.501  26.309  34.940  1.00  0.00     0.010 A 
ATOM     62  C   UNL A   1      47.676  27.940  33.580  1.00  0.00     0.010 A 
ATOM     63  C   UNL A   1      47.712  25.930  35.527  1.00  0.00     0.020 A 
ATOM     64  C   UNL A   1      48.891  27.540  34.141  1.00  0.00     0.020 A 
ATOM     65  C   UNL A   1      48.899  26.549  35.123  1.00  0.00     0.054 A 
BRANCH  65  66
ATOM     66  S   UNL A   1      50.461  26.012  35.872  1.00  0.00     0.124 S 
ATOM     67  O   UNL A   1      50.028  24.901  36.714  1.00  0.00    -0.237 OA
ATOM     68  O   UNL A   1      51.264  25.645  34.709  1.00  0.00    -0.237 OA
ATOM     69  O   UNL A   1      50.923  27.196  36.593  1.00  0.00    -0.744 OA
ENDBRANCH  65  66
ENDBRANCH  39  60
ENDBRANCH  13  14
ENDBRANCH   6   8
ENDBRANCH   3   4
ENDBRANCH   2   3
ENDBRANCH   1   2
BRANCH   1  70
ATOM     70  C   UNL A   1      31.128  28.649  24.073  1.00  0.00     0.002 C 
BRANCH  70  71
ATOM     71  C   UNL A   1      29.972  27.732  23.680  1.00  0.00     0.021 C 
BRANCH  71  72
ATOM     72  C   UNL A   1      30.414  26.387  23.113  1.00  0.00     0.116 C 
BRANCH  72  73
ATOM     73  N   UNL A   1      31.604  26.481  22.299  1.00  0.00    -0.351 N 
ATOM     74  C   UNL A   1      32.665  25.643  22.124  1.00  0.00     0.278 C 
ATOM     75  H   UNL A   1      31.660  27.309  21.770  1.00  0.00     0.163 HD
ATOM     76  O   UNL A   1      33.506  26.009  21.291  1.00  0.00    -0.268 OA
BRANCH  74  77
ATOM     77  C   UNL A   1      32.866  24.299  22.880  1.00  0.00     0.274 C 
ATOM     78  C   UNL A   1      33.880  23.326  22.263  1.00  0.00     0.085 C 
ATOM     79  N   UNL A   1      33.284  24.535  24.296  1.00  0.00    -0.322 N 
ATOM     80  C   UNL A   1      34.911  23.115  23.367  1.00  0.00     0.054 C 
ATOM     81  C   UNL A   1      34.722  24.286  24.333  1.00  0.00     0.188 C 
ATOM     82  H   UNL A   1      33.120  25.500  24.582  1.00  0.00     0.349 HD
ATOM     83  C   UNL A   1      36.373  22.879  23.043  1.00  0.00     0.010 C 
ATOM     84  C   UNL A   1      35.501  24.165  25.644  1.00  0.00     0.065 C 
ATOM     85  C   UNL A   1      37.105  22.601  24.366  1.00  0.00     0.001 C 
ATOM     86  C   UNL A   1      36.954  23.742  25.380  1.00  0.00     0.006 C 
BRANCH  79  87
ATOM     87  C   UNL A   1      32.433  23.913  25.326  1.00  0.00     0.265 C 
BRANCH  87  88
ATOM     88  C   UNL A   1      32.948  22.788  26.267  1.00  0.00     0.093 C 
BRANCH  88  89
ATOM     89  C   UNL A   1      32.805  21.367  25.735  1.00  0.00     0.123 C 
ATOM     90  C   UNL A   1      34.115  20.616  25.574  1.00  0.00     0.034 C 
ATOM     91  O   UNL A   1      32.224  21.254  24.429  1.00  0.00    -0.378 OA
ATOM     92  C   UNL A   1      33.662  19.392  24.804  1.00  0.00     0.031 C 
ATOM     93  C   UNL A   1      32.393  19.858  24.095  1.00  0.00     0.160 C 
ENDBRANCH  88  89
ENDBRANCH  87  88
ENDBRANCH  79  87
ENDBRANCH  74  77
ENDBRANCH  72  73
ENDBRANCH  71  72
ENDBRANCH  70  71
ENDBRANCH   1  70
TORSDOF 19
ENDMDL
