MODEL 1
REMARK VINA RESULT:     -10.9      0.000      0.000
REMARK SMILES Cc1csc(NC(=O)[C@@H]2CC=CC[C@H]2C(=O)NCCCCCCNC(=O)c2ccc(-c3c4nc(c(-c5ccc(S(=O)(=O)[O-])cc5)c5ccc([nH]5)c(-c5ccc(S(=O)(=O)[O-])cc5)c5nc(c(-c6ccc(S(=O)(=O)[O-])cc6)c6ccc3[nH]6)C=C5)C=C4)cc2)n1
REMARK SMILES IDX 21 1 20 2 19 3 18 4 17 5 15 6 16 7 14 9 9 10 10 11 11 12
REMARK SMILES IDX 13 13 12 14 7 15 6 16 8 18 5 19 1 20 2 21 3 22 87 23 4 24
REMARK SMILES IDX 22 25 23 26 24 27 25 28 26 30 27 31 28 32 86 33 29 34 85 35
REMARK SMILES IDX 30 36 31 37 32 38 79 39 33 40 84 41 78 42 80 43 34 44 83 45
REMARK SMILES IDX 77 46 76 47 35 49 65 50 46 51 64 52 47 53 50 54 63 55 81 56
REMARK SMILES IDX 48 57 49 58 62 60 82 61 51 62 36 63 37 64 45 65 38 66 44 67
REMARK SMILES IDX 39 68 40 69 41 70 42 71 43 72 66 73 67 74 75 75 68 76 74 77
REMARK SMILES IDX 69 78 70 79 71 80 72 81 73 82 52 83 53 84 61 85 54 86 60 87
REMARK SMILES IDX 55 88 56 89 57 90 58 91 59 92
REMARK H PARENT 17 8 6 17 24 29 80 48 50 59
REMARK Flexibility Score: inf
ROOT
ATOM      1  C   UNL A   1      31.612  27.622  25.551  1.00  0.00     0.002 C 
ENDROOT
BRANCH   1   2
ATOM      2  C   UNL A   1      30.725  26.419  25.211  1.00  0.00     0.002 C 
BRANCH   2   3
ATOM      3  C   UNL A   1      30.770  25.994  23.738  1.00  0.00     0.021 C 
BRANCH   3   4
ATOM      4  C   UNL A   1      30.513  24.503  23.542  1.00  0.00     0.116 C 
BRANCH   4   5
ATOM      5  N   UNL A   1      31.541  23.923  22.697  1.00  0.00    -0.356 N 
ATOM      6  C   UNL A   1      32.793  23.484  22.995  1.00  0.00     0.224 C 
ATOM      7  O   UNL A   1      33.447  22.960  22.089  1.00  0.00    -0.275 OA
ATOM      8  H   UNL A   1      31.288  23.832  21.750  1.00  0.00     0.163 HD
BRANCH   6   9
ATOM      9  C   UNL A   1      33.311  23.494  24.430  1.00  0.00     0.095 C 
ATOM     10  C   UNL A   1      33.647  22.088  25.023  1.00  0.00     0.095 C 
ATOM     11  C   UNL A   1      34.580  22.237  26.224  1.00  0.00     0.041 C 
ATOM     12  C   UNL A   1      35.636  23.288  26.177  1.00  0.00    -0.030 C 
ATOM     13  C   UNL A   1      34.420  24.578  24.456  1.00  0.00     0.041 C 
ATOM     14  C   UNL A   1      35.561  24.350  25.380  1.00  0.00    -0.030 C 
BRANCH  10  15
ATOM     15  C   UNL A   1      32.328  21.277  25.205  1.00  0.00     0.230 C 
ATOM     16  N   UNL A   1      32.053  19.993  24.871  1.00  0.00    -0.302 N 
ATOM     17  H   UNL A   1      31.111  19.737  24.999  1.00  0.00     0.172 HD
ATOM     18  O   UNL A   1      31.334  21.878  25.649  1.00  0.00    -0.274 OA
BRANCH  16  19
ATOM     19  C   UNL A   1      32.839  18.995  24.393  1.00  0.00     0.189 A 
ATOM     20  C   UNL A   1      34.957  16.209  25.015  1.00  0.00     0.068 C 
ATOM     21  C   UNL A   1      34.109  17.196  24.303  1.00  0.00     0.051 A 
ATOM     22  C   UNL A   1      33.533  17.114  23.052  1.00  0.00     0.092 A 
ATOM     23  N   UNL A   1      33.781  18.337  24.993  1.00  0.00    -0.225 NA
ATOM     24  S   UNL A   1      32.491  18.469  22.806  1.00  0.00    -0.105 S 
ENDBRANCH  16  19
ENDBRANCH  10  15
ENDBRANCH   6   9
ENDBRANCH   4   5
ENDBRANCH   3   4
ENDBRANCH   2   3
ENDBRANCH   1   2
BRANCH   1  25
ATOM     25  C   UNL A   1      32.349  27.511  26.888  1.00  0.00     0.021 C 
BRANCH  25  26
ATOM     26  C   UNL A   1      33.690  28.235  26.919  1.00  0.00     0.116 C 
BRANCH  26  27
ATOM     27  N   UNL A   1      33.539  29.631  27.295  1.00  0.00    -0.352 N 
ATOM     28  C   UNL A   1      34.391  30.431  28.014  1.00  0.00     0.251 C 
ATOM     29  H   UNL A   1      32.708  30.064  26.990  1.00  0.00     0.163 HD
ATOM     30  O   UNL A   1      34.009  31.515  28.437  1.00  0.00    -0.269 OA
BRANCH  28  31
ATOM     31  C   UNL A   1      35.767  29.965  28.282  1.00  0.00     0.039 A 
ATOM     32  C   UNL A   1      36.724  30.058  27.270  1.00  0.00     0.014 A 
ATOM     33  C   UNL A   1      36.109  29.440  29.532  1.00  0.00     0.014 A 
ATOM     34  C   UNL A   1      38.039  29.669  27.529  1.00  0.00     0.010 A 
ATOM     35  C   UNL A   1      37.434  29.129  29.812  1.00  0.00     0.010 A 
ATOM     36  C   UNL A   1      38.411  29.230  28.811  1.00  0.00    -0.014 A 
BRANCH  36  37
ATOM     37  C   UNL A   1      39.816  28.867  29.120  1.00  0.00     0.031 A 
ATOM     38  C   UNL A   1      40.731  29.868  29.772  1.00  0.00     0.074 A 
ATOM     39  C   UNL A   1      40.286  27.656  28.761  1.00  0.00     0.049 A 
ATOM     40  N   UNL A   1      41.996  29.752  30.080  1.00  0.00    -0.248 NA
ATOM     41  C   UNL A   1      40.153  31.184  30.096  1.00  0.00     0.031 C 
ATOM     42  C   UNL A   1      39.509  26.610  28.090  1.00  0.00     0.029 A 
ATOM     43  N   UNL A   1      41.532  27.100  28.907  1.00  0.00    -0.354 N 
ATOM     44  C   UNL A   1      42.370  30.978  30.618  1.00  0.00     0.074 A 
ATOM     45  C   UNL A   1      41.213  31.842  30.541  1.00  0.00     0.031 C 
ATOM     46  C   UNL A   1      40.285  25.530  27.914  1.00  0.00     0.029 A 
ATOM     47  C   UNL A   1      41.625  25.818  28.417  1.00  0.00     0.049 A 
ATOM     48  H   UNL A   1      42.288  27.573  29.324  1.00  0.00     0.167 HD
ATOM     49  C   UNL A   1      43.562  31.346  31.146  1.00  0.00     0.031 A 
ATOM     50  C   UNL A   1      42.672  24.972  28.369  1.00  0.00     0.031 A 
ATOM     51  C   UNL A   1      44.710  30.481  31.218  1.00  0.00     0.049 A 
ATOM     52  C   UNL A   1      43.993  25.409  28.940  1.00  0.00     0.074 A 
ATOM     53  C   UNL A   1      45.947  30.739  31.781  1.00  0.00     0.029 A 
ATOM     54  N   UNL A   1      44.765  29.194  30.705  1.00  0.00    -0.354 N 
ATOM     55  N   UNL A   1      44.309  26.550  29.507  1.00  0.00    -0.248 NA
ATOM     56  C   UNL A   1      45.095  24.441  28.876  1.00  0.00     0.031 C 
ATOM     57  C   UNL A   1      46.770  29.632  31.554  1.00  0.00     0.029 A 
ATOM     58  C   UNL A   1      46.024  28.655  30.910  1.00  0.00     0.049 A 
ATOM     59  H   UNL A   1      44.019  28.730  30.261  1.00  0.00     0.167 HD
ATOM     60  C   UNL A   1      45.639  26.425  29.892  1.00  0.00     0.074 A 
ATOM     61  C   UNL A   1      46.062  25.094  29.506  1.00  0.00     0.031 C 
ATOM     62  C   UNL A   1      46.436  27.330  30.513  1.00  0.00     0.031 A 
BRANCH  49  63
ATOM     63  C   UNL A   1      43.683  32.756  31.667  1.00  0.00    -0.014 A 
ATOM     64  C   UNL A   1      44.178  33.796  30.857  1.00  0.00     0.010 A 
ATOM     65  C   UNL A   1      43.279  33.051  32.982  1.00  0.00     0.010 A 
ATOM     66  C   UNL A   1      44.322  35.087  31.369  1.00  0.00     0.020 A 
ATOM     67  C   UNL A   1      43.389  34.350  33.487  1.00  0.00     0.020 A 
ATOM     68  C   UNL A   1      43.931  35.355  32.685  1.00  0.00     0.054 A 
BRANCH  68  69
ATOM     69  S   UNL A   1      44.130  37.040  33.324  1.00  0.00     0.124 S 
ATOM     70  O   UNL A   1      45.550  37.067  33.664  1.00  0.00    -0.237 OA
ATOM     71  O   UNL A   1      43.742  37.864  32.182  1.00  0.00    -0.237 OA
ATOM     72  O   UNL A   1      43.217  37.091  34.463  1.00  0.00    -0.744 OA
ENDBRANCH  68  69
ENDBRANCH  49  63
BRANCH  50  73
ATOM     73  C   UNL A   1      42.499  23.616  27.780  1.00  0.00    -0.014 A 
ATOM     74  C   UNL A   1      42.772  23.389  26.420  1.00  0.00     0.010 A 
ATOM     75  C   UNL A   1      42.092  22.535  28.585  1.00  0.00     0.010 A 
ATOM     76  C   UNL A   1      42.633  22.110  25.873  1.00  0.00     0.020 A 
ATOM     77  C   UNL A   1      41.980  21.250  28.048  1.00  0.00     0.020 A 
ATOM     78  C   UNL A   1      42.243  21.048  26.692  1.00  0.00     0.054 A 
BRANCH  78  79
ATOM     79  S   UNL A   1      42.137  19.384  25.975  1.00  0.00     0.124 S 
ATOM     80  O   UNL A   1      43.024  19.492  24.822  1.00  0.00    -0.237 OA
ATOM     81  O   UNL A   1      42.616  18.540  27.067  1.00  0.00    -0.237 OA
ATOM     82  O   UNL A   1      40.717  19.237  25.662  1.00  0.00    -0.744 OA
ENDBRANCH  78  79
ENDBRANCH  50  73
BRANCH  62  83
ATOM     83  C   UNL A   1      47.842  26.904  30.846  1.00  0.00    -0.014 A 
ATOM     84  C   UNL A   1      48.925  27.243  30.016  1.00  0.00     0.010 A 
ATOM     85  C   UNL A   1      48.087  26.202  32.041  1.00  0.00     0.010 A 
ATOM     86  C   UNL A   1      50.224  26.859  30.359  1.00  0.00     0.020 A 
ATOM     87  C   UNL A   1      49.388  25.844  32.403  1.00  0.00     0.020 A 
ATOM     88  C   UNL A   1      50.447  26.163  31.552  1.00  0.00     0.054 A 
BRANCH  88  89
ATOM     89  S   UNL A   1      52.148  25.717  31.996  1.00  0.00     0.124 S 
ATOM     90  O   UNL A   1      51.982  24.362  32.514  1.00  0.00    -0.237 OA
ATOM     91  O   UNL A   1      52.849  25.820  30.719  1.00  0.00    -0.237 OA
ATOM     92  O   UNL A   1      52.524  26.721  32.988  1.00  0.00    -0.744 OA
ENDBRANCH  88  89
ENDBRANCH  62  83
ENDBRANCH  36  37
ENDBRANCH  28  31
ENDBRANCH  26  27
ENDBRANCH  25  26
ENDBRANCH   1  25
TORSDOF 18
ENDMDL
MODEL 2
REMARK VINA RESULT:     -10.7      2.892      4.196
REMARK SMILES Cc1csc(NC(=O)[C@@H]2CC=CC[C@H]2C(=O)NCCCCCCNC(=O)c2ccc(-c3c4nc(c(-c5ccc(S(=O)(=O)[O-])cc5)c5ccc([nH]5)c(-c5ccc(S(=O)(=O)[O-])cc5)c5nc(c(-c6ccc(S(=O)(=O)[O-])cc6)c6ccc3[nH]6)C=C5)C=C4)cc2)n1
REMARK SMILES IDX 21 1 20 2 19 3 18 4 17 5 15 6 16 7 14 9 9 10 10 11 11 12
REMARK SMILES IDX 13 13 12 14 7 15 6 16 8 18 5 19 1 20 2 21 3 22 87 23 4 24
REMARK SMILES IDX 22 25 23 26 24 27 25 28 26 30 27 31 28 32 86 33 29 34 85 35
REMARK SMILES IDX 30 36 31 37 32 38 79 39 33 40 84 41 78 42 80 43 34 44 83 45
REMARK SMILES IDX 77 46 76 47 35 49 65 50 46 51 64 52 47 53 50 54 63 55 81 56
REMARK SMILES IDX 48 57 49 58 62 60 82 61 51 62 36 63 37 64 45 65 38 66 44 67
REMARK SMILES IDX 39 68 40 69 41 70 42 71 43 72 66 73 67 74 75 75 68 76 74 77
REMARK SMILES IDX 69 78 70 79 71 80 72 81 73 82 52 83 53 84 61 85 54 86 60 87
REMARK SMILES IDX 55 88 56 89 57 90 58 91 59 92
REMARK H PARENT 17 8 6 17 24 29 80 48 50 59
REMARK Flexibility Score: inf
ROOT
ATOM      1  C   UNL A   1      32.637  26.641  26.060  1.00  0.00     0.002 C 
ENDROOT
BRANCH   1   2
ATOM      2  C   UNL A   1      31.147  26.387  26.312  1.00  0.00     0.002 C 
BRANCH   2   3
ATOM      3  C   UNL A   1      30.693  24.948  26.037  1.00  0.00     0.021 C 
BRANCH   3   4
ATOM      4  C   UNL A   1      31.514  23.911  26.798  1.00  0.00     0.116 C 
BRANCH   4   5
ATOM      5  N   UNL A   1      31.296  22.589  26.239  1.00  0.00    -0.356 N 
ATOM      6  C   UNL A   1      32.074  21.830  25.423  1.00  0.00     0.224 C 
ATOM      7  O   UNL A   1      31.680  20.694  25.148  1.00  0.00    -0.275 OA
ATOM      8  H   UNL A   1      30.441  22.173  26.495  1.00  0.00     0.163 HD
BRANCH   6   9
ATOM      9  C   UNL A   1      33.458  22.303  24.989  1.00  0.00     0.095 C 
ATOM     10  C   UNL A   1      33.482  23.656  24.207  1.00  0.00     0.095 C 
ATOM     11  C   UNL A   1      34.884  24.261  24.252  1.00  0.00     0.041 C 
ATOM     12  C   UNL A   1      35.679  24.120  25.505  1.00  0.00    -0.030 C 
ATOM     13  C   UNL A   1      34.348  22.178  26.253  1.00  0.00     0.041 C 
ATOM     14  C   UNL A   1      35.439  23.174  26.409  1.00  0.00    -0.030 C 
BRANCH  10  15
ATOM     15  C   UNL A   1      32.802  23.460  22.819  1.00  0.00     0.230 C 
ATOM     16  N   UNL A   1      32.132  24.355  22.053  1.00  0.00    -0.302 N 
ATOM     17  H   UNL A   1      31.708  23.965  21.255  1.00  0.00     0.172 HD
ATOM     18  O   UNL A   1      32.782  22.313  22.339  1.00  0.00    -0.274 OA
BRANCH  16  19
ATOM     19  C   UNL A   1      31.940  25.693  22.185  1.00  0.00     0.189 A 
ATOM     20  C   UNL A   1      30.015  28.391  23.470  1.00  0.00     0.068 C 
ATOM     21  C   UNL A   1      31.125  27.632  22.844  1.00  0.00     0.051 A 
ATOM     22  C   UNL A   1      32.436  28.010  22.633  1.00  0.00     0.092 A 
ATOM     23  N   UNL A   1      30.853  26.339  22.471  1.00  0.00    -0.225 NA
ATOM     24  S   UNL A   1      33.338  26.663  22.041  1.00  0.00    -0.105 S 
ENDBRANCH  16  19
ENDBRANCH  10  15
ENDBRANCH   6   9
ENDBRANCH   4   5
ENDBRANCH   3   4
ENDBRANCH   2   3
ENDBRANCH   1   2
BRANCH   1  25
ATOM     25  C   UNL A   1      33.240  27.773  26.896  1.00  0.00     0.021 C 
BRANCH  25  26
ATOM     26  C   UNL A   1      34.060  28.772  26.088  1.00  0.00     0.116 C 
BRANCH  26  27
ATOM     27  N   UNL A   1      33.782  30.142  26.486  1.00  0.00    -0.352 N 
ATOM     28  C   UNL A   1      34.378  30.897  27.465  1.00  0.00     0.251 C 
ATOM     29  H   UNL A   1      33.065  30.592  25.982  1.00  0.00     0.163 HD
ATOM     30  O   UNL A   1      33.871  31.953  27.823  1.00  0.00    -0.269 OA
BRANCH  28  31
ATOM     31  C   UNL A   1      35.628  30.416  28.089  1.00  0.00     0.039 A 
ATOM     32  C   UNL A   1      36.852  30.831  27.563  1.00  0.00     0.014 A 
ATOM     33  C   UNL A   1      35.587  29.558  29.193  1.00  0.00     0.014 A 
ATOM     34  C   UNL A   1      38.038  30.425  28.176  1.00  0.00     0.010 A 
ATOM     35  C   UNL A   1      36.765  29.221  29.850  1.00  0.00     0.010 A 
ATOM     36  C   UNL A   1      38.003  29.641  29.343  1.00  0.00    -0.014 A 
BRANCH  36  37
ATOM     37  C   UNL A   1      39.252  29.248  30.041  1.00  0.00     0.031 A 
ATOM     38  C   UNL A   1      39.684  29.975  31.285  1.00  0.00     0.074 A 
ATOM     39  C   UNL A   1      40.028  28.275  29.522  1.00  0.00     0.049 A 
ATOM     40  N   UNL A   1      40.761  29.805  32.008  1.00  0.00    -0.248 NA
ATOM     41  C   UNL A   1      38.802  31.053  31.766  1.00  0.00     0.031 C 
ATOM     42  C   UNL A   1      39.736  27.521  28.300  1.00  0.00     0.029 A 
ATOM     43  N   UNL A   1      41.221  27.757  29.954  1.00  0.00    -0.354 N 
ATOM     44  C   UNL A   1      40.695  30.761  33.016  1.00  0.00     0.074 A 
ATOM     45  C   UNL A   1      39.503  31.543  32.777  1.00  0.00     0.031 C 
ATOM     46  C   UNL A   1      40.705  26.614  28.101  1.00  0.00     0.029 A 
ATOM     47  C   UNL A   1      41.709  26.752  29.152  1.00  0.00     0.049 A 
ATOM     48  H   UNL A   1      41.685  28.073  30.763  1.00  0.00     0.167 HD
ATOM     49  C   UNL A   1      41.540  30.956  34.057  1.00  0.00     0.031 A 
ATOM     50  C   UNL A   1      42.841  26.027  29.246  1.00  0.00     0.031 A 
ATOM     51  C   UNL A   1      42.726  30.174  34.287  1.00  0.00     0.049 A 
ATOM     52  C   UNL A   1      43.777  26.276  30.397  1.00  0.00     0.074 A 
ATOM     53  C   UNL A   1      43.619  30.256  35.340  1.00  0.00     0.029 A 
ATOM     54  N   UNL A   1      43.187  29.170  33.449  1.00  0.00    -0.354 N 
ATOM     55  N   UNL A   1      43.663  27.139  31.379  1.00  0.00    -0.248 NA
ATOM     56  C   UNL A   1      44.986  25.447  30.459  1.00  0.00     0.031 C 
ATOM     57  C   UNL A   1      44.655  29.346  35.107  1.00  0.00     0.029 A 
ATOM     58  C   UNL A   1      44.370  28.646  33.943  1.00  0.00     0.049 A 
ATOM     59  H   UNL A   1      42.740  28.872  32.624  1.00  0.00     0.167 HD
ATOM     60  C   UNL A   1      44.774  26.936  32.191  1.00  0.00     0.074 A 
ATOM     61  C   UNL A   1      45.537  25.860  31.592  1.00  0.00     0.031 C 
ATOM     62  C   UNL A   1      45.125  27.579  33.332  1.00  0.00     0.031 A 
BRANCH  49  63
ATOM     63  C   UNL A   1      41.215  32.077  35.011  1.00  0.00    -0.014 A 
ATOM     64  C   UNL A   1      40.409  31.862  36.146  1.00  0.00     0.010 A 
ATOM     65  C   UNL A   1      41.737  33.364  34.781  1.00  0.00     0.010 A 
ATOM     66  C   UNL A   1      40.084  32.921  36.996  1.00  0.00     0.020 A 
ATOM     67  C   UNL A   1      41.442  34.419  35.649  1.00  0.00     0.020 A 
ATOM     68  C   UNL A   1      40.599  34.196  36.739  1.00  0.00     0.054 A 
BRANCH  68  69
ATOM     69  S   UNL A   1      40.160  35.552  37.859  1.00  0.00     0.124 S 
ATOM     70  O   UNL A   1      39.902  36.644  36.924  1.00  0.00    -0.237 OA
ATOM     71  O   UNL A   1      38.986  35.029  38.552  1.00  0.00    -0.237 OA
ATOM     72  O   UNL A   1      41.349  35.715  38.692  1.00  0.00    -0.744 OA
ENDBRANCH  68  69
ENDBRANCH  49  63
BRANCH  50  73
ATOM     73  C   UNL A   1      43.132  24.978  28.231  1.00  0.00    -0.014 A 
ATOM     74  C   UNL A   1      43.802  25.306  27.039  1.00  0.00     0.010 A 
ATOM     75  C   UNL A   1      42.770  23.638  28.465  1.00  0.00     0.010 A 
ATOM     76  C   UNL A   1      44.097  24.316  26.097  1.00  0.00     0.020 A 
ATOM     77  C   UNL A   1      43.088  22.642  27.539  1.00  0.00     0.020 A 
ATOM     78  C   UNL A   1      43.744  22.989  26.356  1.00  0.00     0.054 A 
BRANCH  78  79
ATOM     79  S   UNL A   1      44.199  21.712  25.149  1.00  0.00     0.124 S 
ATOM     80  O   UNL A   1      44.088  22.434  23.886  1.00  0.00    -0.237 OA
ATOM     81  O   UNL A   1      45.555  21.360  25.562  1.00  0.00    -0.237 OA
ATOM     82  O   UNL A   1      43.200  20.668  25.364  1.00  0.00    -0.744 OA
ENDBRANCH  78  79
ENDBRANCH  50  73
BRANCH  62  83
ATOM     83  C   UNL A   1      46.379  27.119  34.031  1.00  0.00    -0.014 A 
ATOM     84  C   UNL A   1      47.624  27.716  33.769  1.00  0.00     0.010 A 
ATOM     85  C   UNL A   1      46.294  26.110  35.008  1.00  0.00     0.010 A 
ATOM     86  C   UNL A   1      48.768  27.289  34.449  1.00  0.00     0.020 A 
ATOM     87  C   UNL A   1      47.430  25.702  35.712  1.00  0.00     0.020 A 
ATOM     88  C   UNL A   1      48.663  26.286  35.417  1.00  0.00     0.054 A 
BRANCH  88  89
ATOM     89  S   UNL A   1      50.155  25.783  36.317  1.00  0.00     0.124 S 
ATOM     90  O   UNL A   1      51.201  26.015  35.326  1.00  0.00    -0.237 OA
ATOM     91  O   UNL A   1      50.160  26.692  37.461  1.00  0.00    -0.237 OA
ATOM     92  O   UNL A   1      49.907  24.381  36.645  1.00  0.00    -0.744 OA
ENDBRANCH  88  89
ENDBRANCH  62  83
ENDBRANCH  36  37
ENDBRANCH  28  31
ENDBRANCH  26  27
ENDBRANCH  25  26
ENDBRANCH   1  25
TORSDOF 18
ENDMDL
MODEL 3
REMARK VINA RESULT:     -10.6      2.523      3.186
REMARK SMILES Cc1csc(NC(=O)[C@@H]2CC=CC[C@H]2C(=O)NCCCCCCNC(=O)c2ccc(-c3c4nc(c(-c5ccc(S(=O)(=O)[O-])cc5)c5ccc([nH]5)c(-c5ccc(S(=O)(=O)[O-])cc5)c5nc(c(-c6ccc(S(=O)(=O)[O-])cc6)c6ccc3[nH]6)C=C5)C=C4)cc2)n1
REMARK SMILES IDX 21 1 20 2 19 3 18 4 17 5 15 6 16 7 14 9 9 10 10 11 11 12
REMARK SMILES IDX 13 13 12 14 7 15 6 16 8 18 5 19 1 20 2 21 3 22 87 23 4 24
REMARK SMILES IDX 22 25 23 26 24 27 25 28 26 30 27 31 28 32 86 33 29 34 85 35
REMARK SMILES IDX 30 36 31 37 32 38 79 39 33 40 84 41 78 42 80 43 34 44 83 45
REMARK SMILES IDX 77 46 76 47 35 49 65 50 46 51 64 52 47 53 50 54 63 55 81 56
REMARK SMILES IDX 48 57 49 58 62 60 82 61 51 62 36 63 37 64 45 65 38 66 44 67
REMARK SMILES IDX 39 68 40 69 41 70 42 71 43 72 66 73 67 74 75 75 68 76 74 77
REMARK SMILES IDX 69 78 70 79 71 80 72 81 73 82 52 83 53 84 61 85 54 86 60 87
REMARK SMILES IDX 55 88 56 89 57 90 58 91 59 92
REMARK H PARENT 17 8 6 17 24 29 80 48 50 59
REMARK Flexibility Score: inf
ROOT
ATOM      1  C   UNL A   1      31.992  28.013  26.537  1.00  0.00     0.002 C 
ENDROOT
BRANCH   1   2
ATOM      2  C   UNL A   1      31.133  26.990  25.786  1.00  0.00     0.002 C 
BRANCH   2   3
ATOM      3  C   UNL A   1      31.748  26.486  24.474  1.00  0.00     0.021 C 
BRANCH   3   4
ATOM      4  C   UNL A   1      31.191  25.134  24.038  1.00  0.00     0.116 C 
BRANCH   4   5
ATOM      5  N   UNL A   1      32.033  24.552  23.009  1.00  0.00    -0.356 N 
ATOM      6  C   UNL A   1      33.189  23.842  23.103  1.00  0.00     0.224 C 
ATOM      7  O   UNL A   1      33.673  23.394  22.059  1.00  0.00    -0.275 OA
ATOM      8  H   UNL A   1      31.713  24.696  22.089  1.00  0.00     0.163 HD
BRANCH   6   9
ATOM      9  C   UNL A   1      33.783  23.478  24.460  1.00  0.00     0.095 C 
ATOM     10  C   UNL A   1      34.006  21.949  24.697  1.00  0.00     0.095 C 
ATOM     11  C   UNL A   1      35.012  21.737  25.826  1.00  0.00     0.041 C 
ATOM     12  C   UNL A   1      36.165  22.675  25.936  1.00  0.00    -0.030 C 
ATOM     13  C   UNL A   1      34.995  24.427  24.644  1.00  0.00     0.041 C 
ATOM     14  C   UNL A   1      36.156  23.895  25.405  1.00  0.00    -0.030 C 
BRANCH  10  15
ATOM     15  C   UNL A   1      32.623  21.236  24.792  1.00  0.00     0.230 C 
ATOM     16  N   UNL A   1      32.293  19.954  24.503  1.00  0.00    -0.302 N 
ATOM     17  H   UNL A   1      31.328  19.766  24.551  1.00  0.00     0.172 HD
ATOM     18  O   UNL A   1      31.635  21.924  25.103  1.00  0.00    -0.274 OA
BRANCH  16  19
ATOM     19  C   UNL A   1      33.051  18.881  24.159  1.00  0.00     0.189 A 
ATOM     20  C   UNL A   1      35.185  16.210  25.131  1.00  0.00     0.068 C 
ATOM     21  C   UNL A   1      34.307  17.076  24.307  1.00  0.00     0.051 A 
ATOM     22  C   UNL A   1      33.670  16.796  23.115  1.00  0.00     0.092 A 
ATOM     23  N   UNL A   1      34.018  18.319  24.814  1.00  0.00    -0.225 NA
ATOM     24  S   UNL A   1      32.622  18.105  22.699  1.00  0.00    -0.105 S 
ENDBRANCH  16  19
ENDBRANCH  10  15
ENDBRANCH   6   9
ENDBRANCH   4   5
ENDBRANCH   3   4
ENDBRANCH   2   3
ENDBRANCH   1   2
BRANCH   1  25
ATOM     25  C   UNL A   1      33.487  27.685  26.571  1.00  0.00     0.021 C 
BRANCH  25  26
ATOM     26  C   UNL A   1      34.377  28.792  26.016  1.00  0.00     0.116 C 
BRANCH  26  27
ATOM     27  N   UNL A   1      33.885  30.111  26.380  1.00  0.00    -0.352 N 
ATOM     28  C   UNL A   1      34.270  30.922  27.417  1.00  0.00     0.251 C 
ATOM     29  H   UNL A   1      33.174  30.472  25.801  1.00  0.00     0.163 HD
ATOM     30  O   UNL A   1      33.597  31.900  27.717  1.00  0.00    -0.269 OA
BRANCH  28  31
ATOM     31  C   UNL A   1      35.497  30.596  28.173  1.00  0.00     0.039 A 
ATOM     32  C   UNL A   1      35.421  29.681  29.225  1.00  0.00     0.014 A 
ATOM     33  C   UNL A   1      36.717  31.192  27.842  1.00  0.00     0.014 A 
ATOM     34  C   UNL A   1      36.582  29.326  29.914  1.00  0.00     0.010 A 
ATOM     35  C   UNL A   1      37.884  30.778  28.474  1.00  0.00     0.010 A 
ATOM     36  C   UNL A   1      37.828  29.849  29.523  1.00  0.00    -0.014 A 
BRANCH  36  37
ATOM     37  C   UNL A   1      39.080  29.440  30.206  1.00  0.00     0.031 A 
ATOM     38  C   UNL A   1      39.526  30.149  31.456  1.00  0.00     0.074 A 
ATOM     39  C   UNL A   1      39.847  28.471  29.668  1.00  0.00     0.049 A 
ATOM     40  N   UNL A   1      40.608  29.964  32.168  1.00  0.00    -0.248 NA
ATOM     41  C   UNL A   1      38.654  31.224  31.958  1.00  0.00     0.031 C 
ATOM     42  C   UNL A   1      39.541  27.734  28.439  1.00  0.00     0.029 A 
ATOM     43  N   UNL A   1      41.041  27.941  30.084  1.00  0.00    -0.354 N 
ATOM     44  C   UNL A   1      40.555  30.907  33.188  1.00  0.00     0.074 A 
ATOM     45  C   UNL A   1      39.365  31.698  32.970  1.00  0.00     0.031 C 
ATOM     46  C   UNL A   1      40.504  26.825  28.221  1.00  0.00     0.029 A 
ATOM     47  C   UNL A   1      41.517  26.944  29.265  1.00  0.00     0.049 A 
ATOM     48  H   UNL A   1      41.513  28.244  30.893  1.00  0.00     0.167 HD
ATOM     49  C   UNL A   1      41.409  31.084  34.225  1.00  0.00     0.031 A 
ATOM     50  C   UNL A   1      42.646  26.212  29.340  1.00  0.00     0.031 A 
ATOM     51  C   UNL A   1      42.593  30.293  34.436  1.00  0.00     0.049 A 
ATOM     52  C   UNL A   1      43.592  26.442  30.487  1.00  0.00     0.074 A 
ATOM     53  C   UNL A   1      43.496  30.357  35.482  1.00  0.00     0.029 A 
ATOM     54  N   UNL A   1      43.042  29.298  33.581  1.00  0.00    -0.354 N 
ATOM     55  N   UNL A   1      43.491  27.292  31.481  1.00  0.00    -0.248 NA
ATOM     56  C   UNL A   1      44.798  25.605  30.527  1.00  0.00     0.031 C 
ATOM     57  C   UNL A   1      44.524  29.445  35.228  1.00  0.00     0.029 A 
ATOM     58  C   UNL A   1      44.227  28.762  34.058  1.00  0.00     0.049 A 
ATOM     59  H   UNL A   1      42.587  29.014  32.755  1.00  0.00     0.167 HD
ATOM     60  C   UNL A   1      44.607  27.073  32.281  1.00  0.00     0.074 A 
ATOM     61  C   UNL A   1      45.360  26.001  31.662  1.00  0.00     0.031 C 
ATOM     62  C   UNL A   1      44.972  27.699  33.427  1.00  0.00     0.031 A 
BRANCH  49  63
ATOM     63  C   UNL A   1      41.098  32.195  35.196  1.00  0.00    -0.014 A 
ATOM     64  C   UNL A   1      40.299  31.969  36.334  1.00  0.00     0.010 A 
ATOM     65  C   UNL A   1      41.626  33.481  34.980  1.00  0.00     0.010 A 
ATOM     66  C   UNL A   1      39.986  33.019  37.201  1.00  0.00     0.020 A 
ATOM     67  C   UNL A   1      41.344  34.526  35.864  1.00  0.00     0.020 A 
ATOM     68  C   UNL A   1      40.507  34.293  36.957  1.00  0.00     0.054 A 
BRANCH  68  69
ATOM     69  S   UNL A   1      40.084  35.638  38.099  1.00  0.00     0.124 S 
ATOM     70  O   UNL A   1      39.874  36.755  37.182  1.00  0.00    -0.237 OA
ATOM     71  O   UNL A   1      38.883  35.132  38.758  1.00  0.00    -0.237 OA
ATOM     72  O   UNL A   1      41.262  35.749  38.956  1.00  0.00    -0.744 OA
ENDBRANCH  68  69
ENDBRANCH  49  63
BRANCH  50  73
ATOM     73  C   UNL A   1      42.924  25.175  28.309  1.00  0.00    -0.014 A 
ATOM     74  C   UNL A   1      43.637  25.502  27.143  1.00  0.00     0.010 A 
ATOM     75  C   UNL A   1      42.504  23.845  28.503  1.00  0.00     0.010 A 
ATOM     76  C   UNL A   1      43.919  24.523  26.186  1.00  0.00     0.020 A 
ATOM     77  C   UNL A   1      42.809  22.858  27.562  1.00  0.00     0.020 A 
ATOM     78  C   UNL A   1      43.508  23.205  26.405  1.00  0.00     0.054 A 
BRANCH  78  79
ATOM     79  S   UNL A   1      43.945  21.938  25.181  1.00  0.00     0.124 S 
ATOM     80  O   UNL A   1      45.298  21.574  25.590  1.00  0.00    -0.237 OA
ATOM     81  O   UNL A   1      42.920  20.921  25.404  1.00  0.00    -0.237 OA
ATOM     82  O   UNL A   1      43.844  22.645  23.907  1.00  0.00    -0.744 OA
ENDBRANCH  78  79
ENDBRANCH  50  73
BRANCH  62  83
ATOM     83  C   UNL A   1      46.228  27.223  34.110  1.00  0.00    -0.014 A 
ATOM     84  C   UNL A   1      46.189  26.230  35.103  1.00  0.00     0.010 A 
ATOM     85  C   UNL A   1      47.472  27.742  33.706  1.00  0.00     0.010 A 
ATOM     86  C   UNL A   1      47.371  25.786  35.703  1.00  0.00     0.020 A 
ATOM     87  C   UNL A   1      48.658  27.278  34.281  1.00  0.00     0.020 A 
ATOM     88  C   UNL A   1      48.598  26.312  35.287  1.00  0.00     0.054 A 
BRANCH  88  89
ATOM     89  S   UNL A   1      50.120  25.686  36.050  1.00  0.00     0.124 S 
ATOM     90  O   UNL A   1      50.963  26.877  36.069  1.00  0.00    -0.237 OA
ATOM     91  O   UNL A   1      49.655  25.223  37.356  1.00  0.00    -0.237 OA
ATOM     92  O   UNL A   1      50.555  24.628  35.141  1.00  0.00    -0.744 OA
ENDBRANCH  88  89
ENDBRANCH  62  83
ENDBRANCH  36  37
ENDBRANCH  28  31
ENDBRANCH  26  27
ENDBRANCH  25  26
ENDBRANCH   1  25
TORSDOF 18
ENDMDL
