MODEL 1
REMARK VINA RESULT:     -12.0      0.000      0.000
REMARK SMILES Cc1ccc(S(=O)(=O)n2cc(C(=O)C(=O)NCC(=O)NCCCCCCNC(=O)c3ccc(-c4c5nc(c(-c6ccc(S(=O)(=O)[O-])cc6)c6ccc([nH]6)c(-c6ccc(S(=O)(=O)[O-])cc6)c6nc(c(-c7ccc(S(=O)(=O)[O-])cc7)c7ccc4[nH]7)C=C6)C=C5)cc3)c3ccccc32)cc1
REMARK SMILES IDX 22 1 21 2 20 3 18 4 19 5 17 7 16 8 14 9 15 10 12 12 13 13
REMARK SMILES IDX 11 14 9 15 10 16 95 17 90 18 94 19 91 20 93 21 92 22 6 23
REMARK SMILES IDX 7 24 8 25 5 26 1 27 2 28 3 29 97 30 4 31 96 32 23 33 24 34
REMARK SMILES IDX 25 35 26 36 27 37 28 38 29 40 30 41 31 42 89 43 32 44 88 45
REMARK SMILES IDX 33 46 34 47 35 48 82 49 36 50 87 51 81 52 83 53 37 54 86 55
REMARK SMILES IDX 80 56 79 57 38 59 68 60 49 61 67 62 50 63 53 64 66 65 84 66
REMARK SMILES IDX 51 67 52 68 65 70 85 71 54 72 39 73 40 74 48 75 41 76 47 77
REMARK SMILES IDX 42 78 43 79 44 80 45 81 46 82 69 83 70 84 78 85 71 86 77 87
REMARK SMILES IDX 72 88 73 89 74 90 75 91 76 92 55 93 56 94 64 95 57 96 63 97
REMARK SMILES IDX 58 98 59 99 60 100 61 101 62 102
REMARK H PARENT 20 6 16 11 27 39 83 58 53 69
REMARK Flexibility Score: inf
ROOT
ATOM      1  C   UNL A   1      30.673  29.246  23.822  1.00  0.00     0.021 C 
ENDROOT
BRANCH   1   2
ATOM      2  C   UNL A   1      30.631  27.726  23.965  1.00  0.00     0.116 C 
BRANCH   2   3
ATOM      3  N   UNL A   1      30.910  27.316  25.326  1.00  0.00    -0.355 N 
ATOM      4  C   UNL A   1      31.242  26.085  25.808  1.00  0.00     0.239 C 
ATOM      5  O   UNL A   1      31.518  25.980  27.006  1.00  0.00    -0.273 OA
ATOM      6  H   UNL A   1      30.850  28.030  26.000  1.00  0.00     0.163 HD
BRANCH   4   7
ATOM      7  C   UNL A   1      31.419  24.902  24.852  1.00  0.00     0.216 C 
BRANCH   7   8
ATOM      8  N   UNL A   1      30.618  23.728  25.181  1.00  0.00    -0.340 N 
ATOM      9  C   UNL A   1      30.834  22.705  26.082  1.00  0.00     0.292 C 
ATOM     10  O   UNL A   1      29.956  21.862  26.229  1.00  0.00    -0.265 OA
ATOM     11  H   UNL A   1      29.777  23.653  24.674  1.00  0.00     0.164 HD
BRANCH   9  12
ATOM     12  C   UNL A   1      32.161  22.601  26.882  1.00  0.00     0.252 C 
ATOM     13  O   UNL A   1      32.143  22.890  28.075  1.00  0.00    -0.283 OA
BRANCH  12  14
ATOM     14  C   UNL A   1      33.420  22.163  26.253  1.00  0.00     0.054 A 
ATOM     15  N   UNL A   1      35.453  22.151  25.320  1.00  0.00    -0.240 N 
ATOM     16  C   UNL A   1      34.535  22.933  25.975  1.00  0.00     0.117 A 
ATOM     17  C   UNL A   1      34.995  20.858  25.177  1.00  0.00     0.065 A 
ATOM     18  C   UNL A   1      33.718  20.840  25.757  1.00  0.00     0.012 A 
ATOM     19  C   UNL A   1      35.556  19.719  24.570  1.00  0.00     0.028 A 
ATOM     20  C   UNL A   1      32.999  19.622  25.741  1.00  0.00     0.011 A 
ATOM     21  C   UNL A   1      34.806  18.542  24.549  1.00  0.00     0.002 A 
ATOM     22  C   UNL A   1      33.547  18.489  25.132  1.00  0.00     0.001 A 
BRANCH  15  23
ATOM     23  S   UNL A   1      36.909  22.749  24.663  1.00  0.00     0.268 S 
ATOM     24  O   UNL A   1      36.899  24.166  24.954  1.00  0.00    -0.201 OA
ATOM     25  O   UNL A   1      36.964  22.228  23.309  1.00  0.00    -0.201 OA
BRANCH  23  26
ATOM     26  C   UNL A   1      38.256  22.021  25.563  1.00  0.00     0.088 A 
ATOM     27  C   UNL A   1      41.647  20.108  27.399  1.00  0.00     0.044 C 
ATOM     28  C   UNL A   1      40.456  20.776  26.778  1.00  0.00    -0.051 A 
ATOM     29  C   UNL A   1      39.643  20.063  25.888  1.00  0.00     0.005 A 
ATOM     30  C   UNL A   1      40.136  22.106  27.078  1.00  0.00     0.005 A 
ATOM     31  C   UNL A   1      38.551  20.683  25.277  1.00  0.00     0.022 A 
ATOM     32  C   UNL A   1      39.033  22.727  26.483  1.00  0.00     0.022 A 
ENDBRANCH  23  26
ENDBRANCH  15  23
ENDBRANCH  12  14
ENDBRANCH   9  12
ENDBRANCH   7   8
ENDBRANCH   4   7
ENDBRANCH   2   3
ENDBRANCH   1   2
BRANCH   1  33
ATOM     33  C   UNL A   1      31.715  29.930  24.720  1.00  0.00     0.002 C 
BRANCH  33  34
ATOM     34  C   UNL A   1      31.175  30.565  26.012  1.00  0.00     0.002 C 
BRANCH  34  35
ATOM     35  C   UNL A   1      31.985  31.739  26.554  1.00  0.00     0.021 C 
BRANCH  35  36
ATOM     36  C   UNL A   1      33.052  31.334  27.556  1.00  0.00     0.116 C 
BRANCH  36  37
ATOM     37  N   UNL A   1      33.199  29.886  27.637  1.00  0.00    -0.352 N 
ATOM     38  C   UNL A   1      34.371  29.161  27.490  1.00  0.00     0.251 C 
ATOM     39  H   UNL A   1      32.381  29.370  27.817  1.00  0.00     0.163 HD
ATOM     40  O   UNL A   1      34.427  28.043  26.997  1.00  0.00    -0.269 OA
BRANCH  38  41
ATOM     41  C   UNL A   1      35.557  29.748  28.138  1.00  0.00     0.039 A 
ATOM     42  C   UNL A   1      36.554  30.239  27.284  1.00  0.00     0.014 A 
ATOM     43  C   UNL A   1      35.822  29.399  29.456  1.00  0.00     0.014 A 
ATOM     44  C   UNL A   1      37.877  30.149  27.676  1.00  0.00     0.010 A 
ATOM     45  C   UNL A   1      37.128  29.173  29.788  1.00  0.00     0.010 A 
ATOM     46  C   UNL A   1      38.139  29.505  28.875  1.00  0.00    -0.014 A 
BRANCH  46  47
ATOM     47  C   UNL A   1      39.461  29.182  29.356  1.00  0.00     0.031 A 
ATOM     48  C   UNL A   1      39.926  27.818  29.072  1.00  0.00     0.074 A 
ATOM     49  C   UNL A   1      40.232  30.209  29.768  1.00  0.00     0.049 A 
ATOM     50  N   UNL A   1      40.987  27.293  29.557  1.00  0.00    -0.248 NA
ATOM     51  C   UNL A   1      39.174  26.898  28.214  1.00  0.00     0.031 C 
ATOM     52  C   UNL A   1      41.680  30.283  29.895  1.00  0.00     0.029 A 
ATOM     53  N   UNL A   1      39.780  31.376  30.380  1.00  0.00    -0.354 N 
ATOM     54  C   UNL A   1      41.245  26.159  28.814  1.00  0.00     0.074 A 
ATOM     55  C   UNL A   1      40.034  25.886  28.088  1.00  0.00     0.031 C 
ATOM     56  C   UNL A   1      41.989  31.270  30.757  1.00  0.00     0.029 A 
ATOM     57  C   UNL A   1      40.737  31.743  31.336  1.00  0.00     0.049 A 
ATOM     58  H   UNL A   1      38.942  31.853  30.178  1.00  0.00     0.167 HD
ATOM     59  C   UNL A   1      42.526  25.707  28.774  1.00  0.00     0.031 A 
ATOM     60  C   UNL A   1      40.415  31.619  32.662  1.00  0.00     0.031 A 
ATOM     61  C   UNL A   1      43.340  26.447  29.739  1.00  0.00     0.049 A 
ATOM     62  C   UNL A   1      41.198  30.503  33.332  1.00  0.00     0.074 A 
ATOM     63  C   UNL A   1      44.196  27.528  29.608  1.00  0.00     0.029 A 
ATOM     64  N   UNL A   1      42.991  26.380  31.084  1.00  0.00    -0.354 N 
ATOM     65  N   UNL A   1      41.707  29.472  32.706  1.00  0.00    -0.248 NA
ATOM     66  C   UNL A   1      41.543  30.518  34.749  1.00  0.00     0.031 C 
ATOM     67  C   UNL A   1      44.258  28.183  30.873  1.00  0.00     0.029 A 
ATOM     68  C   UNL A   1      43.468  27.481  31.770  1.00  0.00     0.049 A 
ATOM     69  H   UNL A   1      42.475  25.647  31.492  1.00  0.00     0.167 HD
ATOM     70  C   UNL A   1      42.470  28.733  33.574  1.00  0.00     0.074 A 
ATOM     71  C   UNL A   1      42.328  29.429  34.843  1.00  0.00     0.031 C 
ATOM     72  C   UNL A   1      43.186  27.629  33.195  1.00  0.00     0.031 A 
BRANCH  59  73
ATOM     73  C   UNL A   1      43.094  24.826  27.686  1.00  0.00    -0.014 A 
ATOM     74  C   UNL A   1      43.897  23.729  28.058  1.00  0.00     0.010 A 
ATOM     75  C   UNL A   1      42.949  25.041  26.300  1.00  0.00     0.010 A 
ATOM     76  C   UNL A   1      44.547  22.922  27.114  1.00  0.00     0.020 A 
ATOM     77  C   UNL A   1      43.601  24.248  25.342  1.00  0.00     0.020 A 
ATOM     78  C   UNL A   1      44.400  23.191  25.757  1.00  0.00     0.054 A 
BRANCH  78  79
ATOM     79  S   UNL A   1      45.244  22.131  24.556  1.00  0.00     0.124 S 
ATOM     80  O   UNL A   1      45.551  23.062  23.474  1.00  0.00    -0.237 OA
ATOM     81  O   UNL A   1      46.394  21.649  25.318  1.00  0.00    -0.237 OA
ATOM     82  O   UNL A   1      44.249  21.111  24.229  1.00  0.00    -0.744 OA
ENDBRANCH  78  79
ENDBRANCH  59  73
BRANCH  60  83
ATOM     83  C   UNL A   1      38.996  32.020  32.945  1.00  0.00    -0.014 A 
ATOM     84  C   UNL A   1      38.673  33.386  32.754  1.00  0.00     0.010 A 
ATOM     85  C   UNL A   1      37.950  31.081  32.916  1.00  0.00     0.010 A 
ATOM     86  C   UNL A   1      37.392  33.774  32.346  1.00  0.00     0.020 A 
ATOM     87  C   UNL A   1      36.654  31.474  32.527  1.00  0.00     0.020 A 
ATOM     88  C   UNL A   1      36.406  32.805  32.174  1.00  0.00     0.054 A 
BRANCH  88  89
ATOM     89  S   UNL A   1      34.881  33.284  31.296  1.00  0.00     0.124 S 
ATOM     90  O   UNL A   1      35.031  34.731  31.184  1.00  0.00    -0.237 OA
ATOM     91  O   UNL A   1      34.994  32.538  30.038  1.00  0.00    -0.237 OA
ATOM     92  O   UNL A   1      33.819  32.833  32.187  1.00  0.00    -0.744 OA
ENDBRANCH  88  89
ENDBRANCH  60  83
BRANCH  72  93
ATOM     93  C   UNL A   1      43.769  26.590  34.133  1.00  0.00    -0.014 A 
ATOM     94  C   UNL A   1      43.183  25.344  34.395  1.00  0.00     0.010 A 
ATOM     95  C   UNL A   1      45.055  26.811  34.693  1.00  0.00     0.010 A 
ATOM     96  C   UNL A   1      43.800  24.407  35.233  1.00  0.00     0.020 A 
ATOM     97  C   UNL A   1      45.714  25.856  35.468  1.00  0.00     0.020 A 
ATOM     98  C   UNL A   1      45.062  24.669  35.764  1.00  0.00     0.054 A 
BRANCH  98  99
ATOM     99  S   UNL A   1      45.852  23.429  36.812  1.00  0.00     0.124 S 
ATOM    100  O   UNL A   1      45.309  22.188  36.266  1.00  0.00    -0.237 OA
ATOM    101  O   UNL A   1      47.274  23.656  36.560  1.00  0.00    -0.237 OA
ATOM    102  O   UNL A   1      45.402  23.772  38.158  1.00  0.00    -0.744 OA
ENDBRANCH  98  99
ENDBRANCH  72  93
ENDBRANCH  46  47
ENDBRANCH  38  41
ENDBRANCH  36  37
ENDBRANCH  35  36
ENDBRANCH  34  35
ENDBRANCH  33  34
ENDBRANCH   1  33
TORSDOF 21
ENDMDL
MODEL 2
REMARK VINA RESULT:     -11.0      3.473      9.444
REMARK SMILES Cc1ccc(S(=O)(=O)n2cc(C(=O)C(=O)NCC(=O)NCCCCCCNC(=O)c3ccc(-c4c5nc(c(-c6ccc(S(=O)(=O)[O-])cc6)c6ccc([nH]6)c(-c6ccc(S(=O)(=O)[O-])cc6)c6nc(c(-c7ccc(S(=O)(=O)[O-])cc7)c7ccc4[nH]7)C=C6)C=C5)cc3)c3ccccc32)cc1
REMARK SMILES IDX 22 1 21 2 20 3 18 4 19 5 17 7 16 8 14 9 15 10 12 12 13 13
REMARK SMILES IDX 11 14 9 15 10 16 95 17 90 18 94 19 91 20 93 21 92 22 6 23
REMARK SMILES IDX 7 24 8 25 5 26 1 27 2 28 3 29 97 30 4 31 96 32 23 33 24 34
REMARK SMILES IDX 25 35 26 36 27 37 28 38 29 40 30 41 31 42 89 43 32 44 88 45
REMARK SMILES IDX 33 46 34 47 35 48 82 49 36 50 87 51 81 52 83 53 37 54 86 55
REMARK SMILES IDX 80 56 79 57 38 59 68 60 49 61 67 62 50 63 53 64 66 65 84 66
REMARK SMILES IDX 51 67 52 68 65 70 85 71 54 72 39 73 40 74 48 75 41 76 47 77
REMARK SMILES IDX 42 78 43 79 44 80 45 81 46 82 69 83 70 84 78 85 71 86 77 87
REMARK SMILES IDX 72 88 73 89 74 90 75 91 76 92 55 93 56 94 64 95 57 96 63 97
REMARK SMILES IDX 58 98 59 99 60 100 61 101 62 102
REMARK H PARENT 20 6 16 11 27 39 83 58 53 69
REMARK Flexibility Score: inf
ROOT
ATOM      1  C   UNL A   1      34.615  25.276  25.923  1.00  0.00     0.021 C 
ENDROOT
BRANCH   1   2
ATOM      2  C   UNL A   1      33.798  26.351  25.210  1.00  0.00     0.116 C 
BRANCH   2   3
ATOM      3  N   UNL A   1      33.998  27.652  25.815  1.00  0.00    -0.355 N 
ATOM      4  C   UNL A   1      33.114  28.678  25.971  1.00  0.00     0.239 C 
ATOM      5  O   UNL A   1      33.481  29.678  26.595  1.00  0.00    -0.273 OA
ATOM      6  H   UNL A   1      34.903  27.819  26.162  1.00  0.00     0.163 HD
BRANCH   4   7
ATOM      7  C   UNL A   1      31.659  28.522  25.520  1.00  0.00     0.216 C 
BRANCH   7   8
ATOM      8  N   UNL A   1      31.431  28.768  24.100  1.00  0.00    -0.340 N 
ATOM      9  C   UNL A   1      30.594  28.149  23.195  1.00  0.00     0.292 C 
ATOM     10  O   UNL A   1      30.529  28.602  22.058  1.00  0.00    -0.265 OA
ATOM     11  H   UNL A   1      31.968  29.503  23.723  1.00  0.00     0.164 HD
BRANCH   9  12
ATOM     12  C   UNL A   1      29.764  26.897  23.588  1.00  0.00     0.252 C 
ATOM     13  O   UNL A   1      28.544  27.010  23.663  1.00  0.00    -0.283 OA
BRANCH  12  14
ATOM     14  C   UNL A   1      30.397  25.594  23.861  1.00  0.00     0.054 A 
ATOM     15  N   UNL A   1      31.056  23.705  24.861  1.00  0.00    -0.240 N 
ATOM     16  C   UNL A   1      30.224  24.790  24.974  1.00  0.00     0.117 A 
ATOM     17  C   UNL A   1      31.765  23.740  23.678  1.00  0.00     0.065 A 
ATOM     18  C   UNL A   1      31.367  24.919  23.031  1.00  0.00     0.012 A 
ATOM     19  C   UNL A   1      32.735  22.879  23.132  1.00  0.00     0.028 A 
ATOM     20  C   UNL A   1      31.954  25.220  21.780  1.00  0.00     0.011 A 
ATOM     21  C   UNL A   1      33.313  23.223  21.909  1.00  0.00     0.002 A 
ATOM     22  C   UNL A   1      32.925  24.373  21.236  1.00  0.00     0.001 A 
BRANCH  15  23
ATOM     23  S   UNL A   1      31.266  22.541  26.090  1.00  0.00     0.268 S 
ATOM     24  O   UNL A   1      29.952  21.974  26.300  1.00  0.00    -0.201 OA
ATOM     25  O   UNL A   1      32.004  23.218  27.140  1.00  0.00    -0.201 OA
BRANCH  23  26
ATOM     26  C   UNL A   1      32.314  21.255  25.454  1.00  0.00     0.088 A 
ATOM     27  C   UNL A   1      34.988  18.092  24.284  1.00  0.00     0.044 C 
ATOM     28  C   UNL A   1      34.055  19.201  24.671  1.00  0.00    -0.051 A 
ATOM     29  C   UNL A   1      34.516  20.248  25.478  1.00  0.00     0.005 A 
ATOM     30  C   UNL A   1      32.725  19.210  24.234  1.00  0.00     0.005 A 
ATOM     31  C   UNL A   1      33.649  21.269  25.874  1.00  0.00     0.022 A 
ATOM     32  C   UNL A   1      31.857  20.239  24.613  1.00  0.00     0.022 A 
ENDBRANCH  23  26
ENDBRANCH  15  23
ENDBRANCH  12  14
ENDBRANCH   9  12
ENDBRANCH   7   8
ENDBRANCH   4   7
ENDBRANCH   2   3
ENDBRANCH   1   2
BRANCH   1  33
ATOM     33  C   UNL A   1      35.031  24.105  25.020  1.00  0.00     0.002 C 
BRANCH  33  34
ATOM     34  C   UNL A   1      36.491  24.115  24.539  1.00  0.00     0.002 C 
BRANCH  34  35
ATOM     35  C   UNL A   1      37.251  22.804  24.724  1.00  0.00     0.021 C 
BRANCH  35  36
ATOM     36  C   UNL A   1      37.390  22.378  26.176  1.00  0.00     0.116 C 
BRANCH  36  37
ATOM     37  N   UNL A   1      38.779  22.121  26.536  1.00  0.00    -0.352 N 
ATOM     38  C   UNL A   1      39.854  22.977  26.364  1.00  0.00     0.251 C 
ATOM     39  H   UNL A   1      38.973  21.247  26.945  1.00  0.00     0.163 HD
ATOM     40  O   UNL A   1      40.993  22.607  26.114  1.00  0.00    -0.269 OA
BRANCH  38  41
ATOM     41  C   UNL A   1      39.587  24.391  26.682  1.00  0.00     0.039 A 
ATOM     42  C   UNL A   1      40.349  25.340  25.986  1.00  0.00     0.014 A 
ATOM     43  C   UNL A   1      38.968  24.684  27.890  1.00  0.00     0.014 A 
ATOM     44  C   UNL A   1      40.699  26.516  26.624  1.00  0.00     0.010 A 
ATOM     45  C   UNL A   1      39.431  25.772  28.576  1.00  0.00     0.010 A 
ATOM     46  C   UNL A   1      40.329  26.650  27.953  1.00  0.00    -0.014 A 
BRANCH  46  47
ATOM     47  C   UNL A   1      40.748  27.731  28.812  1.00  0.00     0.031 A 
ATOM     48  C   UNL A   1      39.895  28.926  28.794  1.00  0.00     0.074 A 
ATOM     49  C   UNL A   1      41.698  27.453  29.729  1.00  0.00     0.049 A 
ATOM     50  N   UNL A   1      40.189  30.041  29.351  1.00  0.00    -0.248 NA
ATOM     51  C   UNL A   1      38.614  28.963  28.083  1.00  0.00     0.031 C 
ATOM     52  C   UNL A   1      42.019  28.150  30.966  1.00  0.00     0.029 A 
ATOM     53  N   UNL A   1      42.740  26.542  29.575  1.00  0.00    -0.354 N 
ATOM     54  C   UNL A   1      39.026  30.782  29.393  1.00  0.00     0.074 A 
ATOM     55  C   UNL A   1      38.118  30.134  28.486  1.00  0.00     0.031 C 
ATOM     56  C   UNL A   1      43.283  27.846  31.319  1.00  0.00     0.029 A 
ATOM     57  C   UNL A   1      43.862  27.078  30.222  1.00  0.00     0.049 A 
ATOM     58  H   UNL A   1      42.696  25.680  29.099  1.00  0.00     0.167 HD
ATOM     59  C   UNL A   1      38.926  31.750  30.342  1.00  0.00     0.031 A 
ATOM     60  C   UNL A   1      44.909  27.515  29.455  1.00  0.00     0.031 A 
ATOM     61  C   UNL A   1      40.220  31.926  31.004  1.00  0.00     0.049 A 
ATOM     62  C   UNL A   1      45.042  29.028  29.487  1.00  0.00     0.074 A 
ATOM     63  C   UNL A   1      40.736  31.443  32.195  1.00  0.00     0.029 A 
ATOM     64  N   UNL A   1      41.309  32.312  30.228  1.00  0.00    -0.354 N 
ATOM     65  N   UNL A   1      44.060  29.854  29.746  1.00  0.00    -0.248 NA
ATOM     66  C   UNL A   1      46.317  29.715  29.318  1.00  0.00     0.031 C 
ATOM     67  C   UNL A   1      42.157  31.431  32.074  1.00  0.00     0.029 A 
ATOM     68  C   UNL A   1      42.496  31.934  30.827  1.00  0.00     0.049 A 
ATOM     69  H   UNL A   1      41.243  32.789  29.370  1.00  0.00     0.167 HD
ATOM     70  C   UNL A   1      44.545  31.135  29.837  1.00  0.00     0.074 A 
ATOM     71  C   UNL A   1      45.964  30.992  29.554  1.00  0.00     0.031 C 
ATOM     72  C   UNL A   1      43.766  32.213  30.165  1.00  0.00     0.031 A 
BRANCH  59  73
ATOM     73  C   UNL A   1      37.625  32.314  30.863  1.00  0.00    -0.014 A 
ATOM     74  C   UNL A   1      37.518  33.709  31.038  1.00  0.00     0.010 A 
ATOM     75  C   UNL A   1      36.506  31.555  31.263  1.00  0.00     0.010 A 
ATOM     76  C   UNL A   1      36.387  34.307  31.612  1.00  0.00     0.020 A 
ATOM     77  C   UNL A   1      35.369  32.139  31.847  1.00  0.00     0.020 A 
ATOM     78  C   UNL A   1      35.319  33.516  32.020  1.00  0.00     0.054 A 
BRANCH  78  79
ATOM     79  S   UNL A   1      33.866  34.312  32.752  1.00  0.00     0.124 S 
ATOM     80  O   UNL A   1      33.227  34.929  31.594  1.00  0.00    -0.237 OA
ATOM     81  O   UNL A   1      33.152  33.180  33.338  1.00  0.00    -0.237 OA
ATOM     82  O   UNL A   1      34.433  35.252  33.718  1.00  0.00    -0.744 OA
ENDBRANCH  78  79
ENDBRANCH  59  73
BRANCH  60  83
ATOM     83  C   UNL A   1      45.177  26.611  28.286  1.00  0.00    -0.014 A 
ATOM     84  C   UNL A   1      44.756  27.075  27.016  1.00  0.00     0.010 A 
ATOM     85  C   UNL A   1      46.186  25.632  28.334  1.00  0.00     0.010 A 
ATOM     86  C   UNL A   1      45.455  26.729  25.854  1.00  0.00     0.020 A 
ATOM     87  C   UNL A   1      46.875  25.266  27.161  1.00  0.00     0.020 A 
ATOM     88  C   UNL A   1      46.551  25.874  25.944  1.00  0.00     0.054 A 
BRANCH  88  89
ATOM     89  S   UNL A   1      47.651  25.741  24.496  1.00  0.00     0.124 S 
ATOM     90  O   UNL A   1      47.216  24.488  23.891  1.00  0.00    -0.237 OA
ATOM     91  O   UNL A   1      47.323  26.954  23.739  1.00  0.00    -0.237 OA
ATOM     92  O   UNL A   1      48.986  25.723  25.082  1.00  0.00    -0.744 OA
ENDBRANCH  88  89
ENDBRANCH  60  83
BRANCH  72  93
ATOM     93  C   UNL A   1      44.144  33.668  29.964  1.00  0.00    -0.014 A 
ATOM     94  C   UNL A   1      43.820  34.418  28.824  1.00  0.00     0.010 A 
ATOM     95  C   UNL A   1      44.747  34.378  31.034  1.00  0.00     0.010 A 
ATOM     96  C   UNL A   1      44.153  35.774  28.723  1.00  0.00     0.020 A 
ATOM     97  C   UNL A   1      45.016  35.746  30.975  1.00  0.00     0.020 A 
ATOM     98  C   UNL A   1      44.749  36.430  29.798  1.00  0.00     0.054 A 
BRANCH  98  99
ATOM     99  S   UNL A   1      45.135  38.187  29.655  1.00  0.00     0.124 S 
ATOM    100  O   UNL A   1      44.426  38.743  30.804  1.00  0.00    -0.237 OA
ATOM    101  O   UNL A   1      46.594  38.204  29.752  1.00  0.00    -0.237 OA
ATOM    102  O   UNL A   1      44.600  38.557  28.348  1.00  0.00    -0.744 OA
ENDBRANCH  98  99
ENDBRANCH  72  93
ENDBRANCH  46  47
ENDBRANCH  38  41
ENDBRANCH  36  37
ENDBRANCH  35  36
ENDBRANCH  34  35
ENDBRANCH  33  34
ENDBRANCH   1  33
TORSDOF 21
ENDMDL
MODEL 3
REMARK VINA RESULT:     -10.6      4.133     10.952
REMARK SMILES Cc1ccc(S(=O)(=O)n2cc(C(=O)C(=O)NCC(=O)NCCCCCCNC(=O)c3ccc(-c4c5nc(c(-c6ccc(S(=O)(=O)[O-])cc6)c6ccc([nH]6)c(-c6ccc(S(=O)(=O)[O-])cc6)c6nc(c(-c7ccc(S(=O)(=O)[O-])cc7)c7ccc4[nH]7)C=C6)C=C5)cc3)c3ccccc32)cc1
REMARK SMILES IDX 22 1 21 2 20 3 18 4 19 5 17 7 16 8 14 9 15 10 12 12 13 13
REMARK SMILES IDX 11 14 9 15 10 16 95 17 90 18 94 19 91 20 93 21 92 22 6 23
REMARK SMILES IDX 7 24 8 25 5 26 1 27 2 28 3 29 97 30 4 31 96 32 23 33 24 34
REMARK SMILES IDX 25 35 26 36 27 37 28 38 29 40 30 41 31 42 89 43 32 44 88 45
REMARK SMILES IDX 33 46 34 47 35 48 82 49 36 50 87 51 81 52 83 53 37 54 86 55
REMARK SMILES IDX 80 56 79 57 38 59 68 60 49 61 67 62 50 63 53 64 66 65 84 66
REMARK SMILES IDX 51 67 52 68 65 70 85 71 54 72 39 73 40 74 48 75 41 76 47 77
REMARK SMILES IDX 42 78 43 79 44 80 45 81 46 82 69 83 70 84 78 85 71 86 77 87
REMARK SMILES IDX 72 88 73 89 74 90 75 91 76 92 55 93 56 94 64 95 57 96 63 97
REMARK SMILES IDX 58 98 59 99 60 100 61 101 62 102
REMARK H PARENT 20 6 16 11 27 39 83 58 53 69
REMARK Flexibility Score: inf
ROOT
ATOM      1  C   UNL A   1      34.639  23.938  24.186  1.00  0.00     0.021 C 
ENDROOT
BRANCH   1   2
ATOM      2  C   UNL A   1      33.548  24.788  23.540  1.00  0.00     0.116 C 
BRANCH   2   3
ATOM      3  N   UNL A   1      33.923  26.186  23.498  1.00  0.00    -0.355 N 
ATOM      4  C   UNL A   1      33.187  27.290  23.811  1.00  0.00     0.239 C 
ATOM      5  O   UNL A   1      33.740  28.392  23.779  1.00  0.00    -0.273 OA
ATOM      6  H   UNL A   1      34.843  26.365  23.197  1.00  0.00     0.163 HD
BRANCH   4   7
ATOM      7  C   UNL A   1      31.757  27.141  24.342  1.00  0.00     0.216 C 
BRANCH   7   8
ATOM      8  N   UNL A   1      31.644  27.145  25.796  1.00  0.00    -0.340 N 
ATOM      9  C   UNL A   1      31.571  28.188  26.697  1.00  0.00     0.292 C 
ATOM     10  O   UNL A   1      31.398  27.924  27.881  1.00  0.00    -0.265 OA
ATOM     11  H   UNL A   1      31.613  26.250  26.205  1.00  0.00     0.164 HD
BRANCH   9  12
ATOM     12  C   UNL A   1      31.722  29.664  26.238  1.00  0.00     0.252 C 
ATOM     13  O   UNL A   1      31.030  30.055  25.303  1.00  0.00    -0.283 OA
BRANCH  12  14
ATOM     14  C   UNL A   1      32.659  30.594  26.896  1.00  0.00     0.054 A 
ATOM     15  N   UNL A   1      33.572  32.424  27.800  1.00  0.00    -0.240 N 
ATOM     16  C   UNL A   1      32.409  31.892  27.303  1.00  0.00     0.117 A 
ATOM     17  C   UNL A   1      34.596  31.502  27.768  1.00  0.00     0.065 A 
ATOM     18  C   UNL A   1      34.047  30.341  27.204  1.00  0.00     0.012 A 
ATOM     19  C   UNL A   1      35.950  31.580  28.143  1.00  0.00     0.028 A 
ATOM     20  C   UNL A   1      34.891  29.219  27.038  1.00  0.00     0.011 A 
ATOM     21  C   UNL A   1      36.761  30.463  27.939  1.00  0.00     0.002 A 
ATOM     22  C   UNL A   1      36.240  29.294  27.401  1.00  0.00     0.001 A 
BRANCH  15  23
ATOM     23  S   UNL A   1      33.741  34.055  28.273  1.00  0.00     0.268 S 
ATOM     24  O   UNL A   1      32.425  34.632  28.108  1.00  0.00    -0.201 OA
ATOM     25  O   UNL A   1      34.906  34.545  27.559  1.00  0.00    -0.201 OA
BRANCH  23  26
ATOM     26  C   UNL A   1      34.132  34.086  30.004  1.00  0.00     0.088 A 
ATOM     27  C   UNL A   1      34.725  34.328  34.261  1.00  0.00     0.044 C 
ATOM     28  C   UNL A   1      34.540  34.242  32.775  1.00  0.00    -0.051 A 
ATOM     29  C   UNL A   1      34.067  35.353  32.067  1.00  0.00     0.005 A 
ATOM     30  C   UNL A   1      34.837  33.064  32.078  1.00  0.00     0.005 A 
ATOM     31  C   UNL A   1      33.858  35.276  30.688  1.00  0.00     0.022 A 
ATOM     32  C   UNL A   1      34.646  32.986  30.695  1.00  0.00     0.022 A 
ENDBRANCH  23  26
ENDBRANCH  15  23
ENDBRANCH  12  14
ENDBRANCH   9  12
ENDBRANCH   7   8
ENDBRANCH   4   7
ENDBRANCH   2   3
ENDBRANCH   1   2
BRANCH   1  33
ATOM     33  C   UNL A   1      35.301  22.936  23.228  1.00  0.00     0.002 C 
BRANCH  33  34
ATOM     34  C   UNL A   1      36.804  22.697  23.440  1.00  0.00     0.002 C 
BRANCH  34  35
ATOM     35  C   UNL A   1      37.169  21.858  24.663  1.00  0.00     0.021 C 
BRANCH  35  36
ATOM     36  C   UNL A   1      37.792  22.662  25.791  1.00  0.00     0.116 C 
BRANCH  36  37
ATOM     37  N   UNL A   1      39.031  22.059  26.268  1.00  0.00    -0.352 N 
ATOM     38  C   UNL A   1      40.268  22.673  26.370  1.00  0.00     0.251 C 
ATOM     39  H   UNL A   1      38.982  21.116  26.548  1.00  0.00     0.163 HD
ATOM     40  O   UNL A   1      41.335  22.098  26.202  1.00  0.00    -0.269 OA
BRANCH  38  41
ATOM     41  C   UNL A   1      40.242  24.054  26.883  1.00  0.00     0.039 A 
ATOM     42  C   UNL A   1      40.569  25.064  25.967  1.00  0.00     0.014 A 
ATOM     43  C   UNL A   1      40.336  24.245  28.255  1.00  0.00     0.014 A 
ATOM     44  C   UNL A   1      41.230  26.191  26.420  1.00  0.00     0.010 A 
ATOM     45  C   UNL A   1      41.116  25.282  28.686  1.00  0.00     0.010 A 
ATOM     46  C   UNL A   1      41.595  26.217  27.757  1.00  0.00    -0.014 A 
BRANCH  46  47
ATOM     47  C   UNL A   1      42.425  27.233  28.357  1.00  0.00     0.031 A 
ATOM     48  C   UNL A   1      41.740  28.476  28.732  1.00  0.00     0.074 A 
ATOM     49  C   UNL A   1      43.658  26.859  28.758  1.00  0.00     0.049 A 
ATOM     50  N   UNL A   1      42.327  29.546  29.116  1.00  0.00    -0.248 NA
ATOM     51  C   UNL A   1      40.283  28.619  28.658  1.00  0.00     0.031 C 
ATOM     52  C   UNL A   1      44.538  27.482  29.736  1.00  0.00     0.029 A 
ATOM     53  N   UNL A   1      44.458  25.895  28.149  1.00  0.00    -0.354 N 
ATOM     54  C   UNL A   1      41.358  30.352  29.676  1.00  0.00     0.074 A 
ATOM     55  C   UNL A   1      40.100  29.799  29.253  1.00  0.00     0.031 C 
ATOM     56  C   UNL A   1      45.803  27.088  29.492  1.00  0.00     0.029 A 
ATOM     57  C   UNL A   1      45.785  26.335  28.243  1.00  0.00     0.049 A 
ATOM     58  H   UNL A   1      44.148  25.059  27.731  1.00  0.00     0.167 HD
ATOM     59  C   UNL A   1      41.755  31.283  30.584  1.00  0.00     0.031 A 
ATOM     60  C   UNL A   1      46.419  26.742  27.098  1.00  0.00     0.031 A 
ATOM     61  C   UNL A   1      43.217  31.353  30.610  1.00  0.00     0.049 A 
ATOM     62  C   UNL A   1      46.661  28.242  27.088  1.00  0.00     0.074 A 
ATOM     63  C   UNL A   1      44.166  30.790  31.446  1.00  0.00     0.029 A 
ATOM     64  N   UNL A   1      43.880  31.706  29.439  1.00  0.00    -0.354 N 
ATOM     65  N   UNL A   1      45.955  29.113  27.763  1.00  0.00    -0.248 NA
ATOM     66  C   UNL A   1      47.779  28.859  26.383  1.00  0.00     0.031 C 
ATOM     67  C   UNL A   1      45.385  30.698  30.711  1.00  0.00     0.029 A 
ATOM     68  C   UNL A   1      45.179  31.233  29.449  1.00  0.00     0.049 A 
ATOM     69  H   UNL A   1      43.478  32.224  28.704  1.00  0.00     0.167 HD
ATOM     70  C   UNL A   1      46.522  30.358  27.647  1.00  0.00     0.074 A 
ATOM     71  C   UNL A   1      47.659  30.143  26.766  1.00  0.00     0.031 C 
ATOM     72  C   UNL A   1      46.046  31.465  28.298  1.00  0.00     0.031 A 
BRANCH  59  73
ATOM     73  C   UNL A   1      40.859  31.900  31.632  1.00  0.00    -0.014 A 
ATOM     74  C   UNL A   1      40.987  33.278  31.900  1.00  0.00     0.010 A 
ATOM     75  C   UNL A   1      39.933  31.200  32.432  1.00  0.00     0.010 A 
ATOM     76  C   UNL A   1      40.270  33.911  32.925  1.00  0.00     0.020 A 
ATOM     77  C   UNL A   1      39.214  31.818  33.469  1.00  0.00     0.020 A 
ATOM     78  C   UNL A   1      39.389  33.174  33.710  1.00  0.00     0.054 A 
BRANCH  78  79
ATOM     79  S   UNL A   1      38.470  34.015  35.024  1.00  0.00     0.124 S 
ATOM     80  O   UNL A   1      37.599  32.957  35.528  1.00  0.00    -0.237 OA
ATOM     81  O   UNL A   1      39.535  34.439  35.929  1.00  0.00    -0.237 OA
ATOM     82  O   UNL A   1      37.781  35.101  34.328  1.00  0.00    -0.744 OA
ENDBRANCH  78  79
ENDBRANCH  59  73
BRANCH  60  83
ATOM     83  C   UNL A   1      46.081  25.875  25.920  1.00  0.00    -0.014 A 
ATOM     84  C   UNL A   1      47.090  24.984  25.478  1.00  0.00     0.010 A 
ATOM     85  C   UNL A   1      44.747  25.587  25.581  1.00  0.00     0.010 A 
ATOM     86  C   UNL A   1      46.761  23.751  24.902  1.00  0.00     0.020 A 
ATOM     87  C   UNL A   1      44.417  24.356  24.981  1.00  0.00     0.020 A 
ATOM     88  C   UNL A   1      45.422  23.419  24.715  1.00  0.00     0.054 A 
BRANCH  88  89
ATOM     89  S   UNL A   1      45.019  21.686  24.317  1.00  0.00     0.124 S 
ATOM     90  O   UNL A   1      44.155  21.306  25.429  1.00  0.00    -0.237 OA
ATOM     91  O   UNL A   1      44.355  21.808  23.015  1.00  0.00    -0.237 OA
ATOM     92  O   UNL A   1      46.322  21.032  24.285  1.00  0.00    -0.744 OA
ENDBRANCH  88  89
ENDBRANCH  60  83
BRANCH  72  93
ATOM     93  C   UNL A   1      46.402  32.902  27.970  1.00  0.00    -0.014 A 
ATOM     94  C   UNL A   1      47.302  33.682  28.709  1.00  0.00     0.010 A 
ATOM     95  C   UNL A   1      45.910  33.476  26.769  1.00  0.00     0.010 A 
ATOM     96  C   UNL A   1      47.627  34.987  28.322  1.00  0.00     0.020 A 
ATOM     97  C   UNL A   1      46.285  34.748  26.333  1.00  0.00     0.020 A 
ATOM     98  C   UNL A   1      47.117  35.513  27.136  1.00  0.00     0.054 A 
BRANCH  98  99
ATOM     99  S   UNL A   1      47.581  37.185  26.641  1.00  0.00     0.124 S 
ATOM    100  O   UNL A   1      48.285  36.939  25.385  1.00  0.00    -0.237 OA
ATOM    101  O   UNL A   1      46.287  37.853  26.513  1.00  0.00    -0.237 OA
ATOM    102  O   UNL A   1      48.413  37.658  27.744  1.00  0.00    -0.744 OA
ENDBRANCH  98  99
ENDBRANCH  72  93
ENDBRANCH  46  47
ENDBRANCH  38  41
ENDBRANCH  36  37
ENDBRANCH  35  36
ENDBRANCH  34  35
ENDBRANCH  33  34
ENDBRANCH   1  33
TORSDOF 21
ENDMDL
