MODEL 1
REMARK VINA RESULT:     -11.3      0.000      0.000
REMARK SMILES Cc1cscc1C(=O)Nc1cc(Br)ccc1C(=O)NCCCCCCNC(=O)c1ccc(-c2c3nc(c(-c4ccc(S(=O)(=O)[O-])cc4)c4ccc([nH]4)c(-c4ccc(S(=O)(=O)[O-])cc4)c4nc(c(-c5ccc(S(=O)(=O)[O-])cc5)c5ccc2[nH]5)C=C4)C=C3)cc1
REMARK SMILES IDX 23 1 22 2 21 3 20 4 19 5 17 6 18 7 16 9 10 10 11 11 12 12
REMARK SMILES IDX 15 13 13 14 14 15 9 16 7 17 8 18 6 20 1 21 2 22 3 23 4 24
REMARK SMILES IDX 5 25 24 26 25 27 26 28 27 29 28 31 29 32 30 33 88 34 31 35
REMARK SMILES IDX 87 36 32 37 33 38 34 39 81 40 35 41 86 42 80 43 82 44 36 45
REMARK SMILES IDX 85 46 79 47 78 48 37 50 67 51 48 52 66 53 49 54 52 55 65 56
REMARK SMILES IDX 83 57 50 58 51 59 64 61 84 62 53 63 38 64 39 65 47 66 40 67
REMARK SMILES IDX 46 68 41 69 42 70 43 71 44 72 45 73 68 74 69 75 77 76 70 77
REMARK SMILES IDX 76 78 71 79 72 80 73 81 74 82 75 83 54 84 55 85 63 86 56 87
REMARK SMILES IDX 62 88 57 89 58 90 59 91 60 92 61 93
REMARK H PARENT 19 8 9 19 26 30 82 49 52 60
REMARK Flexibility Score: inf
ROOT
ATOM      1  C   UNL A   1      31.370  26.767  26.516  1.00  0.00     0.002 C 
ENDROOT
BRANCH   1   2
ATOM      2  C   UNL A   1      31.202  25.510  25.657  1.00  0.00     0.002 C 
BRANCH   2   3
ATOM      3  C   UNL A   1      31.066  24.168  26.377  1.00  0.00     0.021 C 
BRANCH   3   4
ATOM      4  C   UNL A   1      30.834  22.936  25.512  1.00  0.00     0.116 C 
BRANCH   4   5
ATOM      5  N   UNL A   1      31.583  22.863  24.284  1.00  0.00    -0.352 N 
ATOM      6  C   UNL A   1      32.308  21.850  23.706  1.00  0.00     0.253 C 
ATOM      7  O   UNL A   1      32.844  22.146  22.630  1.00  0.00    -0.269 OA
ATOM      8  H   UNL A   1      31.573  23.697  23.760  1.00  0.00     0.163 HD
BRANCH   6   9
ATOM      9  C   UNL A   1      32.541  20.451  24.235  1.00  0.00     0.063 A 
ATOM     10  C   UNL A   1      32.889  20.000  25.527  1.00  0.00     0.055 A 
ATOM     11  C   UNL A   1      32.897  18.625  25.835  1.00  0.00     0.042 A 
ATOM     12  C   UNL A   1      32.665  17.676  24.846  1.00  0.00     0.020 A 
ATOM     13  C   UNL A   1      32.366  19.449  23.248  1.00  0.00     0.017 A 
ATOM     14  Br  UNL A   1      32.706  15.838  25.274  1.00  0.00    -0.051 Br
ATOM     15  C   UNL A   1      32.439  18.082  23.541  1.00  0.00     0.016 A 
BRANCH  10  16
ATOM     16  N   UNL A   1      33.100  20.847  26.602  1.00  0.00    -0.321 N 
ATOM     17  C   UNL A   1      34.093  21.764  26.880  1.00  0.00     0.256 C 
ATOM     18  O   UNL A   1      33.987  22.270  28.006  1.00  0.00    -0.269 OA
ATOM     19  H   UNL A   1      32.411  20.781  27.301  1.00  0.00     0.170 HD
BRANCH  17  20
ATOM     20  C   UNL A   1      35.131  22.272  25.941  1.00  0.00     0.053 A 
ATOM     21  C   UNL A   1      34.730  24.847  25.281  1.00  0.00     0.046 C 
ATOM     22  C   UNL A   1      35.419  23.527  25.239  1.00  0.00    -0.028 A 
ATOM     23  C   UNL A   1      36.533  23.407  24.417  1.00  0.00     0.069 A 
ATOM     24  S   UNL A   1      37.347  21.933  24.578  1.00  0.00    -0.151 S 
ATOM     25  C   UNL A   1      36.185  21.389  25.687  1.00  0.00     0.079 A 
ENDBRANCH  17  20
ENDBRANCH  10  16
ENDBRANCH   6   9
ENDBRANCH   4   5
ENDBRANCH   3   4
ENDBRANCH   2   3
ENDBRANCH   1   2
BRANCH   1  26
ATOM     26  C   UNL A   1      32.457  27.763  26.105  1.00  0.00     0.021 C 
BRANCH  26  27
ATOM     27  C   UNL A   1      33.383  28.257  27.211  1.00  0.00     0.116 C 
BRANCH  27  28
ATOM     28  N   UNL A   1      33.312  29.693  27.414  1.00  0.00    -0.352 N 
ATOM     29  C   UNL A   1      34.250  30.557  27.923  1.00  0.00     0.251 C 
ATOM     30  H   UNL A   1      32.461  30.111  27.147  1.00  0.00     0.163 HD
ATOM     31  O   UNL A   1      33.944  31.725  28.138  1.00  0.00    -0.269 OA
BRANCH  29  32
ATOM     32  C   UNL A   1      35.618  30.082  28.237  1.00  0.00     0.039 A 
ATOM     33  C   UNL A   1      36.574  30.075  27.218  1.00  0.00     0.014 A 
ATOM     34  C   UNL A   1      35.958  29.630  29.515  1.00  0.00     0.014 A 
ATOM     35  C   UNL A   1      37.884  29.674  27.496  1.00  0.00     0.010 A 
ATOM     36  C   UNL A   1      37.281  29.301  29.808  1.00  0.00     0.010 A 
ATOM     37  C   UNL A   1      38.258  29.317  28.801  1.00  0.00    -0.014 A 
BRANCH  37  38
ATOM     38  C   UNL A   1      39.665  28.966  29.130  1.00  0.00     0.031 A 
ATOM     39  C   UNL A   1      40.572  29.981  29.774  1.00  0.00     0.074 A 
ATOM     40  C   UNL A   1      40.144  27.750  28.799  1.00  0.00     0.049 A 
ATOM     41  N   UNL A   1      41.837  29.872  30.094  1.00  0.00    -0.248 NA
ATOM     42  C   UNL A   1      39.988  31.297  30.082  1.00  0.00     0.031 C 
ATOM     43  C   UNL A   1      39.377  26.690  28.138  1.00  0.00     0.029 A 
ATOM     44  N   UNL A   1      41.390  27.200  28.967  1.00  0.00    -0.354 N 
ATOM     45  C   UNL A   1      42.203  31.103  30.624  1.00  0.00     0.074 A 
ATOM     46  C   UNL A   1      41.042  31.961  30.537  1.00  0.00     0.031 C 
ATOM     47  C   UNL A   1      40.160  25.612  27.983  1.00  0.00     0.029 A 
ATOM     48  C   UNL A   1      41.495  25.914  28.488  1.00  0.00     0.049 A 
ATOM     49  H   UNL A   1      42.139  27.680  29.389  1.00  0.00     0.167 HD
ATOM     50  C   UNL A   1      43.392  31.482  31.151  1.00  0.00     0.031 A 
ATOM     51  C   UNL A   1      42.549  25.075  28.449  1.00  0.00     0.031 A 
ATOM     52  C   UNL A   1      44.545  30.624  31.236  1.00  0.00     0.049 A 
ATOM     53  C   UNL A   1      43.867  25.527  29.018  1.00  0.00     0.074 A 
ATOM     54  C   UNL A   1      45.780  30.897  31.800  1.00  0.00     0.029 A 
ATOM     55  N   UNL A   1      44.611  29.331  30.740  1.00  0.00    -0.354 N 
ATOM     56  N   UNL A   1      44.174  26.674  29.577  1.00  0.00    -0.248 NA
ATOM     57  C   UNL A   1      44.978  24.567  28.963  1.00  0.00     0.031 C 
ATOM     58  C   UNL A   1      46.611  29.793  31.588  1.00  0.00     0.029 A 
ATOM     59  C   UNL A   1      45.874  28.804  30.956  1.00  0.00     0.049 A 
ATOM     60  H   UNL A   1      43.869  28.857  30.299  1.00  0.00     0.167 HD
ATOM     61  C   UNL A   1      45.505  26.561  29.966  1.00  0.00     0.074 A 
ATOM     62  C   UNL A   1      45.938  25.231  29.593  1.00  0.00     0.031 C 
ATOM     63  C   UNL A   1      46.294  27.477  30.579  1.00  0.00     0.031 A 
BRANCH  50  64
ATOM     64  C   UNL A   1      43.510  32.893  31.669  1.00  0.00    -0.014 A 
ATOM     65  C   UNL A   1      43.361  33.184  33.037  1.00  0.00     0.010 A 
ATOM     66  C   UNL A   1      43.818  33.941  30.781  1.00  0.00     0.010 A 
ATOM     67  C   UNL A   1      43.474  34.497  33.501  1.00  0.00     0.020 A 
ATOM     68  C   UNL A   1      43.965  35.251  31.244  1.00  0.00     0.020 A 
ATOM     69  C   UNL A   1      43.774  35.524  32.600  1.00  0.00     0.054 A 
BRANCH  69  70
ATOM     70  S   UNL A   1      43.937  37.215  33.235  1.00  0.00     0.124 S 
ATOM     71  O   UNL A   1      42.699  37.373  33.994  1.00  0.00    -0.237 OA
ATOM     72  O   UNL A   1      45.157  37.141  34.034  1.00  0.00    -0.237 OA
ATOM     73  O   UNL A   1      44.034  38.032  32.028  1.00  0.00    -0.744 OA
ENDBRANCH  69  70
ENDBRANCH  50  64
BRANCH  51  74
ATOM     74  C   UNL A   1      42.397  23.716  27.857  1.00  0.00    -0.014 A 
ATOM     75  C   UNL A   1      42.509  23.523  26.468  1.00  0.00     0.010 A 
ATOM     76  C   UNL A   1      42.152  22.604  28.683  1.00  0.00     0.010 A 
ATOM     77  C   UNL A   1      42.359  22.247  25.916  1.00  0.00     0.020 A 
ATOM     78  C   UNL A   1      42.034  21.322  28.138  1.00  0.00     0.020 A 
ATOM     79  C   UNL A   1      42.126  21.154  26.755  1.00  0.00     0.054 A 
BRANCH  79  80
ATOM     80  S   UNL A   1      41.986  19.501  26.019  1.00  0.00     0.124 S 
ATOM     81  O   UNL A   1      42.443  18.644  27.108  1.00  0.00    -0.237 OA
ATOM     82  O   UNL A   1      40.562  19.418  25.703  1.00  0.00    -0.237 OA
ATOM     83  O   UNL A   1      42.871  19.567  24.859  1.00  0.00    -0.744 OA
ENDBRANCH  79  80
ENDBRANCH  51  74
BRANCH  63  84
ATOM     84  C   UNL A   1      47.701  27.063  30.923  1.00  0.00    -0.014 A 
ATOM     85  C   UNL A   1      48.739  27.133  29.977  1.00  0.00     0.010 A 
ATOM     86  C   UNL A   1      48.000  26.650  32.236  1.00  0.00     0.010 A 
ATOM     87  C   UNL A   1      50.042  26.764  30.328  1.00  0.00     0.020 A 
ATOM     88  C   UNL A   1      49.306  26.313  32.599  1.00  0.00     0.020 A 
ATOM     89  C   UNL A   1      50.316  26.359  31.638  1.00  0.00     0.054 A 
BRANCH  89  90
ATOM     90  S   UNL A   1      52.023  25.931  32.078  1.00  0.00     0.124 S 
ATOM     91  O   UNL A   1      51.989  24.472  32.050  1.00  0.00    -0.237 OA
ATOM     92  O   UNL A   1      52.796  26.563  31.012  1.00  0.00    -0.237 OA
ATOM     93  O   UNL A   1      52.200  26.524  33.401  1.00  0.00    -0.744 OA
ENDBRANCH  89  90
ENDBRANCH  63  84
ENDBRANCH  37  38
ENDBRANCH  29  32
ENDBRANCH  27  28
ENDBRANCH  26  27
ENDBRANCH   1  26
TORSDOF 18
ENDMDL
MODEL 2
REMARK VINA RESULT:     -10.5      4.335     10.011
REMARK SMILES Cc1cscc1C(=O)Nc1cc(Br)ccc1C(=O)NCCCCCCNC(=O)c1ccc(-c2c3nc(c(-c4ccc(S(=O)(=O)[O-])cc4)c4ccc([nH]4)c(-c4ccc(S(=O)(=O)[O-])cc4)c4nc(c(-c5ccc(S(=O)(=O)[O-])cc5)c5ccc2[nH]5)C=C4)C=C3)cc1
REMARK SMILES IDX 23 1 22 2 21 3 20 4 19 5 17 6 18 7 16 9 10 10 11 11 12 12
REMARK SMILES IDX 15 13 13 14 14 15 9 16 7 17 8 18 6 20 1 21 2 22 3 23 4 24
REMARK SMILES IDX 5 25 24 26 25 27 26 28 27 29 28 31 29 32 30 33 88 34 31 35
REMARK SMILES IDX 87 36 32 37 33 38 34 39 81 40 35 41 86 42 80 43 82 44 36 45
REMARK SMILES IDX 85 46 79 47 78 48 37 50 67 51 48 52 66 53 49 54 52 55 65 56
REMARK SMILES IDX 83 57 50 58 51 59 64 61 84 62 53 63 38 64 39 65 47 66 40 67
REMARK SMILES IDX 46 68 41 69 42 70 43 71 44 72 45 73 68 74 69 75 77 76 70 77
REMARK SMILES IDX 76 78 71 79 72 80 73 81 74 82 75 83 54 84 55 85 63 86 56 87
REMARK SMILES IDX 62 88 57 89 58 90 59 91 60 92 61 93
REMARK H PARENT 19 8 9 19 26 30 82 49 52 60
REMARK Flexibility Score: inf
ROOT
ATOM      1  C   UNL A   1      40.593  22.121  26.557  1.00  0.00     0.002 C 
ENDROOT
BRANCH   1   2
ATOM      2  C   UNL A   1      39.231  22.822  26.552  1.00  0.00     0.002 C 
BRANCH   2   3
ATOM      3  C   UNL A   1      38.111  22.195  25.719  1.00  0.00     0.021 C 
BRANCH   3   4
ATOM      4  C   UNL A   1      36.839  23.012  25.540  1.00  0.00     0.116 C 
BRANCH   4   5
ATOM      5  N   UNL A   1      35.954  23.080  26.674  1.00  0.00    -0.352 N 
ATOM      6  C   UNL A   1      34.769  22.445  26.958  1.00  0.00     0.253 C 
ATOM      7  O   UNL A   1      34.262  22.757  28.042  1.00  0.00    -0.269 OA
ATOM      8  H   UNL A   1      36.255  23.698  27.379  1.00  0.00     0.163 HD
BRANCH   6   9
ATOM      9  C   UNL A   1      34.019  21.446  26.102  1.00  0.00     0.063 A 
ATOM     10  C   UNL A   1      32.634  21.268  25.892  1.00  0.00     0.055 A 
ATOM     11  C   UNL A   1      32.160  20.368  24.918  1.00  0.00     0.042 A 
ATOM     12  C   UNL A   1      33.043  19.557  24.214  1.00  0.00     0.020 A 
ATOM     13  C   UNL A   1      34.877  20.561  25.403  1.00  0.00     0.017 A 
ATOM     14  Br  UNL A   1      32.385  18.338  22.931  1.00  0.00    -0.051 Br
ATOM     15  C   UNL A   1      34.400  19.620  24.482  1.00  0.00     0.016 A 
BRANCH  10  16
ATOM     16  N   UNL A   1      31.662  22.045  26.501  1.00  0.00    -0.321 N 
ATOM     17  C   UNL A   1      31.386  23.395  26.449  1.00  0.00     0.256 C 
ATOM     18  O   UNL A   1      30.479  23.737  27.220  1.00  0.00    -0.269 OA
ATOM     19  H   UNL A   1      31.053  21.535  27.082  1.00  0.00     0.170 HD
BRANCH  17  20
ATOM     20  C   UNL A   1      31.952  24.389  25.495  1.00  0.00     0.053 A 
ATOM     21  C   UNL A   1      31.164  23.933  22.966  1.00  0.00     0.046 C 
ATOM     22  C   UNL A   1      31.907  24.635  24.051  1.00  0.00    -0.028 A 
ATOM     23  C   UNL A   1      32.702  25.716  23.692  1.00  0.00     0.069 A 
ATOM     24  S   UNL A   1      33.356  26.552  25.009  1.00  0.00    -0.151 S 
ATOM     25  C   UNL A   1      32.659  25.441  26.086  1.00  0.00     0.079 A 
ENDBRANCH  17  20
ENDBRANCH  10  16
ENDBRANCH   6   9
ENDBRANCH   4   5
ENDBRANCH   3   4
ENDBRANCH   2   3
ENDBRANCH   1   2
BRANCH   1  26
ATOM     26  C   UNL A   1      41.476  22.305  27.794  1.00  0.00     0.021 C 
BRANCH  26  27
ATOM     27  C   UNL A   1      42.627  23.297  27.668  1.00  0.00     0.116 C 
BRANCH  27  28
ATOM     28  N   UNL A   1      42.640  23.996  26.395  1.00  0.00    -0.352 N 
ATOM     29  C   UNL A   1      42.314  25.297  26.101  1.00  0.00     0.251 C 
ATOM     30  H   UNL A   1      42.925  23.453  25.624  1.00  0.00     0.163 HD
ATOM     31  O   UNL A   1      42.263  25.660  24.931  1.00  0.00    -0.269 OA
BRANCH  29  32
ATOM     32  C   UNL A   1      41.999  26.256  27.187  1.00  0.00     0.039 A 
ATOM     33  C   UNL A   1      40.939  25.965  28.049  1.00  0.00     0.014 A 
ATOM     34  C   UNL A   1      42.725  27.439  27.349  1.00  0.00     0.014 A 
ATOM     35  C   UNL A   1      40.648  26.829  29.110  1.00  0.00     0.010 A 
ATOM     36  C   UNL A   1      42.481  28.260  28.448  1.00  0.00     0.010 A 
ATOM     37  C   UNL A   1      41.438  27.966  29.340  1.00  0.00    -0.014 A 
BRANCH  37  38
ATOM     38  C   UNL A   1      41.193  28.850  30.510  1.00  0.00     0.031 A 
ATOM     39  C   UNL A   1      42.032  28.719  31.753  1.00  0.00     0.074 A 
ATOM     40  C   UNL A   1      40.177  29.736  30.473  1.00  0.00     0.049 A 
ATOM     41  N   UNL A   1      41.938  29.371  32.884  1.00  0.00    -0.248 NA
ATOM     42  C   UNL A   1      43.105  27.711  31.729  1.00  0.00     0.031 C 
ATOM     43  C   UNL A   1      39.267  29.935  29.341  1.00  0.00     0.029 A 
ATOM     44  N   UNL A   1      39.733  30.632  31.414  1.00  0.00    -0.354 N 
ATOM     45  C   UNL A   1      42.924  28.844  33.710  1.00  0.00     0.074 A 
ATOM     46  C   UNL A   1      43.573  27.785  32.968  1.00  0.00     0.031 C 
ATOM     47  C   UNL A   1      38.395  30.909  29.644  1.00  0.00     0.029 A 
ATOM     48  C   UNL A   1      38.650  31.373  31.004  1.00  0.00     0.049 A 
ATOM     49  H   UNL A   1      40.152  30.735  32.300  1.00  0.00     0.167 HD
ATOM     50  C   UNL A   1      43.270  29.218  34.965  1.00  0.00     0.031 A 
ATOM     51  C   UNL A   1      37.932  32.313  31.650  1.00  0.00     0.031 A 
ATOM     52  C   UNL A   1      42.622  30.274  35.699  1.00  0.00     0.049 A 
ATOM     53  C   UNL A   1      38.321  32.695  33.053  1.00  0.00     0.074 A 
ATOM     54  C   UNL A   1      42.933  30.763  36.956  1.00  0.00     0.029 A 
ATOM     55  N   UNL A   1      41.529  30.998  35.249  1.00  0.00    -0.354 N 
ATOM     56  N   UNL A   1      39.301  32.231  33.793  1.00  0.00    -0.248 NA
ATOM     57  C   UNL A   1      37.514  33.735  33.706  1.00  0.00     0.031 C 
ATOM     58  C   UNL A   1      41.990  31.739  37.291  1.00  0.00     0.029 A 
ATOM     59  C   UNL A   1      41.134  31.909  36.214  1.00  0.00     0.049 A 
ATOM     60  H   UNL A   1      41.097  30.882  34.371  1.00  0.00     0.167 HD
ATOM     61  C   UNL A   1      39.246  32.945  34.985  1.00  0.00     0.074 A 
ATOM     62  C   UNL A   1      38.148  33.880  34.862  1.00  0.00     0.031 C 
ATOM     63  C   UNL A   1      40.037  32.836  36.081  1.00  0.00     0.031 A 
BRANCH  50  64
ATOM     64  C   UNL A   1      44.399  28.472  35.631  1.00  0.00    -0.014 A 
ATOM     65  C   UNL A   1      45.730  28.913  35.522  1.00  0.00     0.010 A 
ATOM     66  C   UNL A   1      44.120  27.336  36.414  1.00  0.00     0.010 A 
ATOM     67  C   UNL A   1      46.764  28.209  36.146  1.00  0.00     0.020 A 
ATOM     68  C   UNL A   1      45.147  26.649  37.067  1.00  0.00     0.020 A 
ATOM     69  C   UNL A   1      46.467  27.080  36.914  1.00  0.00     0.054 A 
BRANCH  69  70
ATOM     70  S   UNL A   1      47.827  26.201  37.730  1.00  0.00     0.124 S 
ATOM     71  O   UNL A   1      48.297  27.198  38.689  1.00  0.00    -0.237 OA
ATOM     72  O   UNL A   1      47.156  25.040  38.310  1.00  0.00    -0.237 OA
ATOM     73  O   UNL A   1      48.752  25.903  36.639  1.00  0.00    -0.744 OA
ENDBRANCH  69  70
ENDBRANCH  50  64
BRANCH  51  74
ATOM     74  C   UNL A   1      36.778  32.966  30.972  1.00  0.00    -0.014 A 
ATOM     75  C   UNL A   1      35.476  32.837  31.487  1.00  0.00     0.010 A 
ATOM     76  C   UNL A   1      36.979  33.735  29.810  1.00  0.00     0.010 A 
ATOM     77  C   UNL A   1      34.394  33.446  30.843  1.00  0.00     0.020 A 
ATOM     78  C   UNL A   1      35.904  34.372  29.182  1.00  0.00     0.020 A 
ATOM     79  C   UNL A   1      34.617  34.213  29.697  1.00  0.00     0.054 A 
BRANCH  79  80
ATOM     80  S   UNL A   1      33.204  35.036  28.908  1.00  0.00     0.124 S 
ATOM     81  O   UNL A   1      32.742  34.016  27.972  1.00  0.00    -0.237 OA
ATOM     82  O   UNL A   1      32.322  35.302  30.041  1.00  0.00    -0.237 OA
ATOM     83  O   UNL A   1      33.797  36.224  28.297  1.00  0.00    -0.744 OA
ENDBRANCH  79  80
ENDBRANCH  51  74
BRANCH  63  84
ATOM     84  C   UNL A   1      39.771  33.777  37.227  1.00  0.00    -0.014 A 
ATOM     85  C   UNL A   1      38.842  33.462  38.235  1.00  0.00     0.010 A 
ATOM     86  C   UNL A   1      40.506  34.974  37.324  1.00  0.00     0.010 A 
ATOM     87  C   UNL A   1      38.630  34.342  39.300  1.00  0.00     0.020 A 
ATOM     88  C   UNL A   1      40.321  35.840  38.404  1.00  0.00     0.020 A 
ATOM     89  C   UNL A   1      39.373  35.524  39.378  1.00  0.00     0.054 A 
BRANCH  89  90
ATOM     90  S   UNL A   1      39.111  36.626  40.795  1.00  0.00     0.124 S 
ATOM     91  O   UNL A   1      38.316  35.789  41.690  1.00  0.00    -0.237 OA
ATOM     92  O   UNL A   1      40.473  36.906  41.240  1.00  0.00    -0.237 OA
ATOM     93  O   UNL A   1      38.403  37.769  40.221  1.00  0.00    -0.744 OA
ENDBRANCH  89  90
ENDBRANCH  63  84
ENDBRANCH  37  38
ENDBRANCH  29  32
ENDBRANCH  27  28
ENDBRANCH  26  27
ENDBRANCH   1  26
TORSDOF 18
ENDMDL
MODEL 3
REMARK VINA RESULT:     -10.4      1.504      8.509
REMARK SMILES Cc1cscc1C(=O)Nc1cc(Br)ccc1C(=O)NCCCCCCNC(=O)c1ccc(-c2c3nc(c(-c4ccc(S(=O)(=O)[O-])cc4)c4ccc([nH]4)c(-c4ccc(S(=O)(=O)[O-])cc4)c4nc(c(-c5ccc(S(=O)(=O)[O-])cc5)c5ccc2[nH]5)C=C4)C=C3)cc1
REMARK SMILES IDX 23 1 22 2 21 3 20 4 19 5 17 6 18 7 16 9 10 10 11 11 12 12
REMARK SMILES IDX 15 13 13 14 14 15 9 16 7 17 8 18 6 20 1 21 2 22 3 23 4 24
REMARK SMILES IDX 5 25 24 26 25 27 26 28 27 29 28 31 29 32 30 33 88 34 31 35
REMARK SMILES IDX 87 36 32 37 33 38 34 39 81 40 35 41 86 42 80 43 82 44 36 45
REMARK SMILES IDX 85 46 79 47 78 48 37 50 67 51 48 52 66 53 49 54 52 55 65 56
REMARK SMILES IDX 83 57 50 58 51 59 64 61 84 62 53 63 38 64 39 65 47 66 40 67
REMARK SMILES IDX 46 68 41 69 42 70 43 71 44 72 45 73 68 74 69 75 77 76 70 77
REMARK SMILES IDX 76 78 71 79 72 80 73 81 74 82 75 83 54 84 55 85 63 86 56 87
REMARK SMILES IDX 62 88 57 89 58 90 59 91 60 92 61 93
REMARK H PARENT 19 8 9 19 26 30 82 49 52 60
REMARK Flexibility Score: inf
ROOT
ATOM      1  C   UNL A   1      33.261  26.804  24.832  1.00  0.00     0.002 C 
ENDROOT
BRANCH   1   2
ATOM      2  C   UNL A   1      32.009  27.131  24.013  1.00  0.00     0.002 C 
BRANCH   2   3
ATOM      3  C   UNL A   1      30.693  26.473  24.431  1.00  0.00     0.021 C 
BRANCH   3   4
ATOM      4  C   UNL A   1      30.603  25.946  25.857  1.00  0.00     0.116 C 
BRANCH   4   5
ATOM      5  N   UNL A   1      30.226  24.565  26.009  1.00  0.00    -0.352 N 
ATOM      6  C   UNL A   1      30.942  23.397  25.903  1.00  0.00     0.253 C 
ATOM      7  O   UNL A   1      30.282  22.367  26.089  1.00  0.00    -0.269 OA
ATOM      8  H   UNL A   1      29.276  24.432  26.231  1.00  0.00     0.163 HD
BRANCH   6   9
ATOM      9  C   UNL A   1      32.410  23.231  25.569  1.00  0.00     0.063 A 
ATOM     10  C   UNL A   1      33.040  22.683  24.431  1.00  0.00     0.055 A 
ATOM     11  C   UNL A   1      34.436  22.777  24.261  1.00  0.00     0.042 A 
ATOM     12  C   UNL A   1      35.236  23.319  25.261  1.00  0.00     0.020 A 
ATOM     13  C   UNL A   1      33.267  23.723  26.584  1.00  0.00     0.017 A 
ATOM     14  Br  UNL A   1      37.106  23.413  25.025  1.00  0.00    -0.051 Br
ATOM     15  C   UNL A   1      34.660  23.757  26.443  1.00  0.00     0.016 A 
BRANCH  10  16
ATOM     16  N   UNL A   1      32.349  22.156  23.353  1.00  0.00    -0.321 N 
ATOM     17  C   UNL A   1      32.220  20.870  22.872  1.00  0.00     0.256 C 
ATOM     18  O   UNL A   1      31.584  20.807  21.811  1.00  0.00    -0.269 OA
ATOM     19  H   UNL A   1      31.857  22.829  22.830  1.00  0.00     0.170 HD
BRANCH  17  20
ATOM     20  C   UNL A   1      32.629  19.612  23.557  1.00  0.00     0.053 A 
ATOM     21  C   UNL A   1      32.967  19.959  26.201  1.00  0.00     0.046 C 
ATOM     22  C   UNL A   1      32.970  19.196  24.921  1.00  0.00    -0.028 A 
ATOM     23  C   UNL A   1      33.346  17.860  24.968  1.00  0.00     0.069 A 
ATOM     24  S   UNL A   1      33.143  17.040  23.502  1.00  0.00    -0.151 S 
ATOM     25  C   UNL A   1      32.627  18.470  22.750  1.00  0.00     0.079 A 
ENDBRANCH  17  20
ENDBRANCH  10  16
ENDBRANCH   6   9
ENDBRANCH   4   5
ENDBRANCH   3   4
ENDBRANCH   2   3
ENDBRANCH   1   2
BRANCH   1  26
ATOM     26  C   UNL A   1      33.976  27.968  25.523  1.00  0.00     0.021 C 
BRANCH  26  27
ATOM     27  C   UNL A   1      33.700  28.151  27.011  1.00  0.00     0.116 C 
BRANCH  27  28
ATOM     28  N   UNL A   1      33.513  29.540  27.390  1.00  0.00    -0.352 N 
ATOM     29  C   UNL A   1      34.377  30.407  28.012  1.00  0.00     0.251 C 
ATOM     30  H   UNL A   1      32.631  29.918  27.166  1.00  0.00     0.163 HD
ATOM     31  O   UNL A   1      33.977  31.511  28.367  1.00  0.00    -0.269 OA
BRANCH  29  32
ATOM     32  C   UNL A   1      35.779  30.008  28.280  1.00  0.00     0.039 A 
ATOM     33  C   UNL A   1      36.708  30.090  27.240  1.00  0.00     0.014 A 
ATOM     34  C   UNL A   1      36.177  29.540  29.535  1.00  0.00     0.014 A 
ATOM     35  C   UNL A   1      38.047  29.762  27.476  1.00  0.00     0.010 A 
ATOM     36  C   UNL A   1      37.524  29.285  29.788  1.00  0.00     0.010 A 
ATOM     37  C   UNL A   1      38.474  29.390  28.761  1.00  0.00    -0.014 A 
BRANCH  37  38
ATOM     38  C   UNL A   1      39.907  29.118  29.047  1.00  0.00     0.031 A 
ATOM     39  C   UNL A   1      40.511  27.781  28.707  1.00  0.00     0.074 A 
ATOM     40  C   UNL A   1      40.653  30.056  29.663  1.00  0.00     0.049 A 
ATOM     41  N   UNL A   1      41.727  27.347  28.920  1.00  0.00    -0.248 NA
ATOM     42  C   UNL A   1      39.628  26.796  28.061  1.00  0.00     0.031 C 
ATOM     43  C   UNL A   1      40.177  31.379  30.078  1.00  0.00     0.029 A 
ATOM     44  N   UNL A   1      41.969  30.043  30.055  1.00  0.00    -0.354 N 
ATOM     45  C   UNL A   1      41.752  26.039  28.451  1.00  0.00     0.074 A 
ATOM     46  C   UNL A   1      40.417  25.733  27.987  1.00  0.00     0.031 C 
ATOM     47  C   UNL A   1      41.191  32.056  30.638  1.00  0.00     0.029 A 
ATOM     48  C   UNL A   1      42.376  31.205  30.667  1.00  0.00     0.049 A 
ATOM     49  H   UNL A   1      42.566  29.273  29.911  1.00  0.00     0.167 HD
ATOM     50  C   UNL A   1      42.795  25.176  28.395  1.00  0.00     0.031 A 
ATOM     51  C   UNL A   1      43.565  31.547  31.202  1.00  0.00     0.031 A 
ATOM     52  C   UNL A   1      44.123  25.487  28.856  1.00  0.00     0.049 A 
ATOM     53  C   UNL A   1      44.702  30.563  31.150  1.00  0.00     0.074 A 
ATOM     54  C   UNL A   1      45.260  24.699  28.795  1.00  0.00     0.029 A 
ATOM     55  N   UNL A   1      44.493  26.673  29.470  1.00  0.00    -0.354 N 
ATOM     56  N   UNL A   1      44.723  29.354  30.640  1.00  0.00    -0.248 NA
ATOM     57  C   UNL A   1      45.979  30.992  31.735  1.00  0.00     0.031 C 
ATOM     58  C   UNL A   1      46.301  25.384  29.429  1.00  0.00     0.029 A 
ATOM     59  C   UNL A   1      45.832  26.628  29.821  1.00  0.00     0.049 A 
ATOM     60  H   UNL A   1      43.892  27.436  29.633  1.00  0.00     0.167 HD
ATOM     61  C   UNL A   1      46.023  28.892  30.816  1.00  0.00     0.074 A 
ATOM     62  C   UNL A   1      46.760  29.955  31.464  1.00  0.00     0.031 C 
ATOM     63  C   UNL A   1      46.556  27.694  30.468  1.00  0.00     0.031 A 
BRANCH  50  64
ATOM     64  C   UNL A   1      42.539  23.806  27.820  1.00  0.00    -0.014 A 
ATOM     65  C   UNL A   1      42.640  23.563  26.438  1.00  0.00     0.010 A 
ATOM     66  C   UNL A   1      42.234  22.733  28.679  1.00  0.00     0.010 A 
ATOM     67  C   UNL A   1      42.400  22.286  25.923  1.00  0.00     0.020 A 
ATOM     68  C   UNL A   1      42.025  21.448  28.172  1.00  0.00     0.020 A 
ATOM     69  C   UNL A   1      42.092  21.236  26.793  1.00  0.00     0.054 A 
BRANCH  69  70
ATOM     70  S   UNL A   1      41.808  19.586  26.096  1.00  0.00     0.124 S 
ATOM     71  O   UNL A   1      42.714  19.582  24.951  1.00  0.00    -0.237 OA
ATOM     72  O   UNL A   1      42.185  18.704  27.198  1.00  0.00    -0.237 OA
ATOM     73  O   UNL A   1      40.385  19.589  25.763  1.00  0.00    -0.744 OA
ENDBRANCH  69  70
ENDBRANCH  50  64
BRANCH  51  74
ATOM     74  C   UNL A   1      43.742  32.889  31.826  1.00  0.00    -0.014 A 
ATOM     75  C   UNL A   1      43.525  33.074  33.202  1.00  0.00     0.010 A 
ATOM     76  C   UNL A   1      44.143  33.988  31.044  1.00  0.00     0.010 A 
ATOM     77  C   UNL A   1      43.687  34.336  33.782  1.00  0.00     0.020 A 
ATOM     78  C   UNL A   1      44.337  35.244  31.626  1.00  0.00     0.020 A 
ATOM     79  C   UNL A   1      44.095  35.412  32.991  1.00  0.00     0.054 A 
BRANCH  79  80
ATOM     80  S   UNL A   1      44.347  37.029  33.776  1.00  0.00     0.124 S 
ATOM     81  O   UNL A   1      44.247  37.938  32.639  1.00  0.00    -0.237 OA
ATOM     82  O   UNL A   1      43.245  37.089  34.733  1.00  0.00    -0.237 OA
ATOM     83  O   UNL A   1      45.676  36.916  34.374  1.00  0.00    -0.744 OA
ENDBRANCH  79  80
ENDBRANCH  51  74
BRANCH  63  84
ATOM     84  C   UNL A   1      48.021  27.478  30.747  1.00  0.00    -0.014 A 
ATOM     85  C   UNL A   1      49.009  27.867  29.825  1.00  0.00     0.010 A 
ATOM     86  C   UNL A   1      48.416  26.925  31.981  1.00  0.00     0.010 A 
ATOM     87  C   UNL A   1      50.363  27.677  30.117  1.00  0.00     0.020 A 
ATOM     88  C   UNL A   1      49.769  26.764  32.289  1.00  0.00     0.020 A 
ATOM     89  C   UNL A   1      50.733  27.128  31.349  1.00  0.00     0.054 A 
BRANCH  89  90
ATOM     90  S   UNL A   1      52.498  26.935  31.721  1.00  0.00     0.124 S 
ATOM     91  O   UNL A   1      52.647  27.746  32.926  1.00  0.00    -0.237 OA
ATOM     92  O   UNL A   1      52.629  25.493  31.913  1.00  0.00    -0.237 OA
ATOM     93  O   UNL A   1      53.164  27.460  30.531  1.00  0.00    -0.744 OA
ENDBRANCH  89  90
ENDBRANCH  63  84
ENDBRANCH  37  38
ENDBRANCH  29  32
ENDBRANCH  27  28
ENDBRANCH  26  27
ENDBRANCH   1  26
TORSDOF 18
ENDMDL
