MODEL 1
REMARK VINA RESULT:     -10.4      0.000      0.000
REMARK SMILES Cc1cccc(Cl)c1Nc1ccccc1CC(=O)NCCCCCCNC(=O)c1ccc(-c2c3nc(c(-c4ccc(S(=O)(=O)[O-])cc4)c4ccc([nH]4)c(-c4ccc(S(=O)(=O)[O-])cc4)c4nc(c(-c5ccc(S(=O)(=O)[O-])cc5)c5ccc2[nH]5)C=C4)C=C3)cc1
REMARK SMILES IDX 22 1 21 2 20 3 19 4 17 5 18 6 16 8 15 9 10 10 11 11 12 12
REMARK SMILES IDX 14 13 13 14 9 15 8 17 1 18 2 19 3 20 4 21 6 22 5 23 7 24
REMARK SMILES IDX 23 25 24 26 25 27 26 28 27 29 28 31 29 32 30 33 88 34 31 35
REMARK SMILES IDX 87 36 32 37 33 38 34 39 81 40 35 41 86 42 80 43 82 44 36 45
REMARK SMILES IDX 85 46 79 47 78 48 37 50 67 51 48 52 66 53 49 54 52 55 65 56
REMARK SMILES IDX 83 57 50 58 51 59 64 61 84 62 53 63 38 64 39 65 47 66 40 67
REMARK SMILES IDX 46 68 41 69 42 70 43 71 44 72 45 73 68 74 69 75 77 76 70 77
REMARK SMILES IDX 76 78 71 79 72 80 73 81 74 82 75 83 54 84 55 85 63 86 56 87
REMARK SMILES IDX 62 88 57 89 58 90 59 91 60 92 61 93
REMARK H PARENT 19 7 9 16 26 30 82 49 52 60
REMARK Flexibility Score: inf
ROOT
ATOM      1  C   UNL A   1      35.099  21.049  25.074  1.00  0.00     0.002 C 
ENDROOT
BRANCH   1   2
ATOM      2  C   UNL A   1      34.652  21.466  26.480  1.00  0.00     0.021 C 
BRANCH   2   3
ATOM      3  C   UNL A   1      33.206  21.083  26.797  1.00  0.00     0.116 C 
BRANCH   3   4
ATOM      4  N   UNL A   1      32.499  22.194  27.402  1.00  0.00    -0.356 N 
ATOM      5  C   UNL A   1      31.558  23.006  26.833  1.00  0.00     0.224 C 
ATOM      6  O   UNL A   1      31.178  23.997  27.461  1.00  0.00    -0.275 OA
ATOM      7  H   UNL A   1      32.724  22.389  28.340  1.00  0.00     0.163 HD
BRANCH   5   8
ATOM      8  C   UNL A   1      30.958  22.635  25.486  1.00  0.00     0.137 C 
BRANCH   8   9
ATOM      9  C   UNL A   1      31.730  23.146  24.287  1.00  0.00    -0.015 A 
ATOM     10  C   UNL A   1      32.004  24.515  24.068  1.00  0.00     0.042 A 
ATOM     11  C   UNL A   1      32.642  24.891  22.871  1.00  0.00     0.026 A 
ATOM     12  C   UNL A   1      33.034  23.946  21.924  1.00  0.00     0.002 A 
ATOM     13  C   UNL A   1      32.161  22.201  23.332  1.00  0.00     0.006 A 
ATOM     14  C   UNL A   1      32.806  22.598  22.161  1.00  0.00     0.000 A 
BRANCH  10  15
ATOM     15  N   UNL A   1      31.725  25.546  24.989  1.00  0.00    -0.354 N 
ATOM     16  H   UNL A   1      31.557  25.223  25.904  1.00  0.00     0.167 HD
BRANCH  15  17
ATOM     17  C   UNL A   1      31.639  26.953  24.860  1.00  0.00     0.060 A 
ATOM     18  C   UNL A   1      29.400  26.624  23.661  1.00  0.00     0.046 C 
ATOM     19  C   UNL A   1      30.485  27.500  24.236  1.00  0.00    -0.026 A 
ATOM     20  C   UNL A   1      30.309  28.894  24.173  1.00  0.00     0.005 A 
ATOM     21  C   UNL A   1      31.258  29.758  24.708  1.00  0.00     0.002 A 
ATOM     22  C   UNL A   1      32.604  27.855  25.367  1.00  0.00     0.064 A 
ATOM     23  C   UNL A   1      32.405  29.240  25.296  1.00  0.00     0.023 A 
ATOM     24  Cl  UNL A   1      34.134  27.349  26.006  1.00  0.00    -0.082 Cl
ENDBRANCH  15  17
ENDBRANCH  10  15
ENDBRANCH   8   9
ENDBRANCH   5   8
ENDBRANCH   3   4
ENDBRANCH   2   3
ENDBRANCH   1   2
BRANCH   1  25
ATOM     25  C   UNL A   1      35.694  22.178  24.226  1.00  0.00     0.002 C 
BRANCH  25  26
ATOM     26  C   UNL A   1      35.562  23.577  24.835  1.00  0.00     0.021 C 
BRANCH  26  27
ATOM     27  C   UNL A   1      36.830  24.097  25.506  1.00  0.00     0.116 C 
BRANCH  27  28
ATOM     28  N   UNL A   1      37.825  23.048  25.667  1.00  0.00    -0.352 N 
ATOM     29  C   UNL A   1      39.093  23.123  26.177  1.00  0.00     0.251 C 
ATOM     30  H   UNL A   1      37.547  22.154  25.363  1.00  0.00     0.163 HD
ATOM     31  O   UNL A   1      39.869  22.176  26.026  1.00  0.00    -0.269 OA
BRANCH  29  32
ATOM     32  C   UNL A   1      39.539  24.334  26.895  1.00  0.00     0.039 A 
ATOM     33  C   UNL A   1      40.306  25.282  26.214  1.00  0.00     0.014 A 
ATOM     34  C   UNL A   1      39.225  24.526  28.245  1.00  0.00     0.014 A 
ATOM     35  C   UNL A   1      40.719  26.441  26.871  1.00  0.00     0.010 A 
ATOM     36  C   UNL A   1      39.577  25.716  28.879  1.00  0.00     0.010 A 
ATOM     37  C   UNL A   1      40.335  26.682  28.201  1.00  0.00    -0.014 A 
BRANCH  37  38
ATOM     38  C   UNL A   1      40.721  27.940  28.889  1.00  0.00     0.031 A 
ATOM     39  C   UNL A   1      42.080  28.081  29.521  1.00  0.00     0.074 A 
ATOM     40  C   UNL A   1      39.826  28.944  28.983  1.00  0.00     0.049 A 
ATOM     41  N   UNL A   1      42.585  29.100  30.167  1.00  0.00    -0.248 NA
ATOM     42  C   UNL A   1      42.978  26.918  29.437  1.00  0.00     0.031 C 
ATOM     43  C   UNL A   1      38.458  28.910  28.457  1.00  0.00     0.029 A 
ATOM     44  N   UNL A   1      39.929  30.187  29.554  1.00  0.00    -0.354 N 
ATOM     45  C   UNL A   1      43.851  28.698  30.579  1.00  0.00     0.074 A 
ATOM     46  C   UNL A   1      44.016  27.326  30.153  1.00  0.00     0.031 C 
ATOM     47  C   UNL A   1      37.863  30.088  28.704  1.00  0.00     0.029 A 
ATOM     48  C   UNL A   1      38.791  30.947  29.432  1.00  0.00     0.049 A 
ATOM     49  H   UNL A   1      40.744  30.505  30.008  1.00  0.00     0.167 HD
ATOM     50  C   UNL A   1      44.798  29.413  31.234  1.00  0.00     0.031 A 
ATOM     51  C   UNL A   1      38.521  32.197  29.857  1.00  0.00     0.031 A 
ATOM     52  C   UNL A   1      44.633  30.781  31.648  1.00  0.00     0.049 A 
ATOM     53  C   UNL A   1      39.592  32.974  30.571  1.00  0.00     0.074 A 
ATOM     54  C   UNL A   1      45.554  31.612  32.262  1.00  0.00     0.029 A 
ATOM     55  N   UNL A   1      43.471  31.521  31.493  1.00  0.00    -0.354 N 
ATOM     56  N   UNL A   1      40.810  32.601  30.885  1.00  0.00    -0.248 NA
ATOM     57  C   UNL A   1      39.257  34.347  30.974  1.00  0.00     0.031 C 
ATOM     58  C   UNL A   1      44.932  32.837  32.526  1.00  0.00     0.029 A 
ATOM     59  C   UNL A   1      43.642  32.790  32.022  1.00  0.00     0.049 A 
ATOM     60  H   UNL A   1      42.645  31.193  31.069  1.00  0.00     0.167 HD
ATOM     61  C   UNL A   1      41.395  33.702  31.501  1.00  0.00     0.074 A 
ATOM     62  C   UNL A   1      40.403  34.759  31.497  1.00  0.00     0.031 C 
ATOM     63  C   UNL A   1      42.641  33.827  32.022  1.00  0.00     0.031 A 
BRANCH  50  64
ATOM     64  C   UNL A   1      46.099  28.719  31.550  1.00  0.00    -0.014 A 
ATOM     65  C   UNL A   1      46.290  28.056  32.775  1.00  0.00     0.010 A 
ATOM     66  C   UNL A   1      47.130  28.699  30.593  1.00  0.00     0.010 A 
ATOM     67  C   UNL A   1      47.505  27.425  33.057  1.00  0.00     0.020 A 
ATOM     68  C   UNL A   1      48.336  28.042  30.859  1.00  0.00     0.020 A 
ATOM     69  C   UNL A   1      48.522  27.425  32.097  1.00  0.00     0.054 A 
BRANCH  69  70
ATOM     70  S   UNL A   1      50.080  26.580  32.482  1.00  0.00     0.124 S 
ATOM     71  O   UNL A   1      49.755  25.191  32.168  1.00  0.00    -0.237 OA
ATOM     72  O   UNL A   1      51.027  27.224  31.575  1.00  0.00    -0.237 OA
ATOM     73  O   UNL A   1      50.288  26.865  33.900  1.00  0.00    -0.744 OA
ENDBRANCH  69  70
ENDBRANCH  50  64
BRANCH  51  74
ATOM     74  C   UNL A   1      37.183  32.795  29.598  1.00  0.00    -0.014 A 
ATOM     75  C   UNL A   1      36.163  32.713  30.561  1.00  0.00     0.010 A 
ATOM     76  C   UNL A   1      36.932  33.472  28.390  1.00  0.00     0.010 A 
ATOM     77  C   UNL A   1      34.910  33.281  30.316  1.00  0.00     0.020 A 
ATOM     78  C   UNL A   1      35.689  34.065  28.153  1.00  0.00     0.020 A 
ATOM     79  C   UNL A   1      34.682  33.957  29.113  1.00  0.00     0.054 A 
BRANCH  79  80
ATOM     80  S   UNL A   1      33.067  34.738  28.838  1.00  0.00     0.124 S 
ATOM     81  O   UNL A   1      32.504  34.750  30.184  1.00  0.00    -0.237 OA
ATOM     82  O   UNL A   1      33.436  36.042  28.292  1.00  0.00    -0.237 OA
ATOM     83  O   UNL A   1      32.411  33.838  27.891  1.00  0.00    -0.744 OA
ENDBRANCH  79  80
ENDBRANCH  51  74
BRANCH  63  84
ATOM     84  C   UNL A   1      43.009  35.164  32.610  1.00  0.00    -0.014 A 
ATOM     85  C   UNL A   1      42.712  35.480  33.947  1.00  0.00     0.010 A 
ATOM     86  C   UNL A   1      43.689  36.107  31.817  1.00  0.00     0.010 A 
ATOM     87  C   UNL A   1      43.047  36.733  34.469  1.00  0.00     0.020 A 
ATOM     88  C   UNL A   1      44.053  37.349  32.344  1.00  0.00     0.020 A 
ATOM     89  C   UNL A   1      43.712  37.662  33.661  1.00  0.00     0.054 A 
BRANCH  89  90
ATOM     90  S   UNL A   1      44.153  39.274  34.365  1.00  0.00     0.124 S 
ATOM     91  O   UNL A   1      44.165  38.986  35.797  1.00  0.00    -0.237 OA
ATOM     92  O   UNL A   1      45.458  39.539  33.766  1.00  0.00    -0.237 OA
ATOM     93  O   UNL A   1      43.077  40.153  33.915  1.00  0.00    -0.744 OA
ENDBRANCH  89  90
ENDBRANCH  63  84
ENDBRANCH  37  38
ENDBRANCH  29  32
ENDBRANCH  27  28
ENDBRANCH  26  27
ENDBRANCH  25  26
ENDBRANCH   1  25
TORSDOF 19
ENDMDL
MODEL 2
REMARK VINA RESULT:     -10.0      3.490      4.579
REMARK SMILES Cc1cccc(Cl)c1Nc1ccccc1CC(=O)NCCCCCCNC(=O)c1ccc(-c2c3nc(c(-c4ccc(S(=O)(=O)[O-])cc4)c4ccc([nH]4)c(-c4ccc(S(=O)(=O)[O-])cc4)c4nc(c(-c5ccc(S(=O)(=O)[O-])cc5)c5ccc2[nH]5)C=C4)C=C3)cc1
REMARK SMILES IDX 22 1 21 2 20 3 19 4 17 5 18 6 16 8 15 9 10 10 11 11 12 12
REMARK SMILES IDX 14 13 13 14 9 15 8 17 1 18 2 19 3 20 4 21 6 22 5 23 7 24
REMARK SMILES IDX 23 25 24 26 25 27 26 28 27 29 28 31 29 32 30 33 88 34 31 35
REMARK SMILES IDX 87 36 32 37 33 38 34 39 81 40 35 41 86 42 80 43 82 44 36 45
REMARK SMILES IDX 85 46 79 47 78 48 37 50 67 51 48 52 66 53 49 54 52 55 65 56
REMARK SMILES IDX 83 57 50 58 51 59 64 61 84 62 53 63 38 64 39 65 47 66 40 67
REMARK SMILES IDX 46 68 41 69 42 70 43 71 44 72 45 73 68 74 69 75 77 76 70 77
REMARK SMILES IDX 76 78 71 79 72 80 73 81 74 82 75 83 54 84 55 85 63 86 56 87
REMARK SMILES IDX 62 88 57 89 58 90 59 91 60 92 61 93
REMARK H PARENT 19 7 9 16 26 30 82 49 52 60
REMARK Flexibility Score: inf
ROOT
ATOM      1  C   UNL A   1      40.756  22.060  26.298  1.00  0.00     0.002 C 
ENDROOT
BRANCH   1   2
ATOM      2  C   UNL A   1      39.387  22.747  26.365  1.00  0.00     0.021 C 
BRANCH   2   3
ATOM      3  C   UNL A   1      38.238  21.865  25.873  1.00  0.00     0.116 C 
BRANCH   3   4
ATOM      4  N   UNL A   1      37.692  22.374  24.632  1.00  0.00    -0.356 N 
ATOM      5  C   UNL A   1      36.686  23.282  24.461  1.00  0.00     0.224 C 
ATOM      6  O   UNL A   1      36.255  23.478  23.322  1.00  0.00    -0.275 OA
ATOM      7  H   UNL A   1      38.097  22.021  23.806  1.00  0.00     0.163 HD
BRANCH   5   8
ATOM      8  C   UNL A   1      36.174  24.071  25.655  1.00  0.00     0.137 C 
BRANCH   8   9
ATOM      9  C   UNL A   1      34.743  23.766  26.050  1.00  0.00    -0.015 A 
ATOM     10  C   UNL A   1      33.627  24.414  25.474  1.00  0.00     0.042 A 
ATOM     11  C   UNL A   1      32.346  24.129  25.983  1.00  0.00     0.026 A 
ATOM     12  C   UNL A   1      32.158  23.204  27.010  1.00  0.00     0.002 A 
ATOM     13  C   UNL A   1      34.531  22.812  27.067  1.00  0.00     0.006 A 
ATOM     14  C   UNL A   1      33.250  22.534  27.543  1.00  0.00     0.000 A 
BRANCH  10  15
ATOM     15  N   UNL A   1      33.690  25.305  24.382  1.00  0.00    -0.354 N 
ATOM     16  H   UNL A   1      34.342  25.039  23.694  1.00  0.00     0.167 HD
BRANCH  15  17
ATOM     17  C   UNL A   1      33.002  26.504  24.078  1.00  0.00     0.060 A 
ATOM     18  C   UNL A   1      32.336  25.458  21.838  1.00  0.00     0.046 C 
ATOM     19  C   UNL A   1      32.306  26.583  22.842  1.00  0.00    -0.026 A 
ATOM     20  C   UNL A   1      31.528  27.715  22.540  1.00  0.00     0.005 A 
ATOM     21  C   UNL A   1      31.434  28.776  23.434  1.00  0.00     0.002 A 
ATOM     22  C   UNL A   1      32.916  27.612  24.955  1.00  0.00     0.064 A 
ATOM     23  C   UNL A   1      32.132  28.727  24.634  1.00  0.00     0.023 A 
ATOM     24  Cl  UNL A   1      33.836  27.737  26.419  1.00  0.00    -0.082 Cl
ENDBRANCH  15  17
ENDBRANCH  10  15
ENDBRANCH   8   9
ENDBRANCH   5   8
ENDBRANCH   3   4
ENDBRANCH   2   3
ENDBRANCH   1   2
BRANCH   1  25
ATOM     25  C   UNL A   1      41.599  22.180  27.572  1.00  0.00     0.002 C 
BRANCH  25  26
ATOM     26  C   UNL A   1      43.113  22.166  27.345  1.00  0.00     0.021 C 
BRANCH  26  27
ATOM     27  C   UNL A   1      43.751  23.549  27.254  1.00  0.00     0.116 C 
BRANCH  27  28
ATOM     28  N   UNL A   1      43.298  24.277  26.078  1.00  0.00    -0.352 N 
ATOM     29  C   UNL A   1      42.541  25.414  25.998  1.00  0.00     0.251 C 
ATOM     30  H   UNL A   1      43.576  23.896  25.214  1.00  0.00     0.163 HD
ATOM     31  O   UNL A   1      42.069  25.759  24.910  1.00  0.00    -0.269 OA
BRANCH  29  32
ATOM     32  C   UNL A   1      42.276  26.223  27.205  1.00  0.00     0.039 A 
ATOM     33  C   UNL A   1      43.073  27.342  27.459  1.00  0.00     0.014 A 
ATOM     34  C   UNL A   1      41.263  25.867  28.101  1.00  0.00     0.014 A 
ATOM     35  C   UNL A   1      42.825  28.129  28.584  1.00  0.00     0.010 A 
ATOM     36  C   UNL A   1      40.970  26.692  29.185  1.00  0.00     0.010 A 
ATOM     37  C   UNL A   1      41.753  27.827  29.442  1.00  0.00    -0.014 A 
BRANCH  37  38
ATOM     38  C   UNL A   1      41.446  28.693  30.608  1.00  0.00     0.031 A 
ATOM     39  C   UNL A   1      42.250  28.582  31.876  1.00  0.00     0.074 A 
ATOM     40  C   UNL A   1      40.408  29.550  30.540  1.00  0.00     0.049 A 
ATOM     41  N   UNL A   1      42.120  29.250  32.994  1.00  0.00    -0.248 NA
ATOM     42  C   UNL A   1      43.324  27.577  31.900  1.00  0.00     0.031 C 
ATOM     43  C   UNL A   1      39.519  29.713  29.387  1.00  0.00     0.029 A 
ATOM     44  N   UNL A   1      39.923  30.446  31.460  1.00  0.00    -0.354 N 
ATOM     45  C   UNL A   1      43.083  28.737  33.856  1.00  0.00     0.074 A 
ATOM     46  C   UNL A   1      43.754  27.669  33.150  1.00  0.00     0.031 C 
ATOM     47  C   UNL A   1      38.619  30.672  29.657  1.00  0.00     0.029 A 
ATOM     48  C   UNL A   1      38.843  31.167  31.011  1.00  0.00     0.049 A 
ATOM     49  H   UNL A   1      40.313  30.561  32.357  1.00  0.00     0.167 HD
ATOM     50  C   UNL A   1      43.393  29.133  35.115  1.00  0.00     0.031 A 
ATOM     51  C   UNL A   1      38.112  32.122  31.619  1.00  0.00     0.031 A 
ATOM     52  C   UNL A   1      42.728  30.202  35.811  1.00  0.00     0.049 A 
ATOM     53  C   UNL A   1      38.483  32.552  33.012  1.00  0.00     0.074 A 
ATOM     54  C   UNL A   1      43.009  30.719  37.064  1.00  0.00     0.029 A 
ATOM     55  N   UNL A   1      41.648  30.918  35.318  1.00  0.00    -0.354 N 
ATOM     56  N   UNL A   1      39.446  32.105  33.783  1.00  0.00    -0.248 NA
ATOM     57  C   UNL A   1      37.679  33.627  33.609  1.00  0.00     0.031 C 
ATOM     58  C   UNL A   1      42.065  31.712  37.349  1.00  0.00     0.029 A 
ATOM     59  C   UNL A   1      41.234  31.856  36.250  1.00  0.00     0.049 A 
ATOM     60  H   UNL A   1      41.236  30.781  34.434  1.00  0.00     0.167 HD
ATOM     61  C   UNL A   1      39.378  32.860  34.949  1.00  0.00     0.074 A 
ATOM     62  C   UNL A   1      38.294  33.805  34.770  1.00  0.00     0.031 C 
ATOM     63  C   UNL A   1      40.145  32.780  36.064  1.00  0.00     0.031 A 
BRANCH  50  64
ATOM     64  C   UNL A   1      44.500  28.394  35.824  1.00  0.00    -0.014 A 
ATOM     65  C   UNL A   1      45.839  28.808  35.711  1.00  0.00     0.010 A 
ATOM     66  C   UNL A   1      44.192  27.292  36.643  1.00  0.00     0.010 A 
ATOM     67  C   UNL A   1      46.856  28.107  36.367  1.00  0.00     0.020 A 
ATOM     68  C   UNL A   1      45.202  26.607  37.326  1.00  0.00     0.020 A 
ATOM     69  C   UNL A   1      46.530  27.009  37.168  1.00  0.00     0.054 A 
BRANCH  69  70
ATOM     70  S   UNL A   1      47.866  26.130  38.024  1.00  0.00     0.124 S 
ATOM     71  O   UNL A   1      48.666  27.236  38.546  1.00  0.00    -0.237 OA
ATOM     72  O   UNL A   1      47.147  25.348  39.025  1.00  0.00    -0.237 OA
ATOM     73  O   UNL A   1      48.502  25.349  36.965  1.00  0.00    -0.744 OA
ENDBRANCH  69  70
ENDBRANCH  50  64
BRANCH  51  74
ATOM     74  C   UNL A   1      36.969  32.750  30.902  1.00  0.00    -0.014 A 
ATOM     75  C   UNL A   1      35.654  32.308  31.125  1.00  0.00     0.010 A 
ATOM     76  C   UNL A   1      37.192  33.812  30.006  1.00  0.00     0.010 A 
ATOM     77  C   UNL A   1      34.583  32.904  30.454  1.00  0.00     0.020 A 
ATOM     78  C   UNL A   1      36.121  34.428  29.354  1.00  0.00     0.020 A 
ATOM     79  C   UNL A   1      34.823  33.964  29.574  1.00  0.00     0.054 A 
BRANCH  79  80
ATOM     80  S   UNL A   1      33.414  34.762  28.757  1.00  0.00     0.124 S 
ATOM     81  O   UNL A   1      32.522  35.028  29.881  1.00  0.00    -0.237 OA
ATOM     82  O   UNL A   1      34.028  35.937  28.143  1.00  0.00    -0.237 OA
ATOM     83  O   UNL A   1      32.948  33.748  27.813  1.00  0.00    -0.744 OA
ENDBRANCH  79  80
ENDBRANCH  51  74
BRANCH  63  84
ATOM     84  C   UNL A   1      39.852  33.759  37.171  1.00  0.00    -0.014 A 
ATOM     85  C   UNL A   1      39.259  33.342  38.376  1.00  0.00     0.010 A 
ATOM     86  C   UNL A   1      40.203  35.112  37.012  1.00  0.00     0.010 A 
ATOM     87  C   UNL A   1      38.980  34.269  39.384  1.00  0.00     0.020 A 
ATOM     88  C   UNL A   1      39.954  36.036  38.030  1.00  0.00     0.020 A 
ATOM     89  C   UNL A   1      39.325  35.612  39.202  1.00  0.00     0.054 A 
BRANCH  89  90
ATOM     90  S   UNL A   1      38.971  36.793  40.531  1.00  0.00     0.124 S 
ATOM     91  O   UNL A   1      37.950  36.087  41.300  1.00  0.00    -0.237 OA
ATOM     92  O   UNL A   1      40.267  36.935  41.189  1.00  0.00    -0.237 OA
ATOM     93  O   UNL A   1      38.505  37.983  39.822  1.00  0.00    -0.744 OA
ENDBRANCH  89  90
ENDBRANCH  63  84
ENDBRANCH  37  38
ENDBRANCH  29  32
ENDBRANCH  27  28
ENDBRANCH  26  27
ENDBRANCH  25  26
ENDBRANCH   1  25
TORSDOF 19
ENDMDL
MODEL 3
REMARK VINA RESULT:     -10.0      4.249     10.025
REMARK SMILES Cc1cccc(Cl)c1Nc1ccccc1CC(=O)NCCCCCCNC(=O)c1ccc(-c2c3nc(c(-c4ccc(S(=O)(=O)[O-])cc4)c4ccc([nH]4)c(-c4ccc(S(=O)(=O)[O-])cc4)c4nc(c(-c5ccc(S(=O)(=O)[O-])cc5)c5ccc2[nH]5)C=C4)C=C3)cc1
REMARK SMILES IDX 22 1 21 2 20 3 19 4 17 5 18 6 16 8 15 9 10 10 11 11 12 12
REMARK SMILES IDX 14 13 13 14 9 15 8 17 1 18 2 19 3 20 4 21 6 22 5 23 7 24
REMARK SMILES IDX 23 25 24 26 25 27 26 28 27 29 28 31 29 32 30 33 88 34 31 35
REMARK SMILES IDX 87 36 32 37 33 38 34 39 81 40 35 41 86 42 80 43 82 44 36 45
REMARK SMILES IDX 85 46 79 47 78 48 37 50 67 51 48 52 66 53 49 54 52 55 65 56
REMARK SMILES IDX 83 57 50 58 51 59 64 61 84 62 53 63 38 64 39 65 47 66 40 67
REMARK SMILES IDX 46 68 41 69 42 70 43 71 44 72 45 73 68 74 69 75 77 76 70 77
REMARK SMILES IDX 76 78 71 79 72 80 73 81 74 82 75 83 54 84 55 85 63 86 56 87
REMARK SMILES IDX 62 88 57 89 58 90 59 91 60 92 61 93
REMARK H PARENT 19 7 9 16 26 30 82 49 52 60
REMARK Flexibility Score: inf
ROOT
ATOM      1  C   UNL A   1      35.170  31.365  27.605  1.00  0.00     0.002 C 
ENDROOT
BRANCH   1   2
ATOM      2  C   UNL A   1      33.814  30.678  27.407  1.00  0.00     0.021 C 
BRANCH   2   3
ATOM      3  C   UNL A   1      33.893  29.151  27.444  1.00  0.00     0.116 C 
BRANCH   3   4
ATOM      4  N   UNL A   1      32.588  28.573  27.694  1.00  0.00    -0.356 N 
ATOM      5  C   UNL A   1      31.977  27.549  27.029  1.00  0.00     0.224 C 
ATOM      6  O   UNL A   1      30.798  27.295  27.291  1.00  0.00    -0.275 OA
ATOM      7  H   UNL A   1      32.078  28.967  28.439  1.00  0.00     0.163 HD
BRANCH   5   8
ATOM      8  C   UNL A   1      32.773  26.711  26.041  1.00  0.00     0.137 C 
BRANCH   8   9
ATOM      9  C   UNL A   1      32.186  25.344  25.753  1.00  0.00    -0.015 A 
ATOM     10  C   UNL A   1      31.540  25.020  24.538  1.00  0.00     0.042 A 
ATOM     11  C   UNL A   1      30.942  23.752  24.411  1.00  0.00     0.026 A 
ATOM     12  C   UNL A   1      31.003  22.809  25.437  1.00  0.00     0.002 A 
ATOM     13  C   UNL A   1      32.265  24.367  26.768  1.00  0.00     0.006 A 
ATOM     14  C   UNL A   1      31.678  23.112  26.611  1.00  0.00     0.000 A 
BRANCH  10  15
ATOM     15  N   UNL A   1      31.485  25.863  23.408  1.00  0.00    -0.354 N 
ATOM     16  H   UNL A   1      31.905  25.474  22.606  1.00  0.00     0.167 HD
BRANCH  15  17
ATOM     17  C   UNL A   1      30.947  27.154  23.197  1.00  0.00     0.060 A 
ATOM     18  C   UNL A   1      33.302  27.946  22.577  1.00  0.00     0.046 C 
ATOM     19  C   UNL A   1      31.824  28.183  22.758  1.00  0.00    -0.026 A 
ATOM     20  C   UNL A   1      31.316  29.456  22.440  1.00  0.00     0.005 A 
ATOM     21  C   UNL A   1      29.959  29.733  22.558  1.00  0.00     0.002 A 
ATOM     22  C   UNL A   1      29.576  27.473  23.339  1.00  0.00     0.064 A 
ATOM     23  C   UNL A   1      29.093  28.747  23.013  1.00  0.00     0.023 A 
ATOM     24  Cl  UNL A   1      28.412  26.381  24.018  1.00  0.00    -0.082 Cl
ENDBRANCH  15  17
ENDBRANCH  10  15
ENDBRANCH   8   9
ENDBRANCH   5   8
ENDBRANCH   3   4
ENDBRANCH   2   3
ENDBRANCH   1   2
BRANCH   1  25
ATOM     25  C   UNL A   1      35.142  32.593  28.521  1.00  0.00     0.002 C 
BRANCH  25  26
ATOM     26  C   UNL A   1      36.479  33.326  28.655  1.00  0.00     0.021 C 
BRANCH  26  27
ATOM     27  C   UNL A   1      37.124  33.219  30.034  1.00  0.00     0.116 C 
BRANCH  27  28
ATOM     28  N   UNL A   1      36.503  32.179  30.841  1.00  0.00    -0.352 N 
ATOM     29  C   UNL A   1      36.862  30.868  30.997  1.00  0.00     0.251 C 
ATOM     30  H   UNL A   1      35.708  32.461  31.350  1.00  0.00     0.163 HD
ATOM     31  O   UNL A   1      36.085  30.083  31.546  1.00  0.00    -0.269 OA
BRANCH  29  32
ATOM     32  C   UNL A   1      38.167  30.387  30.500  1.00  0.00     0.039 A 
ATOM     33  C   UNL A   1      38.349  30.222  29.125  1.00  0.00     0.014 A 
ATOM     34  C   UNL A   1      39.203  30.074  31.386  1.00  0.00     0.014 A 
ATOM     35  C   UNL A   1      39.582  29.787  28.636  1.00  0.00     0.010 A 
ATOM     36  C   UNL A   1      40.454  29.708  30.894  1.00  0.00     0.010 A 
ATOM     37  C   UNL A   1      40.655  29.553  29.514  1.00  0.00    -0.014 A 
BRANCH  37  38
ATOM     38  C   UNL A   1      41.986  29.148  28.998  1.00  0.00     0.031 A 
ATOM     39  C   UNL A   1      43.107  30.149  28.906  1.00  0.00     0.074 A 
ATOM     40  C   UNL A   1      42.172  27.885  28.567  1.00  0.00     0.049 A 
ATOM     41  N   UNL A   1      44.331  29.976  28.475  1.00  0.00    -0.248 NA
ATOM     42  C   UNL A   1      42.809  31.526  29.331  1.00  0.00     0.031 C 
ATOM     43  C   UNL A   1      41.149  26.835  28.555  1.00  0.00     0.029 A 
ATOM     44  N   UNL A   1      43.285  27.267  28.056  1.00  0.00    -0.354 N 
ATOM     45  C   UNL A   1      44.943  31.222  28.563  1.00  0.00     0.074 A 
ATOM     46  C   UNL A   1      43.942  32.150  29.040  1.00  0.00     0.031 C 
ATOM     47  C   UNL A   1      41.692  25.698  28.091  1.00  0.00     0.029 A 
ATOM     48  C   UNL A   1      43.087  25.944  27.741  1.00  0.00     0.049 A 
ATOM     49  H   UNL A   1      44.147  27.728  27.928  1.00  0.00     0.167 HD
ATOM     50  C   UNL A   1      46.227  31.558  28.291  1.00  0.00     0.031 A 
ATOM     51  C   UNL A   1      43.931  25.028  27.228  1.00  0.00     0.031 A 
ATOM     52  C   UNL A   1      47.223  30.629  27.825  1.00  0.00     0.049 A 
ATOM     53  C   UNL A   1      45.355  25.422  26.945  1.00  0.00     0.074 A 
ATOM     54  C   UNL A   1      48.566  30.858  27.580  1.00  0.00     0.029 A 
ATOM     55  N   UNL A   1      46.986  29.295  27.532  1.00  0.00    -0.354 N 
ATOM     56  N   UNL A   1      45.934  26.588  27.106  1.00  0.00    -0.248 NA
ATOM     57  C   UNL A   1      46.242  24.372  26.427  1.00  0.00     0.031 C 
ATOM     58  C   UNL A   1      49.128  29.675  27.088  1.00  0.00     0.029 A 
ATOM     59  C   UNL A   1      48.151  28.694  27.084  1.00  0.00     0.049 A 
ATOM     60  H   UNL A   1      46.117  28.841  27.628  1.00  0.00     0.167 HD
ATOM     61  C   UNL A   1      47.261  26.406  26.731  1.00  0.00     0.074 A 
ATOM     62  C   UNL A   1      47.400  25.013  26.356  1.00  0.00     0.031 C 
ATOM     63  C   UNL A   1      48.272  27.309  26.702  1.00  0.00     0.031 A 
BRANCH  50  64
ATOM     64  C   UNL A   1      46.625  33.000  28.484  1.00  0.00    -0.014 A 
ATOM     65  C   UNL A   1      46.878  33.838  27.384  1.00  0.00     0.010 A 
ATOM     66  C   UNL A   1      46.710  33.533  29.783  1.00  0.00     0.010 A 
ATOM     67  C   UNL A   1      47.254  35.170  27.579  1.00  0.00     0.020 A 
ATOM     68  C   UNL A   1      47.055  34.873  29.983  1.00  0.00     0.020 A 
ATOM     69  C   UNL A   1      47.344  35.678  28.879  1.00  0.00     0.054 A 
BRANCH  69  70
ATOM     70  S   UNL A   1      47.814  37.415  29.102  1.00  0.00     0.124 S 
ATOM     71  O   UNL A   1      47.950  37.870  27.720  1.00  0.00    -0.237 OA
ATOM     72  O   UNL A   1      46.676  37.965  29.835  1.00  0.00    -0.237 OA
ATOM     73  O   UNL A   1      49.061  37.343  29.858  1.00  0.00    -0.744 OA
ENDBRANCH  69  70
ENDBRANCH  50  64
BRANCH  51  74
ATOM     74  C   UNL A   1      43.454  23.642  26.970  1.00  0.00    -0.014 A 
ATOM     75  C   UNL A   1      43.209  23.202  25.657  1.00  0.00     0.010 A 
ATOM     76  C   UNL A   1      43.264  22.748  28.039  1.00  0.00     0.010 A 
ATOM     77  C   UNL A   1      42.766  21.898  25.419  1.00  0.00     0.020 A 
ATOM     78  C   UNL A   1      42.848  21.435  27.802  1.00  0.00     0.020 A 
ATOM     79  C   UNL A   1      42.591  21.021  26.494  1.00  0.00     0.054 A 
BRANCH  79  80
ATOM     80  S   UNL A   1      42.072  19.315  26.158  1.00  0.00     0.124 S 
ATOM     81  O   UNL A   1      42.403  18.645  27.411  1.00  0.00    -0.237 OA
ATOM     82  O   UNL A   1      40.646  19.469  25.878  1.00  0.00    -0.237 OA
ATOM     83  O   UNL A   1      42.886  18.932  25.006  1.00  0.00    -0.744 OA
ENDBRANCH  79  80
ENDBRANCH  51  74
BRANCH  63  84
ATOM     84  C   UNL A   1      49.626  26.811  26.270  1.00  0.00    -0.014 A 
ATOM     85  C   UNL A   1      50.521  26.238  27.191  1.00  0.00     0.010 A 
ATOM     86  C   UNL A   1      49.996  26.893  24.915  1.00  0.00     0.010 A 
ATOM     87  C   UNL A   1      51.779  25.798  26.773  1.00  0.00     0.020 A 
ATOM     88  C   UNL A   1      51.241  26.425  24.488  1.00  0.00     0.020 A 
ATOM     89  C   UNL A   1      52.134  25.898  25.424  1.00  0.00     0.054 A 
BRANCH  89  90
ATOM     90  S   UNL A   1      53.765  25.303  24.902  1.00  0.00     0.124 S 
ATOM     91  O   UNL A   1      54.613  25.729  26.012  1.00  0.00    -0.237 OA
ATOM     92  O   UNL A   1      53.559  23.862  24.786  1.00  0.00    -0.237 OA
ATOM     93  O   UNL A   1      53.998  25.997  23.638  1.00  0.00    -0.744 OA
ENDBRANCH  89  90
ENDBRANCH  63  84
ENDBRANCH  37  38
ENDBRANCH  29  32
ENDBRANCH  27  28
ENDBRANCH  26  27
ENDBRANCH  25  26
ENDBRANCH   1  25
TORSDOF 19
ENDMDL
