MODEL 1
REMARK VINA RESULT:     -10.3      0.000      0.000
REMARK SMILES Cc1cc(Br)cc([N+](=O)[O-])c1OCCC[C@@](C)([NH3+])C(=O)NCCCCCCNC(=O)c1ccc(-c2c3nc(c(-c4ccc(S(=O)(=O)[O-])cc4)c4ccc([nH]4)c(-c4ccc(S(=O)(=O)[O-])cc4)c4nc(c(-c5ccc(S(=O)(=O)[O-])cc5)c5ccc2[nH]5)C=C4)C=C3)cc1
REMARK SMILES IDX 23 1 22 2 21 3 19 4 20 5 16 7 17 8 15 9 14 10 13 11 12 12
REMARK SMILES IDX 11 13 1 14 2 15 3 16 4 17 7 18 5 19 6 20 8 21 9 22 10 23
REMARK SMILES IDX 18 24 24 28 25 29 26 30 27 31 28 32 29 33 30 35 31 36 32 37
REMARK SMILES IDX 90 38 33 39 89 40 34 41 35 42 36 43 83 44 37 45 88 46 82 47
REMARK SMILES IDX 84 48 38 49 87 50 81 51 80 52 39 54 69 55 50 56 68 57 51 58
REMARK SMILES IDX 54 59 67 60 85 61 52 62 53 63 66 65 86 66 55 67 40 68 41 69
REMARK SMILES IDX 49 70 42 71 48 72 43 73 44 74 45 75 46 76 47 77 70 78 71 79
REMARK SMILES IDX 79 80 72 81 78 82 73 83 74 84 75 85 76 86 77 87 56 88 57 89
REMARK SMILES IDX 65 90 58 91 64 92 59 93 60 94 61 95 62 96 63 97
REMARK H PARENT 21 6 18 25 18 26 18 27 28 34 84 53 54 64
REMARK Flexibility Score: inf
ROOT
ATOM      1  C   UNL A   1      36.708  21.649  24.706  1.00  0.00     0.021 C 
ENDROOT
BRANCH   1   2
ATOM      2  C   UNL A   1      35.327  22.308  24.685  1.00  0.00     0.116 C 
BRANCH   2   3
ATOM      3  N   UNL A   1      34.939  22.710  23.347  1.00  0.00    -0.351 N 
ATOM      4  C   UNL A   1      33.737  22.888  22.742  1.00  0.00     0.280 C 
ATOM      5  O   UNL A   1      33.779  23.608  21.735  1.00  0.00    -0.268 OA
ATOM      6  H   UNL A   1      35.705  22.888  22.755  1.00  0.00     0.163 HD
BRANCH   4   7
ATOM      7  C   UNL A   1      32.381  22.295  23.237  1.00  0.00     0.171 C 
ATOM      8  C   UNL A   1      32.748  21.092  24.117  1.00  0.00     0.090 C 
BRANCH   7   9
ATOM      9  C   UNL A   1      31.479  23.316  24.023  1.00  0.00     0.082 C 
BRANCH   9  10
ATOM     10  C   UNL A   1      30.615  24.349  23.269  1.00  0.00     0.049 C 
BRANCH  10  11
ATOM     11  C   UNL A   1      31.145  25.806  23.185  1.00  0.00     0.230 C 
BRANCH  11  12
ATOM     12  O   UNL A   1      31.038  26.454  24.465  1.00  0.00    -0.487 OA
BRANCH  12  13
ATOM     13  C   UNL A   1      31.957  27.437  24.767  1.00  0.00     0.200 A 
ATOM     14  C   UNL A   1      30.423  29.286  23.907  1.00  0.00     0.049 C 
ATOM     15  C   UNL A   1      31.555  28.786  24.730  1.00  0.00    -0.001 A 
ATOM     16  C   UNL A   1      32.198  29.747  25.527  1.00  0.00     0.023 A 
ATOM     17  C   UNL A   1      33.293  29.403  26.302  1.00  0.00     0.025 A 
ATOM     18  C   UNL A   1      33.136  27.135  25.472  1.00  0.00     0.312 A 
ATOM     19  Br  UNL A   1      34.077  30.700  27.427  1.00  0.00    -0.051 Br
ATOM     20  C   UNL A   1      33.803  28.115  26.241  1.00  0.00     0.105 A 
BRANCH  18  21
ATOM     21  N   UNL A   1      33.763  25.816  25.387  1.00  0.00     0.066 N 
ATOM     22  O   UNL A   1      33.573  25.035  26.332  1.00  0.00    -0.258 OA
ATOM     23  O   UNL A   1      34.514  25.583  24.432  1.00  0.00    -0.258 OA
ENDBRANCH  18  21
ENDBRANCH  12  13
ENDBRANCH  11  12
ENDBRANCH  10  11
ENDBRANCH   9  10
ENDBRANCH   7   9
BRANCH   7  24
ATOM     24  N   UNL A   1      31.547  21.725  22.151  1.00  0.00    -0.345 N 
ATOM     25  H   UNL A   1      30.878  21.066  22.548  1.00  0.00     0.345 HD
ATOM     26  H   UNL A   1      32.145  21.242  21.482  1.00  0.00     0.345 HD
ATOM     27  H   UNL A   1      31.045  22.477  21.678  1.00  0.00     0.345 HD
ENDBRANCH   7  24
ENDBRANCH   4   7
ENDBRANCH   2   3
ENDBRANCH   1   2
BRANCH   1  28
ATOM     28  C   UNL A   1      37.777  22.374  25.536  1.00  0.00     0.002 C 
BRANCH  28  29
ATOM     29  C   UNL A   1      37.362  23.725  26.126  1.00  0.00     0.002 C 
BRANCH  29  30
ATOM     30  C   UNL A   1      38.510  24.623  26.587  1.00  0.00     0.021 C 
BRANCH  30  31
ATOM     31  C   UNL A   1      39.830  23.903  26.820  1.00  0.00     0.116 C 
BRANCH  31  32
ATOM     32  N   UNL A   1      40.869  24.355  25.912  1.00  0.00    -0.352 N 
ATOM     33  C   UNL A   1      41.612  25.511  25.961  1.00  0.00     0.251 C 
ATOM     34  H   UNL A   1      41.068  23.752  25.159  1.00  0.00     0.163 HD
ATOM     35  O   UNL A   1      42.310  25.836  25.008  1.00  0.00    -0.269 OA
BRANCH  33  36
ATOM     36  C   UNL A   1      41.544  26.371  27.164  1.00  0.00     0.039 A 
ATOM     37  C   UNL A   1      41.884  27.721  27.053  1.00  0.00     0.014 A 
ATOM     38  C   UNL A   1      41.129  25.850  28.394  1.00  0.00     0.014 A 
ATOM     39  C   UNL A   1      41.750  28.561  28.161  1.00  0.00     0.010 A 
ATOM     40  C   UNL A   1      40.922  26.704  29.474  1.00  0.00     0.010 A 
ATOM     41  C   UNL A   1      41.234  28.068  29.372  1.00  0.00    -0.014 A 
BRANCH  41  42
ATOM     42  C   UNL A   1      41.013  28.961  30.538  1.00  0.00     0.031 A 
ATOM     43  C   UNL A   1      41.865  28.823  31.771  1.00  0.00     0.074 A 
ATOM     44  C   UNL A   1      40.007  29.859  30.510  1.00  0.00     0.049 A 
ATOM     45  N   UNL A   1      41.789  29.477  32.902  1.00  0.00    -0.248 NA
ATOM     46  C   UNL A   1      42.924  27.801  31.741  1.00  0.00     0.031 C 
ATOM     47  C   UNL A   1      39.083  30.062  29.390  1.00  0.00     0.029 A 
ATOM     48  N   UNL A   1      39.587  30.764  31.453  1.00  0.00    -0.354 N 
ATOM     49  C   UNL A   1      42.776  28.937  33.719  1.00  0.00     0.074 A 
ATOM     50  C   UNL A   1      43.402  27.867  32.974  1.00  0.00     0.031 C 
ATOM     51  C   UNL A   1      38.228  31.049  29.700  1.00  0.00     0.029 A 
ATOM     52  C   UNL A   1      38.509  31.518  31.052  1.00  0.00     0.049 A 
ATOM     53  H   UNL A   1      40.017  30.863  32.332  1.00  0.00     0.167 HD
ATOM     54  C   UNL A   1      43.144  29.310  34.968  1.00  0.00     0.031 A 
ATOM     55  C   UNL A   1      37.818  32.477  31.701  1.00  0.00     0.031 A 
ATOM     56  C   UNL A   1      42.524  30.381  35.704  1.00  0.00     0.049 A 
ATOM     57  C   UNL A   1      38.236  32.865  33.093  1.00  0.00     0.074 A 
ATOM     58  C   UNL A   1      42.859  30.872  36.954  1.00  0.00     0.029 A 
ATOM     59  N   UNL A   1      41.441  31.124  35.260  1.00  0.00    -0.354 N 
ATOM     60  N   UNL A   1      39.216  32.387  33.822  1.00  0.00    -0.248 NA
ATOM     61  C   UNL A   1      37.462  33.930  33.745  1.00  0.00     0.031 C 
ATOM     62  C   UNL A   1      41.943  31.873  37.290  1.00  0.00     0.029 A 
ATOM     63  C   UNL A   1      41.078  32.051  36.223  1.00  0.00     0.049 A 
ATOM     64  H   UNL A   1      40.995  31.009  34.390  1.00  0.00     0.167 HD
ATOM     65  C   UNL A   1      39.194  33.113  35.008  1.00  0.00     0.074 A 
ATOM     66  C   UNL A   1      38.113  34.071  34.892  1.00  0.00     0.031 C 
ATOM     67  C   UNL A   1      39.998  32.998  36.095  1.00  0.00     0.031 A 
BRANCH  54  68
ATOM     68  C   UNL A   1      44.265  28.546  35.625  1.00  0.00    -0.014 A 
ATOM     69  C   UNL A   1      44.007  27.408  36.412  1.00  0.00     0.010 A 
ATOM     70  C   UNL A   1      45.598  28.947  35.420  1.00  0.00     0.010 A 
ATOM     71  C   UNL A   1      45.058  26.712  37.016  1.00  0.00     0.020 A 
ATOM     72  C   UNL A   1      46.654  28.235  35.997  1.00  0.00     0.020 A 
ATOM     73  C   UNL A   1      46.375  27.132  36.807  1.00  0.00     0.054 A 
BRANCH  73  74
ATOM     74  S   UNL A   1      47.719  26.197  37.586  1.00  0.00     0.124 S 
ATOM     75  O   UNL A   1      47.053  25.637  38.761  1.00  0.00    -0.237 OA
ATOM     76  O   UNL A   1      48.081  25.232  36.551  1.00  0.00    -0.237 OA
ATOM     77  O   UNL A   1      48.730  27.211  37.869  1.00  0.00    -0.744 OA
ENDBRANCH  73  74
ENDBRANCH  54  68
BRANCH  55  78
ATOM     78  C   UNL A   1      36.667  33.145  31.033  1.00  0.00    -0.014 A 
ATOM     79  C   UNL A   1      36.835  33.790  29.794  1.00  0.00     0.010 A 
ATOM     80  C   UNL A   1      35.392  33.128  31.626  1.00  0.00     0.010 A 
ATOM     81  C   UNL A   1      35.754  34.420  29.171  1.00  0.00     0.020 A 
ATOM     82  C   UNL A   1      34.302  33.730  30.992  1.00  0.00     0.020 A 
ATOM     83  C   UNL A   1      34.492  34.384  29.773  1.00  0.00     0.054 A 
BRANCH  83  84
ATOM     84  S   UNL A   1      33.093  35.163  28.921  1.00  0.00     0.124 S 
ATOM     85  O   UNL A   1      33.716  36.344  28.331  1.00  0.00    -0.237 OA
ATOM     86  O   UNL A   1      32.681  34.125  27.979  1.00  0.00    -0.237 OA
ATOM     87  O   UNL A   1      32.141  35.428  29.999  1.00  0.00    -0.744 OA
ENDBRANCH  83  84
ENDBRANCH  55  78
BRANCH  67  88
ATOM     88  C   UNL A   1      39.766  33.956  37.234  1.00  0.00    -0.014 A 
ATOM     89  C   UNL A   1      39.048  33.569  38.380  1.00  0.00     0.010 A 
ATOM     90  C   UNL A   1      40.328  35.244  37.179  1.00  0.00     0.010 A 
ATOM     91  C   UNL A   1      38.868  34.466  39.437  1.00  0.00     0.020 A 
ATOM     92  C   UNL A   1      40.175  36.134  38.247  1.00  0.00     0.020 A 
ATOM     93  C   UNL A   1      39.434  35.743  39.362  1.00  0.00     0.054 A 
BRANCH  93  94
ATOM     94  S   UNL A   1      39.225  36.873  40.766  1.00  0.00     0.124 S 
ATOM     95  O   UNL A   1      40.602  37.266  41.047  1.00  0.00    -0.237 OA
ATOM     96  O   UNL A   1      38.374  37.921  40.208  1.00  0.00    -0.237 OA
ATOM     97  O   UNL A   1      38.592  36.043  41.788  1.00  0.00    -0.744 OA
ENDBRANCH  93  94
ENDBRANCH  67  88
ENDBRANCH  41  42
ENDBRANCH  33  36
ENDBRANCH  31  32
ENDBRANCH  30  31
ENDBRANCH  29  30
ENDBRANCH  28  29
ENDBRANCH   1  28
TORSDOF 23
ENDMDL
MODEL 2
REMARK VINA RESULT:     -10.1      1.449      8.305
REMARK SMILES Cc1cc(Br)cc([N+](=O)[O-])c1OCCC[C@@](C)([NH3+])C(=O)NCCCCCCNC(=O)c1ccc(-c2c3nc(c(-c4ccc(S(=O)(=O)[O-])cc4)c4ccc([nH]4)c(-c4ccc(S(=O)(=O)[O-])cc4)c4nc(c(-c5ccc(S(=O)(=O)[O-])cc5)c5ccc2[nH]5)C=C4)C=C3)cc1
REMARK SMILES IDX 23 1 22 2 21 3 19 4 20 5 16 7 17 8 15 9 14 10 13 11 12 12
REMARK SMILES IDX 11 13 1 14 2 15 3 16 4 17 7 18 5 19 6 20 8 21 9 22 10 23
REMARK SMILES IDX 18 24 24 28 25 29 26 30 27 31 28 32 29 33 30 35 31 36 32 37
REMARK SMILES IDX 90 38 33 39 89 40 34 41 35 42 36 43 83 44 37 45 88 46 82 47
REMARK SMILES IDX 84 48 38 49 87 50 81 51 80 52 39 54 69 55 50 56 68 57 51 58
REMARK SMILES IDX 54 59 67 60 85 61 52 62 53 63 66 65 86 66 55 67 40 68 41 69
REMARK SMILES IDX 49 70 42 71 48 72 43 73 44 74 45 75 46 76 47 77 70 78 71 79
REMARK SMILES IDX 79 80 72 81 78 82 73 83 74 84 75 85 76 86 77 87 56 88 57 89
REMARK SMILES IDX 65 90 58 91 64 92 59 93 60 94 61 95 62 96 63 97
REMARK H PARENT 21 6 18 25 18 26 18 27 28 34 84 53 54 64
REMARK Flexibility Score: inf
ROOT
ATOM      1  C   UNL A   1      39.177  22.631  26.217  1.00  0.00     0.021 C 
ENDROOT
BRANCH   1   2
ATOM      2  C   UNL A   1      38.228  21.564  25.666  1.00  0.00     0.116 C 
BRANCH   2   3
ATOM      3  N   UNL A   1      37.707  21.925  24.362  1.00  0.00    -0.351 N 
ATOM      4  C   UNL A   1      36.629  22.644  23.959  1.00  0.00     0.280 C 
ATOM      5  O   UNL A   1      36.715  23.080  22.803  1.00  0.00    -0.268 OA
ATOM      6  H   UNL A   1      38.246  21.576  23.616  1.00  0.00     0.163 HD
BRANCH   4   7
ATOM      7  C   UNL A   1      35.376  22.958  24.834  1.00  0.00     0.171 C 
ATOM      8  C   UNL A   1      35.733  24.215  25.640  1.00  0.00     0.090 C 
BRANCH   7   9
ATOM      9  C   UNL A   1      34.052  23.169  24.013  1.00  0.00     0.082 C 
BRANCH   9  10
ATOM     10  C   UNL A   1      32.689  23.291  24.728  1.00  0.00     0.049 C 
BRANCH  10  11
ATOM     11  C   UNL A   1      32.149  24.719  25.008  1.00  0.00     0.230 C 
BRANCH  11  12
ATOM     12  O   UNL A   1      32.999  25.707  24.397  1.00  0.00    -0.487 OA
BRANCH  12  13
ATOM     13  C   UNL A   1      32.400  26.830  23.865  1.00  0.00     0.200 A 
ATOM     14  C   UNL A   1      32.392  25.842  21.513  1.00  0.00     0.049 C 
ATOM     15  C   UNL A   1      31.893  26.779  22.553  1.00  0.00    -0.001 A 
ATOM     16  C   UNL A   1      30.829  27.610  22.163  1.00  0.00     0.023 A 
ATOM     17  C   UNL A   1      30.313  28.552  23.038  1.00  0.00     0.025 A 
ATOM     18  C   UNL A   1      31.937  27.866  24.696  1.00  0.00     0.312 A 
ATOM     19  Br  UNL A   1      28.826  29.588  22.511  1.00  0.00    -0.051 Br
ATOM     20  C   UNL A   1      30.893  28.725  24.285  1.00  0.00     0.105 A 
BRANCH  18  21
ATOM     21  N   UNL A   1      32.558  28.147  25.990  1.00  0.00     0.066 N 
ATOM     22  O   UNL A   1      33.778  28.369  26.000  1.00  0.00    -0.258 OA
ATOM     23  O   UNL A   1      31.859  28.062  27.008  1.00  0.00    -0.258 OA
ENDBRANCH  18  21
ENDBRANCH  12  13
ENDBRANCH  11  12
ENDBRANCH  10  11
ENDBRANCH   9  10
ENDBRANCH   7   9
BRANCH   7  24
ATOM     24  N   UNL A   1      35.090  21.924  25.859  1.00  0.00    -0.345 N 
ATOM     25  H   UNL A   1      35.914  21.790  26.444  1.00  0.00     0.345 HD
ATOM     26  H   UNL A   1      34.853  21.046  25.399  1.00  0.00     0.345 HD
ATOM     27  H   UNL A   1      34.307  22.228  26.438  1.00  0.00     0.345 HD
ENDBRANCH   7  24
ENDBRANCH   4   7
ENDBRANCH   2   3
ENDBRANCH   1   2
BRANCH   1  28
ATOM     28  C   UNL A   1      40.232  22.130  27.215  1.00  0.00     0.002 C 
BRANCH  28  29
ATOM     29  C   UNL A   1      41.607  21.803  26.626  1.00  0.00     0.002 C 
BRANCH  29  30
ATOM     30  C   UNL A   1      42.803  22.381  27.382  1.00  0.00     0.021 C 
BRANCH  30  31
ATOM     31  C   UNL A   1      42.802  23.898  27.514  1.00  0.00     0.116 C 
BRANCH  31  32
ATOM     32  N   UNL A   1      42.510  24.558  26.254  1.00  0.00    -0.352 N 
ATOM     33  C   UNL A   1      41.862  25.751  26.037  1.00  0.00     0.251 C 
ATOM     34  H   UNL A   1      42.817  24.087  25.445  1.00  0.00     0.163 HD
ATOM     35  O   UNL A   1      41.522  26.071  24.904  1.00  0.00    -0.269 OA
BRANCH  33  36
ATOM     36  C   UNL A   1      41.558  26.635  27.186  1.00  0.00     0.039 A 
ATOM     37  C   UNL A   1      40.528  26.280  28.060  1.00  0.00     0.014 A 
ATOM     38  C   UNL A   1      42.298  27.800  27.406  1.00  0.00     0.014 A 
ATOM     39  C   UNL A   1      40.281  27.064  29.190  1.00  0.00     0.010 A 
ATOM     40  C   UNL A   1      42.102  28.535  28.573  1.00  0.00     0.010 A 
ATOM     41  C   UNL A   1      41.089  28.178  29.476  1.00  0.00    -0.014 A 
BRANCH  41  42
ATOM     42  C   UNL A   1      40.890  28.978  30.711  1.00  0.00     0.031 A 
ATOM     43  C   UNL A   1      39.809  30.024  30.772  1.00  0.00     0.074 A 
ATOM     44  C   UNL A   1      41.721  28.806  31.759  1.00  0.00     0.049 A 
ATOM     45  N   UNL A   1      39.516  30.851  31.742  1.00  0.00    -0.248 NA
ATOM     46  C   UNL A   1      38.961  30.177  29.578  1.00  0.00     0.031 C 
ATOM     47  C   UNL A   1      42.835  27.854  31.810  1.00  0.00     0.029 A 
ATOM     48  N   UNL A   1      41.763  29.429  32.982  1.00  0.00    -0.354 N 
ATOM     49  C   UNL A   1      38.465  31.631  31.272  1.00  0.00     0.074 A 
ATOM     50  C   UNL A   1      38.205  31.213  29.912  1.00  0.00     0.031 C 
ATOM     51  C   UNL A   1      43.429  27.937  33.011  1.00  0.00     0.029 A 
ATOM     52  C   UNL A   1      42.772  28.974  33.799  1.00  0.00     0.049 A 
ATOM     53  H   UNL A   1      41.131  30.134  33.248  1.00  0.00     0.167 HD
ATOM     54  C   UNL A   1      37.764  32.592  31.920  1.00  0.00     0.031 A 
ATOM     55  C   UNL A   1      43.133  29.352  35.041  1.00  0.00     0.031 A 
ATOM     56  C   UNL A   1      38.020  33.000  33.277  1.00  0.00     0.049 A 
ATOM     57  C   UNL A   1      42.348  30.432  35.735  1.00  0.00     0.074 A 
ATOM     58  C   UNL A   1      37.332  33.926  34.040  1.00  0.00     0.029 A 
ATOM     59  N   UNL A   1      39.045  32.510  34.071  1.00  0.00    -0.354 N 
ATOM     60  N   UNL A   1      41.314  31.110  35.297  1.00  0.00    -0.248 NA
ATOM     61  C   UNL A   1      42.772  30.790  37.096  1.00  0.00     0.031 C 
ATOM     62  C   UNL A   1      37.975  34.038  35.276  1.00  0.00     0.029 A 
ATOM     63  C   UNL A   1      39.025  33.134  35.307  1.00  0.00     0.049 A 
ATOM     64  H   UNL A   1      39.692  31.821  33.797  1.00  0.00     0.167 HD
ATOM     65  C   UNL A   1      40.946  31.954  36.339  1.00  0.00     0.074 A 
ATOM     66  C   UNL A   1      41.860  31.691  37.433  1.00  0.00     0.031 C 
ATOM     67  C   UNL A   1      39.941  32.864  36.387  1.00  0.00     0.031 A 
BRANCH  54  68
ATOM     68  C   UNL A   1      36.656  33.279  31.163  1.00  0.00    -0.014 A 
ATOM     69  C   UNL A   1      36.878  33.825  29.885  1.00  0.00     0.010 A 
ATOM     70  C   UNL A   1      35.366  33.345  31.719  1.00  0.00     0.010 A 
ATOM     71  C   UNL A   1      35.841  34.461  29.197  1.00  0.00     0.020 A 
ATOM     72  C   UNL A   1      34.318  33.952  31.020  1.00  0.00     0.020 A 
ATOM     73  C   UNL A   1      34.567  34.524  29.771  1.00  0.00     0.054 A 
BRANCH  73  74
ATOM     74  S   UNL A   1      33.237  35.336  28.846  1.00  0.00     0.124 S 
ATOM     75  O   UNL A   1      33.964  36.383  28.130  1.00  0.00    -0.237 OA
ATOM     76  O   UNL A   1      32.716  34.254  28.015  1.00  0.00    -0.237 OA
ATOM     77  O   UNL A   1      32.329  35.810  29.887  1.00  0.00    -0.744 OA
ENDBRANCH  73  74
ENDBRANCH  54  68
BRANCH  55  78
ATOM     78  C   UNL A   1      44.287  28.693  35.713  1.00  0.00    -0.014 A 
ATOM     79  C   UNL A   1      44.096  27.541  36.498  1.00  0.00     0.010 A 
ATOM     80  C   UNL A   1      45.588  29.206  35.559  1.00  0.00     0.010 A 
ATOM     81  C   UNL A   1      45.180  26.927  37.130  1.00  0.00     0.020 A 
ATOM     82  C   UNL A   1      46.679  28.576  36.165  1.00  0.00     0.020 A 
ATOM     83  C   UNL A   1      46.466  27.447  36.958  1.00  0.00     0.054 A 
BRANCH  83  84
ATOM     84  S   UNL A   1      47.866  26.602  37.746  1.00  0.00     0.124 S 
ATOM     85  O   UNL A   1      47.191  25.647  38.619  1.00  0.00    -0.237 OA
ATOM     86  O   UNL A   1      48.570  26.028  36.602  1.00  0.00    -0.237 OA
ATOM     87  O   UNL A   1      48.577  27.682  38.428  1.00  0.00    -0.744 OA
ENDBRANCH  83  84
ENDBRANCH  55  78
BRANCH  67  88
ATOM     88  C   UNL A   1      39.749  33.620  37.676  1.00  0.00    -0.014 A 
ATOM     89  C   UNL A   1      40.126  34.969  37.796  1.00  0.00     0.010 A 
ATOM     90  C   UNL A   1      39.126  32.982  38.764  1.00  0.00     0.010 A 
ATOM     91  C   UNL A   1      39.913  35.657  38.994  1.00  0.00     0.020 A 
ATOM     92  C   UNL A   1      38.885  33.676  39.953  1.00  0.00     0.020 A 
ATOM     93  C   UNL A   1      39.293  35.005  40.064  1.00  0.00     0.054 A 
BRANCH  93  94
ATOM     94  S   UNL A   1      38.988  35.934  41.592  1.00  0.00     0.124 S 
ATOM     95  O   UNL A   1      40.087  35.488  42.443  1.00  0.00    -0.237 OA
ATOM     96  O   UNL A   1      39.064  37.322  41.143  1.00  0.00    -0.237 OA
ATOM     97  O   UNL A   1      37.659  35.492  42.007  1.00  0.00    -0.744 OA
ENDBRANCH  93  94
ENDBRANCH  67  88
ENDBRANCH  41  42
ENDBRANCH  33  36
ENDBRANCH  31  32
ENDBRANCH  30  31
ENDBRANCH  29  30
ENDBRANCH  28  29
ENDBRANCH   1  28
TORSDOF 23
ENDMDL
MODEL 3
REMARK VINA RESULT:      -9.8      1.710      2.520
REMARK SMILES Cc1cc(Br)cc([N+](=O)[O-])c1OCCC[C@@](C)([NH3+])C(=O)NCCCCCCNC(=O)c1ccc(-c2c3nc(c(-c4ccc(S(=O)(=O)[O-])cc4)c4ccc([nH]4)c(-c4ccc(S(=O)(=O)[O-])cc4)c4nc(c(-c5ccc(S(=O)(=O)[O-])cc5)c5ccc2[nH]5)C=C4)C=C3)cc1
REMARK SMILES IDX 23 1 22 2 21 3 19 4 20 5 16 7 17 8 15 9 14 10 13 11 12 12
REMARK SMILES IDX 11 13 1 14 2 15 3 16 4 17 7 18 5 19 6 20 8 21 9 22 10 23
REMARK SMILES IDX 18 24 24 28 25 29 26 30 27 31 28 32 29 33 30 35 31 36 32 37
REMARK SMILES IDX 90 38 33 39 89 40 34 41 35 42 36 43 83 44 37 45 88 46 82 47
REMARK SMILES IDX 84 48 38 49 87 50 81 51 80 52 39 54 69 55 50 56 68 57 51 58
REMARK SMILES IDX 54 59 67 60 85 61 52 62 53 63 66 65 86 66 55 67 40 68 41 69
REMARK SMILES IDX 49 70 42 71 48 72 43 73 44 74 45 75 46 76 47 77 70 78 71 79
REMARK SMILES IDX 79 80 72 81 78 82 73 83 74 84 75 85 76 86 77 87 56 88 57 89
REMARK SMILES IDX 65 90 58 91 64 92 59 93 60 94 61 95 62 96 63 97
REMARK H PARENT 21 6 18 25 18 26 18 27 28 34 84 53 54 64
REMARK Flexibility Score: inf
ROOT
ATOM      1  C   UNL A   1      39.464  22.581  26.187  1.00  0.00     0.021 C 
ENDROOT
BRANCH   1   2
ATOM      2  C   UNL A   1      38.404  21.564  25.756  1.00  0.00     0.116 C 
BRANCH   2   3
ATOM      3  N   UNL A   1      37.842  21.886  24.459  1.00  0.00    -0.351 N 
ATOM      4  C   UNL A   1      36.740  22.577  24.070  1.00  0.00     0.280 C 
ATOM      5  O   UNL A   1      36.787  22.987  22.902  1.00  0.00    -0.268 OA
ATOM      6  H   UNL A   1      38.366  21.529  23.706  1.00  0.00     0.163 HD
BRANCH   4   7
ATOM      7  C   UNL A   1      35.506  22.889  24.972  1.00  0.00     0.171 C 
ATOM      8  C   UNL A   1      35.891  24.128  25.792  1.00  0.00     0.090 C 
BRANCH   7   9
ATOM      9  C   UNL A   1      34.170  23.129  24.177  1.00  0.00     0.082 C 
BRANCH   9  10
ATOM     10  C   UNL A   1      33.845  24.515  23.580  1.00  0.00     0.049 C 
BRANCH  10  11
ATOM     11  C   UNL A   1      32.636  25.288  24.173  1.00  0.00     0.230 C 
BRANCH  11  12
ATOM     12  O   UNL A   1      31.799  25.796  23.119  1.00  0.00    -0.487 OA
BRANCH  12  13
ATOM     13  C   UNL A   1      31.299  27.075  23.255  1.00  0.00     0.200 A 
ATOM     14  C   UNL A   1      33.468  28.127  22.420  1.00  0.00     0.049 C 
ATOM     15  C   UNL A   1      32.006  28.151  22.686  1.00  0.00    -0.001 A 
ATOM     16  C   UNL A   1      31.335  29.320  22.292  1.00  0.00     0.023 A 
ATOM     17  C   UNL A   1      29.979  29.470  22.530  1.00  0.00     0.025 A 
ATOM     18  C   UNL A   1      29.950  27.293  23.587  1.00  0.00     0.312 A 
ATOM     19  Br  UNL A   1      29.094  31.017  21.908  1.00  0.00    -0.051 Br
ATOM     20  C   UNL A   1      29.289  28.488  23.224  1.00  0.00     0.105 A 
BRANCH  18  21
ATOM     21  N   UNL A   1      29.189  26.328  24.381  1.00  0.00     0.066 N 
ATOM     22  O   UNL A   1      28.053  26.031  23.980  1.00  0.00    -0.258 OA
ATOM     23  O   UNL A   1      29.677  25.930  25.446  1.00  0.00    -0.258 OA
ENDBRANCH  18  21
ENDBRANCH  12  13
ENDBRANCH  11  12
ENDBRANCH  10  11
ENDBRANCH   9  10
ENDBRANCH   7   9
BRANCH   7  24
ATOM     24  N   UNL A   1      35.226  21.842  25.984  1.00  0.00    -0.345 N 
ATOM     25  H   UNL A   1      35.361  22.227  26.919  1.00  0.00     0.345 HD
ATOM     26  H   UNL A   1      35.862  21.057  25.846  1.00  0.00     0.345 HD
ATOM     27  H   UNL A   1      34.263  21.521  25.884  1.00  0.00     0.345 HD
ENDBRANCH   7  24
ENDBRANCH   4   7
ENDBRANCH   2   3
ENDBRANCH   1   2
BRANCH   1  28
ATOM     28  C   UNL A   1      40.166  22.283  27.520  1.00  0.00     0.002 C 
BRANCH  28  29
ATOM     29  C   UNL A   1      41.266  21.218  27.473  1.00  0.00     0.002 C 
BRANCH  29  30
ATOM     30  C   UNL A   1      42.698  21.751  27.426  1.00  0.00     0.021 C 
BRANCH  30  31
ATOM     31  C   UNL A   1      42.822  23.261  27.572  1.00  0.00     0.116 C 
BRANCH  31  32
ATOM     32  N   UNL A   1      42.883  23.934  26.287  1.00  0.00    -0.352 N 
ATOM     33  C   UNL A   1      42.498  25.214  25.966  1.00  0.00     0.251 C 
ATOM     34  H   UNL A   1      43.249  23.401  25.544  1.00  0.00     0.163 HD
ATOM     35  O   UNL A   1      42.431  25.563  24.794  1.00  0.00    -0.269 OA
BRANCH  33  36
ATOM     36  C   UNL A   1      42.143  26.162  27.048  1.00  0.00     0.039 A 
ATOM     37  C   UNL A   1      41.109  25.831  27.926  1.00  0.00     0.014 A 
ATOM     38  C   UNL A   1      42.841  27.363  27.204  1.00  0.00     0.014 A 
ATOM     39  C   UNL A   1      40.814  26.679  28.997  1.00  0.00     0.010 A 
ATOM     40  C   UNL A   1      42.598  28.166  28.316  1.00  0.00     0.010 A 
ATOM     41  C   UNL A   1      41.580  27.836  29.222  1.00  0.00    -0.014 A 
BRANCH  41  42
ATOM     42  C   UNL A   1      41.331  28.709  30.398  1.00  0.00     0.031 A 
ATOM     43  C   UNL A   1      42.174  28.569  31.638  1.00  0.00     0.074 A 
ATOM     44  C   UNL A   1      40.309  29.588  30.373  1.00  0.00     0.049 A 
ATOM     45  N   UNL A   1      42.076  29.205  32.777  1.00  0.00    -0.248 NA
ATOM     46  C   UNL A   1      43.251  27.566  31.602  1.00  0.00     0.031 C 
ATOM     47  C   UNL A   1      39.393  29.791  29.248  1.00  0.00     0.029 A 
ATOM     48  N   UNL A   1      39.864  30.472  31.325  1.00  0.00    -0.354 N 
ATOM     49  C   UNL A   1      43.065  28.671  33.595  1.00  0.00     0.074 A 
ATOM     50  C   UNL A   1      43.717  27.623  32.841  1.00  0.00     0.031 C 
ATOM     51  C   UNL A   1      38.516  30.758  29.563  1.00  0.00     0.029 A 
ATOM     52  C   UNL A   1      38.777  31.213  30.925  1.00  0.00     0.049 A 
ATOM     53  H   UNL A   1      40.284  30.567  32.209  1.00  0.00     0.167 HD
ATOM     54  C   UNL A   1      43.414  29.032  34.853  1.00  0.00     0.031 A 
ATOM     55  C   UNL A   1      38.063  32.150  31.580  1.00  0.00     0.031 A 
ATOM     56  C   UNL A   1      42.768  30.081  35.598  1.00  0.00     0.049 A 
ATOM     57  C   UNL A   1      38.461  32.525  32.982  1.00  0.00     0.074 A 
ATOM     58  C   UNL A   1      43.083  30.560  36.858  1.00  0.00     0.029 A 
ATOM     59  N   UNL A   1      41.676  30.811  35.155  1.00  0.00    -0.354 N 
ATOM     60  N   UNL A   1      39.443  32.054  33.714  1.00  0.00    -0.248 NA
ATOM     61  C   UNL A   1      37.662  33.567  33.642  1.00  0.00     0.031 C 
ATOM     62  C   UNL A   1      42.146  31.539  37.199  1.00  0.00     0.029 A 
ATOM     63  C   UNL A   1      41.287  31.718  36.126  1.00  0.00     0.049 A 
ATOM     64  H   UNL A   1      41.241  30.701  34.279  1.00  0.00     0.167 HD
ATOM     65  C   UNL A   1      39.397  32.763  34.909  1.00  0.00     0.074 A 
ATOM     66  C   UNL A   1      38.299  33.703  34.796  1.00  0.00     0.031 C 
ATOM     67  C   UNL A   1      40.192  32.647  36.001  1.00  0.00     0.031 A 
BRANCH  54  68
ATOM     68  C   UNL A   1      44.543  28.279  35.509  1.00  0.00    -0.014 A 
ATOM     69  C   UNL A   1      44.302  27.108  36.252  1.00  0.00     0.010 A 
ATOM     70  C   UNL A   1      45.868  28.725  35.349  1.00  0.00     0.010 A 
ATOM     71  C   UNL A   1      45.359  26.423  36.856  1.00  0.00     0.020 A 
ATOM     72  C   UNL A   1      46.931  28.025  35.926  1.00  0.00     0.020 A 
ATOM     73  C   UNL A   1      46.668  26.887  36.692  1.00  0.00     0.054 A 
BRANCH  73  74
ATOM     74  S   UNL A   1      48.021  25.966  37.470  1.00  0.00     0.124 S 
ATOM     75  O   UNL A   1      49.194  26.550  36.822  1.00  0.00    -0.237 OA
ATOM     76  O   UNL A   1      47.859  26.292  38.885  1.00  0.00    -0.237 OA
ATOM     77  O   UNL A   1      47.744  24.576  37.118  1.00  0.00    -0.744 OA
ENDBRANCH  73  74
ENDBRANCH  54  68
BRANCH  55  78
ATOM     78  C   UNL A   1      36.906  32.806  30.911  1.00  0.00    -0.014 A 
ATOM     79  C   UNL A   1      35.588  32.431  31.228  1.00  0.00     0.010 A 
ATOM     80  C   UNL A   1      37.117  33.823  29.961  1.00  0.00     0.010 A 
ATOM     81  C   UNL A   1      34.504  33.047  30.595  1.00  0.00     0.020 A 
ATOM     82  C   UNL A   1      36.034  34.462  29.349  1.00  0.00     0.020 A 
ATOM     83  C   UNL A   1      34.735  34.061  29.661  1.00  0.00     0.054 A 
BRANCH  83  84
ATOM     84  S   UNL A   1      33.311  34.882  28.891  1.00  0.00     0.124 S 
ATOM     85  O   UNL A   1      32.840  33.862  27.959  1.00  0.00    -0.237 OA
ATOM     86  O   UNL A   1      32.443  35.145  30.036  1.00  0.00    -0.237 OA
ATOM     87  O   UNL A   1      33.895  36.072  28.275  1.00  0.00    -0.744 OA
ENDBRANCH  83  84
ENDBRANCH  55  78
BRANCH  67  88
ATOM     88  C   UNL A   1      39.932  33.584  37.152  1.00  0.00    -0.014 A 
ATOM     89  C   UNL A   1      38.948  33.302  38.117  1.00  0.00     0.010 A 
ATOM     90  C   UNL A   1      40.728  34.734  37.300  1.00  0.00     0.010 A 
ATOM     91  C   UNL A   1      38.743  34.173  39.191  1.00  0.00     0.020 A 
ATOM     92  C   UNL A   1      40.547  35.591  38.389  1.00  0.00     0.020 A 
ATOM     93  C   UNL A   1      39.545  35.312  39.320  1.00  0.00     0.054 A 
BRANCH  93  94
ATOM     94  S   UNL A   1      39.289  36.402  40.746  1.00  0.00     0.124 S 
ATOM     95  O   UNL A   1      38.742  35.480  41.738  1.00  0.00    -0.237 OA
ATOM     96  O   UNL A   1      40.638  36.891  41.021  1.00  0.00    -0.237 OA
ATOM     97  O   UNL A   1      38.356  37.410  40.251  1.00  0.00    -0.744 OA
ENDBRANCH  93  94
ENDBRANCH  67  88
ENDBRANCH  41  42
ENDBRANCH  33  36
ENDBRANCH  31  32
ENDBRANCH  30  31
ENDBRANCH  29  30
ENDBRANCH  28  29
ENDBRANCH   1  28
TORSDOF 23
ENDMDL
