MODEL 1
REMARK VINA RESULT:     -11.0      0.000      0.000
REMARK SMILES C[N@@H+]1CC2(CCN(C(=O)c3cc(-c4ccncc4)n[nH]3)CC2)C[C@H]1C(=O)NCCCCCCNC(=O)c1ccc(-c2c3nc(c(-c4ccc(S(=O)(=O)[O-])cc4)c4ccc([nH]4)c(-c4ccc(S(=O)(=O)[O-])cc4)c4nc(c(-c5ccc(S(=O)(=O)[O-])cc5)c5ccc2[nH]5)C=C4)C=C3)cc1
REMARK SMILES IDX 31 1 30 2 29 3 28 4 27 5 25 6 26 7 24 9 1 10 2 11 3 12 4 14
REMARK SMILES IDX 23 15 5 16 22 17 6 18 21 19 7 20 8 21 9 22 10 23 11 24 20 25
REMARK SMILES IDX 12 26 19 27 13 29 14 30 18 31 15 32 17 33 16 34 32 35 33 36
REMARK SMILES IDX 34 37 35 38 36 40 37 41 38 42 96 43 39 44 95 45 40 46 41 47
REMARK SMILES IDX 42 48 89 49 43 50 94 51 88 52 90 53 44 54 93 55 87 56 86 57
REMARK SMILES IDX 45 59 75 60 56 61 74 62 57 63 60 64 73 65 91 66 58 67 59 68
REMARK SMILES IDX 72 70 92 71 61 72 46 73 47 74 55 75 48 76 54 77 49 78 50 79
REMARK SMILES IDX 51 80 52 81 53 82 76 83 77 84 85 85 78 86 84 87 79 88 80 89
REMARK SMILES IDX 81 90 82 91 83 92 62 93 63 94 71 95 64 96 70 97 65 98 66 99
REMARK SMILES IDX 67 100 68 101 69 102
REMARK H PARENT 27 8 2 13 20 28 34 39 90 58 60 69
REMARK Flexibility Score: inf
ROOT
ATOM      1  C   UNL A   1      34.719  32.608  28.588  1.00  0.00     0.002 C 
ENDROOT
BRANCH   1   2
ATOM      2  C   UNL A   1      34.779  31.277  27.825  1.00  0.00     0.002 C 
BRANCH   2   3
ATOM      3  C   UNL A   1      33.452  30.706  27.316  1.00  0.00     0.021 C 
BRANCH   3   4
ATOM      4  C   UNL A   1      33.563  29.431  26.482  1.00  0.00     0.116 C 
BRANCH   4   5
ATOM      5  N   UNL A   1      33.300  29.607  25.071  1.00  0.00    -0.351 N 
ATOM      6  C   UNL A   1      32.701  28.755  24.182  1.00  0.00     0.278 C 
ATOM      7  O   UNL A   1      32.498  29.190  23.041  1.00  0.00    -0.268 OA
ATOM      8  H   UNL A   1      33.596  30.466  24.693  1.00  0.00     0.163 HD
BRANCH   6   9
ATOM      9  C   UNL A   1      32.247  27.313  24.550  1.00  0.00     0.274 C 
ATOM     10  C   UNL A   1      30.930  26.244  22.819  1.00  0.00     0.333 C 
ATOM     11  N   UNL A   1      32.272  26.439  23.366  1.00  0.00    -0.327 N 
ATOM     12  C   UNL A   1      32.918  25.171  23.705  1.00  0.00     0.269 C 
ATOM     13  H   UNL A   1      32.818  26.890  22.632  1.00  0.00     0.348 HD
ATOM     14  C   UNL A   1      33.529  25.277  25.121  1.00  0.00     0.029 C 
ATOM     15  C   UNL A   1      33.063  26.646  25.652  1.00  0.00     0.088 C 
ATOM     16  C   UNL A   1      35.073  25.220  25.173  1.00  0.00     0.034 C 
ATOM     17  C   UNL A   1      33.025  24.091  25.987  1.00  0.00     0.034 C 
ATOM     18  C   UNL A   1      35.618  23.901  24.663  1.00  0.00     0.120 C 
ATOM     19  C   UNL A   1      33.610  22.740  25.530  1.00  0.00     0.120 C 
ATOM     20  N   UNL A   1      35.066  22.785  25.422  1.00  0.00    -0.337 N 
ATOM     21  C   UNL A   1      35.809  21.629  25.681  1.00  0.00     0.271 C 
ATOM     22  O   UNL A   1      35.278  20.525  25.785  1.00  0.00    -0.267 OA
BRANCH  21  23
ATOM     23  C   UNL A   1      37.228  21.810  25.819  1.00  0.00     0.123 A 
ATOM     24  C   UNL A   1      38.273  20.948  25.546  1.00  0.00     0.064 A 
ATOM     25  N   UNL A   1      37.829  22.958  26.249  1.00  0.00    -0.272 N 
ATOM     26  C   UNL A   1      39.446  21.603  25.999  1.00  0.00     0.093 A 
ATOM     27  N   UNL A   1      39.140  22.804  26.511  1.00  0.00    -0.175 NA
ATOM     28  H   UNL A   1      37.351  23.812  26.358  1.00  0.00     0.190 HD
BRANCH  26  29
ATOM     29  C   UNL A   1      40.804  21.067  26.007  1.00  0.00     0.005 A 
ATOM     30  C   UNL A   1      41.906  21.923  25.941  1.00  0.00     0.030 A 
ATOM     31  C   UNL A   1      41.026  19.691  26.052  1.00  0.00     0.030 A 
ATOM     32  C   UNL A   1      43.173  21.365  25.893  1.00  0.00     0.111 A 
ATOM     33  C   UNL A   1      42.330  19.231  25.990  1.00  0.00     0.111 A 
ATOM     34  N   UNL A   1      43.410  20.037  25.887  1.00  0.00    -0.265 NA
ENDBRANCH  26  29
ENDBRANCH  21  23
ENDBRANCH   6   9
ENDBRANCH   4   5
ENDBRANCH   3   4
ENDBRANCH   2   3
ENDBRANCH   1   2
BRANCH   1  35
ATOM     35  C   UNL A   1      33.500  33.508  28.344  1.00  0.00     0.021 C 
BRANCH  35  36
ATOM     36  C   UNL A   1      33.616  34.961  28.811  1.00  0.00     0.116 C 
BRANCH  36  37
ATOM     37  N   UNL A   1      32.852  35.229  30.015  1.00  0.00    -0.352 N 
ATOM     38  C   UNL A   1      33.113  34.950  31.334  1.00  0.00     0.251 C 
ATOM     39  H   UNL A   1      31.998  35.694  29.859  1.00  0.00     0.163 HD
ATOM     40  O   UNL A   1      32.233  35.170  32.164  1.00  0.00    -0.269 OA
BRANCH  38  41
ATOM     41  C   UNL A   1      34.407  34.379  31.784  1.00  0.00     0.039 A 
ATOM     42  C   UNL A   1      34.399  33.093  32.341  1.00  0.00     0.014 A 
ATOM     43  C   UNL A   1      35.601  35.105  31.756  1.00  0.00     0.014 A 
ATOM     44  C   UNL A   1      35.583  32.519  32.819  1.00  0.00     0.010 A 
ATOM     45  C   UNL A   1      36.791  34.519  32.205  1.00  0.00     0.010 A 
ATOM     46  C   UNL A   1      36.793  33.221  32.740  1.00  0.00    -0.014 A 
BRANCH  46  47
ATOM     47  C   UNL A   1      38.062  32.607  33.210  1.00  0.00     0.031 A 
ATOM     48  C   UNL A   1      38.558  32.847  34.609  1.00  0.00     0.074 A 
ATOM     49  C   UNL A   1      38.797  31.863  32.362  1.00  0.00     0.049 A 
ATOM     50  N   UNL A   1      39.677  32.456  35.164  1.00  0.00    -0.248 NA
ATOM     51  C   UNL A   1      37.692  33.642  35.493  1.00  0.00     0.031 C 
ATOM     52  C   UNL A   1      38.449  31.570  30.970  1.00  0.00     0.029 A 
ATOM     53  N   UNL A   1      39.997  31.223  32.548  1.00  0.00    -0.354 N 
ATOM     54  C   UNL A   1      39.669  32.983  36.450  1.00  0.00     0.074 A 
ATOM     55  C   UNL A   1      38.429  33.721  36.593  1.00  0.00     0.031 C 
ATOM     56  C   UNL A   1      39.410  30.802  30.431  1.00  0.00     0.029 A 
ATOM     57  C   UNL A   1      40.448  30.564  31.429  1.00  0.00     0.049 A 
ATOM     58  H   UNL A   1      40.488  31.236  33.401  1.00  0.00     0.167 HD
ATOM     59  C   UNL A   1      40.606  32.872  37.422  1.00  0.00     0.031 A 
ATOM     60  C   UNL A   1      41.573  29.853  31.226  1.00  0.00     0.031 A 
ATOM     61  C   UNL A   1      41.826  32.120  37.304  1.00  0.00     0.049 A 
ATOM     62  C   UNL A   1      42.568  29.690  32.339  1.00  0.00     0.074 A 
ATOM     63  C   UNL A   1      42.819  31.934  38.251  1.00  0.00     0.029 A 
ATOM     64  N   UNL A   1      42.215  31.418  36.175  1.00  0.00    -0.354 N 
ATOM     65  N   UNL A   1      42.532  30.187  33.552  1.00  0.00    -0.248 NA
ATOM     66  C   UNL A   1      43.755  28.870  32.056  1.00  0.00     0.031 C 
ATOM     67  C   UNL A   1      43.816  31.126  37.688  1.00  0.00     0.029 A 
ATOM     68  C   UNL A   1      43.433  30.799  36.398  1.00  0.00     0.049 A 
ATOM     69  H   UNL A   1      41.702  31.369  35.336  1.00  0.00     0.167 HD
ATOM     70  C   UNL A   1      43.689  29.735  34.178  1.00  0.00     0.074 A 
ATOM     71  C   UNL A   1      44.397  28.915  33.216  1.00  0.00     0.031 C 
ATOM     72  C   UNL A   1      44.124  29.983  35.436  1.00  0.00     0.031 A 
BRANCH  59  73
ATOM     73  C   UNL A   1      40.348  33.611  38.703  1.00  0.00    -0.014 A 
ATOM     74  C   UNL A   1      39.582  33.031  39.729  1.00  0.00     0.010 A 
ATOM     75  C   UNL A   1      40.889  34.896  38.885  1.00  0.00     0.010 A 
ATOM     76  C   UNL A   1      39.329  33.742  40.905  1.00  0.00     0.020 A 
ATOM     77  C   UNL A   1      40.645  35.605  40.063  1.00  0.00     0.020 A 
ATOM     78  C   UNL A   1      39.849  35.031  41.058  1.00  0.00     0.054 A 
BRANCH  78  79
ATOM     79  S   UNL A   1      39.511  35.954  42.583  1.00  0.00     0.124 S 
ATOM     80  O   UNL A   1      38.336  35.255  43.100  1.00  0.00    -0.237 OA
ATOM     81  O   UNL A   1      40.737  35.776  43.359  1.00  0.00    -0.237 OA
ATOM     82  O   UNL A   1      39.271  37.315  42.111  1.00  0.00    -0.744 OA
ENDBRANCH  78  79
ENDBRANCH  59  73
BRANCH  60  83
ATOM     83  C   UNL A   1      41.818  29.231  29.902  1.00  0.00    -0.014 A 
ATOM     84  C   UNL A   1      41.303  27.957  29.612  1.00  0.00     0.010 A 
ATOM     85  C   UNL A   1      42.549  29.922  28.920  1.00  0.00     0.010 A 
ATOM     86  C   UNL A   1      41.524  27.375  28.360  1.00  0.00     0.020 A 
ATOM     87  C   UNL A   1      42.760  29.348  27.663  1.00  0.00     0.020 A 
ATOM     88  C   UNL A   1      42.256  28.072  27.396  1.00  0.00     0.054 A 
BRANCH  88  89
ATOM     89  S   UNL A   1      42.499  27.334  25.755  1.00  0.00     0.124 S 
ATOM     90  O   UNL A   1      42.024  28.396  24.874  1.00  0.00    -0.237 OA
ATOM     91  O   UNL A   1      43.937  27.081  25.719  1.00  0.00    -0.237 OA
ATOM     92  O   UNL A   1      41.664  26.135  25.799  1.00  0.00    -0.744 OA
ENDBRANCH  88  89
ENDBRANCH  60  83
BRANCH  72  93
ATOM     93  C   UNL A   1      45.421  29.350  35.849  1.00  0.00    -0.014 A 
ATOM     94  C   UNL A   1      46.640  30.018  35.643  1.00  0.00     0.010 A 
ATOM     95  C   UNL A   1      45.418  28.096  36.482  1.00  0.00     0.010 A 
ATOM     96  C   UNL A   1      47.843  29.433  36.047  1.00  0.00     0.020 A 
ATOM     97  C   UNL A   1      46.618  27.511  36.896  1.00  0.00     0.020 A 
ATOM     98  C   UNL A   1      47.825  28.178  36.665  1.00  0.00     0.054 A 
BRANCH  98  99
ATOM     99  S   UNL A   1      49.385  27.440  37.229  1.00  0.00     0.124 S 
ATOM    100  O   UNL A   1      50.359  28.450  36.827  1.00  0.00    -0.237 OA
ATOM    101  O   UNL A   1      49.184  27.299  38.670  1.00  0.00    -0.237 OA
ATOM    102  O   UNL A   1      49.448  26.180  36.492  1.00  0.00    -0.744 OA
ENDBRANCH  98  99
ENDBRANCH  72  93
ENDBRANCH  46  47
ENDBRANCH  38  41
ENDBRANCH  36  37
ENDBRANCH  35  36
ENDBRANCH   1  35
TORSDOF 18
ENDMDL
MODEL 2
REMARK VINA RESULT:     -11.0      0.545      7.782
REMARK SMILES C[N@@H+]1CC2(CCN(C(=O)c3cc(-c4ccncc4)n[nH]3)CC2)C[C@H]1C(=O)NCCCCCCNC(=O)c1ccc(-c2c3nc(c(-c4ccc(S(=O)(=O)[O-])cc4)c4ccc([nH]4)c(-c4ccc(S(=O)(=O)[O-])cc4)c4nc(c(-c5ccc(S(=O)(=O)[O-])cc5)c5ccc2[nH]5)C=C4)C=C3)cc1
REMARK SMILES IDX 31 1 30 2 29 3 28 4 27 5 25 6 26 7 24 9 1 10 2 11 3 12 4 14
REMARK SMILES IDX 23 15 5 16 22 17 6 18 21 19 7 20 8 21 9 22 10 23 11 24 20 25
REMARK SMILES IDX 12 26 19 27 13 29 14 30 18 31 15 32 17 33 16 34 32 35 33 36
REMARK SMILES IDX 34 37 35 38 36 40 37 41 38 42 96 43 39 44 95 45 40 46 41 47
REMARK SMILES IDX 42 48 89 49 43 50 94 51 88 52 90 53 44 54 93 55 87 56 86 57
REMARK SMILES IDX 45 59 75 60 56 61 74 62 57 63 60 64 73 65 91 66 58 67 59 68
REMARK SMILES IDX 72 70 92 71 61 72 46 73 47 74 55 75 48 76 54 77 49 78 50 79
REMARK SMILES IDX 51 80 52 81 53 82 76 83 77 84 85 85 78 86 84 87 79 88 80 89
REMARK SMILES IDX 81 90 82 91 83 92 62 93 63 94 71 95 64 96 70 97 65 98 66 99
REMARK SMILES IDX 67 100 68 101 69 102
REMARK H PARENT 27 8 2 13 20 28 34 39 90 58 60 69
REMARK Flexibility Score: inf
ROOT
ATOM      1  C   UNL A   1      34.740  32.545  28.663  1.00  0.00     0.002 C 
ENDROOT
BRANCH   1   2
ATOM      2  C   UNL A   1      34.808  31.225  27.882  1.00  0.00     0.002 C 
BRANCH   2   3
ATOM      3  C   UNL A   1      33.483  30.649  27.374  1.00  0.00     0.021 C 
BRANCH   3   4
ATOM      4  C   UNL A   1      33.604  29.421  26.473  1.00  0.00     0.116 C 
BRANCH   4   5
ATOM      5  N   UNL A   1      33.328  29.668  25.075  1.00  0.00    -0.351 N 
ATOM      6  C   UNL A   1      32.694  28.875  24.157  1.00  0.00     0.278 C 
ATOM      7  O   UNL A   1      32.489  29.367  23.040  1.00  0.00    -0.268 OA
ATOM      8  H   UNL A   1      33.643  30.536  24.733  1.00  0.00     0.163 HD
BRANCH   6   9
ATOM      9  C   UNL A   1      32.204  27.431  24.466  1.00  0.00     0.274 C 
ATOM     10  C   UNL A   1      30.929  26.438  22.660  1.00  0.00     0.333 C 
ATOM     11  N   UNL A   1      32.254  26.592  23.257  1.00  0.00    -0.327 N 
ATOM     12  C   UNL A   1      32.867  25.304  23.579  1.00  0.00     0.269 C 
ATOM     13  H   UNL A   1      32.833  27.055  22.556  1.00  0.00     0.348 HD
ATOM     14  C   UNL A   1      33.431  25.356  25.016  1.00  0.00     0.029 C 
ATOM     15  C   UNL A   1      32.971  26.717  25.573  1.00  0.00     0.088 C 
ATOM     16  C   UNL A   1      34.972  25.270  25.119  1.00  0.00     0.034 C 
ATOM     17  C   UNL A   1      32.879  24.154  25.829  1.00  0.00     0.034 C 
ATOM     18  C   UNL A   1      35.512  23.958  24.587  1.00  0.00     0.120 C 
ATOM     19  C   UNL A   1      33.457  22.807  25.351  1.00  0.00     0.120 C 
ATOM     20  N   UNL A   1      34.916  22.829  25.292  1.00  0.00    -0.337 N 
ATOM     21  C   UNL A   1      35.630  21.654  25.541  1.00  0.00     0.271 C 
ATOM     22  O   UNL A   1      35.078  20.557  25.594  1.00  0.00    -0.267 OA
BRANCH  21  23
ATOM     23  C   UNL A   1      37.046  21.805  25.731  1.00  0.00     0.123 A 
ATOM     24  C   UNL A   1      38.086  20.931  25.474  1.00  0.00     0.064 A 
ATOM     25  N   UNL A   1      37.652  22.932  26.210  1.00  0.00    -0.272 N 
ATOM     26  C   UNL A   1      39.254  21.554  25.982  1.00  0.00     0.093 A 
ATOM     27  N   UNL A   1      38.951  22.747  26.512  1.00  0.00    -0.175 NA
ATOM     28  H   UNL A   1      37.186  23.792  26.322  1.00  0.00     0.190 HD
BRANCH  26  29
ATOM     29  C   UNL A   1      40.601  20.993  26.024  1.00  0.00     0.005 A 
ATOM     30  C   UNL A   1      41.719  21.829  25.998  1.00  0.00     0.030 A 
ATOM     31  C   UNL A   1      40.797  19.612  26.060  1.00  0.00     0.030 A 
ATOM     32  C   UNL A   1      42.977  21.249  25.981  1.00  0.00     0.111 A 
ATOM     33  C   UNL A   1      42.093  19.130  26.031  1.00  0.00     0.111 A 
ATOM     34  N   UNL A   1      43.190  19.917  25.967  1.00  0.00    -0.265 NA
ENDBRANCH  26  29
ENDBRANCH  21  23
ENDBRANCH   6   9
ENDBRANCH   4   5
ENDBRANCH   3   4
ENDBRANCH   2   3
ENDBRANCH   1   2
BRANCH   1  35
ATOM     35  C   UNL A   1      33.507  33.432  28.447  1.00  0.00     0.021 C 
BRANCH  35  36
ATOM     36  C   UNL A   1      33.620  34.888  28.905  1.00  0.00     0.116 C 
BRANCH  36  37
ATOM     37  N   UNL A   1      32.786  35.185  30.054  1.00  0.00    -0.352 N 
ATOM     38  C   UNL A   1      32.971  34.944  31.394  1.00  0.00     0.251 C 
ATOM     39  H   UNL A   1      31.940  35.639  29.836  1.00  0.00     0.163 HD
ATOM     40  O   UNL A   1      32.043  35.181  32.165  1.00  0.00    -0.269 OA
BRANCH  38  41
ATOM     41  C   UNL A   1      34.239  34.394  31.934  1.00  0.00     0.039 A 
ATOM     42  C   UNL A   1      35.341  35.254  32.029  1.00  0.00     0.014 A 
ATOM     43  C   UNL A   1      34.395  33.044  32.262  1.00  0.00     0.014 A 
ATOM     44  C   UNL A   1      36.574  34.780  32.493  1.00  0.00     0.010 A 
ATOM     45  C   UNL A   1      35.619  32.577  32.758  1.00  0.00     0.010 A 
ATOM     46  C   UNL A   1      36.719  33.441  32.878  1.00  0.00    -0.014 A 
BRANCH  46  47
ATOM     47  C   UNL A   1      38.013  32.937  33.407  1.00  0.00     0.031 A 
ATOM     48  C   UNL A   1      38.933  32.124  32.539  1.00  0.00     0.074 A 
ATOM     49  C   UNL A   1      38.345  33.174  34.691  1.00  0.00     0.049 A 
ATOM     50  N   UNL A   1      40.061  31.541  32.856  1.00  0.00    -0.248 NA
ATOM     51  C   UNL A   1      38.525  31.930  31.140  1.00  0.00     0.031 C 
ATOM     52  C   UNL A   1      37.535  33.925  35.653  1.00  0.00     0.029 A 
ATOM     53  N   UNL A   1      39.452  32.797  35.409  1.00  0.00    -0.354 N 
ATOM     54  C   UNL A   1      40.483  30.880  31.709  1.00  0.00     0.074 A 
ATOM     55  C   UNL A   1      39.489  31.139  30.686  1.00  0.00     0.031 C 
ATOM     56  C   UNL A   1      38.177  33.960  36.832  1.00  0.00     0.029 A 
ATOM     57  C   UNL A   1      39.431  33.222  36.717  1.00  0.00     0.049 A 
ATOM     58  H   UNL A   1      40.192  32.273  35.025  1.00  0.00     0.167 HD
ATOM     59  C   UNL A   1      41.590  30.123  31.520  1.00  0.00     0.031 A 
ATOM     60  C   UNL A   1      40.316  33.032  37.713  1.00  0.00     0.031 A 
ATOM     61  C   UNL A   1      42.599  29.882  32.516  1.00  0.00     0.049 A 
ATOM     62  C   UNL A   1      41.569  32.242  37.463  1.00  0.00     0.074 A 
ATOM     63  C   UNL A   1      43.767  29.146  32.400  1.00  0.00     0.029 A 
ATOM     64  N   UNL A   1      42.568  30.380  33.808  1.00  0.00    -0.354 N 
ATOM     65  N   UNL A   1      41.953  31.639  36.364  1.00  0.00    -0.248 NA
ATOM     66  C   UNL A   1      42.507  32.109  38.587  1.00  0.00     0.031 C 
ATOM     67  C   UNL A   1      44.438  29.192  33.629  1.00  0.00     0.029 A 
ATOM     68  C   UNL A   1      43.693  29.968  34.502  1.00  0.00     0.049 A 
ATOM     69  H   UNL A   1      41.850  30.942  34.179  1.00  0.00     0.167 HD
ATOM     70  C   UNL A   1      43.181  31.058  36.665  1.00  0.00     0.074 A 
ATOM     71  C   UNL A   1      43.481  31.393  38.042  1.00  0.00     0.031 C 
ATOM     72  C   UNL A   1      43.982  30.311  35.869  1.00  0.00     0.031 A 
BRANCH  59  73
ATOM     73  C   UNL A   1      41.752  29.478  30.174  1.00  0.00    -0.014 A 
ATOM     74  C   UNL A   1      42.317  30.184  29.099  1.00  0.00     0.010 A 
ATOM     75  C   UNL A   1      41.344  28.145  29.990  1.00  0.00     0.010 A 
ATOM     76  C   UNL A   1      42.436  29.578  27.845  1.00  0.00     0.020 A 
ATOM     77  C   UNL A   1      41.471  27.534  28.740  1.00  0.00     0.020 A 
ATOM     78  C   UNL A   1      41.998  28.261  27.670  1.00  0.00     0.054 A 
BRANCH  78  79
ATOM     79  S   UNL A   1      42.148  27.481  26.039  1.00  0.00     0.124 S 
ATOM     80  O   UNL A   1      42.281  28.644  25.164  1.00  0.00    -0.237 OA
ATOM     81  O   UNL A   1      43.347  26.657  26.173  1.00  0.00    -0.237 OA
ATOM     82  O   UNL A   1      40.899  26.736  25.903  1.00  0.00    -0.744 OA
ENDBRANCH  78  79
ENDBRANCH  59  73
BRANCH  60  83
ATOM     83  C   UNL A   1      40.048  33.612  39.052  1.00  0.00    -0.014 A 
ATOM     84  C   UNL A   1      40.545  34.883  39.386  1.00  0.00     0.010 A 
ATOM     85  C   UNL A   1      39.275  32.904  39.988  1.00  0.00     0.010 A 
ATOM     86  C   UNL A   1      40.283  35.435  40.643  1.00  0.00     0.020 A 
ATOM     87  C   UNL A   1      39.001  33.459  41.241  1.00  0.00     0.020 A 
ATOM     88  C   UNL A   1      39.517  34.717  41.564  1.00  0.00     0.054 A 
BRANCH  88  89
ATOM     89  S   UNL A   1      39.138  35.457  43.178  1.00  0.00     0.124 S 
ATOM     90  O   UNL A   1      37.680  35.387  43.206  1.00  0.00    -0.237 OA
ATOM     91  O   UNL A   1      39.830  34.575  44.114  1.00  0.00    -0.237 OA
ATOM     92  O   UNL A   1      39.700  36.802  43.071  1.00  0.00    -0.744 OA
ENDBRANCH  88  89
ENDBRANCH  60  83
BRANCH  72  93
ATOM     93  C   UNL A   1      45.267  29.815  36.465  1.00  0.00    -0.014 A 
ATOM     94  C   UNL A   1      45.311  28.590  37.152  1.00  0.00     0.010 A 
ATOM     95  C   UNL A   1      46.449  30.559  36.303  1.00  0.00     0.010 A 
ATOM     96  C   UNL A   1      46.515  28.123  37.687  1.00  0.00     0.020 A 
ATOM     97  C   UNL A   1      47.656  30.092  36.829  1.00  0.00     0.020 A 
ATOM     98  C   UNL A   1      47.679  28.881  37.529  1.00  0.00     0.054 A 
BRANCH  98  99
ATOM     99  S   UNL A   1      49.249  28.251  38.187  1.00  0.00     0.124 S 
ATOM    100  O   UNL A   1      48.838  26.989  38.794  1.00  0.00    -0.237 OA
ATOM    101  O   UNL A   1      50.085  28.131  36.994  1.00  0.00    -0.237 OA
ATOM    102  O   UNL A   1      49.664  29.292  39.125  1.00  0.00    -0.744 OA
ENDBRANCH  98  99
ENDBRANCH  72  93
ENDBRANCH  46  47
ENDBRANCH  38  41
ENDBRANCH  36  37
ENDBRANCH  35  36
ENDBRANCH   1  35
TORSDOF 18
ENDMDL
MODEL 3
REMARK VINA RESULT:     -10.9      5.591     12.780
REMARK SMILES C[N@@H+]1CC2(CCN(C(=O)c3cc(-c4ccncc4)n[nH]3)CC2)C[C@H]1C(=O)NCCCCCCNC(=O)c1ccc(-c2c3nc(c(-c4ccc(S(=O)(=O)[O-])cc4)c4ccc([nH]4)c(-c4ccc(S(=O)(=O)[O-])cc4)c4nc(c(-c5ccc(S(=O)(=O)[O-])cc5)c5ccc2[nH]5)C=C4)C=C3)cc1
REMARK SMILES IDX 31 1 30 2 29 3 28 4 27 5 25 6 26 7 24 9 1 10 2 11 3 12 4 14
REMARK SMILES IDX 23 15 5 16 22 17 6 18 21 19 7 20 8 21 9 22 10 23 11 24 20 25
REMARK SMILES IDX 12 26 19 27 13 29 14 30 18 31 15 32 17 33 16 34 32 35 33 36
REMARK SMILES IDX 34 37 35 38 36 40 37 41 38 42 96 43 39 44 95 45 40 46 41 47
REMARK SMILES IDX 42 48 89 49 43 50 94 51 88 52 90 53 44 54 93 55 87 56 86 57
REMARK SMILES IDX 45 59 75 60 56 61 74 62 57 63 60 64 73 65 91 66 58 67 59 68
REMARK SMILES IDX 72 70 92 71 61 72 46 73 47 74 55 75 48 76 54 77 49 78 50 79
REMARK SMILES IDX 51 80 52 81 53 82 76 83 77 84 85 85 78 86 84 87 79 88 80 89
REMARK SMILES IDX 81 90 82 91 83 92 62 93 63 94 71 95 64 96 70 97 65 98 66 99
REMARK SMILES IDX 67 100 68 101 69 102
REMARK H PARENT 27 8 2 13 20 28 34 39 90 58 60 69
REMARK Flexibility Score: inf
ROOT
ATOM      1  C   UNL A   1      46.065  25.624  28.947  1.00  0.00     0.002 C 
ENDROOT
BRANCH   1   2
ATOM      2  C   UNL A   1      45.352  25.376  30.284  1.00  0.00     0.002 C 
BRANCH   2   3
ATOM      3  C   UNL A   1      44.274  24.288  30.306  1.00  0.00     0.021 C 
BRANCH   3   4
ATOM      4  C   UNL A   1      44.229  23.433  31.571  1.00  0.00     0.116 C 
BRANCH   4   5
ATOM      5  N   UNL A   1      43.956  24.167  32.787  1.00  0.00    -0.351 N 
ATOM      6  C   UNL A   1      44.713  24.288  33.922  1.00  0.00     0.278 C 
ATOM      7  O   UNL A   1      44.299  25.069  34.788  1.00  0.00    -0.268 OA
ATOM      8  H   UNL A   1      43.100  24.652  32.801  1.00  0.00     0.163 HD
BRANCH   6   9
ATOM      9  C   UNL A   1      46.053  23.529  34.142  1.00  0.00     0.274 C 
ATOM     10  C   UNL A   1      47.926  24.995  34.605  1.00  0.00     0.333 C 
ATOM     11  N   UNL A   1      46.859  24.184  35.186  1.00  0.00    -0.327 N 
ATOM     12  C   UNL A   1      47.373  23.176  36.113  1.00  0.00     0.269 C 
ATOM     13  H   UNL A   1      46.263  24.826  35.711  1.00  0.00     0.348 HD
ATOM     14  C   UNL A   1      46.723  21.812  35.791  1.00  0.00     0.029 C 
ATOM     15  C   UNL A   1      45.904  22.057  34.510  1.00  0.00     0.088 C 
ATOM     16  C   UNL A   1      45.783  21.260  36.887  1.00  0.00     0.034 C 
ATOM     17  C   UNL A   1      47.835  20.746  35.600  1.00  0.00     0.034 C 
ATOM     18  C   UNL A   1      46.511  20.993  38.189  1.00  0.00     0.120 C 
ATOM     19  C   UNL A   1      48.555  20.407  36.921  1.00  0.00     0.120 C 
ATOM     20  N   UNL A   1      47.615  20.062  37.983  1.00  0.00    -0.337 N 
ATOM     21  C   UNL A   1      47.993  19.138  38.961  1.00  0.00     0.271 C 
ATOM     22  O   UNL A   1      49.158  18.767  39.089  1.00  0.00    -0.267 OA
BRANCH  21  23
ATOM     23  C   UNL A   1      46.940  18.648  39.807  1.00  0.00     0.123 A 
ATOM     24  C   UNL A   1      46.194  17.487  39.732  1.00  0.00     0.064 A 
ATOM     25  N   UNL A   1      46.482  19.282  40.927  1.00  0.00    -0.272 N 
ATOM     26  C   UNL A   1      45.207  17.592  40.745  1.00  0.00     0.093 A 
ATOM     27  N   UNL A   1      45.346  18.746  41.412  1.00  0.00    -0.175 NA
ATOM     28  H   UNL A   1      46.936  20.053  41.338  1.00  0.00     0.190 HD
BRANCH  26  29
ATOM     29  C   UNL A   1      44.124  16.651  41.017  1.00  0.00     0.005 A 
ATOM     30  C   UNL A   1      43.991  16.068  42.279  1.00  0.00     0.030 A 
ATOM     31  C   UNL A   1      43.221  16.296  40.015  1.00  0.00     0.030 A 
ATOM     32  C   UNL A   1      42.983  15.138  42.472  1.00  0.00     0.111 A 
ATOM     33  C   UNL A   1      42.253  15.351  40.305  1.00  0.00     0.111 A 
ATOM     34  N   UNL A   1      42.128  14.743  41.506  1.00  0.00    -0.265 NA
ENDBRANCH  26  29
ENDBRANCH  21  23
ENDBRANCH   6   9
ENDBRANCH   4   5
ENDBRANCH   3   4
ENDBRANCH   2   3
ENDBRANCH   1   2
BRANCH   1  35
ATOM     35  C   UNL A   1      45.673  24.733  27.760  1.00  0.00     0.021 C 
BRANCH  35  36
ATOM     36  C   UNL A   1      45.585  25.412  26.392  1.00  0.00     0.116 C 
BRANCH  36  37
ATOM     37  N   UNL A   1      44.319  25.173  25.724  1.00  0.00    -0.352 N 
ATOM     38  C   UNL A   1      43.034  25.508  26.072  1.00  0.00     0.251 C 
ATOM     39  H   UNL A   1      44.396  24.687  24.871  1.00  0.00     0.163 HD
ATOM     40  O   UNL A   1      42.110  25.072  25.388  1.00  0.00    -0.269 OA
BRANCH  38  41
ATOM     41  C   UNL A   1      42.726  26.358  27.249  1.00  0.00     0.039 A 
ATOM     42  C   UNL A   1      41.902  25.823  28.249  1.00  0.00     0.014 A 
ATOM     43  C   UNL A   1      43.150  27.687  27.350  1.00  0.00     0.014 A 
ATOM     44  C   UNL A   1      41.546  26.593  29.362  1.00  0.00     0.010 A 
ATOM     45  C   UNL A   1      42.820  28.446  28.480  1.00  0.00     0.010 A 
ATOM     46  C   UNL A   1      42.015  27.906  29.495  1.00  0.00    -0.014 A 
BRANCH  46  47
ATOM     47  C   UNL A   1      41.673  28.720  30.691  1.00  0.00     0.031 A 
ATOM     48  C   UNL A   1      40.466  29.616  30.690  1.00  0.00     0.074 A 
ATOM     49  C   UNL A   1      42.476  28.686  31.772  1.00  0.00     0.049 A 
ATOM     50  N   UNL A   1      40.060  30.451  31.613  1.00  0.00    -0.248 NA
ATOM     51  C   UNL A   1      39.615  29.581  29.492  1.00  0.00     0.031 C 
ATOM     52  C   UNL A   1      43.694  27.881  31.900  1.00  0.00     0.029 A 
ATOM     53  N   UNL A   1      42.391  29.355  32.967  1.00  0.00    -0.354 N 
ATOM     54  C   UNL A   1      38.927  31.067  31.096  1.00  0.00     0.074 A 
ATOM     55  C   UNL A   1      38.708  30.506  29.778  1.00  0.00     0.031 C 
ATOM     56  C   UNL A   1      44.236  28.098  33.110  1.00  0.00     0.029 A 
ATOM     57  C   UNL A   1      43.419  29.067  33.834  1.00  0.00     0.049 A 
ATOM     58  H   UNL A   1      41.663  29.981  33.184  1.00  0.00     0.167 HD
ATOM     59  C   UNL A   1      38.142  32.016  31.660  1.00  0.00     0.031 A 
ATOM     60  C   UNL A   1      43.679  29.535  35.069  1.00  0.00     0.031 A 
ATOM     61  C   UNL A   1      38.330  32.561  32.978  1.00  0.00     0.049 A 
ATOM     62  C   UNL A   1      42.759  30.541  35.700  1.00  0.00     0.074 A 
ATOM     63  C   UNL A   1      37.564  33.508  33.637  1.00  0.00     0.029 A 
ATOM     64  N   UNL A   1      39.348  32.198  33.844  1.00  0.00    -0.354 N 
ATOM     65  N   UNL A   1      41.684  31.098  35.197  1.00  0.00    -0.248 NA
ATOM     66  C   UNL A   1      43.086  30.977  37.065  1.00  0.00     0.031 C 
ATOM     67  C   UNL A   1      38.128  33.726  34.901  1.00  0.00     0.029 A 
ATOM     68  C   UNL A   1      39.234  32.903  35.031  1.00  0.00     0.049 A 
ATOM     69  H   UNL A   1      40.050  31.538  33.645  1.00  0.00     0.167 HD
ATOM     70  C   UNL A   1      41.205  31.949  36.186  1.00  0.00     0.074 A 
ATOM     71  C   UNL A   1      42.097  31.823  37.321  1.00  0.00     0.031 C 
ATOM     72  C   UNL A   1      40.124  32.764  36.153  1.00  0.00     0.031 A 
BRANCH  59  73
ATOM     73  C   UNL A   1      37.009  32.544  30.828  1.00  0.00    -0.014 A 
ATOM     74  C   UNL A   1      35.732  31.961  30.895  1.00  0.00     0.010 A 
ATOM     75  C   UNL A   1      37.225  33.645  29.981  1.00  0.00     0.010 A 
ATOM     76  C   UNL A   1      34.695  32.447  30.094  1.00  0.00     0.020 A 
ATOM     77  C   UNL A   1      36.187  34.139  29.187  1.00  0.00     0.020 A 
ATOM     78  C   UNL A   1      34.934  33.524  29.233  1.00  0.00     0.054 A 
BRANCH  78  79
ATOM     79  S   UNL A   1      33.586  34.146  28.190  1.00  0.00     0.124 S 
ATOM     80  O   UNL A   1      32.990  32.905  27.701  1.00  0.00    -0.237 OA
ATOM     81  O   UNL A   1      32.764  34.908  29.128  1.00  0.00    -0.237 OA
ATOM     82  O   UNL A   1      34.278  34.948  27.184  1.00  0.00    -0.744 OA
ENDBRANCH  78  79
ENDBRANCH  59  73
BRANCH  60  83
ATOM     83  C   UNL A   1      44.875  29.047  35.800  1.00  0.00    -0.014 A 
ATOM     84  C   UNL A   1      44.789  27.907  36.616  1.00  0.00     0.010 A 
ATOM     85  C   UNL A   1      46.106  29.711  35.664  1.00  0.00     0.010 A 
ATOM     86  C   UNL A   1      45.918  27.441  37.296  1.00  0.00     0.020 A 
ATOM     87  C   UNL A   1      47.239  29.239  36.334  1.00  0.00     0.020 A 
ATOM     88  C   UNL A   1      47.134  28.113  37.155  1.00  0.00     0.054 A 
BRANCH  88  89
ATOM     89  S   UNL A   1      48.609  27.476  38.001  1.00  0.00     0.124 S 
ATOM     90  O   UNL A   1      48.412  26.033  37.901  1.00  0.00    -0.237 OA
ATOM     91  O   UNL A   1      49.705  28.020  37.203  1.00  0.00    -0.237 OA
ATOM     92  O   UNL A   1      48.492  28.034  39.346  1.00  0.00    -0.744 OA
ENDBRANCH  88  89
ENDBRANCH  60  83
BRANCH  72  93
ATOM     93  C   UNL A   1      39.839  33.575  37.384  1.00  0.00    -0.014 A 
ATOM     94  C   UNL A   1      40.334  34.884  37.509  1.00  0.00     0.010 A 
ATOM     95  C   UNL A   1      39.038  33.039  38.406  1.00  0.00     0.010 A 
ATOM     96  C   UNL A   1      40.049  35.641  38.648  1.00  0.00     0.020 A 
ATOM     97  C   UNL A   1      38.743  33.795  39.544  1.00  0.00     0.020 A 
ATOM     98  C   UNL A   1      39.261  35.089  39.663  1.00  0.00     0.054 A 
BRANCH  98  99
ATOM     99  S   UNL A   1      38.856  36.090  41.122  1.00  0.00     0.124 S 
ATOM    100  O   UNL A   1      37.671  35.411  41.635  1.00  0.00    -0.237 OA
ATOM    101  O   UNL A   1      40.056  35.970  41.949  1.00  0.00    -0.237 OA
ATOM    102  O   UNL A   1      38.626  37.421  40.565  1.00  0.00    -0.744 OA
ENDBRANCH  98  99
ENDBRANCH  72  93
ENDBRANCH  46  47
ENDBRANCH  38  41
ENDBRANCH  36  37
ENDBRANCH  35  36
ENDBRANCH   1  35
TORSDOF 18
ENDMDL
