MODEL 1
REMARK VINA RESULT:     -11.1      0.000      0.000
REMARK SMILES O=C(NCCCCCCNC(=O)c1ccc2c(c1)[C@@H](C1CCOCC1)C(=O)N2)c1ccc(-c2c3nc(c(-c4ccc(S(=O)(=O)[O-])cc4)c4ccc([nH]4)c(-c4ccc(S(=O)(=O)[O-])cc4)c4nc(c(-c5ccc(S(=O)(=O)[O-])cc5)c5ccc2[nH]5)C=C4)C=C3)cc1
REMARK SMILES IDX 5 1 4 2 3 3 1 4 2 5 29 7 30 8 88 9 31 10 87 11 32 12 33 13
REMARK SMILES IDX 34 14 81 15 35 16 86 17 80 18 82 19 36 20 85 21 79 22 78 23
REMARK SMILES IDX 37 25 67 26 48 27 66 28 49 29 52 30 65 31 83 32 50 33 51 34
REMARK SMILES IDX 64 36 84 37 53 38 38 39 39 40 47 41 40 42 46 43 41 44 42 45
REMARK SMILES IDX 43 46 44 47 45 48 68 49 69 50 77 51 70 52 76 53 71 54 72 55
REMARK SMILES IDX 73 56 74 57 75 58 54 59 55 60 63 61 56 62 62 63 57 64 58 65
REMARK SMILES IDX 59 66 60 67 61 68 6 69 7 70 8 71 9 72 10 73 11 74 12 76
REMARK SMILES IDX 13 77 14 78 18 79 15 80 17 81 16 82 19 83 28 84 26 85 27 87
REMARK SMILES IDX 20 88 21 89 25 90 22 91 24 92 23 93
REMARK H PARENT 3 6 82 24 52 35 10 75 28 86
REMARK Flexibility Score: inf
ROOT
ATOM      1  C   UNL A   1      32.843  27.366  26.527  1.00  0.00     0.021 C 
ENDROOT
BRANCH   1   2
ATOM      2  C   UNL A   1      34.061  28.147  27.000  1.00  0.00     0.116 C 
BRANCH   2   3
ATOM      3  N   UNL A   1      33.738  29.519  27.356  1.00  0.00    -0.352 N 
ATOM      4  O   UNL A   1      34.010  31.503  28.396  1.00  0.00    -0.269 OA
ATOM      5  C   UNL A   1      34.503  30.441  28.030  1.00  0.00     0.251 C 
ATOM      6  H   UNL A   1      32.848  29.832  27.074  1.00  0.00     0.163 HD
BRANCH   5   7
ATOM      7  C   UNL A   1      35.919  30.131  28.330  1.00  0.00     0.039 A 
ATOM      8  C   UNL A   1      36.904  30.311  27.357  1.00  0.00     0.014 A 
ATOM      9  C   UNL A   1      36.262  29.650  29.596  1.00  0.00     0.014 A 
ATOM     10  C   UNL A   1      38.202  29.878  27.600  1.00  0.00     0.010 A 
ATOM     11  C   UNL A   1      37.588  29.302  29.870  1.00  0.00     0.010 A 
ATOM     12  C   UNL A   1      38.564  29.389  28.866  1.00  0.00    -0.014 A 
BRANCH  12  13
ATOM     13  C   UNL A   1      39.987  29.058  29.134  1.00  0.00     0.031 A 
ATOM     14  C   UNL A   1      40.570  27.727  28.745  1.00  0.00     0.074 A 
ATOM     15  C   UNL A   1      40.759  29.990  29.724  1.00  0.00     0.049 A 
ATOM     16  N   UNL A   1      41.797  27.296  28.896  1.00  0.00    -0.248 NA
ATOM     17  C   UNL A   1      39.666  26.753  28.114  1.00  0.00     0.031 C 
ATOM     18  C   UNL A   1      40.300  31.315  30.156  1.00  0.00     0.029 A 
ATOM     19  N   UNL A   1      42.092  29.982  30.050  1.00  0.00    -0.354 N 
ATOM     20  C   UNL A   1      41.810  25.997  28.402  1.00  0.00     0.074 A 
ATOM     21  C   UNL A   1      40.462  25.702  27.964  1.00  0.00     0.031 C 
ATOM     22  C   UNL A   1      41.339  32.005  30.645  1.00  0.00     0.029 A 
ATOM     23  C   UNL A   1      42.521  31.151  30.630  1.00  0.00     0.049 A 
ATOM     24  H   UNL A   1      42.683  29.213  29.884  1.00  0.00     0.167 HD
ATOM     25  C   UNL A   1      42.852  25.133  28.320  1.00  0.00     0.031 A 
ATOM     26  C   UNL A   1      43.725  31.499  31.122  1.00  0.00     0.031 A 
ATOM     27  C   UNL A   1      44.189  25.435  28.764  1.00  0.00     0.049 A 
ATOM     28  C   UNL A   1      44.852  30.512  31.045  1.00  0.00     0.074 A 
ATOM     29  C   UNL A   1      45.320  24.640  28.688  1.00  0.00     0.029 A 
ATOM     30  N   UNL A   1      44.576  26.620  29.375  1.00  0.00    -0.354 N 
ATOM     31  N   UNL A   1      44.853  29.304  30.534  1.00  0.00    -0.248 NA
ATOM     32  C   UNL A   1      46.141  30.935  31.608  1.00  0.00     0.031 C 
ATOM     33  C   UNL A   1      46.375  25.317  29.308  1.00  0.00     0.029 A 
ATOM     34  C   UNL A   1      45.920  26.564  29.708  1.00  0.00     0.049 A 
ATOM     35  H   UNL A   1      43.984  27.387  29.545  1.00  0.00     0.167 HD
ATOM     36  C   UNL A   1      46.148  28.827  30.698  1.00  0.00     0.074 A 
ATOM     37  C   UNL A   1      46.906  29.886  31.334  1.00  0.00     0.031 C 
ATOM     38  C   UNL A   1      46.661  27.620  30.352  1.00  0.00     0.031 A 
BRANCH  25  39
ATOM     39  C   UNL A   1      42.586  23.758  27.758  1.00  0.00    -0.014 A 
ATOM     40  C   UNL A   1      42.757  23.481  26.390  1.00  0.00     0.010 A 
ATOM     41  C   UNL A   1      42.219  22.713  28.625  1.00  0.00     0.010 A 
ATOM     42  C   UNL A   1      42.534  22.192  25.896  1.00  0.00     0.020 A 
ATOM     43  C   UNL A   1      42.022  21.416  28.140  1.00  0.00     0.020 A 
ATOM     44  C   UNL A   1      42.166  21.167  26.774  1.00  0.00     0.054 A 
BRANCH  44  45
ATOM     45  S   UNL A   1      41.908  19.500  26.107  1.00  0.00     0.124 S 
ATOM     46  O   UNL A   1      40.461  19.478  25.903  1.00  0.00    -0.237 OA
ATOM     47  O   UNL A   1      42.712  19.515  24.888  1.00  0.00    -0.237 OA
ATOM     48  O   UNL A   1      42.401  18.622  27.165  1.00  0.00    -0.744 OA
ENDBRANCH  44  45
ENDBRANCH  25  39
BRANCH  26  49
ATOM     49  C   UNL A   1      43.905  32.837  31.747  1.00  0.00    -0.014 A 
ATOM     50  C   UNL A   1      44.262  33.952  30.970  1.00  0.00     0.010 A 
ATOM     51  C   UNL A   1      43.675  33.006  33.126  1.00  0.00     0.010 A 
ATOM     52  C   UNL A   1      44.397  35.211  31.563  1.00  0.00     0.020 A 
ATOM     53  C   UNL A   1      43.778  34.268  33.715  1.00  0.00     0.020 A 
ATOM     54  C   UNL A   1      44.149  35.361  32.931  1.00  0.00     0.054 A 
BRANCH  54  55
ATOM     55  S   UNL A   1      44.270  37.015  33.666  1.00  0.00     0.124 S 
ATOM     56  O   UNL A   1      44.386  37.864  32.485  1.00  0.00    -0.237 OA
ATOM     57  O   UNL A   1      43.015  37.124  34.405  1.00  0.00    -0.237 OA
ATOM     58  O   UNL A   1      45.469  36.932  34.497  1.00  0.00    -0.744 OA
ENDBRANCH  54  55
ENDBRANCH  26  49
BRANCH  38  59
ATOM     59  C   UNL A   1      48.122  27.391  30.629  1.00  0.00    -0.014 A 
ATOM     60  C   UNL A   1      48.551  26.740  31.800  1.00  0.00     0.010 A 
ATOM     61  C   UNL A   1      49.079  27.796  29.681  1.00  0.00     0.010 A 
ATOM     62  C   UNL A   1      49.912  26.530  32.032  1.00  0.00     0.020 A 
ATOM     63  C   UNL A   1      50.439  27.561  29.895  1.00  0.00     0.020 A 
ATOM     64  C   UNL A   1      50.848  26.942  31.077  1.00  0.00     0.054 A 
BRANCH  64  65
ATOM     65  S   UNL A   1      52.607  26.624  31.385  1.00  0.00     0.124 S 
ATOM     66  O   UNL A   1      53.085  27.937  31.807  1.00  0.00    -0.237 OA
ATOM     67  O   UNL A   1      52.569  25.603  32.429  1.00  0.00    -0.237 OA
ATOM     68  O   UNL A   1      53.107  26.165  30.091  1.00  0.00    -0.744 OA
ENDBRANCH  64  65
ENDBRANCH  38  59
ENDBRANCH  12  13
ENDBRANCH   5   7
ENDBRANCH   2   3
ENDBRANCH   1   2
BRANCH   1  69
ATOM     69  C   UNL A   1      33.123  26.344  25.426  1.00  0.00     0.002 C 
BRANCH  69  70
ATOM     70  C   UNL A   1      34.065  26.818  24.315  1.00  0.00     0.002 C 
BRANCH  70  71
ATOM     71  C   UNL A   1      33.508  27.918  23.405  1.00  0.00     0.021 C 
BRANCH  71  72
ATOM     72  C   UNL A   1      32.184  27.583  22.725  1.00  0.00     0.116 C 
BRANCH  72  73
ATOM     73  N   UNL A   1      32.381  26.944  21.434  1.00  0.00    -0.352 N 
ATOM     74  C   UNL A   1      32.586  25.618  21.150  1.00  0.00     0.251 C 
ATOM     75  H   UNL A   1      32.364  27.548  20.656  1.00  0.00     0.163 HD
ATOM     76  O   UNL A   1      32.928  25.264  20.026  1.00  0.00    -0.269 OA
BRANCH  74  77
ATOM     77  C   UNL A   1      32.409  24.609  22.215  1.00  0.00     0.040 A 
ATOM     78  C   UNL A   1      31.173  24.498  22.888  1.00  0.00     0.016 A 
ATOM     79  C   UNL A   1      33.483  23.758  22.519  1.00  0.00     0.020 A 
ATOM     80  C   UNL A   1      31.016  23.589  23.933  1.00  0.00     0.027 A 
ATOM     81  C   UNL A   1      33.311  22.852  23.550  1.00  0.00    -0.011 A 
ATOM     82  C   UNL A   1      32.099  22.793  24.241  1.00  0.00     0.045 A 
ATOM     83  C   UNL A   1      34.249  21.802  24.103  1.00  0.00     0.114 C 
ATOM     84  N   UNL A   1      32.168  21.840  25.239  1.00  0.00    -0.325 N 
ATOM     85  C   UNL A   1      33.399  21.206  25.252  1.00  0.00     0.232 C 
ATOM     86  H   UNL A   1      31.432  21.635  25.862  1.00  0.00     0.169 HD
ATOM     87  O   UNL A   1      33.708  20.298  26.013  1.00  0.00    -0.274 OA
BRANCH  83  88
ATOM     88  C   UNL A   1      35.654  22.302  24.495  1.00  0.00     0.010 C 
ATOM     89  C   UNL A   1      36.608  21.143  24.831  1.00  0.00     0.033 C 
ATOM     90  C   UNL A   1      35.677  23.325  25.643  1.00  0.00     0.033 C 
ATOM     91  C   UNL A   1      37.990  21.661  25.206  1.00  0.00     0.160 C 
ATOM     92  C   UNL A   1      37.114  23.728  25.967  1.00  0.00     0.160 C 
ATOM     93  O   UNL A   1      37.906  22.586  26.289  1.00  0.00    -0.381 OA
ENDBRANCH  83  88
ENDBRANCH  74  77
ENDBRANCH  72  73
ENDBRANCH  71  72
ENDBRANCH  70  71
ENDBRANCH  69  70
ENDBRANCH   1  69
TORSDOF 17
ENDMDL
MODEL 2
REMARK VINA RESULT:     -11.0      0.628      8.133
REMARK SMILES O=C(NCCCCCCNC(=O)c1ccc2c(c1)[C@@H](C1CCOCC1)C(=O)N2)c1ccc(-c2c3nc(c(-c4ccc(S(=O)(=O)[O-])cc4)c4ccc([nH]4)c(-c4ccc(S(=O)(=O)[O-])cc4)c4nc(c(-c5ccc(S(=O)(=O)[O-])cc5)c5ccc2[nH]5)C=C4)C=C3)cc1
REMARK SMILES IDX 5 1 4 2 3 3 1 4 2 5 29 7 30 8 88 9 31 10 87 11 32 12 33 13
REMARK SMILES IDX 34 14 81 15 35 16 86 17 80 18 82 19 36 20 85 21 79 22 78 23
REMARK SMILES IDX 37 25 67 26 48 27 66 28 49 29 52 30 65 31 83 32 50 33 51 34
REMARK SMILES IDX 64 36 84 37 53 38 38 39 39 40 47 41 40 42 46 43 41 44 42 45
REMARK SMILES IDX 43 46 44 47 45 48 68 49 69 50 77 51 70 52 76 53 71 54 72 55
REMARK SMILES IDX 73 56 74 57 75 58 54 59 55 60 63 61 56 62 62 63 57 64 58 65
REMARK SMILES IDX 59 66 60 67 61 68 6 69 7 70 8 71 9 72 10 73 11 74 12 76
REMARK SMILES IDX 13 77 14 78 18 79 15 80 17 81 16 82 19 83 28 84 26 85 27 87
REMARK SMILES IDX 20 88 21 89 25 90 22 91 24 92 23 93
REMARK H PARENT 3 6 82 24 52 35 10 75 28 86
REMARK Flexibility Score: inf
ROOT
ATOM      1  C   UNL A   1      32.923  27.300  25.611  1.00  0.00     0.021 C 
ENDROOT
BRANCH   1   2
ATOM      2  C   UNL A   1      33.990  27.982  26.458  1.00  0.00     0.116 C 
BRANCH   2   3
ATOM      3  N   UNL A   1      33.605  29.324  26.862  1.00  0.00    -0.352 N 
ATOM      4  O   UNL A   1      33.750  31.254  28.021  1.00  0.00    -0.269 OA
ATOM      5  C   UNL A   1      34.297  30.226  27.634  1.00  0.00     0.251 C 
ATOM      6  H   UNL A   1      32.727  29.630  26.538  1.00  0.00     0.163 HD
BRANCH   5   7
ATOM      7  C   UNL A   1      35.697  29.936  28.013  1.00  0.00     0.039 A 
ATOM      8  C   UNL A   1      36.731  30.114  27.091  1.00  0.00     0.014 A 
ATOM      9  C   UNL A   1      35.977  29.475  29.302  1.00  0.00     0.014 A 
ATOM     10  C   UNL A   1      38.019  29.698  27.408  1.00  0.00     0.010 A 
ATOM     11  C   UNL A   1      37.291  29.145  29.650  1.00  0.00     0.010 A 
ATOM     12  C   UNL A   1      38.318  29.229  28.698  1.00  0.00    -0.014 A 
BRANCH  12  13
ATOM     13  C   UNL A   1      39.728  28.917  29.046  1.00  0.00     0.031 A 
ATOM     14  C   UNL A   1      40.600  29.916  29.755  1.00  0.00     0.074 A 
ATOM     15  C   UNL A   1      40.210  27.701  28.726  1.00  0.00     0.049 A 
ATOM     16  N   UNL A   1      41.845  29.787  30.142  1.00  0.00    -0.248 NA
ATOM     17  C   UNL A   1      40.011  31.228  30.064  1.00  0.00     0.031 C 
ATOM     18  C   UNL A   1      39.459  26.653  28.029  1.00  0.00     0.029 A 
ATOM     19  N   UNL A   1      41.436  27.129  28.956  1.00  0.00    -0.354 N 
ATOM     20  C   UNL A   1      42.196  31.001  30.719  1.00  0.00     0.074 A 
ATOM     21  C   UNL A   1      41.038  31.864  30.613  1.00  0.00     0.031 C 
ATOM     22  C   UNL A   1      40.220  25.555  27.929  1.00  0.00     0.029 A 
ATOM     23  C   UNL A   1      41.535  25.841  28.488  1.00  0.00     0.049 A 
ATOM     24  H   UNL A   1      42.172  27.596  29.412  1.00  0.00     0.167 HD
ATOM     25  C   UNL A   1      43.374  31.361  31.284  1.00  0.00     0.031 A 
ATOM     26  C   UNL A   1      42.574  24.985  28.482  1.00  0.00     0.031 A 
ATOM     27  C   UNL A   1      44.521  30.495  31.380  1.00  0.00     0.049 A 
ATOM     28  C   UNL A   1      43.876  25.420  29.089  1.00  0.00     0.074 A 
ATOM     29  C   UNL A   1      45.748  30.755  31.970  1.00  0.00     0.029 A 
ATOM     30  N   UNL A   1      44.593  29.208  30.866  1.00  0.00    -0.354 N 
ATOM     31  N   UNL A   1      44.172  26.559  29.668  1.00  0.00    -0.248 NA
ATOM     32  C   UNL A   1      44.981  24.455  29.046  1.00  0.00     0.031 C 
ATOM     33  C   UNL A   1      46.579  29.650  31.758  1.00  0.00     0.029 A 
ATOM     34  C   UNL A   1      45.850  28.673  31.097  1.00  0.00     0.049 A 
ATOM     35  H   UNL A   1      43.858  28.742  30.405  1.00  0.00     0.167 HD
ATOM     36  C   UNL A   1      45.495  26.441  30.074  1.00  0.00     0.074 A 
ATOM     37  C   UNL A   1      45.933  25.112  29.695  1.00  0.00     0.031 C 
ATOM     38  C   UNL A   1      46.277  27.353  30.705  1.00  0.00     0.031 A 
BRANCH  25  39
ATOM     39  C   UNL A   1      43.500  32.765  31.820  1.00  0.00    -0.014 A 
ATOM     40  C   UNL A   1      43.204  33.067  33.161  1.00  0.00     0.010 A 
ATOM     41  C   UNL A   1      43.984  33.787  30.981  1.00  0.00     0.010 A 
ATOM     42  C   UNL A   1      43.357  34.372  33.643  1.00  0.00     0.020 A 
ATOM     43  C   UNL A   1      44.164  35.086  31.467  1.00  0.00     0.020 A 
ATOM     44  C   UNL A   1      43.834  35.373  32.793  1.00  0.00     0.054 A 
BRANCH  44  45
ATOM     45  S   UNL A   1      44.047  37.049  33.455  1.00  0.00     0.124 S 
ATOM     46  O   UNL A   1      42.808  37.233  34.208  1.00  0.00    -0.237 OA
ATOM     47  O   UNL A   1      45.257  36.923  34.261  1.00  0.00    -0.237 OA
ATOM     48  O   UNL A   1      44.178  37.881  32.261  1.00  0.00    -0.744 OA
ENDBRANCH  44  45
ENDBRANCH  25  39
BRANCH  26  49
ATOM     49  C   UNL A   1      42.418  23.644  27.859  1.00  0.00    -0.014 A 
ATOM     50  C   UNL A   1      43.004  23.354  26.616  1.00  0.00     0.010 A 
ATOM     51  C   UNL A   1      41.710  22.632  28.536  1.00  0.00     0.010 A 
ATOM     52  C   UNL A   1      42.877  22.079  26.056  1.00  0.00     0.020 A 
ATOM     53  C   UNL A   1      41.608  21.349  27.995  1.00  0.00     0.020 A 
ATOM     54  C   UNL A   1      42.184  21.084  26.752  1.00  0.00     0.054 A 
BRANCH  54  55
ATOM     55  S   UNL A   1      42.085  19.421  26.033  1.00  0.00     0.124 S 
ATOM     56  O   UNL A   1      42.625  18.594  27.106  1.00  0.00    -0.237 OA
ATOM     57  O   UNL A   1      40.655  19.274  25.777  1.00  0.00    -0.237 OA
ATOM     58  O   UNL A   1      42.917  19.517  24.835  1.00  0.00    -0.744 OA
ENDBRANCH  54  55
ENDBRANCH  26  49
BRANCH  38  59
ATOM     59  C   UNL A   1      47.680  26.932  31.050  1.00  0.00    -0.014 A 
ATOM     60  C   UNL A   1      47.958  26.212  32.226  1.00  0.00     0.010 A 
ATOM     61  C   UNL A   1      48.730  27.226  30.162  1.00  0.00     0.010 A 
ATOM     62  C   UNL A   1      49.267  25.823  32.522  1.00  0.00     0.020 A 
ATOM     63  C   UNL A   1      50.035  26.813  30.439  1.00  0.00     0.020 A 
ATOM     64  C   UNL A   1      50.298  26.127  31.626  1.00  0.00     0.054 A 
BRANCH  64  65
ATOM     65  S   UNL A   1      51.982  25.578  32.016  1.00  0.00     0.124 S 
ATOM     66  O   UNL A   1      51.780  24.163  32.312  1.00  0.00    -0.237 OA
ATOM     67  O   UNL A   1      52.705  25.865  30.779  1.00  0.00    -0.237 OA
ATOM     68  O   UNL A   1      52.360  26.406  33.158  1.00  0.00    -0.744 OA
ENDBRANCH  64  65
ENDBRANCH  38  59
ENDBRANCH  12  13
ENDBRANCH   5   7
ENDBRANCH   2   3
ENDBRANCH   1   2
BRANCH   1  69
ATOM     69  C   UNL A   1      31.539  27.943  25.683  1.00  0.00     0.002 C 
BRANCH  69  70
ATOM     70  C   UNL A   1      31.205  28.911  24.544  1.00  0.00     0.002 C 
BRANCH  70  71
ATOM     71  C   UNL A   1      31.736  28.514  23.163  1.00  0.00     0.021 C 
BRANCH  71  72
ATOM     72  C   UNL A   1      30.919  27.445  22.442  1.00  0.00     0.116 C 
BRANCH  72  73
ATOM     73  N   UNL A   1      31.655  26.852  21.337  1.00  0.00    -0.352 N 
ATOM     74  C   UNL A   1      32.339  25.664  21.294  1.00  0.00     0.251 C 
ATOM     75  H   UNL A   1      31.663  27.377  20.504  1.00  0.00     0.163 HD
ATOM     76  O   UNL A   1      33.069  25.396  20.346  1.00  0.00    -0.269 OA
BRANCH  74  77
ATOM     77  C   UNL A   1      32.204  24.705  22.411  1.00  0.00     0.040 A 
ATOM     78  C   UNL A   1      31.019  24.671  23.178  1.00  0.00     0.016 A 
ATOM     79  C   UNL A   1      33.266  23.824  22.671  1.00  0.00     0.020 A 
ATOM     80  C   UNL A   1      30.908  23.811  24.269  1.00  0.00     0.027 A 
ATOM     81  C   UNL A   1      33.138  22.967  23.749  1.00  0.00    -0.011 A 
ATOM     82  C   UNL A   1      31.980  22.985  24.529  1.00  0.00     0.045 A 
ATOM     83  C   UNL A   1      34.075  21.903  24.276  1.00  0.00     0.114 C 
ATOM     84  N   UNL A   1      32.088  22.069  25.559  1.00  0.00    -0.325 N 
ATOM     85  C   UNL A   1      33.293  21.387  25.508  1.00  0.00     0.232 C 
ATOM     86  H   UNL A   1      31.394  21.919  26.242  1.00  0.00     0.169 HD
ATOM     87  O   UNL A   1      33.623  20.498  26.282  1.00  0.00    -0.274 OA
BRANCH  83  88
ATOM     88  C   UNL A   1      35.523  22.361  24.541  1.00  0.00     0.010 C 
ATOM     89  C   UNL A   1      36.456  21.178  24.855  1.00  0.00     0.033 C 
ATOM     90  C   UNL A   1      35.671  23.426  25.640  1.00  0.00     0.033 C 
ATOM     91  C   UNL A   1      37.881  21.655  25.105  1.00  0.00     0.160 C 
ATOM     92  C   UNL A   1      37.142  23.783  25.841  1.00  0.00     0.160 C 
ATOM     93  O   UNL A   1      37.912  22.623  26.151  1.00  0.00    -0.381 OA
ENDBRANCH  83  88
ENDBRANCH  74  77
ENDBRANCH  72  73
ENDBRANCH  71  72
ENDBRANCH  70  71
ENDBRANCH  69  70
ENDBRANCH   1  69
TORSDOF 17
ENDMDL
MODEL 3
REMARK VINA RESULT:     -10.9      2.609      8.250
REMARK SMILES O=C(NCCCCCCNC(=O)c1ccc2c(c1)[C@@H](C1CCOCC1)C(=O)N2)c1ccc(-c2c3nc(c(-c4ccc(S(=O)(=O)[O-])cc4)c4ccc([nH]4)c(-c4ccc(S(=O)(=O)[O-])cc4)c4nc(c(-c5ccc(S(=O)(=O)[O-])cc5)c5ccc2[nH]5)C=C4)C=C3)cc1
REMARK SMILES IDX 5 1 4 2 3 3 1 4 2 5 29 7 30 8 88 9 31 10 87 11 32 12 33 13
REMARK SMILES IDX 34 14 81 15 35 16 86 17 80 18 82 19 36 20 85 21 79 22 78 23
REMARK SMILES IDX 37 25 67 26 48 27 66 28 49 29 52 30 65 31 83 32 50 33 51 34
REMARK SMILES IDX 64 36 84 37 53 38 38 39 39 40 47 41 40 42 46 43 41 44 42 45
REMARK SMILES IDX 43 46 44 47 45 48 68 49 69 50 77 51 70 52 76 53 71 54 72 55
REMARK SMILES IDX 73 56 74 57 75 58 54 59 55 60 63 61 56 62 62 63 57 64 58 65
REMARK SMILES IDX 59 66 60 67 61 68 6 69 7 70 8 71 9 72 10 73 11 74 12 76
REMARK SMILES IDX 13 77 14 78 18 79 15 80 17 81 16 82 19 83 28 84 26 85 27 87
REMARK SMILES IDX 20 88 21 89 25 90 22 91 24 92 23 93
REMARK H PARENT 3 6 82 24 52 35 10 75 28 86
REMARK Flexibility Score: inf
ROOT
ATOM      1  C   UNL A   1      33.139  27.953  26.704  1.00  0.00     0.021 C 
ENDROOT
BRANCH   1   2
ATOM      2  C   UNL A   1      34.139  29.000  26.231  1.00  0.00     0.116 C 
BRANCH   2   3
ATOM      3  N   UNL A   1      33.752  30.349  26.611  1.00  0.00    -0.352 N 
ATOM      4  O   UNL A   1      33.752  32.220  27.871  1.00  0.00    -0.269 OA
ATOM      5  C   UNL A   1      34.310  31.174  27.559  1.00  0.00     0.251 C 
ATOM      6  H   UNL A   1      32.985  30.725  26.122  1.00  0.00     0.163 HD
BRANCH   5   7
ATOM      7  C   UNL A   1      35.576  30.776  28.214  1.00  0.00     0.039 A 
ATOM      8  C   UNL A   1      35.607  29.689  29.091  1.00  0.00     0.014 A 
ATOM      9  C   UNL A   1      36.741  31.502  27.954  1.00  0.00     0.014 A 
ATOM     10  C   UNL A   1      36.763  29.418  29.814  1.00  0.00     0.010 A 
ATOM     11  C   UNL A   1      37.928  31.168  28.612  1.00  0.00     0.010 A 
ATOM     12  C   UNL A   1      37.943  30.140  29.567  1.00  0.00    -0.014 A 
BRANCH  12  13
ATOM     13  C   UNL A   1      39.194  29.739  30.259  1.00  0.00     0.031 A 
ATOM     14  C   UNL A   1      39.642  30.416  31.525  1.00  0.00     0.074 A 
ATOM     15  C   UNL A   1      39.922  28.735  29.733  1.00  0.00     0.049 A 
ATOM     16  N   UNL A   1      40.700  30.168  32.256  1.00  0.00    -0.248 NA
ATOM     17  C   UNL A   1      38.805  31.512  32.036  1.00  0.00     0.031 C 
ATOM     18  C   UNL A   1      39.592  28.010  28.502  1.00  0.00     0.029 A 
ATOM     19  N   UNL A   1      41.076  28.134  30.169  1.00  0.00    -0.354 N 
ATOM     20  C   UNL A   1      40.670  31.087  33.298  1.00  0.00     0.074 A 
ATOM     21  C   UNL A   1      39.498  31.913  33.094  1.00  0.00     0.031 C 
ATOM     22  C   UNL A   1      40.492  27.037  28.307  1.00  0.00     0.029 A 
ATOM     23  C   UNL A   1      41.502  27.113  29.355  1.00  0.00     0.049 A 
ATOM     24  H   UNL A   1      41.552  28.409  30.985  1.00  0.00     0.167 HD
ATOM     25  C   UNL A   1      41.540  31.227  34.328  1.00  0.00     0.031 A 
ATOM     26  C   UNL A   1      42.598  26.333  29.422  1.00  0.00     0.031 A 
ATOM     27  C   UNL A   1      42.706  30.402  34.519  1.00  0.00     0.049 A 
ATOM     28  C   UNL A   1      43.559  26.529  30.557  1.00  0.00     0.074 A 
ATOM     29  C   UNL A   1      43.627  30.441  35.553  1.00  0.00     0.029 A 
ATOM     30  N   UNL A   1      43.121  29.398  33.655  1.00  0.00    -0.354 N 
ATOM     31  N   UNL A   1      43.488  27.377  31.556  1.00  0.00    -0.248 NA
ATOM     32  C   UNL A   1      44.744  25.663  30.578  1.00  0.00     0.031 C 
ATOM     33  C   UNL A   1      44.630  29.504  35.282  1.00  0.00     0.029 A 
ATOM     34  C   UNL A   1      44.299  28.832  34.116  1.00  0.00     0.049 A 
ATOM     35  H   UNL A   1      42.648  29.127  32.835  1.00  0.00     0.167 HD
ATOM     36  C   UNL A   1      44.612  27.134  32.335  1.00  0.00     0.074 A 
ATOM     37  C   UNL A   1      45.332  26.046  31.703  1.00  0.00     0.031 C 
ATOM     38  C   UNL A   1      45.012  27.758  33.472  1.00  0.00     0.031 A 
BRANCH  25  39
ATOM     39  C   UNL A   1      41.286  32.335  35.321  1.00  0.00    -0.014 A 
ATOM     40  C   UNL A   1      41.795  33.630  35.119  1.00  0.00     0.010 A 
ATOM     41  C   UNL A   1      40.472  32.088  36.442  1.00  0.00     0.010 A 
ATOM     42  C   UNL A   1      41.521  34.649  36.038  1.00  0.00     0.020 A 
ATOM     43  C   UNL A   1      40.174  33.110  37.349  1.00  0.00     0.020 A 
ATOM     44  C   UNL A   1      40.714  34.382  37.148  1.00  0.00     0.054 A 
BRANCH  44  45
ATOM     45  S   UNL A   1      40.357  35.730  38.308  1.00  0.00     0.124 S 
ATOM     46  O   UNL A   1      39.352  35.121  39.177  1.00  0.00    -0.237 OA
ATOM     47  O   UNL A   1      41.656  35.972  38.928  1.00  0.00    -0.237 OA
ATOM     48  O   UNL A   1      39.868  36.807  37.451  1.00  0.00    -0.744 OA
ENDBRANCH  44  45
ENDBRANCH  25  39
BRANCH  26  49
ATOM     49  C   UNL A   1      42.842  25.316  28.365  1.00  0.00    -0.014 A 
ATOM     50  C   UNL A   1      43.554  25.645  27.199  1.00  0.00     0.010 A 
ATOM     51  C   UNL A   1      42.395  23.993  28.545  1.00  0.00     0.010 A 
ATOM     52  C   UNL A   1      43.804  24.672  26.227  1.00  0.00     0.020 A 
ATOM     53  C   UNL A   1      42.671  23.011  27.591  1.00  0.00     0.020 A 
ATOM     54  C   UNL A   1      43.366  23.361  26.432  1.00  0.00     0.054 A 
BRANCH  54  55
ATOM     55  S   UNL A   1      43.757  22.102  25.185  1.00  0.00     0.124 S 
ATOM     56  O   UNL A   1      43.576  22.842  23.941  1.00  0.00    -0.237 OA
ATOM     57  O   UNL A   1      45.135  21.748  25.518  1.00  0.00    -0.237 OA
ATOM     58  O   UNL A   1      42.773  21.052  25.440  1.00  0.00    -0.744 OA
ENDBRANCH  54  55
ENDBRANCH  26  49
BRANCH  38  59
ATOM     59  C   UNL A   1      46.273  27.257  34.122  1.00  0.00    -0.014 A 
ATOM     60  C   UNL A   1      46.247  26.199  35.049  1.00  0.00     0.010 A 
ATOM     61  C   UNL A   1      47.509  27.826  33.767  1.00  0.00     0.010 A 
ATOM     62  C   UNL A   1      47.432  25.744  35.634  1.00  0.00     0.020 A 
ATOM     63  C   UNL A   1      48.699  27.354  34.327  1.00  0.00     0.020 A 
ATOM     64  C   UNL A   1      48.651  26.325  35.268  1.00  0.00     0.054 A 
BRANCH  64  65
ATOM     65  S   UNL A   1      50.178  25.691  36.014  1.00  0.00     0.124 S 
ATOM     66  O   UNL A   1      51.201  26.451  35.302  1.00  0.00    -0.237 OA
ATOM     67  O   UNL A   1      50.010  26.031  37.424  1.00  0.00    -0.237 OA
ATOM     68  O   UNL A   1      50.142  24.262  35.714  1.00  0.00    -0.744 OA
ENDBRANCH  64  65
ENDBRANCH  38  59
ENDBRANCH  12  13
ENDBRANCH   5   7
ENDBRANCH   2   3
ENDBRANCH   1   2
BRANCH   1  69
ATOM     69  C   UNL A   1      32.408  27.212  25.586  1.00  0.00     0.002 C 
BRANCH  69  70
ATOM     70  C   UNL A   1      31.407  28.052  24.787  1.00  0.00     0.002 C 
BRANCH  70  71
ATOM     71  C   UNL A   1      31.845  28.428  23.368  1.00  0.00     0.021 C 
BRANCH  71  72
ATOM     72  C   UNL A   1      33.119  27.740  22.884  1.00  0.00     0.116 C 
BRANCH  72  73
ATOM     73  N   UNL A   1      32.953  27.155  21.564  1.00  0.00    -0.352 N 
ATOM     74  C   UNL A   1      32.799  25.837  21.216  1.00  0.00     0.251 C 
ATOM     75  H   UNL A   1      32.952  27.795  20.814  1.00  0.00     0.163 HD
ATOM     76  O   UNL A   1      32.864  25.487  20.042  1.00  0.00    -0.269 OA
BRANCH  74  77
ATOM     77  C   UNL A   1      32.567  24.829  22.271  1.00  0.00     0.040 A 
ATOM     78  C   UNL A   1      31.329  24.784  22.950  1.00  0.00     0.016 A 
ATOM     79  C   UNL A   1      33.590  23.912  22.560  1.00  0.00     0.020 A 
ATOM     80  C   UNL A   1      31.124  23.874  23.985  1.00  0.00     0.027 A 
ATOM     81  C   UNL A   1      33.370  23.006  23.582  1.00  0.00    -0.011 A 
ATOM     82  C   UNL A   1      32.159  23.012  24.279  1.00  0.00     0.045 A 
ATOM     83  C   UNL A   1      34.247  21.897  24.119  1.00  0.00     0.114 C 
ATOM     84  N   UNL A   1      32.176  22.045  25.266  1.00  0.00    -0.325 N 
ATOM     85  C   UNL A   1      33.368  21.339  25.266  1.00  0.00     0.232 C 
ATOM     86  H   UNL A   1      31.433  21.877  25.890  1.00  0.00     0.169 HD
ATOM     87  O   UNL A   1      33.626  20.406  26.015  1.00  0.00    -0.274 OA
BRANCH  83  88
ATOM     88  C   UNL A   1      35.680  22.308  24.508  1.00  0.00     0.010 C 
ATOM     89  C   UNL A   1      36.554  21.094  24.865  1.00  0.00     0.033 C 
ATOM     90  C   UNL A   1      35.768  23.344  25.641  1.00  0.00     0.033 C 
ATOM     91  C   UNL A   1      37.967  21.525  25.238  1.00  0.00     0.160 C 
ATOM     92  C   UNL A   1      37.228  23.656  25.965  1.00  0.00     0.160 C 
ATOM     93  O   UNL A   1      37.941  22.469  26.306  1.00  0.00    -0.381 OA
ENDBRANCH  83  88
ENDBRANCH  74  77
ENDBRANCH  72  73
ENDBRANCH  71  72
ENDBRANCH  70  71
ENDBRANCH  69  70
ENDBRANCH   1  69
TORSDOF 17
ENDMDL
