MODEL 1
REMARK VINA RESULT:     -11.4      0.000      0.000
REMARK SMILES Cc1nnc(SCC(=O)Nc2cccc(C(=O)NCCCCCCNC(=O)c3ccc(-c4c5nc(c(-c6ccc(S(=O)(=O)[O-])cc6)c6ccc([nH]6)c(-c6ccc(S(=O)(=O)[O-])cc6)c6nc(c(-c7ccc(S(=O)(=O)[O-])cc7)c7ccc4[nH]7)C=C6)C=C5)cc3)c2)n1-c1ccccc1
REMARK SMILES IDX 20 1 19 2 18 3 16 4 17 5 15 7 11 8 12 9 88 10 13 11 14 12
REMARK SMILES IDX 10 13 8 14 9 15 7 17 6 18 5 19 1 20 2 21 3 22 89 23 4 24
REMARK SMILES IDX 90 25 91 26 95 27 92 28 94 29 93 30 21 31 22 32 23 33 24 34
REMARK SMILES IDX 25 35 26 36 27 38 28 39 29 40 87 41 30 42 86 43 31 44 32 45
REMARK SMILES IDX 33 46 80 47 34 48 85 49 79 50 81 51 35 52 84 53 78 54 77 55
REMARK SMILES IDX 36 57 66 58 47 59 65 60 48 61 51 62 64 63 82 64 49 65 50 66
REMARK SMILES IDX 63 68 83 69 52 70 37 71 38 72 46 73 39 74 45 75 40 76 41 77
REMARK SMILES IDX 42 78 43 79 44 80 67 81 68 82 76 83 69 84 75 85 70 86 71 87
REMARK SMILES IDX 72 88 73 89 74 90 53 91 54 92 62 93 55 94 61 95 56 96 57 97
REMARK SMILES IDX 58 98 59 99 60 100
REMARK H PARENT 18 6 10 16 25 37 81 56 51 67
REMARK Flexibility Score: inf
ROOT
ATOM      1  C   UNL A   1      31.627  27.324  26.446  1.00  0.00     0.021 C 
ENDROOT
BRANCH   1   2
ATOM      2  C   UNL A   1      31.410  25.933  25.850  1.00  0.00     0.116 C 
BRANCH   2   3
ATOM      3  N   UNL A   1      30.799  24.941  26.718  1.00  0.00    -0.352 N 
ATOM      4  C   UNL A   1      30.702  23.566  26.600  1.00  0.00     0.251 C 
ATOM      5  O   UNL A   1      30.158  22.949  27.519  1.00  0.00    -0.269 OA
ATOM      6  H   UNL A   1      30.381  25.310  27.529  1.00  0.00     0.163 HD
BRANCH   4   7
ATOM      7  C   UNL A   1      31.183  22.783  25.416  1.00  0.00     0.041 A 
ATOM      8  C   UNL A   1      32.334  20.918  24.373  1.00  0.00     0.041 A 
ATOM      9  C   UNL A   1      32.211  21.530  23.124  1.00  0.00     0.026 A 
ATOM     10  C   UNL A   1      31.796  21.531  25.502  1.00  0.00     0.040 A 
ATOM     11  C   UNL A   1      31.490  22.712  22.997  1.00  0.00     0.003 A 
ATOM     12  C   UNL A   1      30.983  23.337  24.139  1.00  0.00     0.014 A 
BRANCH   8  13
ATOM     13  N   UNL A   1      33.069  19.735  24.409  1.00  0.00    -0.325 N 
ATOM     14  C   UNL A   1      34.379  19.463  24.638  1.00  0.00     0.234 C 
ATOM     15  O   UNL A   1      34.665  18.261  24.641  1.00  0.00    -0.274 OA
ATOM     16  H   UNL A   1      32.529  18.931  24.231  1.00  0.00     0.169 HD
BRANCH  14  17
ATOM     17  C   UNL A   1      35.370  20.487  25.139  1.00  0.00     0.178 C 
BRANCH  17  18
ATOM     18  S   UNL A   1      37.119  20.346  24.779  1.00  0.00    -0.076 SA
BRANCH  18  19
ATOM     19  C   UNL A   1      38.002  21.449  25.771  1.00  0.00     0.196 A 
ATOM     20  C   UNL A   1      39.357  24.712  26.509  1.00  0.00     0.090 C 
ATOM     21  C   UNL A   1      39.037  23.290  26.323  1.00  0.00     0.135 A 
ATOM     22  N   UNL A   1      39.762  22.275  26.746  1.00  0.00    -0.134 NA
ATOM     23  N   UNL A   1      37.909  22.818  25.702  1.00  0.00    -0.274 N 
ATOM     24  N   UNL A   1      39.104  21.122  26.405  1.00  0.00    -0.123 NA
BRANCH  23  25
ATOM     25  C   UNL A   1      36.836  23.557  25.203  1.00  0.00     0.049 A 
ATOM     26  C   UNL A   1      35.909  24.031  26.125  1.00  0.00     0.027 A 
ATOM     27  C   UNL A   1      36.587  23.570  23.833  1.00  0.00     0.027 A 
ATOM     28  C   UNL A   1      34.645  24.396  25.683  1.00  0.00     0.002 A 
ATOM     29  C   UNL A   1      35.334  23.988  23.396  1.00  0.00     0.002 A 
ATOM     30  C   UNL A   1      34.352  24.358  24.321  1.00  0.00     0.000 A 
ENDBRANCH  23  25
ENDBRANCH  18  19
ENDBRANCH  17  18
ENDBRANCH  14  17
ENDBRANCH   8  13
ENDBRANCH   4   7
ENDBRANCH   2   3
ENDBRANCH   1   2
BRANCH   1  31
ATOM     31  C   UNL A   1      33.042  27.913  26.546  1.00  0.00     0.002 C 
BRANCH  31  32
ATOM     32  C   UNL A   1      33.319  29.229  27.292  1.00  0.00     0.002 C 
BRANCH  32  33
ATOM     33  C   UNL A   1      34.753  29.663  27.635  1.00  0.00     0.021 C 
BRANCH  33  34
ATOM     34  C   UNL A   1      35.029  31.158  27.694  1.00  0.00     0.116 C 
BRANCH  34  35
ATOM     35  N   UNL A   1      34.827  31.769  29.014  1.00  0.00    -0.352 N 
ATOM     36  C   UNL A   1      35.497  31.519  30.209  1.00  0.00     0.251 C 
ATOM     37  H   UNL A   1      34.119  32.452  29.062  1.00  0.00     0.163 HD
ATOM     38  O   UNL A   1      34.979  31.815  31.278  1.00  0.00    -0.269 OA
BRANCH  36  39
ATOM     39  C   UNL A   1      36.842  30.898  30.182  1.00  0.00     0.039 A 
ATOM     40  C   UNL A   1      37.058  29.521  30.339  1.00  0.00     0.014 A 
ATOM     41  C   UNL A   1      37.930  31.741  30.031  1.00  0.00     0.014 A 
ATOM     42  C   UNL A   1      38.369  29.031  30.307  1.00  0.00     0.010 A 
ATOM     43  C   UNL A   1      39.162  31.241  29.733  1.00  0.00     0.010 A 
ATOM     44  C   UNL A   1      39.420  29.911  30.016  1.00  0.00    -0.014 A 
BRANCH  44  45
ATOM     45  C   UNL A   1      40.822  29.510  29.958  1.00  0.00     0.031 A 
ATOM     46  C   UNL A   1      41.463  29.343  31.288  1.00  0.00     0.074 A 
ATOM     47  C   UNL A   1      41.358  28.996  28.824  1.00  0.00     0.049 A 
ATOM     48  N   UNL A   1      42.320  30.095  31.890  1.00  0.00    -0.248 NA
ATOM     49  C   UNL A   1      40.930  28.279  32.148  1.00  0.00     0.031 C 
ATOM     50  C   UNL A   1      40.704  28.751  27.526  1.00  0.00     0.029 A 
ATOM     51  N   UNL A   1      42.582  28.439  28.632  1.00  0.00    -0.354 N 
ATOM     52  C   UNL A   1      42.619  29.437  33.084  1.00  0.00     0.074 A 
ATOM     53  C   UNL A   1      41.545  28.510  33.306  1.00  0.00     0.031 C 
ATOM     54  C   UNL A   1      41.449  27.895  26.790  1.00  0.00     0.029 A 
ATOM     55  C   UNL A   1      42.704  27.665  27.480  1.00  0.00     0.049 A 
ATOM     56  H   UNL A   1      43.327  28.574  29.261  1.00  0.00     0.167 HD
ATOM     57  C   UNL A   1      43.870  29.459  33.624  1.00  0.00     0.031 A 
ATOM     58  C   UNL A   1      43.752  26.867  27.143  1.00  0.00     0.031 A 
ATOM     59  C   UNL A   1      44.702  30.425  32.950  1.00  0.00     0.049 A 
ATOM     60  C   UNL A   1      44.898  27.306  27.980  1.00  0.00     0.074 A 
ATOM     61  C   UNL A   1      44.607  31.780  32.707  1.00  0.00     0.029 A 
ATOM     62  N   UNL A   1      45.590  29.927  32.023  1.00  0.00    -0.354 N 
ATOM     63  N   UNL A   1      45.450  28.485  27.881  1.00  0.00    -0.248 NA
ATOM     64  C   UNL A   1      45.110  26.625  29.247  1.00  0.00     0.031 C 
ATOM     65  C   UNL A   1      45.044  31.934  31.359  1.00  0.00     0.029 A 
ATOM     66  C   UNL A   1      45.480  30.690  30.891  1.00  0.00     0.049 A 
ATOM     67  H   UNL A   1      46.196  29.161  32.150  1.00  0.00     0.167 HD
ATOM     68  C   UNL A   1      45.693  28.875  29.191  1.00  0.00     0.074 A 
ATOM     69  C   UNL A   1      45.550  27.651  29.982  1.00  0.00     0.031 C 
ATOM     70  C   UNL A   1      45.698  30.194  29.548  1.00  0.00     0.031 A 
BRANCH  57  71
ATOM     71  C   UNL A   1      44.479  28.331  34.432  1.00  0.00    -0.014 A 
ATOM     72  C   UNL A   1      44.707  27.101  33.782  1.00  0.00     0.010 A 
ATOM     73  C   UNL A   1      44.578  28.331  35.839  1.00  0.00     0.010 A 
ATOM     74  C   UNL A   1      44.916  25.920  34.503  1.00  0.00     0.020 A 
ATOM     75  C   UNL A   1      44.834  27.167  36.568  1.00  0.00     0.020 A 
ATOM     76  C   UNL A   1      44.957  25.960  35.896  1.00  0.00     0.054 A 
BRANCH  76  77
ATOM     77  S   UNL A   1      45.103  24.413  36.819  1.00  0.00     0.124 S 
ATOM     78  O   UNL A   1      44.358  24.722  38.035  1.00  0.00    -0.237 OA
ATOM     79  O   UNL A   1      44.477  23.453  35.915  1.00  0.00    -0.237 OA
ATOM     80  O   UNL A   1      46.546  24.253  36.989  1.00  0.00    -0.744 OA
ENDBRANCH  76  77
ENDBRANCH  57  71
BRANCH  58  81
ATOM     81  C   UNL A   1      43.762  25.589  26.382  1.00  0.00    -0.014 A 
ATOM     82  C   UNL A   1      44.731  25.341  25.389  1.00  0.00     0.010 A 
ATOM     83  C   UNL A   1      43.001  24.489  26.832  1.00  0.00     0.010 A 
ATOM     84  C   UNL A   1      44.980  24.037  24.919  1.00  0.00     0.020 A 
ATOM     85  C   UNL A   1      43.240  23.188  26.364  1.00  0.00     0.020 A 
ATOM     86  C   UNL A   1      44.248  22.963  25.430  1.00  0.00     0.054 A 
BRANCH  86  87
ATOM     87  S   UNL A   1      44.707  21.261  24.973  1.00  0.00     0.124 S 
ATOM     88  O   UNL A   1      44.552  21.274  23.521  1.00  0.00    -0.237 OA
ATOM     89  O   UNL A   1      46.080  21.159  25.460  1.00  0.00    -0.237 OA
ATOM     90  O   UNL A   1      43.737  20.437  25.691  1.00  0.00    -0.744 OA
ENDBRANCH  86  87
ENDBRANCH  58  81
BRANCH  70  91
ATOM     91  C   UNL A   1      45.720  31.245  28.461  1.00  0.00    -0.014 A 
ATOM     92  C   UNL A   1      44.692  32.183  28.242  1.00  0.00     0.010 A 
ATOM     93  C   UNL A   1      46.928  31.401  27.759  1.00  0.00     0.010 A 
ATOM     94  C   UNL A   1      44.870  33.240  27.333  1.00  0.00     0.020 A 
ATOM     95  C   UNL A   1      47.119  32.459  26.872  1.00  0.00     0.020 A 
ATOM     96  C   UNL A   1      46.087  33.371  26.655  1.00  0.00     0.054 A 
BRANCH  96  97
ATOM     97  S   UNL A   1      46.342  34.766  25.522  1.00  0.00     0.124 S 
ATOM     98  O   UNL A   1      45.491  34.415  24.390  1.00  0.00    -0.237 OA
ATOM     99  O   UNL A   1      45.901  35.913  26.312  1.00  0.00    -0.237 OA
ATOM    100  O   UNL A   1      47.779  34.733  25.248  1.00  0.00    -0.744 OA
ENDBRANCH  96  97
ENDBRANCH  70  91
ENDBRANCH  44  45
ENDBRANCH  36  39
ENDBRANCH  34  35
ENDBRANCH  33  34
ENDBRANCH  32  33
ENDBRANCH  31  32
ENDBRANCH   1  31
TORSDOF 21
ENDMDL
MODEL 2
REMARK VINA RESULT:     -10.5      2.171      3.657
REMARK SMILES Cc1nnc(SCC(=O)Nc2cccc(C(=O)NCCCCCCNC(=O)c3ccc(-c4c5nc(c(-c6ccc(S(=O)(=O)[O-])cc6)c6ccc([nH]6)c(-c6ccc(S(=O)(=O)[O-])cc6)c6nc(c(-c7ccc(S(=O)(=O)[O-])cc7)c7ccc4[nH]7)C=C6)C=C5)cc3)c2)n1-c1ccccc1
REMARK SMILES IDX 20 1 19 2 18 3 16 4 17 5 15 7 11 8 12 9 88 10 13 11 14 12
REMARK SMILES IDX 10 13 8 14 9 15 7 17 6 18 5 19 1 20 2 21 3 22 89 23 4 24
REMARK SMILES IDX 90 25 91 26 95 27 92 28 94 29 93 30 21 31 22 32 23 33 24 34
REMARK SMILES IDX 25 35 26 36 27 38 28 39 29 40 87 41 30 42 86 43 31 44 32 45
REMARK SMILES IDX 33 46 80 47 34 48 85 49 79 50 81 51 35 52 84 53 78 54 77 55
REMARK SMILES IDX 36 57 66 58 47 59 65 60 48 61 51 62 64 63 82 64 49 65 50 66
REMARK SMILES IDX 63 68 83 69 52 70 37 71 38 72 46 73 39 74 45 75 40 76 41 77
REMARK SMILES IDX 42 78 43 79 44 80 67 81 68 82 76 83 69 84 75 85 70 86 71 87
REMARK SMILES IDX 72 88 73 89 74 90 53 91 54 92 62 93 55 94 61 95 56 96 57 97
REMARK SMILES IDX 58 98 59 99 60 100
REMARK H PARENT 18 6 10 16 25 37 81 56 51 67
REMARK Flexibility Score: inf
ROOT
ATOM      1  C   UNL A   1      33.279  31.155  27.209  1.00  0.00     0.021 C 
ENDROOT
BRANCH   1   2
ATOM      2  C   UNL A   1      33.078  30.031  26.193  1.00  0.00     0.116 C 
BRANCH   2   3
ATOM      3  N   UNL A   1      31.976  30.186  25.258  1.00  0.00    -0.352 N 
ATOM      4  C   UNL A   1      31.189  29.247  24.616  1.00  0.00     0.251 C 
ATOM      5  O   UNL A   1      30.277  29.659  23.896  1.00  0.00    -0.269 OA
ATOM      6  H   UNL A   1      31.751  31.120  25.045  1.00  0.00     0.163 HD
BRANCH   4   7
ATOM      7  C   UNL A   1      31.393  27.765  24.712  1.00  0.00     0.041 A 
ATOM      8  C   UNL A   1      30.877  25.557  25.577  1.00  0.00     0.041 A 
ATOM      9  C   UNL A   1      32.021  25.041  24.964  1.00  0.00     0.026 A 
ATOM     10  C   UNL A   1      30.556  26.904  25.424  1.00  0.00     0.040 A 
ATOM     11  C   UNL A   1      32.796  25.852  24.143  1.00  0.00     0.003 A 
ATOM     12  C   UNL A   1      32.485  27.208  24.022  1.00  0.00     0.014 A 
BRANCH   8  13
ATOM     13  N   UNL A   1      30.157  24.674  26.379  1.00  0.00    -0.325 N 
ATOM     14  C   UNL A   1      30.363  23.388  26.760  1.00  0.00     0.234 C 
ATOM     15  O   UNL A   1      29.514  22.937  27.537  1.00  0.00    -0.274 OA
ATOM     16  H   UNL A   1      29.329  25.061  26.743  1.00  0.00     0.169 HD
BRANCH  14  17
ATOM     17  C   UNL A   1      31.650  22.639  26.513  1.00  0.00     0.178 C 
BRANCH  17  18
ATOM     18  S   UNL A   1      31.812  21.485  25.151  1.00  0.00    -0.076 SA
BRANCH  18  19
ATOM     19  C   UNL A   1      33.483  21.261  24.782  1.00  0.00     0.196 A 
ATOM     20  C   UNL A   1      36.563  19.382  24.894  1.00  0.00     0.090 C 
ATOM     21  C   UNL A   1      35.472  20.366  24.873  1.00  0.00     0.135 A 
ATOM     22  N   UNL A   1      35.615  21.676  24.887  1.00  0.00    -0.134 NA
ATOM     23  N   UNL A   1      34.139  20.054  24.802  1.00  0.00    -0.274 N 
ATOM     24  N   UNL A   1      34.365  22.232  24.820  1.00  0.00    -0.123 NA
BRANCH  23  25
ATOM     25  C   UNL A   1      33.564  18.789  24.667  1.00  0.00     0.049 A 
ATOM     26  C   UNL A   1      32.976  18.237  25.800  1.00  0.00     0.027 A 
ATOM     27  C   UNL A   1      33.820  18.034  23.525  1.00  0.00     0.027 A 
ATOM     28  C   UNL A   1      32.769  16.865  25.851  1.00  0.00     0.002 A 
ATOM     29  C   UNL A   1      33.558  16.668  23.568  1.00  0.00     0.002 A 
ATOM     30  C   UNL A   1      33.075  16.079  24.741  1.00  0.00     0.000 A 
ENDBRANCH  23  25
ENDBRANCH  18  19
ENDBRANCH  17  18
ENDBRANCH  14  17
ENDBRANCH   8  13
ENDBRANCH   4   7
ENDBRANCH   2   3
ENDBRANCH   1   2
BRANCH   1  31
ATOM     31  C   UNL A   1      34.682  31.480  27.740  1.00  0.00     0.002 C 
BRANCH  31  32
ATOM     32  C   UNL A   1      35.122  32.923  28.034  1.00  0.00     0.002 C 
BRANCH  32  33
ATOM     33  C   UNL A   1      34.979  33.529  29.439  1.00  0.00     0.021 C 
BRANCH  33  34
ATOM     34  C   UNL A   1      34.545  32.593  30.556  1.00  0.00     0.116 C 
BRANCH  34  35
ATOM     35  N   UNL A   1      34.659  33.154  31.909  1.00  0.00    -0.352 N 
ATOM     36  C   UNL A   1      35.465  32.738  32.967  1.00  0.00     0.251 C 
ATOM     37  H   UNL A   1      34.085  33.931  32.095  1.00  0.00     0.163 HD
ATOM     38  O   UNL A   1      35.180  33.050  34.116  1.00  0.00    -0.269 OA
BRANCH  36  39
ATOM     39  C   UNL A   1      36.672  31.924  32.696  1.00  0.00     0.039 A 
ATOM     40  C   UNL A   1      36.675  30.522  32.712  1.00  0.00     0.014 A 
ATOM     41  C   UNL A   1      37.856  32.600  32.453  1.00  0.00     0.014 A 
ATOM     42  C   UNL A   1      37.870  29.842  32.452  1.00  0.00     0.010 A 
ATOM     43  C   UNL A   1      38.937  31.949  31.941  1.00  0.00     0.010 A 
ATOM     44  C   UNL A   1      39.005  30.574  32.080  1.00  0.00    -0.014 A 
BRANCH  44  45
ATOM     45  C   UNL A   1      40.301  29.969  31.787  1.00  0.00     0.031 A 
ATOM     46  C   UNL A   1      41.229  29.925  32.947  1.00  0.00     0.074 A 
ATOM     47  C   UNL A   1      40.487  29.210  30.680  1.00  0.00     0.049 A 
ATOM     48  N   UNL A   1      42.280  30.631  33.188  1.00  0.00    -0.248 NA
ATOM     49  C   UNL A   1      40.816  29.101  34.089  1.00  0.00     0.031 C 
ATOM     50  C   UNL A   1      39.512  28.859  29.630  1.00  0.00     0.029 A 
ATOM     51  N   UNL A   1      41.562  28.458  30.328  1.00  0.00    -0.354 N 
ATOM     52  C   UNL A   1      42.794  30.135  34.388  1.00  0.00     0.074 A 
ATOM     53  C   UNL A   1      41.717  29.421  35.015  1.00  0.00     0.031 C 
ATOM     54  C   UNL A   1      39.961  27.797  28.923  1.00  0.00     0.029 A 
ATOM     55  C   UNL A   1      41.316  27.501  29.345  1.00  0.00     0.049 A 
ATOM     56  H   UNL A   1      42.448  28.581  30.737  1.00  0.00     0.167 HD
ATOM     57  C   UNL A   1      44.134  30.061  34.621  1.00  0.00     0.031 A 
ATOM     58  C   UNL A   1      42.161  26.516  28.939  1.00  0.00     0.031 A 
ATOM     59  C   UNL A   1      44.870  30.776  33.608  1.00  0.00     0.049 A 
ATOM     60  C   UNL A   1      43.517  26.912  29.400  1.00  0.00     0.074 A 
ATOM     61  C   UNL A   1      44.859  32.075  33.141  1.00  0.00     0.029 A 
ATOM     62  N   UNL A   1      45.447  30.014  32.617  1.00  0.00    -0.354 N 
ATOM     63  N   UNL A   1      44.146  27.967  28.960  1.00  0.00    -0.248 NA
ATOM     64  C   UNL A   1      43.963  26.418  30.693  1.00  0.00     0.031 C 
ATOM     65  C   UNL A   1      44.964  31.948  31.725  1.00  0.00     0.029 A 
ATOM     66  C   UNL A   1      45.142  30.596  31.415  1.00  0.00     0.049 A 
ATOM     67  H   UNL A   1      45.983  29.199  32.748  1.00  0.00     0.167 HD
ATOM     68  C   UNL A   1      44.742  28.521  30.085  1.00  0.00     0.074 A 
ATOM     69  C   UNL A   1      44.673  27.473  31.104  1.00  0.00     0.031 C 
ATOM     70  C   UNL A   1      44.971  29.866  30.176  1.00  0.00     0.031 A 
BRANCH  57  71
ATOM     71  C   UNL A   1      44.803  29.001  35.471  1.00  0.00    -0.014 A 
ATOM     72  C   UNL A   1      45.122  27.769  34.861  1.00  0.00     0.010 A 
ATOM     73  C   UNL A   1      44.881  29.048  36.878  1.00  0.00     0.010 A 
ATOM     74  C   UNL A   1      45.397  26.627  35.620  1.00  0.00     0.020 A 
ATOM     75  C   UNL A   1      45.201  27.925  37.645  1.00  0.00     0.020 A 
ATOM     76  C   UNL A   1      45.414  26.710  37.011  1.00  0.00     0.054 A 
BRANCH  76  77
ATOM     77  S   UNL A   1      45.647  25.203  37.983  1.00  0.00     0.124 S 
ATOM     78  O   UNL A   1      44.701  25.405  39.074  1.00  0.00    -0.237 OA
ATOM     79  O   UNL A   1      45.299  24.159  37.023  1.00  0.00    -0.237 OA
ATOM     80  O   UNL A   1      47.059  25.255  38.357  1.00  0.00    -0.744 OA
ENDBRANCH  76  77
ENDBRANCH  57  71
BRANCH  58  81
ATOM     81  C   UNL A   1      41.853  25.145  28.451  1.00  0.00    -0.014 A 
ATOM     82  C   UNL A   1      41.145  24.943  27.249  1.00  0.00     0.010 A 
ATOM     83  C   UNL A   1      42.509  24.029  29.011  1.00  0.00     0.010 A 
ATOM     84  C   UNL A   1      41.153  23.694  26.597  1.00  0.00     0.020 A 
ATOM     85  C   UNL A   1      42.517  22.781  28.370  1.00  0.00     0.020 A 
ATOM     86  C   UNL A   1      41.862  22.626  27.150  1.00  0.00     0.054 A 
BRANCH  86  87
ATOM     87  S   UNL A   1      42.039  21.078  26.207  1.00  0.00     0.124 S 
ATOM     88  O   UNL A   1      40.718  20.928  25.602  1.00  0.00    -0.237 OA
ATOM     89  O   UNL A   1      43.126  21.389  25.283  1.00  0.00    -0.237 OA
ATOM     90  O   UNL A   1      42.366  20.086  27.230  1.00  0.00    -0.744 OA
ENDBRANCH  86  87
ENDBRANCH  58  81
BRANCH  70  91
ATOM     91  C   UNL A   1      44.834  30.716  28.933  1.00  0.00    -0.014 A 
ATOM     92  C   UNL A   1      43.664  31.417  28.575  1.00  0.00     0.010 A 
ATOM     93  C   UNL A   1      46.010  30.960  28.203  1.00  0.00     0.010 A 
ATOM     94  C   UNL A   1      43.677  32.328  27.505  1.00  0.00     0.020 A 
ATOM     95  C   UNL A   1      46.034  31.878  27.154  1.00  0.00     0.020 A 
ATOM     96  C   UNL A   1      44.865  32.554  26.803  1.00  0.00     0.054 A 
BRANCH  96  97
ATOM     97  S   UNL A   1      44.900  33.770  25.457  1.00  0.00     0.124 S 
ATOM     98  O   UNL A   1      44.378  33.009  24.327  1.00  0.00    -0.237 OA
ATOM     99  O   UNL A   1      44.033  34.835  25.956  1.00  0.00    -0.237 OA
ATOM    100  O   UNL A   1      46.313  34.136  25.354  1.00  0.00    -0.744 OA
ENDBRANCH  96  97
ENDBRANCH  70  91
ENDBRANCH  44  45
ENDBRANCH  36  39
ENDBRANCH  34  35
ENDBRANCH  33  34
ENDBRANCH  32  33
ENDBRANCH  31  32
ENDBRANCH   1  31
TORSDOF 21
ENDMDL
MODEL 3
REMARK VINA RESULT:     -10.1      4.504     10.148
REMARK SMILES Cc1nnc(SCC(=O)Nc2cccc(C(=O)NCCCCCCNC(=O)c3ccc(-c4c5nc(c(-c6ccc(S(=O)(=O)[O-])cc6)c6ccc([nH]6)c(-c6ccc(S(=O)(=O)[O-])cc6)c6nc(c(-c7ccc(S(=O)(=O)[O-])cc7)c7ccc4[nH]7)C=C6)C=C5)cc3)c2)n1-c1ccccc1
REMARK SMILES IDX 20 1 19 2 18 3 16 4 17 5 15 7 11 8 12 9 88 10 13 11 14 12
REMARK SMILES IDX 10 13 8 14 9 15 7 17 6 18 5 19 1 20 2 21 3 22 89 23 4 24
REMARK SMILES IDX 90 25 91 26 95 27 92 28 94 29 93 30 21 31 22 32 23 33 24 34
REMARK SMILES IDX 25 35 26 36 27 38 28 39 29 40 87 41 30 42 86 43 31 44 32 45
REMARK SMILES IDX 33 46 80 47 34 48 85 49 79 50 81 51 35 52 84 53 78 54 77 55
REMARK SMILES IDX 36 57 66 58 47 59 65 60 48 61 51 62 64 63 82 64 49 65 50 66
REMARK SMILES IDX 63 68 83 69 52 70 37 71 38 72 46 73 39 74 45 75 40 76 41 77
REMARK SMILES IDX 42 78 43 79 44 80 67 81 68 82 76 83 69 84 75 85 70 86 71 87
REMARK SMILES IDX 72 88 73 89 74 90 53 91 54 92 62 93 55 94 61 95 56 96 57 97
REMARK SMILES IDX 58 98 59 99 60 100
REMARK H PARENT 18 6 10 16 25 37 81 56 51 67
REMARK Flexibility Score: inf
ROOT
ATOM      1  C   UNL A   1      38.109  31.486  33.231  1.00  0.00     0.021 C 
ENDROOT
BRANCH   1   2
ATOM      2  C   UNL A   1      39.224  31.986  34.151  1.00  0.00     0.116 C 
BRANCH   2   3
ATOM      3  N   UNL A   1      39.152  33.378  34.564  1.00  0.00    -0.352 N 
ATOM      4  C   UNL A   1      39.731  34.516  34.031  1.00  0.00     0.251 C 
ATOM      5  O   UNL A   1      39.466  35.597  34.561  1.00  0.00    -0.269 OA
ATOM      6  H   UNL A   1      38.597  33.539  35.360  1.00  0.00     0.163 HD
BRANCH   4   7
ATOM      7  C   UNL A   1      40.685  34.517  32.874  1.00  0.00     0.041 A 
ATOM      8  C   UNL A   1      42.757  35.138  31.773  1.00  0.00     0.041 A 
ATOM      9  C   UNL A   1      42.279  34.623  30.566  1.00  0.00     0.026 A 
ATOM     10  C   UNL A   1      41.972  35.056  32.921  1.00  0.00     0.040 A 
ATOM     11  C   UNL A   1      41.055  33.965  30.527  1.00  0.00     0.003 A 
ATOM     12  C   UNL A   1      40.260  33.917  31.675  1.00  0.00     0.014 A 
BRANCH   8  13
ATOM     13  N   UNL A   1      43.993  35.778  31.723  1.00  0.00    -0.325 N 
ATOM     14  C   UNL A   1      44.519  36.716  30.895  1.00  0.00     0.234 C 
ATOM     15  O   UNL A   1      45.657  37.092  31.197  1.00  0.00    -0.274 OA
ATOM     16  H   UNL A   1      44.613  35.492  32.432  1.00  0.00     0.169 HD
BRANCH  14  17
ATOM     17  C   UNL A   1      43.713  37.468  29.864  1.00  0.00     0.178 C 
BRANCH  17  18
ATOM     18  S   UNL A   1      44.444  38.773  28.878  1.00  0.00    -0.076 SA
BRANCH  18  19
ATOM     19  C   UNL A   1      43.417  39.125  27.535  1.00  0.00     0.196 A 
ATOM     20  C   UNL A   1      41.980  41.376  25.106  1.00  0.00     0.090 C 
ATOM     21  C   UNL A   1      42.318  40.341  26.094  1.00  0.00     0.135 A 
ATOM     22  N   UNL A   1      41.527  39.364  26.488  1.00  0.00    -0.134 NA
ATOM     23  N   UNL A   1      43.530  40.229  26.726  1.00  0.00    -0.274 N 
ATOM     24  N   UNL A   1      42.224  38.599  27.385  1.00  0.00    -0.123 NA
BRANCH  23  25
ATOM     25  C   UNL A   1      44.675  41.000  26.519  1.00  0.00     0.049 A 
ATOM     26  C   UNL A   1      44.711  42.255  27.117  1.00  0.00     0.027 A 
ATOM     27  C   UNL A   1      45.593  40.619  25.544  1.00  0.00     0.027 A 
ATOM     28  C   UNL A   1      45.594  43.208  26.629  1.00  0.00     0.002 A 
ATOM     29  C   UNL A   1      46.510  41.567  25.099  1.00  0.00     0.002 A 
ATOM     30  C   UNL A   1      46.482  42.869  25.610  1.00  0.00     0.000 A 
ENDBRANCH  23  25
ENDBRANCH  18  19
ENDBRANCH  17  18
ENDBRANCH  14  17
ENDBRANCH   8  13
ENDBRANCH   4   7
ENDBRANCH   2   3
ENDBRANCH   1   2
BRANCH   1  31
ATOM     31  C   UNL A   1      37.357  32.467  32.321  1.00  0.00     0.002 C 
BRANCH  31  32
ATOM     32  C   UNL A   1      35.889  32.845  32.577  1.00  0.00     0.002 C 
BRANCH  32  33
ATOM     33  C   UNL A   1      34.761  32.316  31.677  1.00  0.00     0.021 C 
BRANCH  33  34
ATOM     34  C   UNL A   1      34.677  32.882  30.267  1.00  0.00     0.116 C 
BRANCH  34  35
ATOM     35  N   UNL A   1      34.156  31.948  29.259  1.00  0.00    -0.352 N 
ATOM     36  C   UNL A   1      34.855  31.191  28.322  1.00  0.00     0.251 C 
ATOM     37  H   UNL A   1      33.178  31.843  29.243  1.00  0.00     0.163 HD
ATOM     38  O   UNL A   1      34.283  30.767  27.325  1.00  0.00    -0.269 OA
BRANCH  36  39
ATOM     39  C   UNL A   1      36.290  30.894  28.537  1.00  0.00     0.039 A 
ATOM     40  C   UNL A   1      37.247  31.880  28.814  1.00  0.00     0.014 A 
ATOM     41  C   UNL A   1      36.693  29.575  28.418  1.00  0.00     0.014 A 
ATOM     42  C   UNL A   1      38.583  31.500  28.994  1.00  0.00     0.010 A 
ATOM     43  C   UNL A   1      37.921  29.179  28.854  1.00  0.00     0.010 A 
ATOM     44  C   UNL A   1      38.910  30.137  28.996  1.00  0.00    -0.014 A 
BRANCH  44  45
ATOM     45  C   UNL A   1      40.266  29.629  29.173  1.00  0.00     0.031 A 
ATOM     46  C   UNL A   1      40.661  29.431  30.592  1.00  0.00     0.074 A 
ATOM     47  C   UNL A   1      40.943  29.061  28.145  1.00  0.00     0.049 A 
ATOM     48  N   UNL A   1      41.462  30.123  31.328  1.00  0.00    -0.248 NA
ATOM     49  C   UNL A   1      39.911  28.423  31.351  1.00  0.00     0.031 C 
ATOM     50  C   UNL A   1      40.498  28.850  26.755  1.00  0.00     0.029 A 
ATOM     51  N   UNL A   1      42.134  28.409  28.161  1.00  0.00    -0.354 N 
ATOM     52  C   UNL A   1      41.505  29.460  32.556  1.00  0.00     0.074 A 
ATOM     53  C   UNL A   1      40.341  28.621  32.595  1.00  0.00     0.031 C 
ATOM     54  C   UNL A   1      41.286  27.929  26.155  1.00  0.00     0.029 A 
ATOM     55  C   UNL A   1      42.386  27.612  27.045  1.00  0.00     0.049 A 
ATOM     56  H   UNL A   1      42.772  28.495  28.905  1.00  0.00     0.167 HD
ATOM     57  C   UNL A   1      42.646  29.393  33.298  1.00  0.00     0.031 A 
ATOM     58  C   UNL A   1      43.410  26.733  26.889  1.00  0.00     0.031 A 
ATOM     59  C   UNL A   1      43.652  30.283  32.773  1.00  0.00     0.049 A 
ATOM     60  C   UNL A   1      44.432  27.094  27.906  1.00  0.00     0.074 A 
ATOM     61  C   UNL A   1      43.705  31.638  32.517  1.00  0.00     0.029 A 
ATOM     62  N   UNL A   1      44.641  29.706  32.007  1.00  0.00    -0.354 N 
ATOM     63  N   UNL A   1      45.082  28.225  27.901  1.00  0.00    -0.248 NA
ATOM     64  C   UNL A   1      44.376  26.415  29.191  1.00  0.00     0.031 C 
ATOM     65  C   UNL A   1      44.371  31.741  31.261  1.00  0.00     0.029 A 
ATOM     66  C   UNL A   1      44.781  30.461  30.872  1.00  0.00     0.049 A 
ATOM     67  H   UNL A   1      45.155  28.898  32.234  1.00  0.00     0.167 HD
ATOM     68  C   UNL A   1      45.133  28.612  29.232  1.00  0.00     0.074 A 
ATOM     69  C   UNL A   1      44.765  27.414  29.989  1.00  0.00     0.031 C 
ATOM     70  C   UNL A   1      45.181  29.932  29.585  1.00  0.00     0.031 A 
BRANCH  57  71
ATOM     71  C   UNL A   1      43.022  28.233  34.197  1.00  0.00    -0.014 A 
ATOM     72  C   UNL A   1      43.379  28.520  35.531  1.00  0.00     0.010 A 
ATOM     73  C   UNL A   1      43.305  26.932  33.732  1.00  0.00     0.010 A 
ATOM     74  C   UNL A   1      44.075  27.595  36.316  1.00  0.00     0.020 A 
ATOM     75  C   UNL A   1      43.958  25.983  34.523  1.00  0.00     0.020 A 
ATOM     76  C   UNL A   1      44.377  26.337  35.797  1.00  0.00     0.054 A 
BRANCH  76  77
ATOM     77  S   UNL A   1      45.383  25.197  36.775  1.00  0.00     0.124 S 
ATOM     78  O   UNL A   1      44.363  24.456  37.510  1.00  0.00    -0.237 OA
ATOM     79  O   UNL A   1      46.094  24.449  35.742  1.00  0.00    -0.237 OA
ATOM     80  O   UNL A   1      46.218  26.085  37.581  1.00  0.00    -0.744 OA
ENDBRANCH  76  77
ENDBRANCH  57  71
BRANCH  58  81
ATOM     81  C   UNL A   1      43.449  25.447  26.140  1.00  0.00    -0.014 A 
ATOM     82  C   UNL A   1      44.463  25.183  25.199  1.00  0.00     0.010 A 
ATOM     83  C   UNL A   1      42.657  24.358  26.562  1.00  0.00     0.010 A 
ATOM     84  C   UNL A   1      44.724  23.872  24.754  1.00  0.00     0.020 A 
ATOM     85  C   UNL A   1      42.908  23.050  26.119  1.00  0.00     0.020 A 
ATOM     86  C   UNL A   1      43.959  22.809  25.238  1.00  0.00     0.054 A 
BRANCH  86  87
ATOM     87  S   UNL A   1      44.427  21.099  24.819  1.00  0.00     0.124 S 
ATOM     88  O   UNL A   1      44.577  21.162  23.367  1.00  0.00    -0.237 OA
ATOM     89  O   UNL A   1      45.663  20.912  25.574  1.00  0.00    -0.237 OA
ATOM     90  O   UNL A   1      43.293  20.306  25.290  1.00  0.00    -0.744 OA
ENDBRANCH  86  87
ENDBRANCH  58  81
BRANCH  70  91
ATOM     91  C   UNL A   1      45.466  30.964  28.517  1.00  0.00    -0.014 A 
ATOM     92  C   UNL A   1      44.480  31.559  27.704  1.00  0.00     0.010 A 
ATOM     93  C   UNL A   1      46.771  31.484  28.475  1.00  0.00     0.010 A 
ATOM     94  C   UNL A   1      44.802  32.640  26.865  1.00  0.00     0.020 A 
ATOM     95  C   UNL A   1      47.093  32.568  27.660  1.00  0.00     0.020 A 
ATOM     96  C   UNL A   1      46.109  33.138  26.851  1.00  0.00     0.054 A 
BRANCH  96  97
ATOM     97  S   UNL A   1      46.518  34.568  25.811  1.00  0.00     0.124 S 
ATOM     98  O   UNL A   1      46.268  35.694  26.706  1.00  0.00    -0.237 OA
ATOM     99  O   UNL A   1      47.919  34.332  25.468  1.00  0.00    -0.237 OA
ATOM    100  O   UNL A   1      45.590  34.457  24.686  1.00  0.00    -0.744 OA
ENDBRANCH  96  97
ENDBRANCH  70  91
ENDBRANCH  44  45
ENDBRANCH  36  39
ENDBRANCH  34  35
ENDBRANCH  33  34
ENDBRANCH  32  33
ENDBRANCH  31  32
ENDBRANCH   1  31
TORSDOF 21
ENDMDL
