MODEL 1
REMARK VINA RESULT:      -9.9      0.000      0.000
REMARK SMILES CC(C)(C)c1ccc(NC(=O)CCC(=O)NCCCCCCNC(=O)c2ccc(-c3c4nc(c(-c5ccc(S(=O)(=O)[O-])cc5)c5ccc([nH]5)c(-c5ccc(S(=O)(=O)[O-])cc5)c5nc(c(-c6ccc(S(=O)(=O)[O-])cc6)c6ccc3[nH]6)C=C5)C=C4)cc2)cc1
REMARK SMILES IDX 19 1 18 2 17 3 16 4 14 5 15 6 13 8 12 9 10 10 9 11 11 13
REMARK SMILES IDX 8 14 5 15 6 16 87 17 7 18 86 19 2 20 1 21 3 22 4 23 20 24
REMARK SMILES IDX 21 25 22 26 23 27 24 28 25 30 26 31 27 32 85 33 28 34 84 35
REMARK SMILES IDX 29 36 30 37 31 38 78 39 32 40 83 41 77 42 79 43 33 44 82 45
REMARK SMILES IDX 76 46 75 47 34 49 64 50 45 51 63 52 46 53 49 54 62 55 80 56
REMARK SMILES IDX 47 57 48 58 61 60 81 61 50 62 35 63 36 64 44 65 37 66 43 67
REMARK SMILES IDX 38 68 39 69 40 70 41 71 42 72 65 73 66 74 74 75 67 76 73 77
REMARK SMILES IDX 68 78 69 79 70 80 71 81 72 82 51 83 52 84 60 85 53 86 59 87
REMARK SMILES IDX 54 88 55 89 56 90 57 91 58 92
REMARK H PARENT 16 7 9 12 23 29 79 48 49 59
REMARK Flexibility Score: inf
ROOT
ATOM      1  C   UNL A   1      31.242  26.808  27.081  1.00  0.00     0.002 C 
ENDROOT
BRANCH   1   2
ATOM      2  C   UNL A   1      30.631  26.163  25.834  1.00  0.00     0.021 C 
BRANCH   2   3
ATOM      3  C   UNL A   1      30.079  24.756  26.038  1.00  0.00     0.116 C 
BRANCH   3   4
ATOM      4  N   UNL A   1      30.840  23.990  27.008  1.00  0.00    -0.356 N 
ATOM      5  C   UNL A   1      32.032  23.347  26.865  1.00  0.00     0.220 C 
ATOM      6  O   UNL A   1      32.574  22.869  27.863  1.00  0.00    -0.275 OA
ATOM      7  H   UNL A   1      30.434  23.925  27.902  1.00  0.00     0.163 HD
BRANCH   5   8
ATOM      8  C   UNL A   1      32.684  23.254  25.506  1.00  0.00     0.110 C 
BRANCH   8   9
ATOM      9  C   UNL A   1      33.863  24.190  25.266  1.00  0.00     0.110 C 
BRANCH   9  10
ATOM     10  C   UNL A   1      34.555  24.077  23.923  1.00  0.00     0.224 C 
ATOM     11  N   UNL A   1      34.144  24.752  22.809  1.00  0.00    -0.326 N 
ATOM     12  H   UNL A   1      34.606  24.501  21.977  1.00  0.00     0.169 HD
ATOM     13  O   UNL A   1      35.587  23.402  23.829  1.00  0.00    -0.275 OA
BRANCH  11  14
ATOM     14  C   UNL A   1      33.166  25.745  22.663  1.00  0.00     0.041 A 
ATOM     15  C   UNL A   1      31.229  27.806  22.791  1.00  0.00    -0.042 A 
ATOM     16  C   UNL A   1      30.888  26.497  22.413  1.00  0.00     0.006 A 
ATOM     17  C   UNL A   1      32.587  28.069  23.028  1.00  0.00     0.006 A 
ATOM     18  C   UNL A   1      31.846  25.482  22.341  1.00  0.00     0.026 A 
ATOM     19  C   UNL A   1      33.549  27.062  22.916  1.00  0.00     0.026 A 
BRANCH  15  20
ATOM     20  C   UNL A   1      30.166  28.901  22.976  1.00  0.00    -0.013 C 
ATOM     21  C   UNL A   1      30.441  29.799  24.202  1.00  0.00     0.016 C 
ATOM     22  C   UNL A   1      28.764  28.284  23.172  1.00  0.00     0.016 C 
ATOM     23  C   UNL A   1      30.148  29.798  21.721  1.00  0.00     0.016 C 
ENDBRANCH  15  20
ENDBRANCH  11  14
ENDBRANCH   9  10
ENDBRANCH   8   9
ENDBRANCH   5   8
ENDBRANCH   3   4
ENDBRANCH   2   3
ENDBRANCH   1   2
BRANCH   1  24
ATOM     24  C   UNL A   1      32.085  28.049  26.801  1.00  0.00     0.002 C 
BRANCH  24  25
ATOM     25  C   UNL A   1      33.586  27.782  26.688  1.00  0.00     0.021 C 
BRANCH  25  26
ATOM     26  C   UNL A   1      34.385  28.919  26.058  1.00  0.00     0.116 C 
BRANCH  26  27
ATOM     27  N   UNL A   1      33.901  30.221  26.480  1.00  0.00    -0.352 N 
ATOM     28  C   UNL A   1      34.352  30.998  27.519  1.00  0.00     0.251 C 
ATOM     29  H   UNL A   1      33.156  30.594  25.956  1.00  0.00     0.163 HD
ATOM     30  O   UNL A   1      33.716  31.974  27.889  1.00  0.00    -0.269 OA
BRANCH  28  31
ATOM     31  C   UNL A   1      35.614  30.619  28.182  1.00  0.00     0.039 A 
ATOM     32  C   UNL A   1      36.782  31.307  27.858  1.00  0.00     0.014 A 
ATOM     33  C   UNL A   1      35.626  29.600  29.140  1.00  0.00     0.014 A 
ATOM     34  C   UNL A   1      37.968  30.978  28.511  1.00  0.00     0.010 A 
ATOM     35  C   UNL A   1      36.790  29.338  29.852  1.00  0.00     0.010 A 
ATOM     36  C   UNL A   1      37.980  29.998  29.519  1.00  0.00    -0.014 A 
BRANCH  36  37
ATOM     37  C   UNL A   1      39.250  29.613  30.178  1.00  0.00     0.031 A 
ATOM     38  C   UNL A   1      39.674  30.308  31.446  1.00  0.00     0.074 A 
ATOM     39  C   UNL A   1      40.017  28.645  29.639  1.00  0.00     0.049 A 
ATOM     40  N   UNL A   1      40.715  30.075  32.204  1.00  0.00    -0.248 NA
ATOM     41  C   UNL A   1      38.833  31.423  31.913  1.00  0.00     0.031 C 
ATOM     42  C   UNL A   1      39.731  27.937  28.388  1.00  0.00     0.029 A 
ATOM     43  N   UNL A   1      41.183  28.077  30.085  1.00  0.00    -0.354 N 
ATOM     44  C   UNL A   1      40.654  31.016  33.226  1.00  0.00     0.074 A 
ATOM     45  C   UNL A   1      39.519  31.868  32.954  1.00  0.00     0.031 C 
ATOM     46  C   UNL A   1      40.671  26.997  28.193  1.00  0.00     0.029 A 
ATOM     47  C   UNL A   1      41.640  27.057  29.283  1.00  0.00     0.049 A 
ATOM     48  H   UNL A   1      41.649  28.372  30.900  1.00  0.00     0.167 HD
ATOM     49  C   UNL A   1      41.454  31.143  34.312  1.00  0.00     0.031 A 
ATOM     50  C   UNL A   1      42.711  26.253  29.421  1.00  0.00     0.031 A 
ATOM     51  C   UNL A   1      42.578  30.287  34.578  1.00  0.00     0.049 A 
ATOM     52  C   UNL A   1      43.582  26.409  30.638  1.00  0.00     0.074 A 
ATOM     53  C   UNL A   1      43.428  30.297  35.669  1.00  0.00     0.029 A 
ATOM     54  N   UNL A   1      43.008  29.267  33.742  1.00  0.00    -0.354 N 
ATOM     55  N   UNL A   1      43.470  27.261  31.630  1.00  0.00    -0.248 NA
ATOM     56  C   UNL A   1      44.710  25.479  30.765  1.00  0.00     0.031 C 
ATOM     57  C   UNL A   1      44.409  29.320  35.464  1.00  0.00     0.029 A 
ATOM     58  C   UNL A   1      44.125  28.652  34.283  1.00  0.00     0.049 A 
ATOM     59  H   UNL A   1      42.584  29.017  32.890  1.00  0.00     0.167 HD
ATOM     60  C   UNL A   1      44.493  26.944  32.519  1.00  0.00     0.074 A 
ATOM     61  C   UNL A   1      45.197  25.811  31.952  1.00  0.00     0.031 C 
ATOM     62  C   UNL A   1      44.817  27.530  33.699  1.00  0.00     0.031 A 
BRANCH  49  63
ATOM     63  C   UNL A   1      41.136  32.251  35.284  1.00  0.00    -0.014 A 
ATOM     64  C   UNL A   1      40.425  31.999  36.472  1.00  0.00     0.010 A 
ATOM     65  C   UNL A   1      41.579  33.560  35.020  1.00  0.00     0.010 A 
ATOM     66  C   UNL A   1      40.123  33.039  37.354  1.00  0.00     0.020 A 
ATOM     67  C   UNL A   1      41.309  34.599  35.916  1.00  0.00     0.020 A 
ATOM     68  C   UNL A   1      40.566  34.334  37.070  1.00  0.00     0.054 A 
BRANCH  68  69
ATOM     69  S   UNL A   1      40.182  35.660  38.245  1.00  0.00     0.124 S 
ATOM     70  O   UNL A   1      41.454  35.819  38.947  1.00  0.00    -0.237 OA
ATOM     71  O   UNL A   1      39.807  36.766  37.367  1.00  0.00    -0.237 OA
ATOM     72  O   UNL A   1      39.094  35.109  39.049  1.00  0.00    -0.744 OA
ENDBRANCH  68  69
ENDBRANCH  49  63
BRANCH  50  73
ATOM     73  C   UNL A   1      42.995  25.207  28.399  1.00  0.00    -0.014 A 
ATOM     74  C   UNL A   1      42.460  23.913  28.524  1.00  0.00     0.010 A 
ATOM     75  C   UNL A   1      43.806  25.504  27.287  1.00  0.00     0.010 A 
ATOM     76  C   UNL A   1      42.749  22.929  27.572  1.00  0.00     0.020 A 
ATOM     77  C   UNL A   1      44.070  24.534  26.318  1.00  0.00     0.020 A 
ATOM     78  C   UNL A   1      43.551  23.247  26.473  1.00  0.00     0.054 A 
BRANCH  78  79
ATOM     79  S   UNL A   1      43.879  21.969  25.229  1.00  0.00     0.124 S 
ATOM     80  O   UNL A   1      43.738  22.714  23.982  1.00  0.00    -0.237 OA
ATOM     81  O   UNL A   1      45.237  21.546  25.564  1.00  0.00    -0.237 OA
ATOM     82  O   UNL A   1      42.842  20.971  25.482  1.00  0.00    -0.744 OA
ENDBRANCH  78  79
ENDBRANCH  50  73
BRANCH  62  83
ATOM     83  C   UNL A   1      45.955  26.924  34.478  1.00  0.00    -0.014 A 
ATOM     84  C   UNL A   1      47.278  27.376  34.327  1.00  0.00     0.010 A 
ATOM     85  C   UNL A   1      45.686  25.889  35.393  1.00  0.00     0.010 A 
ATOM     86  C   UNL A   1      48.318  26.762  35.028  1.00  0.00     0.020 A 
ATOM     87  C   UNL A   1      46.717  25.298  36.125  1.00  0.00     0.020 A 
ATOM     88  C   UNL A   1      48.031  25.721  35.918  1.00  0.00     0.054 A 
BRANCH  88  89
ATOM     89  S   UNL A   1      49.398  24.938  36.816  1.00  0.00     0.124 S 
ATOM     90  O   UNL A   1      49.352  23.571  36.305  1.00  0.00    -0.237 OA
ATOM     91  O   UNL A   1      50.552  25.728  36.395  1.00  0.00    -0.237 OA
ATOM     92  O   UNL A   1      49.023  25.091  38.220  1.00  0.00    -0.744 OA
ENDBRANCH  88  89
ENDBRANCH  62  83
ENDBRANCH  36  37
ENDBRANCH  28  31
ENDBRANCH  26  27
ENDBRANCH  25  26
ENDBRANCH  24  25
ENDBRANCH   1  24
TORSDOF 20
ENDMDL
MODEL 2
REMARK VINA RESULT:      -9.8      2.711      4.456
REMARK SMILES CC(C)(C)c1ccc(NC(=O)CCC(=O)NCCCCCCNC(=O)c2ccc(-c3c4nc(c(-c5ccc(S(=O)(=O)[O-])cc5)c5ccc([nH]5)c(-c5ccc(S(=O)(=O)[O-])cc5)c5nc(c(-c6ccc(S(=O)(=O)[O-])cc6)c6ccc3[nH]6)C=C5)C=C4)cc2)cc1
REMARK SMILES IDX 19 1 18 2 17 3 16 4 14 5 15 6 13 8 12 9 10 10 9 11 11 13
REMARK SMILES IDX 8 14 5 15 6 16 87 17 7 18 86 19 2 20 1 21 3 22 4 23 20 24
REMARK SMILES IDX 21 25 22 26 23 27 24 28 25 30 26 31 27 32 85 33 28 34 84 35
REMARK SMILES IDX 29 36 30 37 31 38 78 39 32 40 83 41 77 42 79 43 33 44 82 45
REMARK SMILES IDX 76 46 75 47 34 49 64 50 45 51 63 52 46 53 49 54 62 55 80 56
REMARK SMILES IDX 47 57 48 58 61 60 81 61 50 62 35 63 36 64 44 65 37 66 43 67
REMARK SMILES IDX 38 68 39 69 40 70 41 71 42 72 65 73 66 74 74 75 67 76 73 77
REMARK SMILES IDX 68 78 69 79 70 80 71 81 72 82 51 83 52 84 60 85 53 86 59 87
REMARK SMILES IDX 54 88 55 89 56 90 57 91 58 92
REMARK H PARENT 16 7 9 12 23 29 79 48 49 59
REMARK Flexibility Score: inf
ROOT
ATOM      1  C   UNL A   1      31.581  29.191  24.380  1.00  0.00     0.002 C 
ENDROOT
BRANCH   1   2
ATOM      2  C   UNL A   1      31.252  29.082  22.889  1.00  0.00     0.021 C 
BRANCH   2   3
ATOM      3  C   UNL A   1      30.462  27.840  22.491  1.00  0.00     0.116 C 
BRANCH   3   4
ATOM      4  N   UNL A   1      31.281  26.842  21.829  1.00  0.00    -0.356 N 
ATOM      5  C   UNL A   1      31.924  25.761  22.352  1.00  0.00     0.220 C 
ATOM      6  O   UNL A   1      32.456  24.956  21.585  1.00  0.00    -0.275 OA
ATOM      7  H   UNL A   1      31.388  26.963  20.858  1.00  0.00     0.163 HD
BRANCH   5   8
ATOM      8  C   UNL A   1      31.954  25.547  23.847  1.00  0.00     0.110 C 
BRANCH   8   9
ATOM      9  C   UNL A   1      30.837  24.682  24.419  1.00  0.00     0.110 C 
BRANCH   9  10
ATOM     10  C   UNL A   1      30.687  24.679  25.926  1.00  0.00     0.224 C 
ATOM     11  N   UNL A   1      31.592  24.098  26.769  1.00  0.00    -0.326 N 
ATOM     12  H   UNL A   1      31.317  24.065  27.713  1.00  0.00     0.169 HD
ATOM     13  O   UNL A   1      29.744  25.292  26.442  1.00  0.00    -0.275 OA
BRANCH  11  14
ATOM     14  C   UNL A   1      32.848  23.539  26.499  1.00  0.00     0.041 A 
ATOM     15  C   UNL A   1      35.349  22.593  25.570  1.00  0.00    -0.042 A 
ATOM     16  C   UNL A   1      34.302  21.714  25.891  1.00  0.00     0.006 A 
ATOM     17  C   UNL A   1      35.131  23.959  25.804  1.00  0.00     0.006 A 
ATOM     18  C   UNL A   1      33.070  22.180  26.358  1.00  0.00     0.026 A 
ATOM     19  C   UNL A   1      33.912  24.420  26.310  1.00  0.00     0.026 A 
BRANCH  15  20
ATOM     20  C   UNL A   1      36.667  22.095  24.955  1.00  0.00    -0.013 C 
ATOM     21  C   UNL A   1      36.773  20.554  24.939  1.00  0.00     0.016 C 
ATOM     22  C   UNL A   1      37.883  22.624  25.747  1.00  0.00     0.016 C 
ATOM     23  C   UNL A   1      36.762  22.596  23.499  1.00  0.00     0.016 C 
ENDBRANCH  15  20
ENDBRANCH  11  14
ENDBRANCH   9  10
ENDBRANCH   8   9
ENDBRANCH   5   8
ENDBRANCH   3   4
ENDBRANCH   2   3
ENDBRANCH   1   2
BRANCH   1  24
ATOM     24  C   UNL A   1      33.072  29.302  24.691  1.00  0.00     0.002 C 
BRANCH  24  25
ATOM     25  C   UNL A   1      33.663  28.082  25.398  1.00  0.00     0.021 C 
BRANCH  25  26
ATOM     26  C   UNL A   1      34.031  28.314  26.859  1.00  0.00     0.116 C 
BRANCH  26  27
ATOM     27  N   UNL A   1      33.726  29.668  27.288  1.00  0.00    -0.352 N 
ATOM     28  C   UNL A   1      34.493  30.506  28.058  1.00  0.00     0.251 C 
ATOM     29  H   UNL A   1      32.860  30.029  26.990  1.00  0.00     0.163 HD
ATOM     30  O   UNL A   1      34.023  31.537  28.516  1.00  0.00    -0.269 OA
BRANCH  28  31
ATOM     31  C   UNL A   1      35.894  30.127  28.327  1.00  0.00     0.039 A 
ATOM     32  C   UNL A   1      36.229  29.624  29.583  1.00  0.00     0.014 A 
ATOM     33  C   UNL A   1      36.861  30.253  27.324  1.00  0.00     0.014 A 
ATOM     34  C   UNL A   1      37.543  29.229  29.828  1.00  0.00     0.010 A 
ATOM     35  C   UNL A   1      38.147  29.774  27.544  1.00  0.00     0.010 A 
ATOM     36  C   UNL A   1      38.510  29.292  28.808  1.00  0.00    -0.014 A 
BRANCH  36  37
ATOM     37  C   UNL A   1      39.917  28.920  29.083  1.00  0.00     0.031 A 
ATOM     38  C   UNL A   1      40.826  29.898  29.782  1.00  0.00     0.074 A 
ATOM     39  C   UNL A   1      40.375  27.709  28.707  1.00  0.00     0.049 A 
ATOM     40  N   UNL A   1      42.066  29.740  30.165  1.00  0.00    -0.248 NA
ATOM     41  C   UNL A   1      40.279  31.235  30.067  1.00  0.00     0.031 C 
ATOM     42  C   UNL A   1      39.600  26.699  27.981  1.00  0.00     0.029 A 
ATOM     43  N   UNL A   1      41.596  27.117  28.900  1.00  0.00    -0.354 N 
ATOM     44  C   UNL A   1      42.444  30.955  30.727  1.00  0.00     0.074 A 
ATOM     45  C   UNL A   1      41.331  31.861  30.570  1.00  0.00     0.031 C 
ATOM     46  C   UNL A   1      40.350  25.595  27.833  1.00  0.00     0.029 A 
ATOM     47  C   UNL A   1      41.666  25.829  28.422  1.00  0.00     0.049 A 
ATOM     48  H   UNL A   1      42.353  27.570  29.338  1.00  0.00     0.167 HD
ATOM     49  C   UNL A   1      43.605  31.280  31.346  1.00  0.00     0.031 A 
ATOM     50  C   UNL A   1      42.672  24.935  28.467  1.00  0.00     0.031 A 
ATOM     51  C   UNL A   1      44.707  30.369  31.503  1.00  0.00     0.049 A 
ATOM     52  C   UNL A   1      43.949  25.317  29.164  1.00  0.00     0.074 A 
ATOM     53  C   UNL A   1      45.910  30.578  32.152  1.00  0.00     0.029 A 
ATOM     54  N   UNL A   1      44.737  29.075  31.004  1.00  0.00    -0.354 N 
ATOM     55  N   UNL A   1      44.264  26.448  29.750  1.00  0.00    -0.248 NA
ATOM     56  C   UNL A   1      44.998  24.291  29.226  1.00  0.00     0.031 C 
ATOM     57  C   UNL A   1      46.693  29.429  31.994  1.00  0.00     0.029 A 
ATOM     58  C   UNL A   1      45.948  28.479  31.313  1.00  0.00     0.049 A 
ATOM     59  H   UNL A   1      44.007  28.644  30.504  1.00  0.00     0.167 HD
ATOM     60  C   UNL A   1      45.535  26.257  30.284  1.00  0.00     0.074 A 
ATOM     61  C   UNL A   1      45.917  24.896  29.965  1.00  0.00     0.031 C 
ATOM     62  C   UNL A   1      46.313  27.124  30.980  1.00  0.00     0.031 A 
BRANCH  49  63
ATOM     63  C   UNL A   1      43.734  32.680  31.892  1.00  0.00    -0.014 A 
ATOM     64  C   UNL A   1      44.104  33.755  31.063  1.00  0.00     0.010 A 
ATOM     65  C   UNL A   1      43.456  32.929  33.248  1.00  0.00     0.010 A 
ATOM     66  C   UNL A   1      44.236  35.043  31.588  1.00  0.00     0.020 A 
ATOM     67  C   UNL A   1      43.554  34.222  33.770  1.00  0.00     0.020 A 
ATOM     68  C   UNL A   1      43.962  35.269  32.940  1.00  0.00     0.054 A 
BRANCH  68  69
ATOM     69  S   UNL A   1      44.117  36.955  33.588  1.00  0.00     0.124 S 
ATOM     70  O   UNL A   1      42.728  37.288  33.897  1.00  0.00    -0.237 OA
ATOM     71  O   UNL A   1      44.991  36.772  34.744  1.00  0.00    -0.237 OA
ATOM     72  O   UNL A   1      44.704  37.702  32.477  1.00  0.00    -0.744 OA
ENDBRANCH  68  69
ENDBRANCH  49  63
BRANCH  50  73
ATOM     73  C   UNL A   1      42.495  23.583  27.867  1.00  0.00    -0.014 A 
ATOM     74  C   UNL A   1      41.779  22.581  28.545  1.00  0.00     0.010 A 
ATOM     75  C   UNL A   1      43.044  23.291  26.604  1.00  0.00     0.010 A 
ATOM     76  C   UNL A   1      41.637  21.307  27.986  1.00  0.00     0.020 A 
ATOM     77  C   UNL A   1      42.876  22.030  26.028  1.00  0.00     0.020 A 
ATOM     78  C   UNL A   1      42.185  21.040  26.728  1.00  0.00     0.054 A 
BRANCH  78  79
ATOM     79  S   UNL A   1      41.952  19.394  26.003  1.00  0.00     0.124 S 
ATOM     80  O   UNL A   1      42.759  19.480  24.790  1.00  0.00    -0.237 OA
ATOM     81  O   UNL A   1      42.470  18.514  27.048  1.00  0.00    -0.237 OA
ATOM     82  O   UNL A   1      40.509  19.315  25.790  1.00  0.00    -0.744 OA
ENDBRANCH  78  79
ENDBRANCH  50  73
BRANCH  62  83
ATOM     83  C   UNL A   1      47.635  26.608  31.486  1.00  0.00    -0.014 A 
ATOM     84  C   UNL A   1      47.751  25.968  32.733  1.00  0.00     0.010 A 
ATOM     85  C   UNL A   1      48.781  26.756  30.683  1.00  0.00     0.010 A 
ATOM     86  C   UNL A   1      49.000  25.543  33.194  1.00  0.00     0.020 A 
ATOM     87  C   UNL A   1      50.025  26.299  31.123  1.00  0.00     0.020 A 
ATOM     88  C   UNL A   1      50.130  25.718  32.388  1.00  0.00     0.054 A 
BRANCH  88  89
ATOM     89  S   UNL A   1      51.739  25.161  33.009  1.00  0.00     0.124 S 
ATOM     90  O   UNL A   1      51.433  23.811  33.473  1.00  0.00    -0.237 OA
ATOM     91  O   UNL A   1      52.586  25.240  31.822  1.00  0.00    -0.237 OA
ATOM     92  O   UNL A   1      52.058  26.124  34.061  1.00  0.00    -0.744 OA
ENDBRANCH  88  89
ENDBRANCH  62  83
ENDBRANCH  36  37
ENDBRANCH  28  31
ENDBRANCH  26  27
ENDBRANCH  25  26
ENDBRANCH  24  25
ENDBRANCH   1  24
TORSDOF 20
ENDMDL
MODEL 3
REMARK VINA RESULT:      -9.7      1.788      3.570
REMARK SMILES CC(C)(C)c1ccc(NC(=O)CCC(=O)NCCCCCCNC(=O)c2ccc(-c3c4nc(c(-c5ccc(S(=O)(=O)[O-])cc5)c5ccc([nH]5)c(-c5ccc(S(=O)(=O)[O-])cc5)c5nc(c(-c6ccc(S(=O)(=O)[O-])cc6)c6ccc3[nH]6)C=C5)C=C4)cc2)cc1
REMARK SMILES IDX 19 1 18 2 17 3 16 4 14 5 15 6 13 8 12 9 10 10 9 11 11 13
REMARK SMILES IDX 8 14 5 15 6 16 87 17 7 18 86 19 2 20 1 21 3 22 4 23 20 24
REMARK SMILES IDX 21 25 22 26 23 27 24 28 25 30 26 31 27 32 85 33 28 34 84 35
REMARK SMILES IDX 29 36 30 37 31 38 78 39 32 40 83 41 77 42 79 43 33 44 82 45
REMARK SMILES IDX 76 46 75 47 34 49 64 50 45 51 63 52 46 53 49 54 62 55 80 56
REMARK SMILES IDX 47 57 48 58 61 60 81 61 50 62 35 63 36 64 44 65 37 66 43 67
REMARK SMILES IDX 38 68 39 69 40 70 41 71 42 72 65 73 66 74 74 75 67 76 73 77
REMARK SMILES IDX 68 78 69 79 70 80 71 81 72 82 51 83 52 84 60 85 53 86 59 87
REMARK SMILES IDX 54 88 55 89 56 90 57 91 58 92
REMARK H PARENT 16 7 9 12 23 29 79 48 49 59
REMARK Flexibility Score: inf
ROOT
ATOM      1  C   UNL A   1      31.027  29.169  24.509  1.00  0.00     0.002 C 
ENDROOT
BRANCH   1   2
ATOM      2  C   UNL A   1      30.192  28.664  23.329  1.00  0.00     0.021 C 
BRANCH   2   3
ATOM      3  C   UNL A   1      29.888  27.170  23.343  1.00  0.00     0.116 C 
BRANCH   3   4
ATOM      4  N   UNL A   1      29.632  26.662  24.678  1.00  0.00    -0.356 N 
ATOM      5  C   UNL A   1      30.206  25.616  25.335  1.00  0.00     0.220 C 
ATOM      6  O   UNL A   1      29.936  25.440  26.524  1.00  0.00    -0.275 OA
ATOM      7  H   UNL A   1      28.939  27.144  25.184  1.00  0.00     0.163 HD
BRANCH   5   8
ATOM      8  C   UNL A   1      31.179  24.712  24.616  1.00  0.00     0.110 C 
BRANCH   8   9
ATOM      9  C   UNL A   1      32.568  24.600  25.234  1.00  0.00     0.110 C 
BRANCH   9  10
ATOM     10  C   UNL A   1      33.737  24.581  24.272  1.00  0.00     0.224 C 
ATOM     11  N   UNL A   1      34.384  23.436  23.901  1.00  0.00    -0.326 N 
ATOM     12  H   UNL A   1      35.197  23.574  23.365  1.00  0.00     0.169 HD
ATOM     13  O   UNL A   1      34.092  25.634  23.729  1.00  0.00    -0.275 OA
BRANCH  11  14
ATOM     14  C   UNL A   1      34.072  22.096  24.165  1.00  0.00     0.041 A 
ATOM     15  C   UNL A   1      33.752  19.294  24.421  1.00  0.00    -0.042 A 
ATOM     16  C   UNL A   1      32.736  20.106  23.892  1.00  0.00     0.006 A 
ATOM     17  C   UNL A   1      34.905  19.940  24.892  1.00  0.00     0.006 A 
ATOM     18  C   UNL A   1      32.890  21.490  23.773  1.00  0.00     0.026 A 
ATOM     19  C   UNL A   1      35.041  21.329  24.810  1.00  0.00     0.026 A 
BRANCH  15  20
ATOM     20  C   UNL A   1      33.631  17.762  24.455  1.00  0.00    -0.013 C 
ATOM     21  C   UNL A   1      32.694  17.263  25.576  1.00  0.00     0.016 C 
ATOM     22  C   UNL A   1      35.008  17.103  24.690  1.00  0.00     0.016 C 
ATOM     23  C   UNL A   1      33.065  17.274  23.105  1.00  0.00     0.016 C 
ENDBRANCH  15  20
ENDBRANCH  11  14
ENDBRANCH   9  10
ENDBRANCH   8   9
ENDBRANCH   5   8
ENDBRANCH   3   4
ENDBRANCH   2   3
ENDBRANCH   1   2
BRANCH   1  24
ATOM     24  C   UNL A   1      32.500  28.772  24.454  1.00  0.00     0.002 C 
BRANCH  24  25
ATOM     25  C   UNL A   1      33.052  28.203  25.761  1.00  0.00     0.021 C 
BRANCH  25  26
ATOM     26  C   UNL A   1      34.202  29.002  26.363  1.00  0.00     0.116 C 
BRANCH  26  27
ATOM     27  N   UNL A   1      33.816  30.369  26.664  1.00  0.00    -0.352 N 
ATOM     28  C   UNL A   1      34.349  31.213  27.607  1.00  0.00     0.251 C 
ATOM     29  H   UNL A   1      33.078  30.736  26.126  1.00  0.00     0.163 HD
ATOM     30  O   UNL A   1      33.789  32.260  27.894  1.00  0.00    -0.269 OA
BRANCH  28  31
ATOM     31  C   UNL A   1      35.607  30.820  28.270  1.00  0.00     0.039 A 
ATOM     32  C   UNL A   1      35.591  29.764  29.180  1.00  0.00     0.014 A 
ATOM     33  C   UNL A   1      36.799  31.487  27.967  1.00  0.00     0.014 A 
ATOM     34  C   UNL A   1      36.785  29.365  29.779  1.00  0.00     0.010 A 
ATOM     35  C   UNL A   1      37.999  31.028  28.498  1.00  0.00     0.010 A 
ATOM     36  C   UNL A   1      37.999  29.987  29.436  1.00  0.00    -0.014 A 
BRANCH  36  37
ATOM     37  C   UNL A   1      39.259  29.597  30.110  1.00  0.00     0.031 A 
ATOM     38  C   UNL A   1      39.668  30.286  31.386  1.00  0.00     0.074 A 
ATOM     39  C   UNL A   1      40.031  28.629  29.577  1.00  0.00     0.049 A 
ATOM     40  N   UNL A   1      40.698  30.048  32.156  1.00  0.00    -0.248 NA
ATOM     41  C   UNL A   1      38.823  31.400  31.846  1.00  0.00     0.031 C 
ATOM     42  C   UNL A   1      39.761  27.927  28.319  1.00  0.00     0.029 A 
ATOM     43  N   UNL A   1      41.190  28.058  30.035  1.00  0.00    -0.354 N 
ATOM     44  C   UNL A   1      40.626  30.985  33.181  1.00  0.00     0.074 A 
ATOM     45  C   UNL A   1      39.497  31.840  32.898  1.00  0.00     0.031 C 
ATOM     46  C   UNL A   1      40.701  26.987  28.133  1.00  0.00     0.029 A 
ATOM     47  C   UNL A   1      41.656  27.040  29.236  1.00  0.00     0.049 A 
ATOM     48  H   UNL A   1      41.647  28.348  30.857  1.00  0.00     0.167 HD
ATOM     49  C   UNL A   1      41.412  31.106  34.278  1.00  0.00     0.031 A 
ATOM     50  C   UNL A   1      42.724  26.234  29.384  1.00  0.00     0.031 A 
ATOM     51  C   UNL A   1      42.531  30.247  34.556  1.00  0.00     0.049 A 
ATOM     52  C   UNL A   1      43.580  26.384  30.613  1.00  0.00     0.074 A 
ATOM     53  C   UNL A   1      43.367  30.251  35.657  1.00  0.00     0.029 A 
ATOM     54  N   UNL A   1      42.970  29.230  33.721  1.00  0.00    -0.354 N 
ATOM     55  N   UNL A   1      43.456  27.231  31.607  1.00  0.00    -0.248 NA
ATOM     56  C   UNL A   1      44.704  25.450  30.750  1.00  0.00     0.031 C 
ATOM     57  C   UNL A   1      44.349  29.273  35.462  1.00  0.00     0.029 A 
ATOM     58  C   UNL A   1      44.079  28.611  34.274  1.00  0.00     0.049 A 
ATOM     59  H   UNL A   1      42.556  28.984  32.862  1.00  0.00     0.167 HD
ATOM     60  C   UNL A   1      44.466  26.909  32.507  1.00  0.00     0.074 A 
ATOM     61  C   UNL A   1      45.176  25.777  31.945  1.00  0.00     0.031 C 
ATOM     62  C   UNL A   1      44.776  27.490  33.694  1.00  0.00     0.031 A 
BRANCH  49  63
ATOM     63  C   UNL A   1      41.084  32.211  35.251  1.00  0.00    -0.014 A 
ATOM     64  C   UNL A   1      40.251  31.982  36.362  1.00  0.00     0.010 A 
ATOM     65  C   UNL A   1      41.637  33.491  35.066  1.00  0.00     0.010 A 
ATOM     66  C   UNL A   1      39.942  33.020  37.245  1.00  0.00     0.020 A 
ATOM     67  C   UNL A   1      41.358  34.525  35.965  1.00  0.00     0.020 A 
ATOM     68  C   UNL A   1      40.497  34.286  37.040  1.00  0.00     0.054 A 
BRANCH  68  69
ATOM     69  S   UNL A   1      40.100  35.609  38.215  1.00  0.00     0.124 S 
ATOM     70  O   UNL A   1      39.928  36.758  37.329  1.00  0.00    -0.237 OA
ATOM     71  O   UNL A   1      38.879  35.116  38.848  1.00  0.00    -0.237 OA
ATOM     72  O   UNL A   1      41.272  35.664  39.086  1.00  0.00    -0.744 OA
ENDBRANCH  68  69
ENDBRANCH  49  63
BRANCH  50  73
ATOM     73  C   UNL A   1      43.020  25.191  28.362  1.00  0.00    -0.014 A 
ATOM     74  C   UNL A   1      43.838  25.478  27.255  1.00  0.00     0.010 A 
ATOM     75  C   UNL A   1      42.483  23.897  28.494  1.00  0.00     0.010 A 
ATOM     76  C   UNL A   1      44.093  24.500  26.287  1.00  0.00     0.020 A 
ATOM     77  C   UNL A   1      42.762  22.908  27.548  1.00  0.00     0.020 A 
ATOM     78  C   UNL A   1      43.555  23.220  26.442  1.00  0.00     0.054 A 
BRANCH  78  79
ATOM     79  S   UNL A   1      43.932  21.955  25.197  1.00  0.00     0.124 S 
ATOM     80  O   UNL A   1      45.281  21.548  25.578  1.00  0.00    -0.237 OA
ATOM     81  O   UNL A   1      42.882  20.966  25.427  1.00  0.00    -0.237 OA
ATOM     82  O   UNL A   1      43.832  22.679  23.932  1.00  0.00    -0.744 OA
ENDBRANCH  78  79
ENDBRANCH  50  73
BRANCH  62  83
ATOM     83  C   UNL A   1      45.903  26.878  34.486  1.00  0.00    -0.014 A 
ATOM     84  C   UNL A   1      47.236  27.292  34.314  1.00  0.00     0.010 A 
ATOM     85  C   UNL A   1      45.613  25.879  35.433  1.00  0.00     0.010 A 
ATOM     86  C   UNL A   1      48.264  26.672  35.029  1.00  0.00     0.020 A 
ATOM     87  C   UNL A   1      46.633  25.283  36.177  1.00  0.00     0.020 A 
ATOM     88  C   UNL A   1      47.956  25.666  35.951  1.00  0.00     0.054 A 
BRANCH  88  89
ATOM     89  S   UNL A   1      49.307  24.876  36.865  1.00  0.00     0.124 S 
ATOM     90  O   UNL A   1      50.316  24.704  35.824  1.00  0.00    -0.237 OA
ATOM     91  O   UNL A   1      49.624  25.867  37.890  1.00  0.00    -0.237 OA
ATOM     92  O   UNL A   1      48.711  23.639  37.365  1.00  0.00    -0.744 OA
ENDBRANCH  88  89
ENDBRANCH  62  83
ENDBRANCH  36  37
ENDBRANCH  28  31
ENDBRANCH  26  27
ENDBRANCH  25  26
ENDBRANCH  24  25
ENDBRANCH   1  24
TORSDOF 20
ENDMDL
