MODEL 1
REMARK VINA RESULT:     -10.6      0.000      0.000
REMARK SMILES CC(C)(C)c1n[nH]c2c1CC[C@@H](C(=O)NCCCCCCNC(=O)c1ccc(-c3c4nc(c(-c5ccc(S(=O)(=O)[O-])cc5)c5ccc([nH]5)c(-c5ccc(S(=O)(=O)[O-])cc5)c5nc(c(-c6ccc(S(=O)(=O)[O-])cc6)c6ccc3[nH]6)C=C5)C=C4)cc1)C2
REMARK SMILES IDX 19 1 18 2 17 3 16 4 15 5 13 6 14 7 12 9 5 10 6 11 9 12 7 13
REMARK SMILES IDX 8 14 10 15 85 17 11 18 2 19 1 20 3 21 4 22 20 23 21 24 22 25
REMARK SMILES IDX 23 26 24 28 25 29 26 30 84 31 27 32 83 33 28 34 29 35 30 36
REMARK SMILES IDX 77 37 31 38 82 39 76 40 78 41 32 42 81 43 75 44 74 45 33 47
REMARK SMILES IDX 63 48 44 49 62 50 45 51 48 52 61 53 79 54 46 55 47 56 60 58
REMARK SMILES IDX 80 59 49 60 34 61 35 62 43 63 36 64 42 65 37 66 38 67 39 68
REMARK SMILES IDX 40 69 41 70 64 71 65 72 73 73 66 74 72 75 67 76 68 77 69 78
REMARK SMILES IDX 70 79 71 80 50 81 51 82 59 83 52 84 58 85 53 86 54 87 55 88
REMARK SMILES IDX 56 89 57 90
REMARK H PARENT 15 8 7 16 22 27 78 46 48 57
REMARK Flexibility Score: inf
ROOT
ATOM      1  C   UNL A   1      34.007  26.894  24.799  1.00  0.00     0.002 C 
ENDROOT
BRANCH   1   2
ATOM      2  C   UNL A   1      33.289  26.721  23.458  1.00  0.00     0.002 C 
BRANCH   2   3
ATOM      3  C   UNL A   1      32.018  27.553  23.268  1.00  0.00     0.021 C 
BRANCH   3   4
ATOM      4  C   UNL A   1      30.716  26.757  23.244  1.00  0.00     0.116 C 
BRANCH   4   5
ATOM      5  N   UNL A   1      30.127  26.611  24.561  1.00  0.00    -0.356 N 
ATOM      6  C   UNL A   1      30.368  25.697  25.537  1.00  0.00     0.223 C 
ATOM      7  O   UNL A   1      29.737  25.813  26.591  1.00  0.00    -0.275 OA
ATOM      8  H   UNL A   1      29.440  27.282  24.783  1.00  0.00     0.163 HD
BRANCH   6   9
ATOM      9  C   UNL A   1      31.329  24.535  25.347  1.00  0.00     0.084 C 
ATOM     10  C   UNL A   1      33.074  20.670  25.772  1.00  0.00     0.071 A 
ATOM     11  N   UNL A   1      33.474  20.729  27.055  1.00  0.00    -0.180 NA
ATOM     12  C   UNL A   1      32.477  21.900  25.382  1.00  0.00    -0.003 A 
ATOM     13  N   UNL A   1      33.096  21.942  27.483  1.00  0.00    -0.282 N 
ATOM     14  C   UNL A   1      32.465  22.668  26.525  1.00  0.00     0.039 A 
ATOM     15  C   UNL A   1      31.898  22.385  24.100  1.00  0.00     0.040 C 
ATOM     16  H   UNL A   1      33.260  22.273  28.396  1.00  0.00     0.190 HD
ATOM     17  C   UNL A   1      31.832  24.001  26.708  1.00  0.00     0.069 C 
ATOM     18  C   UNL A   1      30.814  23.439  24.384  1.00  0.00     0.019 C 
BRANCH  10  19
ATOM     19  C   UNL A   1      33.249  19.393  24.958  1.00  0.00     0.006 C 
ATOM     20  C   UNL A   1      32.684  18.181  25.725  1.00  0.00     0.017 C 
ATOM     21  C   UNL A   1      34.745  19.163  24.656  1.00  0.00     0.017 C 
ATOM     22  C   UNL A   1      32.515  19.464  23.599  1.00  0.00     0.017 C 
ENDBRANCH  10  19
ENDBRANCH   6   9
ENDBRANCH   4   5
ENDBRANCH   3   4
ENDBRANCH   2   3
ENDBRANCH   1   2
BRANCH   1  23
ATOM     23  C   UNL A   1      34.005  28.313  25.373  1.00  0.00     0.021 C 
BRANCH  23  24
ATOM     24  C   UNL A   1      33.830  28.405  26.885  1.00  0.00     0.116 C 
BRANCH  24  25
ATOM     25  N   UNL A   1      33.694  29.775  27.351  1.00  0.00    -0.352 N 
ATOM     26  C   UNL A   1      34.573  30.534  28.084  1.00  0.00     0.251 C 
ATOM     27  H   UNL A   1      32.853  30.222  27.107  1.00  0.00     0.163 HD
ATOM     28  O   UNL A   1      34.218  31.627  28.521  1.00  0.00    -0.269 OA
BRANCH  26  29
ATOM     29  C   UNL A   1      35.933  30.027  28.368  1.00  0.00     0.039 A 
ATOM     30  C   UNL A   1      36.909  30.125  27.374  1.00  0.00     0.014 A 
ATOM     31  C   UNL A   1      36.247  29.458  29.605  1.00  0.00     0.014 A 
ATOM     32  C   UNL A   1      38.214  29.707  27.643  1.00  0.00     0.010 A 
ATOM     33  C   UNL A   1      37.565  29.113  29.897  1.00  0.00     0.010 A 
ATOM     34  C   UNL A   1      38.562  29.229  28.918  1.00  0.00    -0.014 A 
BRANCH  34  35
ATOM     35  C   UNL A   1      39.964  28.855  29.241  1.00  0.00     0.031 A 
ATOM     36  C   UNL A   1      40.879  29.841  29.917  1.00  0.00     0.074 A 
ATOM     37  C   UNL A   1      40.428  27.641  28.880  1.00  0.00     0.049 A 
ATOM     38  N   UNL A   1      42.138  29.705  30.246  1.00  0.00    -0.248 NA
ATOM     39  C   UNL A   1      40.312  31.160  30.247  1.00  0.00     0.031 C 
ATOM     40  C   UNL A   1      39.653  26.610  28.186  1.00  0.00     0.029 A 
ATOM     41  N   UNL A   1      41.665  27.069  29.046  1.00  0.00    -0.354 N 
ATOM     42  C   UNL A   1      42.517  30.919  30.808  1.00  0.00     0.074 A 
ATOM     43  C   UNL A   1      41.371  31.797  30.726  1.00  0.00     0.031 C 
ATOM     44  C   UNL A   1      40.420  25.522  28.016  1.00  0.00     0.029 A 
ATOM     45  C   UNL A   1      41.753  25.791  28.545  1.00  0.00     0.049 A 
ATOM     46  H   UNL A   1      42.417  27.530  29.483  1.00  0.00     0.167 HD
ATOM     47  C   UNL A   1      43.704  31.265  31.363  1.00  0.00     0.031 A 
ATOM     48  C   UNL A   1      42.792  24.933  28.508  1.00  0.00     0.031 A 
ATOM     49  C   UNL A   1      44.841  30.386  31.444  1.00  0.00     0.049 A 
ATOM     50  C   UNL A   1      44.108  25.349  29.109  1.00  0.00     0.074 A 
ATOM     51  C   UNL A   1      46.072  30.626  32.031  1.00  0.00     0.029 A 
ATOM     52  N   UNL A   1      44.891  29.102  30.922  1.00  0.00    -0.354 N 
ATOM     53  N   UNL A   1      44.426  26.479  29.695  1.00  0.00    -0.248 NA
ATOM     54  C   UNL A   1      45.201  24.369  29.053  1.00  0.00     0.031 C 
ATOM     55  C   UNL A   1      46.886  29.511  31.809  1.00  0.00     0.029 A 
ATOM     56  C   UNL A   1      46.141  28.548  31.147  1.00  0.00     0.049 A 
ATOM     57  H   UNL A   1      44.149  28.651  30.460  1.00  0.00     0.167 HD
ATOM     58  C   UNL A   1      45.746  26.333  30.105  1.00  0.00     0.074 A 
ATOM     59  C   UNL A   1      46.161  25.001  29.714  1.00  0.00     0.031 C 
ATOM     60  C   UNL A   1      46.543  27.222  30.749  1.00  0.00     0.031 A 
BRANCH  47  61
ATOM     61  C   UNL A   1      43.835  32.661  31.917  1.00  0.00    -0.014 A 
ATOM     62  C   UNL A   1      43.550  32.939  33.267  1.00  0.00     0.010 A 
ATOM     63  C   UNL A   1      44.295  33.701  31.089  1.00  0.00     0.010 A 
ATOM     64  C   UNL A   1      43.680  34.237  33.766  1.00  0.00     0.020 A 
ATOM     65  C   UNL A   1      44.457  34.995  31.593  1.00  0.00     0.020 A 
ATOM     66  C   UNL A   1      44.132  35.258  32.926  1.00  0.00     0.054 A 
BRANCH  66  67
ATOM     67  S   UNL A   1      44.315  36.928  33.609  1.00  0.00     0.124 S 
ATOM     68  O   UNL A   1      45.498  37.414  32.904  1.00  0.00    -0.237 OA
ATOM     69  O   UNL A   1      43.055  37.565  33.233  1.00  0.00    -0.237 OA
ATOM     70  O   UNL A   1      44.493  36.701  35.040  1.00  0.00    -0.744 OA
ENDBRANCH  66  67
ENDBRANCH  47  61
BRANCH  48  71
ATOM     71  C   UNL A   1      42.625  23.588  27.889  1.00  0.00    -0.014 A 
ATOM     72  C   UNL A   1      43.070  23.342  26.579  1.00  0.00     0.010 A 
ATOM     73  C   UNL A   1      42.027  22.541  28.614  1.00  0.00     0.010 A 
ATOM     74  C   UNL A   1      42.902  22.081  25.997  1.00  0.00     0.020 A 
ATOM     75  C   UNL A   1      41.885  21.271  28.049  1.00  0.00     0.020 A 
ATOM     76  C   UNL A   1      42.313  21.052  26.738  1.00  0.00     0.054 A 
BRANCH  76  77
ATOM     77  S   UNL A   1      42.150  19.412  25.981  1.00  0.00     0.124 S 
ATOM     78  O   UNL A   1      40.708  19.314  25.774  1.00  0.00    -0.237 OA
ATOM     79  O   UNL A   1      42.957  19.544  24.769  1.00  0.00    -0.237 OA
ATOM     80  O   UNL A   1      42.701  18.512  26.992  1.00  0.00    -0.744 OA
ENDBRANCH  76  77
ENDBRANCH  48  71
BRANCH  60  81
ATOM     81  C   UNL A   1      47.936  26.773  31.108  1.00  0.00    -0.014 A 
ATOM     82  C   UNL A   1      48.189  26.030  32.275  1.00  0.00     0.010 A 
ATOM     83  C   UNL A   1      49.002  27.058  30.234  1.00  0.00     0.010 A 
ATOM     84  C   UNL A   1      49.487  25.613  32.579  1.00  0.00     0.020 A 
ATOM     85  C   UNL A   1      50.296  26.616  30.519  1.00  0.00     0.020 A 
ATOM     86  C   UNL A   1      50.533  25.909  31.698  1.00  0.00     0.054 A 
BRANCH  86  87
ATOM     87  S   UNL A   1      52.202  25.323  32.098  1.00  0.00     0.124 S 
ATOM     88  O   UNL A   1      52.955  25.715  30.911  1.00  0.00    -0.237 OA
ATOM     89  O   UNL A   1      52.518  26.066  33.316  1.00  0.00    -0.237 OA
ATOM     90  O   UNL A   1      52.031  23.884  32.281  1.00  0.00    -0.744 OA
ENDBRANCH  86  87
ENDBRANCH  60  81
ENDBRANCH  34  35
ENDBRANCH  26  29
ENDBRANCH  24  25
ENDBRANCH  23  24
ENDBRANCH   1  23
TORSDOF 17
ENDMDL
MODEL 2
REMARK VINA RESULT:     -10.5      4.796      6.546
REMARK SMILES CC(C)(C)c1n[nH]c2c1CC[C@@H](C(=O)NCCCCCCNC(=O)c1ccc(-c3c4nc(c(-c5ccc(S(=O)(=O)[O-])cc5)c5ccc([nH]5)c(-c5ccc(S(=O)(=O)[O-])cc5)c5nc(c(-c6ccc(S(=O)(=O)[O-])cc6)c6ccc3[nH]6)C=C5)C=C4)cc1)C2
REMARK SMILES IDX 19 1 18 2 17 3 16 4 15 5 13 6 14 7 12 9 5 10 6 11 9 12 7 13
REMARK SMILES IDX 8 14 10 15 85 17 11 18 2 19 1 20 3 21 4 22 20 23 21 24 22 25
REMARK SMILES IDX 23 26 24 28 25 29 26 30 84 31 27 32 83 33 28 34 29 35 30 36
REMARK SMILES IDX 77 37 31 38 82 39 76 40 78 41 32 42 81 43 75 44 74 45 33 47
REMARK SMILES IDX 63 48 44 49 62 50 45 51 48 52 61 53 79 54 46 55 47 56 60 58
REMARK SMILES IDX 80 59 49 60 34 61 35 62 43 63 36 64 42 65 37 66 38 67 39 68
REMARK SMILES IDX 40 69 41 70 64 71 65 72 73 73 66 74 72 75 67 76 68 77 69 78
REMARK SMILES IDX 70 79 71 80 50 81 51 82 59 83 52 84 58 85 53 86 54 87 55 88
REMARK SMILES IDX 56 89 57 90
REMARK H PARENT 15 8 7 16 22 27 78 46 48 57
REMARK Flexibility Score: inf
ROOT
ATOM      1  C   UNL A   1      36.033  33.617  28.651  1.00  0.00     0.002 C 
ENDROOT
BRANCH   1   2
ATOM      2  C   UNL A   1      36.049  32.280  27.905  1.00  0.00     0.002 C 
BRANCH   2   3
ATOM      3  C   UNL A   1      35.540  31.069  28.694  1.00  0.00     0.021 C 
BRANCH   3   4
ATOM      4  C   UNL A   1      35.075  29.889  27.847  1.00  0.00     0.116 C 
BRANCH   4   5
ATOM      5  N   UNL A   1      34.099  30.271  26.845  1.00  0.00    -0.356 N 
ATOM      6  C   UNL A   1      33.286  29.504  26.071  1.00  0.00     0.223 C 
ATOM      7  O   UNL A   1      32.516  30.089  25.303  1.00  0.00    -0.275 OA
ATOM      8  H   UNL A   1      34.011  31.241  26.702  1.00  0.00     0.163 HD
BRANCH   6   9
ATOM      9  C   UNL A   1      33.339  27.985  26.086  1.00  0.00     0.084 C 
ATOM     10  C   UNL A   1      32.178  23.930  25.477  1.00  0.00     0.071 A 
ATOM     11  N   UNL A   1      31.128  23.855  26.315  1.00  0.00    -0.180 NA
ATOM     12  C   UNL A   1      32.769  25.222  25.538  1.00  0.00    -0.003 A 
ATOM     13  N   UNL A   1      31.024  25.077  26.856  1.00  0.00    -0.282 N 
ATOM     14  C   UNL A   1      31.966  25.941  26.396  1.00  0.00     0.039 A 
ATOM     15  C   UNL A   1      33.943  25.834  24.860  1.00  0.00     0.040 C 
ATOM     16  H   UNL A   1      30.337  25.324  27.517  1.00  0.00     0.190 HD
ATOM     17  C   UNL A   1      32.057  27.390  26.713  1.00  0.00     0.069 C 
ATOM     18  C   UNL A   1      33.738  27.352  24.732  1.00  0.00     0.019 C 
BRANCH  10  19
ATOM     19  C   UNL A   1      32.561  22.745  24.598  1.00  0.00     0.006 C 
ATOM     20  C   UNL A   1      31.996  22.921  23.175  1.00  0.00     0.017 C 
ATOM     21  C   UNL A   1      32.017  21.438  25.213  1.00  0.00     0.017 C 
ATOM     22  C   UNL A   1      34.093  22.586  24.472  1.00  0.00     0.017 C 
ENDBRANCH  10  19
ENDBRANCH   6   9
ENDBRANCH   4   5
ENDBRANCH   3   4
ENDBRANCH   2   3
ENDBRANCH   1   2
BRANCH   1  23
ATOM     23  C   UNL A   1      34.841  34.529  28.351  1.00  0.00     0.021 C 
BRANCH  23  24
ATOM     24  C   UNL A   1      33.478  33.973  28.747  1.00  0.00     0.116 C 
BRANCH  24  25
ATOM     25  N   UNL A   1      32.791  34.808  29.718  1.00  0.00    -0.352 N 
ATOM     26  C   UNL A   1      33.067  34.999  31.049  1.00  0.00     0.251 C 
ATOM     27  H   UNL A   1      32.017  35.308  29.372  1.00  0.00     0.163 HD
ATOM     28  O   UNL A   1      32.277  35.626  31.753  1.00  0.00    -0.269 OA
BRANCH  26  29
ATOM     29  C   UNL A   1      34.298  34.430  31.640  1.00  0.00     0.039 A 
ATOM     30  C   UNL A   1      34.344  33.060  31.907  1.00  0.00     0.014 A 
ATOM     31  C   UNL A   1      35.400  35.238  31.930  1.00  0.00     0.014 A 
ATOM     32  C   UNL A   1      35.517  32.492  32.409  1.00  0.00     0.010 A 
ATOM     33  C   UNL A   1      36.593  34.659  32.357  1.00  0.00     0.010 A 
ATOM     34  C   UNL A   1      36.664  33.281  32.606  1.00  0.00    -0.014 A 
BRANCH  34  35
ATOM     35  C   UNL A   1      37.942  32.676  33.064  1.00  0.00     0.031 A 
ATOM     36  C   UNL A   1      38.450  32.936  34.457  1.00  0.00     0.074 A 
ATOM     37  C   UNL A   1      38.670  31.931  32.208  1.00  0.00     0.049 A 
ATOM     38  N   UNL A   1      39.556  32.522  35.021  1.00  0.00    -0.248 NA
ATOM     39  C   UNL A   1      37.619  33.790  35.323  1.00  0.00     0.031 C 
ATOM     40  C   UNL A   1      38.306  31.636  30.820  1.00  0.00     0.029 A 
ATOM     41  N   UNL A   1      39.870  31.286  32.379  1.00  0.00    -0.354 N 
ATOM     42  C   UNL A   1      39.560  33.073  36.298  1.00  0.00     0.074 A 
ATOM     43  C   UNL A   1      38.375  33.894  36.407  1.00  0.00     0.031 C 
ATOM     44  C   UNL A   1      39.244  30.844  30.277  1.00  0.00     0.029 A 
ATOM     45  C   UNL A   1      40.298  30.611  31.259  1.00  0.00     0.049 A 
ATOM     46  H   UNL A   1      40.377  31.305  33.223  1.00  0.00     0.167 HD
ATOM     47  C   UNL A   1      40.457  32.894  37.298  1.00  0.00     0.031 A 
ATOM     48  C   UNL A   1      41.415  29.889  31.044  1.00  0.00     0.031 A 
ATOM     49  C   UNL A   1      41.635  32.074  37.186  1.00  0.00     0.049 A 
ATOM     50  C   UNL A   1      42.409  29.725  32.161  1.00  0.00     0.074 A 
ATOM     51  C   UNL A   1      42.579  31.790  38.157  1.00  0.00     0.029 A 
ATOM     52  N   UNL A   1      42.033  31.410  36.035  1.00  0.00    -0.354 N 
ATOM     53  N   UNL A   1      42.361  30.200  33.383  1.00  0.00    -0.248 NA
ATOM     54  C   UNL A   1      43.602  28.917  31.874  1.00  0.00     0.031 C 
ATOM     55  C   UNL A   1      43.581  31.006  37.576  1.00  0.00     0.029 A 
ATOM     56  C   UNL A   1      43.224  30.740  36.263  1.00  0.00     0.049 A 
ATOM     57  H   UNL A   1      41.542  31.413  35.183  1.00  0.00     0.167 HD
ATOM     58  C   UNL A   1      43.501  29.723  34.020  1.00  0.00     0.074 A 
ATOM     59  C   UNL A   1      44.211  28.909  33.053  1.00  0.00     0.031 C 
ATOM     60  C   UNL A   1      43.922  29.938  35.291  1.00  0.00     0.031 A 
BRANCH  47  61
ATOM     61  C   UNL A   1      40.203  33.610  38.601  1.00  0.00    -0.014 A 
ATOM     62  C   UNL A   1      40.756  34.878  38.856  1.00  0.00     0.010 A 
ATOM     63  C   UNL A   1      39.360  33.026  39.565  1.00  0.00     0.010 A 
ATOM     64  C   UNL A   1      40.507  35.529  40.068  1.00  0.00     0.020 A 
ATOM     65  C   UNL A   1      39.082  33.689  40.764  1.00  0.00     0.020 A 
ATOM     66  C   UNL A   1      39.672  34.930  41.014  1.00  0.00     0.054 A 
BRANCH  66  67
ATOM     67  S   UNL A   1      39.347  35.810  42.566  1.00  0.00     0.124 S 
ATOM     68  O   UNL A   1      40.308  35.186  43.473  1.00  0.00    -0.237 OA
ATOM     69  O   UNL A   1      39.630  37.198  42.211  1.00  0.00    -0.237 OA
ATOM     70  O   UNL A   1      37.945  35.515  42.848  1.00  0.00    -0.744 OA
ENDBRANCH  66  67
ENDBRANCH  47  61
BRANCH  48  71
ATOM     71  C   UNL A   1      41.648  29.256  29.714  1.00  0.00    -0.014 A 
ATOM     72  C   UNL A   1      42.362  29.935  28.712  1.00  0.00     0.010 A 
ATOM     73  C   UNL A   1      41.162  27.963  29.448  1.00  0.00     0.010 A 
ATOM     74  C   UNL A   1      42.569  29.343  27.463  1.00  0.00     0.020 A 
ATOM     75  C   UNL A   1      41.394  27.354  28.212  1.00  0.00     0.020 A 
ATOM     76  C   UNL A   1      42.085  28.053  27.222  1.00  0.00     0.054 A 
BRANCH  76  77
ATOM     77  S   UNL A   1      42.409  27.286  25.610  1.00  0.00     0.124 S 
ATOM     78  O   UNL A   1      43.722  26.683  25.819  1.00  0.00    -0.237 OA
ATOM     79  O   UNL A   1      41.295  26.350  25.478  1.00  0.00    -0.237 OA
ATOM     80  O   UNL A   1      42.378  28.414  24.682  1.00  0.00    -0.744 OA
ENDBRANCH  76  77
ENDBRANCH  48  71
BRANCH  60  81
ATOM     81  C   UNL A   1      45.193  29.253  35.726  1.00  0.00    -0.014 A 
ATOM     82  C   UNL A   1      46.444  29.885  35.609  1.00  0.00     0.010 A 
ATOM     83  C   UNL A   1      45.124  27.974  36.310  1.00  0.00     0.010 A 
ATOM     84  C   UNL A   1      47.606  29.235  36.033  1.00  0.00     0.020 A 
ATOM     85  C   UNL A   1      46.280  27.335  36.764  1.00  0.00     0.020 A 
ATOM     86  C   UNL A   1      47.516  27.963  36.608  1.00  0.00     0.054 A 
BRANCH  86  87
ATOM     87  S   UNL A   1      49.035  27.158  37.185  1.00  0.00     0.124 S 
ATOM     88  O   UNL A   1      48.995  25.885  36.471  1.00  0.00    -0.237 OA
ATOM     89  O   UNL A   1      50.074  28.090  36.752  1.00  0.00    -0.237 OA
ATOM     90  O   UNL A   1      48.853  27.067  38.632  1.00  0.00    -0.744 OA
ENDBRANCH  86  87
ENDBRANCH  60  81
ENDBRANCH  34  35
ENDBRANCH  26  29
ENDBRANCH  24  25
ENDBRANCH  23  24
ENDBRANCH   1  23
TORSDOF 17
ENDMDL
MODEL 3
REMARK VINA RESULT:     -10.4      3.316      9.459
REMARK SMILES CC(C)(C)c1n[nH]c2c1CC[C@@H](C(=O)NCCCCCCNC(=O)c1ccc(-c3c4nc(c(-c5ccc(S(=O)(=O)[O-])cc5)c5ccc([nH]5)c(-c5ccc(S(=O)(=O)[O-])cc5)c5nc(c(-c6ccc(S(=O)(=O)[O-])cc6)c6ccc3[nH]6)C=C5)C=C4)cc1)C2
REMARK SMILES IDX 19 1 18 2 17 3 16 4 15 5 13 6 14 7 12 9 5 10 6 11 9 12 7 13
REMARK SMILES IDX 8 14 10 15 85 17 11 18 2 19 1 20 3 21 4 22 20 23 21 24 22 25
REMARK SMILES IDX 23 26 24 28 25 29 26 30 84 31 27 32 83 33 28 34 29 35 30 36
REMARK SMILES IDX 77 37 31 38 82 39 76 40 78 41 32 42 81 43 75 44 74 45 33 47
REMARK SMILES IDX 63 48 44 49 62 50 45 51 48 52 61 53 79 54 46 55 47 56 60 58
REMARK SMILES IDX 80 59 49 60 34 61 35 62 43 63 36 64 42 65 37 66 38 67 39 68
REMARK SMILES IDX 40 69 41 70 64 71 65 72 73 73 66 74 72 75 67 76 68 77 69 78
REMARK SMILES IDX 70 79 71 80 50 81 51 82 59 83 52 84 58 85 53 86 54 87 55 88
REMARK SMILES IDX 56 89 57 90
REMARK H PARENT 15 8 7 16 22 27 78 46 48 57
REMARK Flexibility Score: inf
ROOT
ATOM      1  C   UNL A   1      36.923  21.088  24.696  1.00  0.00     0.002 C 
ENDROOT
BRANCH   1   2
ATOM      2  C   UNL A   1      35.627  20.993  25.506  1.00  0.00     0.002 C 
BRANCH   2   3
ATOM      3  C   UNL A   1      34.509  20.153  24.880  1.00  0.00     0.021 C 
BRANCH   3   4
ATOM      4  C   UNL A   1      33.091  20.632  25.176  1.00  0.00     0.116 C 
BRANCH   4   5
ATOM      5  N   UNL A   1      32.954  21.178  26.512  1.00  0.00    -0.356 N 
ATOM      6  C   UNL A   1      32.613  22.429  26.921  1.00  0.00     0.223 C 
ATOM      7  O   UNL A   1      32.543  22.629  28.137  1.00  0.00    -0.275 OA
ATOM      8  H   UNL A   1      33.138  20.542  27.240  1.00  0.00     0.163 HD
BRANCH   6   9
ATOM      9  C   UNL A   1      32.377  23.570  25.946  1.00  0.00     0.084 C 
ATOM     10  C   UNL A   1      30.807  27.176  24.304  1.00  0.00     0.071 A 
ATOM     11  N   UNL A   1      29.525  26.815  24.118  1.00  0.00    -0.180 NA
ATOM     12  C   UNL A   1      31.558  26.088  24.827  1.00  0.00    -0.003 A 
ATOM     13  N   UNL A   1      29.451  25.549  24.556  1.00  0.00    -0.282 N 
ATOM     14  C   UNL A   1      30.638  25.082  25.022  1.00  0.00     0.039 A 
ATOM     15  C   UNL A   1      32.992  25.926  25.189  1.00  0.00     0.040 C 
ATOM     16  H   UNL A   1      28.624  25.015  24.542  1.00  0.00     0.190 HD
ATOM     17  C   UNL A   1      30.868  23.765  25.672  1.00  0.00     0.069 C 
ATOM     18  C   UNL A   1      33.132  24.873  26.301  1.00  0.00     0.019 C 
BRANCH  10  19
ATOM     19  C   UNL A   1      31.267  28.598  24.004  1.00  0.00     0.006 C 
ATOM     20  C   UNL A   1      31.752  29.293  25.290  1.00  0.00     0.017 C 
ATOM     21  C   UNL A   1      30.107  29.406  23.385  1.00  0.00     0.017 C 
ATOM     22  C   UNL A   1      32.435  28.629  22.991  1.00  0.00     0.017 C 
ENDBRANCH  10  19
ENDBRANCH   6   9
ENDBRANCH   4   5
ENDBRANCH   3   4
ENDBRANCH   2   3
ENDBRANCH   1   2
BRANCH   1  23
ATOM     23  C   UNL A   1      38.019  20.092  25.081  1.00  0.00     0.021 C 
BRANCH  23  24
ATOM     24  C   UNL A   1      39.093  20.633  26.019  1.00  0.00     0.116 C 
BRANCH  24  25
ATOM     25  N   UNL A   1      40.215  19.721  26.174  1.00  0.00    -0.352 N 
ATOM     26  C   UNL A   1      41.540  20.004  26.397  1.00  0.00     0.251 C 
ATOM     27  H   UNL A   1      39.993  18.765  26.108  1.00  0.00     0.163 HD
ATOM     28  O   UNL A   1      42.374  19.101  26.345  1.00  0.00    -0.269 OA
BRANCH  26  29
ATOM     29  C   UNL A   1      41.965  21.393  26.675  1.00  0.00     0.039 A 
ATOM     30  C   UNL A   1      42.342  21.733  27.976  1.00  0.00     0.014 A 
ATOM     31  C   UNL A   1      41.993  22.355  25.663  1.00  0.00     0.014 A 
ATOM     32  C   UNL A   1      42.804  23.023  28.247  1.00  0.00     0.010 A 
ATOM     33  C   UNL A   1      42.526  23.616  25.918  1.00  0.00     0.010 A 
ATOM     34  C   UNL A   1      42.933  23.967  27.213  1.00  0.00    -0.014 A 
BRANCH  34  35
ATOM     35  C   UNL A   1      43.497  25.317  27.473  1.00  0.00     0.031 A 
ATOM     36  C   UNL A   1      44.953  25.597  27.213  1.00  0.00     0.074 A 
ATOM     37  C   UNL A   1      42.707  26.279  27.991  1.00  0.00     0.049 A 
ATOM     38  N   UNL A   1      45.627  26.701  27.410  1.00  0.00    -0.248 NA
ATOM     39  C   UNL A   1      45.762  24.487  26.683  1.00  0.00     0.031 C 
ATOM     40  C   UNL A   1      41.288  26.123  28.324  1.00  0.00     0.029 A 
ATOM     41  N   UNL A   1      42.984  27.580  28.330  1.00  0.00    -0.354 N 
ATOM     42  C   UNL A   1      46.938  26.416  27.041  1.00  0.00     0.074 A 
ATOM     43  C   UNL A   1      46.975  25.022  26.661  1.00  0.00     0.031 C 
ATOM     44  C   UNL A   1      40.813  27.290  28.787  1.00  0.00     0.029 A 
ATOM     45  C   UNL A   1      41.899  28.264  28.829  1.00  0.00     0.049 A 
ATOM     46  H   UNL A   1      43.874  27.986  28.226  1.00  0.00     0.167 HD
ATOM     47  C   UNL A   1      48.009  27.246  27.002  1.00  0.00     0.031 A 
ATOM     48  C   UNL A   1      41.790  29.530  29.276  1.00  0.00     0.031 A 
ATOM     49  C   UNL A   1      47.966  28.634  27.379  1.00  0.00     0.049 A 
ATOM     50  C   UNL A   1      42.999  30.425  29.245  1.00  0.00     0.074 A 
ATOM     51  C   UNL A   1      48.985  29.570  27.327  1.00  0.00     0.029 A 
ATOM     52  N   UNL A   1      46.850  29.286  27.881  1.00  0.00    -0.354 N 
ATOM     53  N   UNL A   1      44.214  30.155  28.829  1.00  0.00    -0.248 NA
ATOM     54  C   UNL A   1      42.819  31.800  29.732  1.00  0.00     0.031 C 
ATOM     55  C   UNL A   1      48.502  30.771  27.857  1.00  0.00     0.029 A 
ATOM     56  C   UNL A   1      47.163  30.605  28.171  1.00  0.00     0.049 A 
ATOM     57  H   UNL A   1      45.966  28.874  28.012  1.00  0.00     0.167 HD
ATOM     58  C   UNL A   1      44.934  31.335  28.976  1.00  0.00     0.074 A 
ATOM     59  C   UNL A   1      44.016  32.324  29.503  1.00  0.00     0.031 C 
ATOM     60  C   UNL A   1      46.239  31.578  28.699  1.00  0.00     0.031 A 
BRANCH  47  61
ATOM     61  C   UNL A   1      49.323  26.667  26.541  1.00  0.00    -0.014 A 
ATOM     62  C   UNL A   1      49.764  26.827  25.214  1.00  0.00     0.010 A 
ATOM     63  C   UNL A   1      50.150  25.995  27.459  1.00  0.00     0.010 A 
ATOM     64  C   UNL A   1      50.987  26.288  24.805  1.00  0.00     0.020 A 
ATOM     65  C   UNL A   1      51.389  25.482  27.061  1.00  0.00     0.020 A 
ATOM     66  C   UNL A   1      51.791  25.618  25.730  1.00  0.00     0.054 A 
BRANCH  66  67
ATOM     67  S   UNL A   1      53.383  24.951  25.175  1.00  0.00     0.124 S 
ATOM     68  O   UNL A   1      53.497  25.520  23.834  1.00  0.00    -0.237 OA
ATOM     69  O   UNL A   1      54.315  25.485  26.164  1.00  0.00    -0.237 OA
ATOM     70  O   UNL A   1      53.190  23.504  25.221  1.00  0.00    -0.744 OA
ENDBRANCH  66  67
ENDBRANCH  47  61
BRANCH  48  71
ATOM     71  C   UNL A   1      40.480  30.031  29.781  1.00  0.00    -0.014 A 
ATOM     72  C   UNL A   1      39.479  30.449  28.888  1.00  0.00     0.010 A 
ATOM     73  C   UNL A   1      40.226  30.084  31.164  1.00  0.00     0.010 A 
ATOM     74  C   UNL A   1      38.255  30.928  29.366  1.00  0.00     0.020 A 
ATOM     75  C   UNL A   1      38.993  30.533  31.646  1.00  0.00     0.020 A 
ATOM     76  C   UNL A   1      38.020  30.964  30.744  1.00  0.00     0.054 A 
BRANCH  76  77
ATOM     77  S   UNL A   1      36.407  31.543  31.339  1.00  0.00     0.124 S 
ATOM     78  O   UNL A   1      36.674  32.951  31.620  1.00  0.00    -0.237 OA
ATOM     79  O   UNL A   1      35.536  31.279  30.196  1.00  0.00    -0.237 OA
ATOM     80  O   UNL A   1      36.155  30.707  32.511  1.00  0.00    -0.744 OA
ENDBRANCH  76  77
ENDBRANCH  48  71
BRANCH  60  81
ATOM     81  C   UNL A   1      46.748  32.979  28.922  1.00  0.00    -0.014 A 
ATOM     82  C   UNL A   1      47.492  33.315  30.068  1.00  0.00     0.010 A 
ATOM     83  C   UNL A   1      46.518  33.963  27.943  1.00  0.00     0.010 A 
ATOM     84  C   UNL A   1      47.965  34.618  30.246  1.00  0.00     0.020 A 
ATOM     85  C   UNL A   1      47.016  35.258  28.102  1.00  0.00     0.020 A 
ATOM     86  C   UNL A   1      47.723  35.582  29.261  1.00  0.00     0.054 A 
BRANCH  86  87
ATOM     87  S   UNL A   1      48.380  37.255  29.499  1.00  0.00     0.124 S 
ATOM     88  O   UNL A   1      49.174  37.100  30.714  1.00  0.00    -0.237 OA
ATOM     89  O   UNL A   1      49.143  37.477  28.272  1.00  0.00    -0.237 OA
ATOM     90  O   UNL A   1      47.183  38.082  29.639  1.00  0.00    -0.744 OA
ENDBRANCH  86  87
ENDBRANCH  60  81
ENDBRANCH  34  35
ENDBRANCH  26  29
ENDBRANCH  24  25
ENDBRANCH  23  24
ENDBRANCH   1  23
TORSDOF 17
ENDMDL
