MODEL 1
REMARK VINA RESULT:     -11.3      0.000      0.000
REMARK SMILES Cc1cc(F)ccc1OC1(C(=O)NCCCCCCNC(=O)c2ccc(-c3c4nc(c(-c5ccc(S(=O)(=O)[O-])cc5)c5ccc([nH]5)c(-c5ccc(S(=O)(=O)[O-])cc5)c5nc(c(-c6ccc(S(=O)(=O)[O-])cc6)c6ccc3[nH]6)C=C5)C=C4)cc2)CCN(C(=O)[C@H]2CCOC2)CC1
REMARK SMILES IDX 17 1 16 2 15 3 14 4 13 5 11 6 12 7 10 9 83 10 94 11 84 12
REMARK SMILES IDX 93 13 85 14 86 15 87 16 9 17 8 18 1 19 2 20 3 21 4 22 7 23
REMARK SMILES IDX 5 24 6 25 88 26 89 27 92 28 90 29 91 30 18 31 19 32 20 33
REMARK SMILES IDX 21 34 22 36 23 37 24 38 82 39 25 40 81 41 26 42 27 43 28 44
REMARK SMILES IDX 75 45 29 46 80 47 74 48 76 49 30 50 79 51 73 52 72 53 31 55
REMARK SMILES IDX 61 56 42 57 60 58 43 59 46 60 59 61 77 62 44 63 45 64 58 66
REMARK SMILES IDX 78 67 47 68 32 69 33 70 41 71 34 72 40 73 35 74 36 75 37 76
REMARK SMILES IDX 38 77 39 78 62 79 63 80 71 81 64 82 70 83 65 84 66 85 67 86
REMARK SMILES IDX 68 87 69 88 48 89 49 90 57 91 50 92 56 93 51 94 52 95 53 96
REMARK SMILES IDX 54 97 55 98
REMARK H PARENT 13 8 20 35 76 54 46 65
REMARK Flexibility Score: inf
ROOT
ATOM      1  C   UNL A   1      35.088  32.873  27.977  1.00  0.00     0.002 C 
ENDROOT
BRANCH   1   2
ATOM      2  C   UNL A   1      35.203  31.481  28.606  1.00  0.00     0.002 C 
BRANCH   2   3
ATOM      3  C   UNL A   1      34.950  30.317  27.644  1.00  0.00     0.021 C 
BRANCH   3   4
ATOM      4  C   UNL A   1      33.598  30.379  26.935  1.00  0.00     0.116 C 
BRANCH   4   5
ATOM      5  N   UNL A   1      32.603  29.567  27.605  1.00  0.00    -0.353 N 
ATOM      6  C   UNL A   1      31.936  28.438  27.217  1.00  0.00     0.264 C 
ATOM      7  O   UNL A   1      31.150  27.985  28.059  1.00  0.00    -0.270 OA
ATOM      8  H   UNL A   1      32.364  29.885  28.505  1.00  0.00     0.163 HD
BRANCH   6   9
ATOM      9  C   UNL A   1      32.163  27.757  25.808  1.00  0.00     0.190 C 
ATOM     10  C   UNL A   1      33.631  27.366  25.722  1.00  0.00     0.080 C 
ATOM     11  C   UNL A   1      31.084  26.683  25.666  1.00  0.00     0.080 C 
ATOM     12  C   UNL A   1      33.949  25.881  25.674  1.00  0.00     0.124 C 
ATOM     13  C   UNL A   1      31.519  25.336  25.117  1.00  0.00     0.124 C 
ATOM     14  N   UNL A   1      32.884  24.915  25.412  1.00  0.00    -0.342 N 
ATOM     15  C   UNL A   1      33.323  23.589  25.303  1.00  0.00     0.228 C 
ATOM     16  O   UNL A   1      34.479  23.292  25.613  1.00  0.00    -0.274 OA
BRANCH   9  17
ATOM     17  O   UNL A   1      31.869  28.871  24.936  1.00  0.00    -0.477 OA
BRANCH  17  18
ATOM     18  C   UNL A   1      30.896  29.165  24.042  1.00  0.00     0.124 A 
ATOM     19  C   UNL A   1      31.027  27.359  22.174  1.00  0.00     0.048 C 
ATOM     20  C   UNL A   1      30.460  28.559  22.855  1.00  0.00    -0.006 A 
ATOM     21  C   UNL A   1      29.400  29.156  22.129  1.00  0.00     0.046 A 
ATOM     22  C   UNL A   1      28.786  30.319  22.563  1.00  0.00     0.123 A 
ATOM     23  C   UNL A   1      30.247  30.354  24.450  1.00  0.00     0.050 A 
ATOM     24  F   UNL A   1      27.792  30.851  21.843  1.00  0.00    -0.207 F 
ATOM     25  C   UNL A   1      29.204  30.931  23.723  1.00  0.00     0.043 A 
ENDBRANCH  17  18
ENDBRANCH   9  17
BRANCH  15  26
ATOM     26  C   UNL A   1      32.388  22.549  24.705  1.00  0.00     0.107 C 
ATOM     27  C   UNL A   1      33.059  21.792  23.574  1.00  0.00     0.044 C 
ATOM     28  C   UNL A   1      32.071  21.438  25.692  1.00  0.00     0.173 C 
ATOM     29  C   UNL A   1      32.445  20.410  23.637  1.00  0.00     0.161 C 
ATOM     30  O   UNL A   1      31.865  20.243  24.930  1.00  0.00    -0.381 OA
ENDBRANCH  15  26
ENDBRANCH   6   9
ENDBRANCH   4   5
ENDBRANCH   3   4
ENDBRANCH   2   3
ENDBRANCH   1   2
BRANCH   1  31
ATOM     31  C   UNL A   1      33.731  33.556  28.163  1.00  0.00     0.021 C 
BRANCH  31  32
ATOM     32  C   UNL A   1      33.817  35.034  28.523  1.00  0.00     0.116 C 
BRANCH  32  33
ATOM     33  N   UNL A   1      32.989  35.356  29.674  1.00  0.00    -0.352 N 
ATOM     34  C   UNL A   1      33.130  34.948  30.978  1.00  0.00     0.251 C 
ATOM     35  H   UNL A   1      32.222  35.947  29.494  1.00  0.00     0.163 HD
ATOM     36  O   UNL A   1      32.223  35.119  31.782  1.00  0.00    -0.269 OA
BRANCH  34  37
ATOM     37  C   UNL A   1      34.388  34.291  31.391  1.00  0.00     0.039 A 
ATOM     38  C   UNL A   1      35.591  34.993  31.291  1.00  0.00     0.014 A 
ATOM     39  C   UNL A   1      34.369  32.984  31.886  1.00  0.00     0.014 A 
ATOM     40  C   UNL A   1      36.774  34.398  31.738  1.00  0.00     0.010 A 
ATOM     41  C   UNL A   1      35.532  32.426  32.404  1.00  0.00     0.010 A 
ATOM     42  C   UNL A   1      36.749  33.121  32.321  1.00  0.00    -0.014 A 
BRANCH  42  43
ATOM     43  C   UNL A   1      37.983  32.471  32.830  1.00  0.00     0.031 A 
ATOM     44  C   UNL A   1      38.448  32.754  34.233  1.00  0.00     0.074 A 
ATOM     45  C   UNL A   1      38.722  31.695  32.014  1.00  0.00     0.049 A 
ATOM     46  N   UNL A   1      39.548  32.376  34.831  1.00  0.00    -0.248 NA
ATOM     47  C   UNL A   1      37.573  33.600  35.062  1.00  0.00     0.031 C 
ATOM     48  C   UNL A   1      38.392  31.368  30.625  1.00  0.00     0.029 A 
ATOM     49  N   UNL A   1      39.916  31.053  32.233  1.00  0.00    -0.354 N 
ATOM     50  C   UNL A   1      39.509  32.957  36.093  1.00  0.00     0.074 A 
ATOM     51  C   UNL A   1      38.304  33.756  36.155  1.00  0.00     0.031 C 
ATOM     52  C   UNL A   1      39.352  30.573  30.122  1.00  0.00     0.029 A 
ATOM     53  C   UNL A   1      40.386  30.373  31.133  1.00  0.00     0.049 A 
ATOM     54  H   UNL A   1      40.390  31.076  33.094  1.00  0.00     0.167 HD
ATOM     55  C   UNL A   1      40.386  32.823  37.117  1.00  0.00     0.031 A 
ATOM     56  C   UNL A   1      41.528  29.682  30.952  1.00  0.00     0.031 A 
ATOM     57  C   UNL A   1      41.581  32.026  37.049  1.00  0.00     0.049 A 
ATOM     58  C   UNL A   1      42.501  29.564  32.094  1.00  0.00     0.074 A 
ATOM     59  C   UNL A   1      42.512  31.786  38.043  1.00  0.00     0.029 A 
ATOM     60  N   UNL A   1      42.013  31.343  35.921  1.00  0.00    -0.354 N 
ATOM     61  N   UNL A   1      42.421  30.073  33.300  1.00  0.00    -0.248 NA
ATOM     62  C   UNL A   1      43.713  28.768  31.854  1.00  0.00     0.031 C 
ATOM     63  C   UNL A   1      43.538  31.007  37.500  1.00  0.00     0.029 A 
ATOM     64  C   UNL A   1      43.210  30.700  36.188  1.00  0.00     0.049 A 
ATOM     65  H   UNL A   1      41.539  31.319  35.059  1.00  0.00     0.167 HD
ATOM     66  C   UNL A   1      43.555  29.631  33.975  1.00  0.00     0.074 A 
ATOM     67  C   UNL A   1      44.298  28.807  33.044  1.00  0.00     0.031 C 
ATOM     68  C   UNL A   1      43.939  29.879  35.252  1.00  0.00     0.031 A 
BRANCH  55  69
ATOM     69  C   UNL A   1      40.086  33.576  38.389  1.00  0.00    -0.014 A 
ATOM     70  C   UNL A   1      40.551  34.891  38.588  1.00  0.00     0.010 A 
ATOM     71  C   UNL A   1      39.316  32.967  39.396  1.00  0.00     0.010 A 
ATOM     72  C   UNL A   1      40.303  35.556  39.791  1.00  0.00     0.020 A 
ATOM     73  C   UNL A   1      39.035  33.643  40.587  1.00  0.00     0.020 A 
ATOM     74  C   UNL A   1      39.550  34.925  40.786  1.00  0.00     0.054 A 
BRANCH  74  75
ATOM     75  S   UNL A   1      39.244  35.813  42.337  1.00  0.00     0.124 S 
ATOM     76  O   UNL A   1      39.456  37.202  41.935  1.00  0.00    -0.237 OA
ATOM     77  O   UNL A   1      37.863  35.453  42.645  1.00  0.00    -0.237 OA
ATOM     78  O   UNL A   1      40.246  35.271  43.251  1.00  0.00    -0.744 OA
ENDBRANCH  74  75
ENDBRANCH  55  69
BRANCH  56  79
ATOM     79  C   UNL A   1      41.801  29.038  29.638  1.00  0.00    -0.014 A 
ATOM     80  C   UNL A   1      41.269  27.772  29.338  1.00  0.00     0.010 A 
ATOM     81  C   UNL A   1      42.567  29.704  28.663  1.00  0.00     0.010 A 
ATOM     82  C   UNL A   1      41.504  27.181  28.092  1.00  0.00     0.020 A 
ATOM     83  C   UNL A   1      42.780  29.130  27.406  1.00  0.00     0.020 A 
ATOM     84  C   UNL A   1      42.253  27.867  27.132  1.00  0.00     0.054 A 
BRANCH  84  85
ATOM     85  S   UNL A   1      42.482  27.111  25.499  1.00  0.00     0.124 S 
ATOM     86  O   UNL A   1      41.370  26.169  25.440  1.00  0.00    -0.237 OA
ATOM     87  O   UNL A   1      42.385  28.262  24.603  1.00  0.00    -0.237 OA
ATOM     88  O   UNL A   1      43.810  26.508  25.583  1.00  0.00    -0.744 OA
ENDBRANCH  84  85
ENDBRANCH  56  79
BRANCH  68  89
ATOM     89  C   UNL A   1      45.198  29.215  35.744  1.00  0.00    -0.014 A 
ATOM     90  C   UNL A   1      46.448  29.853  35.664  1.00  0.00     0.010 A 
ATOM     91  C   UNL A   1      45.112  27.954  36.364  1.00  0.00     0.010 A 
ATOM     92  C   UNL A   1      47.592  29.230  36.174  1.00  0.00     0.020 A 
ATOM     93  C   UNL A   1      46.246  27.343  36.902  1.00  0.00     0.020 A 
ATOM     94  C   UNL A   1      47.483  27.981  36.792  1.00  0.00     0.054 A 
BRANCH  94  95
ATOM     95  S   UNL A   1      48.973  27.221  37.495  1.00  0.00     0.124 S 
ATOM     96  O   UNL A   1      49.270  26.177  36.519  1.00  0.00    -0.237 OA
ATOM     97  O   UNL A   1      49.915  28.338  37.529  1.00  0.00    -0.237 OA
ATOM     98  O   UNL A   1      48.534  26.743  38.804  1.00  0.00    -0.744 OA
ENDBRANCH  94  95
ENDBRANCH  68  89
ENDBRANCH  42  43
ENDBRANCH  34  37
ENDBRANCH  32  33
ENDBRANCH  31  32
ENDBRANCH   1  31
TORSDOF 19
ENDMDL
MODEL 2
REMARK VINA RESULT:     -11.2      6.107      9.026
REMARK SMILES Cc1cc(F)ccc1OC1(C(=O)NCCCCCCNC(=O)c2ccc(-c3c4nc(c(-c5ccc(S(=O)(=O)[O-])cc5)c5ccc([nH]5)c(-c5ccc(S(=O)(=O)[O-])cc5)c5nc(c(-c6ccc(S(=O)(=O)[O-])cc6)c6ccc3[nH]6)C=C5)C=C4)cc2)CCN(C(=O)[C@H]2CCOC2)CC1
REMARK SMILES IDX 17 1 16 2 15 3 14 4 13 5 11 6 12 7 10 9 83 10 94 11 84 12
REMARK SMILES IDX 93 13 85 14 86 15 87 16 9 17 8 18 1 19 2 20 3 21 4 22 7 23
REMARK SMILES IDX 5 24 6 25 88 26 89 27 92 28 90 29 91 30 18 31 19 32 20 33
REMARK SMILES IDX 21 34 22 36 23 37 24 38 82 39 25 40 81 41 26 42 27 43 28 44
REMARK SMILES IDX 75 45 29 46 80 47 74 48 76 49 30 50 79 51 73 52 72 53 31 55
REMARK SMILES IDX 61 56 42 57 60 58 43 59 46 60 59 61 77 62 44 63 45 64 58 66
REMARK SMILES IDX 78 67 47 68 32 69 33 70 41 71 34 72 40 73 35 74 36 75 37 76
REMARK SMILES IDX 38 77 39 78 62 79 63 80 71 81 64 82 70 83 65 84 66 85 67 86
REMARK SMILES IDX 68 87 69 88 48 89 49 90 57 91 50 92 56 93 51 94 52 95 53 96
REMARK SMILES IDX 54 97 55 98
REMARK H PARENT 13 8 20 35 76 54 46 65
REMARK Flexibility Score: inf
ROOT
ATOM      1  C   UNL A   1      34.595  31.328  28.171  1.00  0.00     0.002 C 
ENDROOT
BRANCH   1   2
ATOM      2  C   UNL A   1      35.284  30.090  27.589  1.00  0.00     0.002 C 
BRANCH   2   3
ATOM      3  C   UNL A   1      34.335  28.970  27.154  1.00  0.00     0.021 C 
BRANCH   3   4
ATOM      4  C   UNL A   1      32.856  29.343  27.230  1.00  0.00     0.116 C 
BRANCH   4   5
ATOM      5  N   UNL A   1      32.012  28.172  27.354  1.00  0.00    -0.353 N 
ATOM      6  C   UNL A   1      31.413  27.377  26.418  1.00  0.00     0.264 C 
ATOM      7  O   UNL A   1      30.761  26.431  26.881  1.00  0.00    -0.270 OA
ATOM      8  H   UNL A   1      31.840  27.898  28.284  1.00  0.00     0.163 HD
BRANCH   6   9
ATOM      9  C   UNL A   1      31.554  27.636  24.864  1.00  0.00     0.190 C 
ATOM     10  C   UNL A   1      30.445  26.860  24.170  1.00  0.00     0.080 C 
ATOM     11  C   UNL A   1      31.647  29.151  24.683  1.00  0.00     0.080 C 
ATOM     12  C   UNL A   1      29.371  27.672  23.466  1.00  0.00     0.124 C 
ATOM     13  C   UNL A   1      30.832  29.762  23.558  1.00  0.00     0.124 C 
ATOM     14  N   UNL A   1      29.579  29.097  23.216  1.00  0.00    -0.342 N 
ATOM     15  C   UNL A   1      28.557  29.708  22.480  1.00  0.00     0.228 C 
ATOM     16  O   UNL A   1      27.502  29.105  22.265  1.00  0.00    -0.274 OA
BRANCH   9  17
ATOM     17  O   UNL A   1      32.844  27.029  24.622  1.00  0.00    -0.477 OA
BRANCH  17  18
ATOM     18  C   UNL A   1      33.277  25.815  24.211  1.00  0.00     0.124 A 
ATOM     19  C   UNL A   1      32.850  25.698  21.648  1.00  0.00     0.048 C 
ATOM     20  C   UNL A   1      33.335  25.183  22.961  1.00  0.00    -0.006 A 
ATOM     21  C   UNL A   1      33.840  23.861  22.883  1.00  0.00     0.046 A 
ATOM     22  C   UNL A   1      34.276  23.182  24.008  1.00  0.00     0.123 A 
ATOM     23  C   UNL A   1      33.728  25.087  25.337  1.00  0.00     0.050 A 
ATOM     24  F   UNL A   1      34.740  21.933  23.888  1.00  0.00    -0.207 F 
ATOM     25  C   UNL A   1      34.222  23.785  25.245  1.00  0.00     0.043 A 
ENDBRANCH  17  18
ENDBRANCH   9  17
BRANCH  15  26
ATOM     26  C   UNL A   1      28.805  31.079  21.869  1.00  0.00     0.107 C 
ATOM     27  C   UNL A   1      28.011  31.262  20.590  1.00  0.00     0.044 C 
ATOM     28  C   UNL A   1      28.265  32.197  22.746  1.00  0.00     0.173 C 
ATOM     29  C   UNL A   1      27.701  32.744  20.555  1.00  0.00     0.161 C 
ATOM     30  O   UNL A   1      27.866  33.261  21.875  1.00  0.00    -0.381 OA
ENDBRANCH  15  26
ENDBRANCH   6   9
ENDBRANCH   4   5
ENDBRANCH   3   4
ENDBRANCH   2   3
ENDBRANCH   1   2
BRANCH   1  31
ATOM     31  C   UNL A   1      35.431  32.609  28.138  1.00  0.00     0.021 C 
BRANCH  31  32
ATOM     32  C   UNL A   1      36.476  32.704  29.243  1.00  0.00     0.116 C 
BRANCH  32  33
ATOM     33  N   UNL A   1      36.099  31.920  30.408  1.00  0.00    -0.352 N 
ATOM     34  C   UNL A   1      36.734  30.832  30.956  1.00  0.00     0.251 C 
ATOM     35  H   UNL A   1      35.277  32.209  30.867  1.00  0.00     0.163 HD
ATOM     36  O   UNL A   1      36.169  30.145  31.797  1.00  0.00    -0.269 OA
BRANCH  34  37
ATOM     37  C   UNL A   1      38.101  30.497  30.505  1.00  0.00     0.039 A 
ATOM     38  C   UNL A   1      39.087  30.226  31.457  1.00  0.00     0.014 A 
ATOM     39  C   UNL A   1      38.400  30.443  29.142  1.00  0.00     0.014 A 
ATOM     40  C   UNL A   1      40.364  29.850  31.036  1.00  0.00     0.010 A 
ATOM     41  C   UNL A   1      39.646  29.990  28.726  1.00  0.00     0.010 A 
ATOM     42  C   UNL A   1      40.646  29.703  29.669  1.00  0.00    -0.014 A 
BRANCH  42  43
ATOM     43  C   UNL A   1      41.985  29.279  29.188  1.00  0.00     0.031 A 
ATOM     44  C   UNL A   1      43.090  30.294  29.072  1.00  0.00     0.074 A 
ATOM     45  C   UNL A   1      42.185  28.010  28.783  1.00  0.00     0.049 A 
ATOM     46  N   UNL A   1      44.292  30.155  28.576  1.00  0.00    -0.248 NA
ATOM     47  C   UNL A   1      42.790  31.655  29.550  1.00  0.00     0.031 C 
ATOM     48  C   UNL A   1      41.186  26.940  28.819  1.00  0.00     0.029 A 
ATOM     49  N   UNL A   1      43.297  27.409  28.246  1.00  0.00    -0.354 N 
ATOM     50  C   UNL A   1      44.881  31.411  28.660  1.00  0.00     0.074 A 
ATOM     51  C   UNL A   1      43.887  32.310  29.203  1.00  0.00     0.031 C 
ATOM     52  C   UNL A   1      41.736  25.811  28.341  1.00  0.00     0.029 A 
ATOM     53  C   UNL A   1      43.106  26.086  27.921  1.00  0.00     0.049 A 
ATOM     54  H   UNL A   1      44.149  27.880  28.106  1.00  0.00     0.167 HD
ATOM     55  C   UNL A   1      46.143  31.780  28.332  1.00  0.00     0.031 A 
ATOM     56  C   UNL A   1      43.934  25.200  27.335  1.00  0.00     0.031 A 
ATOM     57  C   UNL A   1      47.127  30.879  27.794  1.00  0.00     0.049 A 
ATOM     58  C   UNL A   1      45.324  25.635  26.957  1.00  0.00     0.074 A 
ATOM     59  C   UNL A   1      48.447  31.140  27.473  1.00  0.00     0.029 A 
ATOM     60  N   UNL A   1      46.897  29.545  27.493  1.00  0.00    -0.354 N 
ATOM     61  N   UNL A   1      45.884  26.812  27.095  1.00  0.00    -0.248 NA
ATOM     62  C   UNL A   1      46.197  24.617  26.355  1.00  0.00     0.031 C 
ATOM     63  C   UNL A   1      48.998  29.980  26.921  1.00  0.00     0.029 A 
ATOM     64  C   UNL A   1      48.044  28.974  26.968  1.00  0.00     0.049 A 
ATOM     65  H   UNL A   1      46.045  29.072  27.633  1.00  0.00     0.167 HD
ATOM     66  C   UNL A   1      47.188  26.670  26.629  1.00  0.00     0.074 A 
ATOM     67  C   UNL A   1      47.333  25.289  26.215  1.00  0.00     0.031 C 
ATOM     68  C   UNL A   1      48.176  27.597  26.561  1.00  0.00     0.031 A 
BRANCH  55  69
ATOM     69  C   UNL A   1      46.516  33.227  28.533  1.00  0.00    -0.014 A 
ATOM     70  C   UNL A   1      46.306  34.183  27.520  1.00  0.00     0.010 A 
ATOM     71  C   UNL A   1      47.070  33.643  29.757  1.00  0.00     0.010 A 
ATOM     72  C   UNL A   1      46.699  35.511  27.706  1.00  0.00     0.020 A 
ATOM     73  C   UNL A   1      47.432  34.978  29.960  1.00  0.00     0.020 A 
ATOM     74  C   UNL A   1      47.266  35.899  28.924  1.00  0.00     0.054 A 
BRANCH  74  75
ATOM     75  S   UNL A   1      47.767  37.629  29.137  1.00  0.00     0.124 S 
ATOM     76  O   UNL A   1      46.552  38.343  28.750  1.00  0.00    -0.237 OA
ATOM     77  O   UNL A   1      48.105  37.691  30.556  1.00  0.00    -0.237 OA
ATOM     78  O   UNL A   1      48.895  37.779  28.222  1.00  0.00    -0.744 OA
ENDBRANCH  74  75
ENDBRANCH  55  69
BRANCH  56  79
ATOM     79  C   UNL A   1      43.468  23.807  27.085  1.00  0.00    -0.014 A 
ATOM     80  C   UNL A   1      43.361  22.889  28.143  1.00  0.00     0.010 A 
ATOM     81  C   UNL A   1      43.094  23.403  25.790  1.00  0.00     0.010 A 
ATOM     82  C   UNL A   1      42.897  21.590  27.911  1.00  0.00     0.020 A 
ATOM     83  C   UNL A   1      42.602  22.115  25.558  1.00  0.00     0.020 A 
ATOM     84  C   UNL A   1      42.514  21.213  26.620  1.00  0.00     0.054 A 
BRANCH  84  85
ATOM     85  S   UNL A   1      41.846  19.547  26.358  1.00  0.00     0.124 S 
ATOM     86  O   UNL A   1      40.410  19.798  26.309  1.00  0.00    -0.237 OA
ATOM     87  O   UNL A   1      42.465  19.156  25.093  1.00  0.00    -0.237 OA
ATOM     88  O   UNL A   1      42.313  18.803  27.526  1.00  0.00    -0.744 OA
ENDBRANCH  84  85
ENDBRANCH  56  79
BRANCH  68  89
ATOM     89  C   UNL A   1      49.524  27.145  26.062  1.00  0.00    -0.014 A 
ATOM     90  C   UNL A   1      49.908  27.313  24.720  1.00  0.00     0.010 A 
ATOM     91  C   UNL A   1      50.449  26.607  26.977  1.00  0.00     0.010 A 
ATOM     92  C   UNL A   1      51.184  26.928  24.299  1.00  0.00     0.020 A 
ATOM     93  C   UNL A   1      51.735  26.250  26.566  1.00  0.00     0.020 A 
ATOM     94  C   UNL A   1      52.090  26.402  25.225  1.00  0.00     0.054 A 
BRANCH  94  95
ATOM     95  S   UNL A   1      53.758  25.963  24.662  1.00  0.00     0.124 S 
ATOM     96  O   UNL A   1      53.515  25.548  23.284  1.00  0.00    -0.237 OA
ATOM     97  O   UNL A   1      54.490  27.217  24.822  1.00  0.00    -0.237 OA
ATOM     98  O   UNL A   1      54.161  24.893  25.573  1.00  0.00    -0.744 OA
ENDBRANCH  94  95
ENDBRANCH  68  89
ENDBRANCH  42  43
ENDBRANCH  34  37
ENDBRANCH  32  33
ENDBRANCH  31  32
ENDBRANCH   1  31
TORSDOF 19
ENDMDL
MODEL 3
REMARK VINA RESULT:     -11.2      6.141     10.673
REMARK SMILES Cc1cc(F)ccc1OC1(C(=O)NCCCCCCNC(=O)c2ccc(-c3c4nc(c(-c5ccc(S(=O)(=O)[O-])cc5)c5ccc([nH]5)c(-c5ccc(S(=O)(=O)[O-])cc5)c5nc(c(-c6ccc(S(=O)(=O)[O-])cc6)c6ccc3[nH]6)C=C5)C=C4)cc2)CCN(C(=O)[C@H]2CCOC2)CC1
REMARK SMILES IDX 17 1 16 2 15 3 14 4 13 5 11 6 12 7 10 9 83 10 94 11 84 12
REMARK SMILES IDX 93 13 85 14 86 15 87 16 9 17 8 18 1 19 2 20 3 21 4 22 7 23
REMARK SMILES IDX 5 24 6 25 88 26 89 27 92 28 90 29 91 30 18 31 19 32 20 33
REMARK SMILES IDX 21 34 22 36 23 37 24 38 82 39 25 40 81 41 26 42 27 43 28 44
REMARK SMILES IDX 75 45 29 46 80 47 74 48 76 49 30 50 79 51 73 52 72 53 31 55
REMARK SMILES IDX 61 56 42 57 60 58 43 59 46 60 59 61 77 62 44 63 45 64 58 66
REMARK SMILES IDX 78 67 47 68 32 69 33 70 41 71 34 72 40 73 35 74 36 75 37 76
REMARK SMILES IDX 38 77 39 78 62 79 63 80 71 81 64 82 70 83 65 84 66 85 67 86
REMARK SMILES IDX 68 87 69 88 48 89 49 90 57 91 50 92 56 93 51 94 52 95 53 96
REMARK SMILES IDX 54 97 55 98
REMARK H PARENT 13 8 20 35 76 54 46 65
REMARK Flexibility Score: inf
ROOT
ATOM      1  C   UNL A   1      34.511  31.283  28.267  1.00  0.00     0.002 C 
ENDROOT
BRANCH   1   2
ATOM      2  C   UNL A   1      35.172  30.116  27.528  1.00  0.00     0.002 C 
BRANCH   2   3
ATOM      3  C   UNL A   1      34.236  28.948  27.203  1.00  0.00     0.021 C 
BRANCH   3   4
ATOM      4  C   UNL A   1      32.752  29.293  27.305  1.00  0.00     0.116 C 
BRANCH   4   5
ATOM      5  N   UNL A   1      31.929  28.105  27.397  1.00  0.00    -0.353 N 
ATOM      6  C   UNL A   1      31.356  27.315  26.440  1.00  0.00     0.264 C 
ATOM      7  O   UNL A   1      30.717  26.349  26.878  1.00  0.00    -0.270 OA
ATOM      8  H   UNL A   1      31.751  27.811  28.320  1.00  0.00     0.163 HD
BRANCH   6   9
ATOM      9  C   UNL A   1      31.511  27.605  24.893  1.00  0.00     0.190 C 
ATOM     10  C   UNL A   1      30.400  26.855  24.175  1.00  0.00     0.080 C 
ATOM     11  C   UNL A   1      31.618  29.124  24.744  1.00  0.00     0.080 C 
ATOM     12  C   UNL A   1      29.338  27.690  23.480  1.00  0.00     0.124 C 
ATOM     13  C   UNL A   1      30.817  29.765  23.626  1.00  0.00     0.124 C 
ATOM     14  N   UNL A   1      29.561  29.119  23.262  1.00  0.00    -0.342 N 
ATOM     15  C   UNL A   1      28.549  29.754  22.531  1.00  0.00     0.228 C 
ATOM     16  O   UNL A   1      27.490  29.166  22.297  1.00  0.00    -0.274 OA
BRANCH   9  17
ATOM     17  O   UNL A   1      32.797  26.993  24.647  1.00  0.00    -0.477 OA
BRANCH  17  18
ATOM     18  C   UNL A   1      33.223  25.770  24.252  1.00  0.00     0.124 A 
ATOM     19  C   UNL A   1      32.914  25.670  21.670  1.00  0.00     0.048 C 
ATOM     20  C   UNL A   1      33.326  25.141  23.003  1.00  0.00    -0.006 A 
ATOM     21  C   UNL A   1      33.807  23.810  22.943  1.00  0.00     0.046 A 
ATOM     22  C   UNL A   1      34.176  23.118  24.085  1.00  0.00     0.123 A 
ATOM     23  C   UNL A   1      33.606  25.030  25.394  1.00  0.00     0.050 A 
ATOM     24  F   UNL A   1      34.619  21.860  23.982  1.00  0.00    -0.207 F 
ATOM     25  C   UNL A   1      34.077  23.718  25.320  1.00  0.00     0.043 A 
ENDBRANCH  17  18
ENDBRANCH   9  17
BRANCH  15  26
ATOM     26  C   UNL A   1      28.814  31.135  21.951  1.00  0.00     0.107 C 
ATOM     27  C   UNL A   1      28.074  31.332  20.641  1.00  0.00     0.044 C 
ATOM     28  C   UNL A   1      28.229  32.237  22.819  1.00  0.00     0.173 C 
ATOM     29  C   UNL A   1      27.755  32.812  20.614  1.00  0.00     0.161 C 
ATOM     30  O   UNL A   1      27.860  33.311  21.947  1.00  0.00    -0.381 OA
ENDBRANCH  15  26
ENDBRANCH   6   9
ENDBRANCH   4   5
ENDBRANCH   3   4
ENDBRANCH   2   3
ENDBRANCH   1   2
BRANCH   1  31
ATOM     31  C   UNL A   1      35.330  32.576  28.297  1.00  0.00     0.021 C 
BRANCH  31  32
ATOM     32  C   UNL A   1      36.355  32.642  29.422  1.00  0.00     0.116 C 
BRANCH  32  33
ATOM     33  N   UNL A   1      36.040  31.709  30.492  1.00  0.00    -0.352 N 
ATOM     34  C   UNL A   1      36.718  30.577  30.875  1.00  0.00     0.251 C 
ATOM     35  H   UNL A   1      35.231  31.917  31.013  1.00  0.00     0.163 HD
ATOM     36  O   UNL A   1      36.201  29.776  31.642  1.00  0.00    -0.269 OA
BRANCH  34  37
ATOM     37  C   UNL A   1      38.073  30.336  30.337  1.00  0.00     0.039 A 
ATOM     38  C   UNL A   1      39.144  30.193  31.223  1.00  0.00     0.014 A 
ATOM     39  C   UNL A   1      38.277  30.243  28.958  1.00  0.00     0.014 A 
ATOM     40  C   UNL A   1      40.416  29.904  30.723  1.00  0.00     0.010 A 
ATOM     41  C   UNL A   1      39.525  29.876  28.469  1.00  0.00     0.010 A 
ATOM     42  C   UNL A   1      40.611  29.718  29.345  1.00  0.00    -0.014 A 
BRANCH  42  43
ATOM     43  C   UNL A   1      41.944  29.384  28.782  1.00  0.00     0.031 A 
ATOM     44  C   UNL A   1      42.221  27.983  28.308  1.00  0.00     0.074 A 
ATOM     45  C   UNL A   1      42.922  30.310  28.770  1.00  0.00     0.049 A 
ATOM     46  N   UNL A   1      43.343  27.460  27.887  1.00  0.00    -0.248 NA
ATOM     47  C   UNL A   1      41.092  27.038  28.342  1.00  0.00     0.031 C 
ATOM     48  C   UNL A   1      42.786  31.694  29.229  1.00  0.00     0.029 A 
ATOM     49  N   UNL A   1      44.232  30.219  28.371  1.00  0.00    -0.354 N 
ATOM     50  C   UNL A   1      43.062  26.123  27.630  1.00  0.00     0.074 A 
ATOM     51  C   UNL A   1      41.679  25.903  27.994  1.00  0.00     0.031 C 
ATOM     52  C   UNL A   1      43.961  32.326  29.068  1.00  0.00     0.029 A 
ATOM     53  C   UNL A   1      44.943  31.383  28.543  1.00  0.00     0.049 A 
ATOM     54  H   UNL A   1      44.626  29.398  27.997  1.00  0.00     0.167 HD
ATOM     55  C   UNL A   1      43.875  25.167  27.119  1.00  0.00     0.031 A 
ATOM     56  C   UNL A   1      46.244  31.657  28.320  1.00  0.00     0.031 A 
ATOM     57  C   UNL A   1      45.249  25.394  26.757  1.00  0.00     0.049 A 
ATOM     58  C   UNL A   1      47.137  30.576  27.774  1.00  0.00     0.074 A 
ATOM     59  C   UNL A   1      46.146  24.507  26.188  1.00  0.00     0.029 A 
ATOM     60  N   UNL A   1      45.927  26.591  26.935  1.00  0.00    -0.354 N 
ATOM     61  N   UNL A   1      46.841  29.332  27.483  1.00  0.00    -0.248 NA
ATOM     62  C   UNL A   1      48.536  30.940  27.514  1.00  0.00     0.031 C 
ATOM     63  C   UNL A   1      47.382  25.151  26.077  1.00  0.00     0.029 A 
ATOM     64  C   UNL A   1      47.237  26.461  26.508  1.00  0.00     0.049 A 
ATOM     65  H   UNL A   1      45.534  27.413  27.309  1.00  0.00     0.167 HD
ATOM     66  C   UNL A   1      48.008  28.773  26.974  1.00  0.00     0.074 A 
ATOM     67  C   UNL A   1      49.011  29.818  26.989  1.00  0.00     0.031 C 
ATOM     68  C   UNL A   1      48.225  27.511  26.526  1.00  0.00     0.031 A 
BRANCH  55  69
ATOM     69  C   UNL A   1      43.296  23.786  26.942  1.00  0.00    -0.014 A 
ATOM     70  C   UNL A   1      42.727  23.383  25.718  1.00  0.00     0.010 A 
ATOM     71  C   UNL A   1      43.332  22.871  28.010  1.00  0.00     0.010 A 
ATOM     72  C   UNL A   1      42.154  22.116  25.586  1.00  0.00     0.020 A 
ATOM     73  C   UNL A   1      42.792  21.590  27.871  1.00  0.00     0.020 A 
ATOM     74  C   UNL A   1      42.184  21.229  26.666  1.00  0.00     0.054 A 
BRANCH  74  75
ATOM     75  S   UNL A   1      41.432  19.591  26.466  1.00  0.00     0.124 S 
ATOM     76  O   UNL A   1      42.365  18.942  25.549  1.00  0.00    -0.237 OA
ATOM     77  O   UNL A   1      41.430  19.071  27.831  1.00  0.00    -0.237 OA
ATOM     78  O   UNL A   1      40.113  19.880  25.910  1.00  0.00    -0.744 OA
ENDBRANCH  74  75
ENDBRANCH  55  69
BRANCH  56  79
ATOM     79  C   UNL A   1      46.769  33.022  28.602  1.00  0.00    -0.014 A 
ATOM     80  C   UNL A   1      46.713  34.027  27.622  1.00  0.00     0.010 A 
ATOM     81  C   UNL A   1      47.299  33.333  29.869  1.00  0.00     0.010 A 
ATOM     82  C   UNL A   1      47.183  35.315  27.899  1.00  0.00     0.020 A 
ATOM     83  C   UNL A   1      47.743  34.627  30.159  1.00  0.00     0.020 A 
ATOM     84  C   UNL A   1      47.688  35.608  29.169  1.00  0.00     0.054 A 
BRANCH  84  85
ATOM     85  S   UNL A   1      48.223  37.305  29.526  1.00  0.00     0.124 S 
ATOM     86  O   UNL A   1      46.965  38.040  29.466  1.00  0.00    -0.237 OA
ATOM     87  O   UNL A   1      48.818  37.174  30.855  1.00  0.00    -0.237 OA
ATOM     88  O   UNL A   1      49.172  37.598  28.454  1.00  0.00    -0.744 OA
ENDBRANCH  84  85
ENDBRANCH  56  79
BRANCH  68  89
ATOM     89  C   UNL A   1      49.588  27.194  25.967  1.00  0.00    -0.014 A 
ATOM     90  C   UNL A   1      50.538  26.469  26.708  1.00  0.00     0.010 A 
ATOM     91  C   UNL A   1      49.891  27.568  24.644  1.00  0.00     0.010 A 
ATOM     92  C   UNL A   1      51.776  26.148  26.143  1.00  0.00     0.020 A 
ATOM     93  C   UNL A   1      51.115  27.221  24.067  1.00  0.00     0.020 A 
ATOM     94  C   UNL A   1      52.055  26.523  24.826  1.00  0.00     0.054 A 
BRANCH  94  95
ATOM     95  S   UNL A   1      53.647  26.044  24.099  1.00  0.00     0.124 S 
ATOM     96  O   UNL A   1      54.498  27.174  24.461  1.00  0.00    -0.237 OA
ATOM     97  O   UNL A   1      53.945  24.788  24.782  1.00  0.00    -0.237 OA
ATOM     98  O   UNL A   1      53.353  25.917  22.673  1.00  0.00    -0.744 OA
ENDBRANCH  94  95
ENDBRANCH  68  89
ENDBRANCH  42  43
ENDBRANCH  34  37
ENDBRANCH  32  33
ENDBRANCH  31  32
ENDBRANCH   1  31
TORSDOF 19
ENDMDL
