MODEL 1
REMARK VINA RESULT:     -10.0      0.000      0.000
REMARK SMILES CC[C@](C)([NH2+]CC(=O)Nc1c(Cl)ccc(C)c1Cl)C(=O)NCCCCCCNC(=O)c1ccc(-c2c3nc(c(-c4ccc(S(=O)(=O)[O-])cc4)c4ccc([nH]4)c(-c4ccc(S(=O)(=O)[O-])cc4)c4nc(c(-c5ccc(S(=O)(=O)[O-])cc5)c5ccc2[nH]5)C=C4)C=C3)cc1
REMARK SMILES IDX 24 1 23 2 22 3 21 4 19 5 20 6 3 8 4 9 2 10 1 11 5 12 6 15
REMARK SMILES IDX 7 16 8 17 9 18 10 20 11 21 17 22 12 23 13 24 15 25 18 26
REMARK SMILES IDX 14 27 16 28 25 29 26 30 27 31 28 32 29 33 30 35 31 36 32 37
REMARK SMILES IDX 90 38 33 39 89 40 34 41 35 42 36 43 83 44 37 45 88 46 82 47
REMARK SMILES IDX 84 48 38 49 87 50 81 51 80 52 39 54 69 55 50 56 68 57 51 58
REMARK SMILES IDX 54 59 67 60 85 61 52 62 53 63 66 65 86 66 55 67 40 68 41 69
REMARK SMILES IDX 49 70 42 71 48 72 43 73 44 74 45 75 46 76 47 77 70 78 71 79
REMARK SMILES IDX 79 80 72 81 78 82 73 83 74 84 75 85 76 86 77 87 56 88 57 89
REMARK SMILES IDX 65 90 58 91 64 92 59 93 60 94 61 95 62 96 63 97
REMARK H PARENT 21 7 5 13 5 14 9 19 28 34 84 53 54 64
REMARK Flexibility Score: inf
ROOT
ATOM      1  C   UNL A   1      34.022  25.093  26.013  1.00  0.00     0.002 C 
ENDROOT
BRANCH   1   2
ATOM      2  C   UNL A   1      33.200  26.394  26.084  1.00  0.00     0.021 C 
BRANCH   2   3
ATOM      3  C   UNL A   1      33.393  27.309  24.867  1.00  0.00     0.116 C 
BRANCH   3   4
ATOM      4  N   UNL A   1      32.741  28.637  24.943  1.00  0.00    -0.351 N 
ATOM      5  C   UNL A   1      31.602  29.336  24.616  1.00  0.00     0.281 C 
ATOM      6  O   UNL A   1      31.472  30.313  25.386  1.00  0.00    -0.268 OA
ATOM      7  H   UNL A   1      33.358  29.253  25.402  1.00  0.00     0.163 HD
BRANCH   5   8
ATOM      8  C   UNL A   1      30.564  29.190  23.313  1.00  0.00     0.172 C 
ATOM      9  C   UNL A   1      31.565  28.424  22.355  1.00  0.00     0.090 C 
BRANCH   8  10
ATOM     10  C   UNL A   1      29.787  30.077  22.169  1.00  0.00     0.075 C 
ATOM     11  C   UNL A   1      28.348  30.147  21.613  1.00  0.00     0.011 C 
ENDBRANCH   8  10
BRANCH   8  12
ATOM     12  N   UNL A   1      29.565  28.270  23.814  1.00  0.00    -0.326 N 
ATOM     13  H   UNL A   1      28.671  28.487  23.373  1.00  0.00     0.347 HD
ATOM     14  H   UNL A   1      29.523  28.383  24.827  1.00  0.00     0.347 HD
BRANCH  12  15
ATOM     15  C   UNL A   1      29.897  26.874  23.538  1.00  0.00     0.363 C 
BRANCH  15  16
ATOM     16  C   UNL A   1      29.878  25.729  24.613  1.00  0.00     0.279 C 
ATOM     17  O   UNL A   1      29.038  25.930  25.520  1.00  0.00    -0.268 OA
ATOM     18  N   UNL A   1      30.433  24.478  24.751  1.00  0.00    -0.319 N 
ATOM     19  H   UNL A   1      30.079  24.104  25.591  1.00  0.00     0.170 HD
BRANCH  18  20
ATOM     20  C   UNL A   1      31.314  23.475  24.188  1.00  0.00     0.079 A 
ATOM     21  C   UNL A   1      32.019  23.433  22.954  1.00  0.00     0.066 A 
ATOM     22  C   UNL A   1      31.694  22.444  25.091  1.00  0.00     0.069 A 
ATOM     23  Cl  UNL A   1      32.386  24.719  21.856  1.00  0.00    -0.082 Cl
ATOM     24  C   UNL A   1      32.704  22.277  22.529  1.00  0.00     0.023 A 
ATOM     25  C   UNL A   1      32.477  21.328  24.699  1.00  0.00    -0.030 A 
ATOM     26  Cl  UNL A   1      31.173  22.538  26.755  1.00  0.00    -0.082 Cl
ATOM     27  C   UNL A   1      32.903  21.216  23.381  1.00  0.00     0.006 A 
ATOM     28  C   UNL A   1      32.921  20.267  25.664  1.00  0.00     0.046 C 
ENDBRANCH  18  20
ENDBRANCH  15  16
ENDBRANCH  12  15
ENDBRANCH   8  12
ENDBRANCH   5   8
ENDBRANCH   3   4
ENDBRANCH   2   3
ENDBRANCH   1   2
BRANCH   1  29
ATOM     29  C   UNL A   1      34.736  24.791  24.686  1.00  0.00     0.002 C 
BRANCH  29  30
ATOM     30  C   UNL A   1      35.830  23.722  24.731  1.00  0.00     0.021 C 
BRANCH  30  31
ATOM     31  C   UNL A   1      36.419  23.441  26.112  1.00  0.00     0.116 C 
BRANCH  31  32
ATOM     32  N   UNL A   1      37.601  22.591  26.050  1.00  0.00    -0.352 N 
ATOM     33  C   UNL A   1      38.914  22.892  26.285  1.00  0.00     0.251 C 
ATOM     34  H   UNL A   1      37.427  21.656  25.799  1.00  0.00     0.163 HD
ATOM     35  O   UNL A   1      39.788  22.073  25.977  1.00  0.00    -0.269 OA
BRANCH  33  36
ATOM     36  C   UNL A   1      39.297  24.181  26.892  1.00  0.00     0.039 A 
ATOM     37  C   UNL A   1      38.953  24.431  28.223  1.00  0.00     0.014 A 
ATOM     38  C   UNL A   1      39.966  25.158  26.146  1.00  0.00     0.014 A 
ATOM     39  C   UNL A   1      39.325  25.637  28.817  1.00  0.00     0.010 A 
ATOM     40  C   UNL A   1      40.403  26.326  26.762  1.00  0.00     0.010 A 
ATOM     41  C   UNL A   1      40.081  26.582  28.102  1.00  0.00    -0.014 A 
BRANCH  41  42
ATOM     42  C   UNL A   1      40.556  27.824  28.763  1.00  0.00     0.031 A 
ATOM     43  C   UNL A   1      41.969  27.938  29.264  1.00  0.00     0.074 A 
ATOM     44  C   UNL A   1      39.690  28.843  28.935  1.00  0.00     0.049 A 
ATOM     45  N   UNL A   1      42.566  28.964  29.815  1.00  0.00    -0.248 NA
ATOM     46  C   UNL A   1      42.816  26.740  29.152  1.00  0.00     0.031 C 
ATOM     47  C   UNL A   1      38.280  28.830  28.537  1.00  0.00     0.029 A 
ATOM     48  N   UNL A   1      39.870  30.091  29.475  1.00  0.00    -0.354 N 
ATOM     49  C   UNL A   1      43.850  28.534  30.127  1.00  0.00     0.074 A 
ATOM     50  C   UNL A   1      43.929  27.139  29.752  1.00  0.00     0.031 C 
ATOM     51  C   UNL A   1      37.740  30.030  28.795  1.00  0.00     0.029 A 
ATOM     52  C   UNL A   1      38.748  30.883  29.414  1.00  0.00     0.049 A 
ATOM     53  H   UNL A   1      40.721  30.391  29.868  1.00  0.00     0.167 HD
ATOM     54  C   UNL A   1      44.876  29.240  30.662  1.00  0.00     0.031 A 
ATOM     55  C   UNL A   1      38.555  32.158  29.803  1.00  0.00     0.031 A 
ATOM     56  C   UNL A   1      44.786  30.628  31.037  1.00  0.00     0.049 A 
ATOM     57  C   UNL A   1      39.705  32.919  30.399  1.00  0.00     0.074 A 
ATOM     58  C   UNL A   1      45.782  31.455  31.523  1.00  0.00     0.029 A 
ATOM     59  N   UNL A   1      43.627  31.389  30.982  1.00  0.00    -0.354 N 
ATOM     60  N   UNL A   1      40.940  32.523  30.601  1.00  0.00    -0.248 NA
ATOM     61  C   UNL A   1      39.438  34.303  30.807  1.00  0.00     0.031 C 
ATOM     62  C   UNL A   1      45.210  32.696  31.828  1.00  0.00     0.029 A 
ATOM     63  C   UNL A   1      43.874  32.665  31.464  1.00  0.00     0.049 A 
ATOM     64  H   UNL A   1      42.757  31.070  30.649  1.00  0.00     0.167 HD
ATOM     65  C   UNL A   1      41.604  33.618  31.143  1.00  0.00     0.074 A 
ATOM     66  C   UNL A   1      40.638  34.698  31.209  1.00  0.00     0.031 C 
ATOM     67  C   UNL A   1      42.895  33.721  31.548  1.00  0.00     0.031 A 
BRANCH  54  68
ATOM     68  C   UNL A   1      46.177  28.512  30.896  1.00  0.00    -0.014 A 
ATOM     69  C   UNL A   1      46.462  27.896  32.129  1.00  0.00     0.010 A 
ATOM     70  C   UNL A   1      47.122  28.422  29.858  1.00  0.00     0.010 A 
ATOM     71  C   UNL A   1      47.687  27.254  32.337  1.00  0.00     0.020 A 
ATOM     72  C   UNL A   1      48.335  27.754  30.050  1.00  0.00     0.020 A 
ATOM     73  C   UNL A   1      48.619  27.191  31.296  1.00  0.00     0.054 A 
BRANCH  73  74
ATOM     74  S   UNL A   1      50.197  26.349  31.591  1.00  0.00     0.124 S 
ATOM     75  O   UNL A   1      51.156  27.304  31.039  1.00  0.00    -0.237 OA
ATOM     76  O   UNL A   1      50.219  26.210  33.046  1.00  0.00    -0.237 OA
ATOM     77  O   UNL A   1      50.068  25.097  30.850  1.00  0.00    -0.744 OA
ENDBRANCH  73  74
ENDBRANCH  54  68
BRANCH  55  78
ATOM     78  C   UNL A   1      37.227  32.800  29.603  1.00  0.00    -0.014 A 
ATOM     79  C   UNL A   1      36.321  32.913  30.673  1.00  0.00     0.010 A 
ATOM     80  C   UNL A   1      36.872  33.332  28.350  1.00  0.00     0.010 A 
ATOM     81  C   UNL A   1      35.082  33.533  30.492  1.00  0.00     0.020 A 
ATOM     82  C   UNL A   1      35.646  33.981  28.172  1.00  0.00     0.020 A 
ATOM     83  C   UNL A   1      34.755  34.070  29.243  1.00  0.00     0.054 A 
BRANCH  83  84
ATOM     84  S   UNL A   1      33.168  34.928  29.051  1.00  0.00     0.124 S 
ATOM     85  O   UNL A   1      33.588  36.238  28.564  1.00  0.00    -0.237 OA
ATOM     86  O   UNL A   1      32.471  34.085  28.084  1.00  0.00    -0.237 OA
ATOM     87  O   UNL A   1      32.604  34.912  30.400  1.00  0.00    -0.744 OA
ENDBRANCH  83  84
ENDBRANCH  55  78
BRANCH  67  88
ATOM     88  C   UNL A   1      43.335  35.057  32.089  1.00  0.00    -0.014 A 
ATOM     89  C   UNL A   1      43.902  36.034  31.250  1.00  0.00     0.010 A 
ATOM     90  C   UNL A   1      43.170  35.343  33.456  1.00  0.00     0.010 A 
ATOM     91  C   UNL A   1      44.345  37.250  31.778  1.00  0.00     0.020 A 
ATOM     92  C   UNL A   1      43.579  36.572  33.982  1.00  0.00     0.020 A 
ATOM     93  C   UNL A   1      44.185  37.508  33.143  1.00  0.00     0.054 A 
BRANCH  93  94
ATOM     94  S   UNL A   1      44.763  39.095  33.804  1.00  0.00     0.124 S 
ATOM     95  O   UNL A   1      45.357  39.718  32.623  1.00  0.00    -0.237 OA
ATOM     96  O   UNL A   1      43.529  39.711  34.284  1.00  0.00    -0.237 OA
ATOM     97  O   UNL A   1      45.709  38.712  34.849  1.00  0.00    -0.744 OA
ENDBRANCH  93  94
ENDBRANCH  67  88
ENDBRANCH  41  42
ENDBRANCH  33  36
ENDBRANCH  31  32
ENDBRANCH  30  31
ENDBRANCH  29  30
ENDBRANCH   1  29
TORSDOF 21
ENDMDL
MODEL 2
REMARK VINA RESULT:      -9.8      1.997      2.584
REMARK SMILES CC[C@](C)([NH2+]CC(=O)Nc1c(Cl)ccc(C)c1Cl)C(=O)NCCCCCCNC(=O)c1ccc(-c2c3nc(c(-c4ccc(S(=O)(=O)[O-])cc4)c4ccc([nH]4)c(-c4ccc(S(=O)(=O)[O-])cc4)c4nc(c(-c5ccc(S(=O)(=O)[O-])cc5)c5ccc2[nH]5)C=C4)C=C3)cc1
REMARK SMILES IDX 24 1 23 2 22 3 21 4 19 5 20 6 3 8 4 9 2 10 1 11 5 12 6 15
REMARK SMILES IDX 7 16 8 17 9 18 10 20 11 21 17 22 12 23 13 24 15 25 18 26
REMARK SMILES IDX 14 27 16 28 25 29 26 30 27 31 28 32 29 33 30 35 31 36 32 37
REMARK SMILES IDX 90 38 33 39 89 40 34 41 35 42 36 43 83 44 37 45 88 46 82 47
REMARK SMILES IDX 84 48 38 49 87 50 81 51 80 52 39 54 69 55 50 56 68 57 51 58
REMARK SMILES IDX 54 59 67 60 85 61 52 62 53 63 66 65 86 66 55 67 40 68 41 69
REMARK SMILES IDX 49 70 42 71 48 72 43 73 44 74 45 75 46 76 47 77 70 78 71 79
REMARK SMILES IDX 79 80 72 81 78 82 73 83 74 84 75 85 76 86 77 87 56 88 57 89
REMARK SMILES IDX 65 90 58 91 64 92 59 93 60 94 61 95 62 96 63 97
REMARK H PARENT 21 7 5 13 5 14 9 19 28 34 84 53 54 64
REMARK Flexibility Score: inf
ROOT
ATOM      1  C   UNL A   1      34.259  24.767  25.712  1.00  0.00     0.002 C 
ENDROOT
BRANCH   1   2
ATOM      2  C   UNL A   1      34.032  26.291  25.749  1.00  0.00     0.021 C 
BRANCH   2   3
ATOM      3  C   UNL A   1      33.305  26.834  24.512  1.00  0.00     0.116 C 
BRANCH   3   4
ATOM      4  N   UNL A   1      32.552  28.095  24.702  1.00  0.00    -0.351 N 
ATOM      5  C   UNL A   1      31.331  28.701  24.511  1.00  0.00     0.281 C 
ATOM      6  O   UNL A   1      31.193  29.636  25.329  1.00  0.00    -0.268 OA
ATOM      7  H   UNL A   1      33.155  28.749  25.127  1.00  0.00     0.163 HD
BRANCH   5   8
ATOM      8  C   UNL A   1      30.190  28.505  23.305  1.00  0.00     0.172 C 
ATOM      9  C   UNL A   1      31.057  29.100  22.121  1.00  0.00     0.090 C 
BRANCH   8  10
ATOM     10  C   UNL A   1      28.721  29.051  22.809  1.00  0.00     0.075 C 
ATOM     11  C   UNL A   1      27.714  30.113  23.300  1.00  0.00     0.011 C 
ENDBRANCH   8  10
BRANCH   8  12
ATOM     12  N   UNL A   1      30.113  27.065  23.181  1.00  0.00    -0.326 N 
ATOM     13  H   UNL A   1      31.060  26.685  23.205  1.00  0.00     0.347 HD
ATOM     14  H   UNL A   1      29.646  26.856  22.298  1.00  0.00     0.347 HD
BRANCH  12  15
ATOM     15  C   UNL A   1      29.333  26.448  24.251  1.00  0.00     0.363 C 
BRANCH  15  16
ATOM     16  C   UNL A   1      29.933  25.509  25.358  1.00  0.00     0.279 C 
ATOM     17  O   UNL A   1      29.567  25.828  26.513  1.00  0.00    -0.268 OA
ATOM     18  N   UNL A   1      30.637  24.329  25.394  1.00  0.00    -0.319 N 
ATOM     19  H   UNL A   1      30.742  24.092  26.345  1.00  0.00     0.170 HD
BRANCH  18  20
ATOM     20  C   UNL A   1      31.289  23.283  24.632  1.00  0.00     0.079 A 
ATOM     21  C   UNL A   1      31.683  23.226  23.267  1.00  0.00     0.066 A 
ATOM     22  C   UNL A   1      31.794  22.206  25.411  1.00  0.00     0.069 A 
ATOM     23  Cl  UNL A   1      31.876  24.512  22.126  1.00  0.00    -0.082 Cl
ATOM     24  C   UNL A   1      32.166  22.038  22.683  1.00  0.00     0.023 A 
ATOM     25  C   UNL A   1      32.382  21.051  24.837  1.00  0.00    -0.030 A 
ATOM     26  Cl  UNL A   1      31.682  22.291  27.152  1.00  0.00    -0.082 Cl
ATOM     27  C   UNL A   1      32.480  20.944  23.455  1.00  0.00     0.006 A 
ATOM     28  C   UNL A   1      32.960  19.937  25.661  1.00  0.00     0.046 C 
ENDBRANCH  18  20
ENDBRANCH  15  16
ENDBRANCH  12  15
ENDBRANCH   8  12
ENDBRANCH   5   8
ENDBRANCH   3   4
ENDBRANCH   2   3
ENDBRANCH   1   2
BRANCH   1  29
ATOM     29  C   UNL A   1      35.005  24.204  24.492  1.00  0.00     0.002 C 
BRANCH  29  30
ATOM     30  C   UNL A   1      36.450  23.757  24.724  1.00  0.00     0.021 C 
BRANCH  30  31
ATOM     31  C   UNL A   1      36.762  23.250  26.131  1.00  0.00     0.116 C 
BRANCH  31  32
ATOM     32  N   UNL A   1      37.829  22.259  26.141  1.00  0.00    -0.352 N 
ATOM     33  C   UNL A   1      39.175  22.417  26.326  1.00  0.00     0.251 C 
ATOM     34  H   UNL A   1      37.537  21.332  25.991  1.00  0.00     0.163 HD
ATOM     35  O   UNL A   1      39.935  21.469  26.092  1.00  0.00    -0.269 OA
BRANCH  33  36
ATOM     36  C   UNL A   1      39.728  23.704  26.790  1.00  0.00     0.039 A 
ATOM     37  C   UNL A   1      40.185  23.808  28.106  1.00  0.00     0.014 A 
ATOM     38  C   UNL A   1      39.770  24.817  25.943  1.00  0.00     0.014 A 
ATOM     39  C   UNL A   1      40.729  25.012  28.555  1.00  0.00     0.010 A 
ATOM     40  C   UNL A   1      40.384  25.992  26.368  1.00  0.00     0.010 A 
ATOM     41  C   UNL A   1      40.862  26.104  27.681  1.00  0.00    -0.014 A 
BRANCH  41  42
ATOM     42  C   UNL A   1      41.525  27.354  28.132  1.00  0.00     0.031 A 
ATOM     43  C   UNL A   1      43.013  27.528  27.999  1.00  0.00     0.074 A 
ATOM     44  C   UNL A   1      40.775  28.325  28.692  1.00  0.00     0.049 A 
ATOM     45  N   UNL A   1      43.748  28.571  28.290  1.00  0.00    -0.248 NA
ATOM     46  C   UNL A   1      43.778  26.377  27.494  1.00  0.00     0.031 C 
ATOM     47  C   UNL A   1      39.330  28.250  28.921  1.00  0.00     0.029 A 
ATOM     48  N   UNL A   1      41.120  29.568  29.157  1.00  0.00    -0.354 N 
ATOM     49  C   UNL A   1      45.059  28.199  28.019  1.00  0.00     0.074 A 
ATOM     50  C   UNL A   1      45.025  26.818  27.589  1.00  0.00     0.031 C 
ATOM     51  C   UNL A   1      38.905  29.415  29.430  1.00  0.00     0.029 A 
ATOM     52  C   UNL A   1      40.048  30.304  29.603  1.00  0.00     0.049 A 
ATOM     53  H   UNL A   1      42.046  29.902  29.169  1.00  0.00     0.167 HD
ATOM     54  C   UNL A   1      46.188  28.944  28.102  1.00  0.00     0.031 A 
ATOM     55  C   UNL A   1      39.989  31.559  30.089  1.00  0.00     0.031 A 
ATOM     56  C   UNL A   1      46.213  30.317  28.537  1.00  0.00     0.049 A 
ATOM     57  C   UNL A   1      41.255  32.364  30.179  1.00  0.00     0.074 A 
ATOM     58  C   UNL A   1      47.291  31.183  28.594  1.00  0.00     0.029 A 
ATOM     59  N   UNL A   1      45.112  31.021  29.003  1.00  0.00    -0.354 N 
ATOM     60  N   UNL A   1      42.474  32.026  29.829  1.00  0.00    -0.248 NA
ATOM     61  C   UNL A   1      41.134  33.723  30.718  1.00  0.00     0.031 C 
ATOM     62  C   UNL A   1      46.855  32.386  29.160  1.00  0.00     0.029 A 
ATOM     63  C   UNL A   1      45.491  32.297  29.389  1.00  0.00     0.049 A 
ATOM     64  H   UNL A   1      44.195  30.666  29.053  1.00  0.00     0.167 HD
ATOM     65  C   UNL A   1      43.264  33.141  30.087  1.00  0.00     0.074 A 
ATOM     66  C   UNL A   1      42.377  34.169  30.595  1.00  0.00     0.031 C 
ATOM     67  C   UNL A   1      44.601  33.300  29.918  1.00  0.00     0.031 A 
BRANCH  54  68
ATOM     68  C   UNL A   1      47.493  28.277  27.741  1.00  0.00    -0.014 A 
ATOM     69  C   UNL A   1      48.253  27.583  28.700  1.00  0.00     0.010 A 
ATOM     70  C   UNL A   1      47.956  28.326  26.413  1.00  0.00     0.010 A 
ATOM     71  C   UNL A   1      49.476  27.000  28.352  1.00  0.00     0.020 A 
ATOM     72  C   UNL A   1      49.161  27.716  26.053  1.00  0.00     0.020 A 
ATOM     73  C   UNL A   1      49.925  27.075  27.029  1.00  0.00     0.054 A 
BRANCH  73  74
ATOM     74  S   UNL A   1      51.511  26.306  26.605  1.00  0.00     0.124 S 
ATOM     75  O   UNL A   1      51.248  24.896  26.886  1.00  0.00    -0.237 OA
ATOM     76  O   UNL A   1      51.663  26.645  25.191  1.00  0.00    -0.237 OA
ATOM     77  O   UNL A   1      52.464  26.953  27.504  1.00  0.00    -0.744 OA
ENDBRANCH  73  74
ENDBRANCH  54  68
BRANCH  55  78
ATOM     78  C   UNL A   1      38.678  32.138  30.490  1.00  0.00    -0.014 A 
ATOM     79  C   UNL A   1      37.951  32.943  29.594  1.00  0.00     0.010 A 
ATOM     80  C   UNL A   1      38.132  31.863  31.757  1.00  0.00     0.010 A 
ATOM     81  C   UNL A   1      36.711  33.472  29.962  1.00  0.00     0.020 A 
ATOM     82  C   UNL A   1      36.878  32.365  32.117  1.00  0.00     0.020 A 
ATOM     83  C   UNL A   1      36.179  33.174  31.219  1.00  0.00     0.054 A 
BRANCH  83  84
ATOM     84  S   UNL A   1      34.538  33.818  31.647  1.00  0.00     0.124 S 
ATOM     85  O   UNL A   1      33.977  32.725  32.435  1.00  0.00    -0.237 OA
ATOM     86  O   UNL A   1      34.862  35.034  32.389  1.00  0.00    -0.237 OA
ATOM     87  O   UNL A   1      33.907  34.041  30.348  1.00  0.00    -0.744 OA
ENDBRANCH  83  84
ENDBRANCH  55  78
BRANCH  67  88
ATOM     88  C   UNL A   1      45.179  34.645  30.278  1.00  0.00    -0.014 A 
ATOM     89  C   UNL A   1      45.250  35.686  29.335  1.00  0.00     0.010 A 
ATOM     90  C   UNL A   1      45.649  34.873  31.585  1.00  0.00     0.010 A 
ATOM     91  C   UNL A   1      45.830  36.911  29.676  1.00  0.00     0.020 A 
ATOM     92  C   UNL A   1      46.196  36.108  31.940  1.00  0.00     0.020 A 
ATOM     93  C   UNL A   1      46.304  37.112  30.975  1.00  0.00     0.054 A 
BRANCH  93  94
ATOM     94  S   UNL A   1      47.048  38.712  31.394  1.00  0.00     0.124 S 
ATOM     95  O   UNL A   1      46.689  38.854  32.804  1.00  0.00    -0.237 OA
ATOM     96  O   UNL A   1      48.466  38.486  31.127  1.00  0.00    -0.237 OA
ATOM     97  O   UNL A   1      46.391  39.649  30.486  1.00  0.00    -0.744 OA
ENDBRANCH  93  94
ENDBRANCH  67  88
ENDBRANCH  41  42
ENDBRANCH  33  36
ENDBRANCH  31  32
ENDBRANCH  30  31
ENDBRANCH  29  30
ENDBRANCH   1  29
TORSDOF 21
ENDMDL
MODEL 3
REMARK VINA RESULT:      -9.0      2.330      3.870
REMARK SMILES CC[C@](C)([NH2+]CC(=O)Nc1c(Cl)ccc(C)c1Cl)C(=O)NCCCCCCNC(=O)c1ccc(-c2c3nc(c(-c4ccc(S(=O)(=O)[O-])cc4)c4ccc([nH]4)c(-c4ccc(S(=O)(=O)[O-])cc4)c4nc(c(-c5ccc(S(=O)(=O)[O-])cc5)c5ccc2[nH]5)C=C4)C=C3)cc1
REMARK SMILES IDX 24 1 23 2 22 3 21 4 19 5 20 6 3 8 4 9 2 10 1 11 5 12 6 15
REMARK SMILES IDX 7 16 8 17 9 18 10 20 11 21 17 22 12 23 13 24 15 25 18 26
REMARK SMILES IDX 14 27 16 28 25 29 26 30 27 31 28 32 29 33 30 35 31 36 32 37
REMARK SMILES IDX 90 38 33 39 89 40 34 41 35 42 36 43 83 44 37 45 88 46 82 47
REMARK SMILES IDX 84 48 38 49 87 50 81 51 80 52 39 54 69 55 50 56 68 57 51 58
REMARK SMILES IDX 54 59 67 60 85 61 52 62 53 63 66 65 86 66 55 67 40 68 41 69
REMARK SMILES IDX 49 70 42 71 48 72 43 73 44 74 45 75 46 76 47 77 70 78 71 79
REMARK SMILES IDX 79 80 72 81 78 82 73 83 74 84 75 85 76 86 77 87 56 88 57 89
REMARK SMILES IDX 65 90 58 91 64 92 59 93 60 94 61 95 62 96 63 97
REMARK H PARENT 21 7 5 13 5 14 9 19 28 34 84 53 54 64
REMARK Flexibility Score: inf
ROOT
ATOM      1  C   UNL A   1      35.075  25.090  25.727  1.00  0.00     0.002 C 
ENDROOT
BRANCH   1   2
ATOM      2  C   UNL A   1      34.025  26.073  25.174  1.00  0.00     0.021 C 
BRANCH   2   3
ATOM      3  C   UNL A   1      34.045  26.197  23.645  1.00  0.00     0.116 C 
BRANCH   3   4
ATOM      4  N   UNL A   1      32.861  25.660  22.935  1.00  0.00    -0.351 N 
ATOM      5  C   UNL A   1      32.002  24.588  22.860  1.00  0.00     0.281 C 
ATOM      6  O   UNL A   1      30.911  24.956  22.372  1.00  0.00    -0.268 OA
ATOM      7  H   UNL A   1      32.584  26.322  22.259  1.00  0.00     0.163 HD
BRANCH   5   8
ATOM      8  C   UNL A   1      32.262  22.957  23.122  1.00  0.00     0.172 C 
ATOM      9  C   UNL A   1      33.718  22.893  22.505  1.00  0.00     0.090 C 
BRANCH   8  10
ATOM     10  C   UNL A   1      31.747  21.470  22.648  1.00  0.00     0.075 C 
ATOM     11  C   UNL A   1      31.904  20.597  21.384  1.00  0.00     0.011 C 
ENDBRANCH   8  10
BRANCH   8  12
ATOM     12  N   UNL A   1      32.338  22.883  24.565  1.00  0.00    -0.326 N 
ATOM     13  H   UNL A   1      33.031  23.557  24.891  1.00  0.00     0.347 HD
ATOM     14  H   UNL A   1      32.597  21.927  24.811  1.00  0.00     0.347 HD
BRANCH  12  15
ATOM     15  C   UNL A   1      31.061  23.175  25.213  1.00  0.00     0.363 C 
BRANCH  15  16
ATOM     16  C   UNL A   1      30.855  24.278  26.311  1.00  0.00     0.279 C 
ATOM     17  O   UNL A   1      30.962  23.828  27.475  1.00  0.00    -0.268 OA
ATOM     18  N   UNL A   1      30.737  25.647  26.343  1.00  0.00    -0.319 N 
ATOM     19  H   UNL A   1      30.679  25.904  27.293  1.00  0.00     0.170 HD
BRANCH  18  20
ATOM     20  C   UNL A   1      30.664  26.875  25.577  1.00  0.00     0.079 A 
ATOM     21  C   UNL A   1      29.861  27.237  24.460  1.00  0.00     0.066 A 
ATOM     22  C   UNL A   1      31.370  27.972  26.143  1.00  0.00     0.069 A 
ATOM     23  Cl  UNL A   1      28.422  26.490  23.856  1.00  0.00    -0.082 Cl
ATOM     24  C   UNL A   1      30.064  28.442  23.760  1.00  0.00     0.023 A 
ATOM     25  C   UNL A   1      31.489  29.228  25.495  1.00  0.00    -0.030 A 
ATOM     26  Cl  UNL A   1      32.137  27.776  27.700  1.00  0.00    -0.082 Cl
ATOM     27  C   UNL A   1      30.898  29.418  24.252  1.00  0.00     0.006 A 
ATOM     28  C   UNL A   1      32.191  30.401  26.116  1.00  0.00     0.046 C 
ENDBRANCH  18  20
ENDBRANCH  15  16
ENDBRANCH  12  15
ENDBRANCH   8  12
ENDBRANCH   5   8
ENDBRANCH   3   4
ENDBRANCH   2   3
ENDBRANCH   1   2
BRANCH   1  29
ATOM     29  C   UNL A   1      35.724  24.126  24.721  1.00  0.00     0.002 C 
BRANCH  29  30
ATOM     30  C   UNL A   1      36.564  22.991  25.310  1.00  0.00     0.021 C 
BRANCH  30  31
ATOM     31  C   UNL A   1      37.661  23.422  26.281  1.00  0.00     0.116 C 
BRANCH  31  32
ATOM     32  N   UNL A   1      38.817  22.536  26.243  1.00  0.00    -0.352 N 
ATOM     33  C   UNL A   1      40.145  22.816  26.409  1.00  0.00     0.251 C 
ATOM     34  H   UNL A   1      38.610  21.590  26.069  1.00  0.00     0.163 HD
ATOM     35  O   UNL A   1      40.986  21.951  26.133  1.00  0.00    -0.269 OA
BRANCH  33  36
ATOM     36  C   UNL A   1      40.584  24.135  26.904  1.00  0.00     0.039 A 
ATOM     37  C   UNL A   1      41.082  24.238  28.205  1.00  0.00     0.014 A 
ATOM     38  C   UNL A   1      40.478  25.276  26.102  1.00  0.00     0.014 A 
ATOM     39  C   UNL A   1      41.519  25.474  28.682  1.00  0.00     0.010 A 
ATOM     40  C   UNL A   1      40.986  26.492  26.551  1.00  0.00     0.010 A 
ATOM     41  C   UNL A   1      41.504  26.605  27.848  1.00  0.00    -0.014 A 
BRANCH  41  42
ATOM     42  C   UNL A   1      42.055  27.900  28.324  1.00  0.00     0.031 A 
ATOM     43  C   UNL A   1      43.531  28.179  28.258  1.00  0.00     0.074 A 
ATOM     44  C   UNL A   1      41.213  28.814  28.846  1.00  0.00     0.049 A 
ATOM     45  N   UNL A   1      44.176  29.272  28.579  1.00  0.00    -0.248 NA
ATOM     46  C   UNL A   1      44.398  27.086  27.793  1.00  0.00     0.031 C 
ATOM     47  C   UNL A   1      39.768  28.636  29.011  1.00  0.00     0.029 A 
ATOM     48  N   UNL A   1      41.446  30.079  29.322  1.00  0.00    -0.354 N 
ATOM     49  C   UNL A   1      45.522  28.995  28.368  1.00  0.00     0.074 A 
ATOM     50  C   UNL A   1      45.605  27.615  27.942  1.00  0.00     0.031 C 
ATOM     51  C   UNL A   1      39.238  29.768  29.496  1.00  0.00     0.029 A 
ATOM     52  C   UNL A   1      40.305  30.736  29.718  1.00  0.00     0.049 A 
ATOM     53  H   UNL A   1      42.345  30.478  29.375  1.00  0.00     0.167 HD
ATOM     54  C   UNL A   1      46.589  29.819  28.500  1.00  0.00     0.031 A 
ATOM     55  C   UNL A   1      40.136  31.984  30.196  1.00  0.00     0.031 A 
ATOM     56  C   UNL A   1      46.497  31.190  28.931  1.00  0.00     0.049 A 
ATOM     57  C   UNL A   1      41.336  32.877  30.340  1.00  0.00     0.074 A 
ATOM     58  C   UNL A   1      47.506  32.131  29.033  1.00  0.00     0.029 A 
ATOM     59  N   UNL A   1      45.327  31.814  29.344  1.00  0.00    -0.354 N 
ATOM     60  N   UNL A   1      42.590  32.628  30.046  1.00  0.00    -0.248 NA
ATOM     61  C   UNL A   1      41.093  34.225  30.868  1.00  0.00     0.031 C 
ATOM     62  C   UNL A   1      46.960  33.300  29.575  1.00  0.00     0.029 A 
ATOM     63  C   UNL A   1      45.597  33.113  29.742  1.00  0.00     0.049 A 
ATOM     64  H   UNL A   1      44.437  31.394  29.353  1.00  0.00     0.167 HD
ATOM     65  C   UNL A   1      43.286  33.796  30.336  1.00  0.00     0.074 A 
ATOM     66  C   UNL A   1      42.305  34.759  30.800  1.00  0.00     0.031 C 
ATOM     67  C   UNL A   1      44.614  34.051  30.227  1.00  0.00     0.031 A 
BRANCH  54  68
ATOM     68  C   UNL A   1      47.953  29.247  28.200  1.00  0.00    -0.014 A 
ATOM     69  C   UNL A   1      48.746  28.670  29.210  1.00  0.00     0.010 A 
ATOM     70  C   UNL A   1      48.442  29.266  26.880  1.00  0.00     0.010 A 
ATOM     71  C   UNL A   1      50.021  28.176  28.917  1.00  0.00     0.020 A 
ATOM     72  C   UNL A   1      49.702  28.743  26.577  1.00  0.00     0.020 A 
ATOM     73  C   UNL A   1      50.493  28.220  27.601  1.00  0.00     0.054 A 
BRANCH  73  74
ATOM     74  S   UNL A   1      52.148  27.567  27.249  1.00  0.00     0.124 S 
ATOM     75  O   UNL A   1      52.118  27.440  25.794  1.00  0.00    -0.237 OA
ATOM     76  O   UNL A   1      53.023  28.615  27.769  1.00  0.00    -0.237 OA
ATOM     77  O   UNL A   1      52.188  26.304  27.982  1.00  0.00    -0.744 OA
ENDBRANCH  73  74
ENDBRANCH  54  68
BRANCH  55  78
ATOM     78  C   UNL A   1      38.769  32.468  30.535  1.00  0.00    -0.014 A 
ATOM     79  C   UNL A   1      37.946  33.029  29.542  1.00  0.00     0.010 A 
ATOM     80  C   UNL A   1      38.271  32.342  31.844  1.00  0.00     0.010 A 
ATOM     81  C   UNL A   1      36.656  33.467  29.855  1.00  0.00     0.020 A 
ATOM     82  C   UNL A   1      36.970  32.749  32.155  1.00  0.00     0.020 A 
ATOM     83  C   UNL A   1      36.173  33.318  31.158  1.00  0.00     0.054 A 
BRANCH  83  84
ATOM     84  S   UNL A   1      34.473  33.832  31.523  1.00  0.00     0.124 S 
ATOM     85  O   UNL A   1      33.896  33.947  30.188  1.00  0.00    -0.237 OA
ATOM     86  O   UNL A   1      33.977  32.724  32.336  1.00  0.00    -0.237 OA
ATOM     87  O   UNL A   1      34.643  35.093  32.243  1.00  0.00    -0.744 OA
ENDBRANCH  83  84
ENDBRANCH  55  78
BRANCH  67  88
ATOM     88  C   UNL A   1      45.077  35.433  30.609  1.00  0.00    -0.014 A 
ATOM     89  C   UNL A   1      45.504  35.726  31.917  1.00  0.00     0.010 A 
ATOM     90  C   UNL A   1      45.096  36.453  29.639  1.00  0.00     0.010 A 
ATOM     91  C   UNL A   1      45.888  37.025  32.262  1.00  0.00     0.020 A 
ATOM     92  C   UNL A   1      45.514  37.744  29.971  1.00  0.00     0.020 A 
ATOM     93  C   UNL A   1      45.885  38.027  31.287  1.00  0.00     0.054 A 
BRANCH  93  94
ATOM     94  S   UNL A   1      46.393  39.703  31.758  1.00  0.00     0.124 S 
ATOM     95  O   UNL A   1      45.185  40.476  31.477  1.00  0.00    -0.237 OA
ATOM     96  O   UNL A   1      46.726  39.551  33.172  1.00  0.00    -0.237 OA
ATOM     97  O   UNL A   1      47.529  39.980  30.883  1.00  0.00    -0.744 OA
ENDBRANCH  93  94
ENDBRANCH  67  88
ENDBRANCH  41  42
ENDBRANCH  33  36
ENDBRANCH  31  32
ENDBRANCH  30  31
ENDBRANCH  29  30
ENDBRANCH   1  29
TORSDOF 21
ENDMDL
