MODEL 1
REMARK VINA RESULT:     -11.9      0.000      0.000
REMARK SMILES CC[C@@H](C)c1ccccc1NC(=O)[C@@H]1[C@@H](C(=O)NCCCCCCNC(=O)c2ccc(-c3c4nc(c(-c5ccc(S(=O)(=O)[O-])cc5)c5ccc([nH]5)c(-c5ccc(S(=O)(=O)[O-])cc5)c5nc(c(-c6ccc(S(=O)(=O)[O-])cc6)c6ccc3[nH]6)C=C5)C=C4)cc2)[C@@H]2C=C[C@H]1C2
REMARK SMILES IDX 21 1 20 2 19 3 18 4 16 5 17 6 15 8 14 9 91 10 88 11 90 12
REMARK SMILES IDX 92 13 89 14 12 15 11 16 13 18 10 19 5 20 6 21 7 22 9 23 8 24
REMARK SMILES IDX 3 25 4 26 2 27 1 28 22 29 23 30 24 31 25 32 26 33 27 35
REMARK SMILES IDX 28 36 29 37 87 38 30 39 86 40 31 41 32 42 33 43 80 44 34 45
REMARK SMILES IDX 85 46 79 47 81 48 35 49 84 50 78 51 77 52 36 54 66 55 47 56
REMARK SMILES IDX 65 57 48 58 51 59 64 60 82 61 49 62 50 63 63 65 83 66 52 67
REMARK SMILES IDX 37 68 38 69 46 70 39 71 45 72 40 73 41 74 42 75 43 76 44 77
REMARK SMILES IDX 67 78 68 79 76 80 69 81 75 82 70 83 71 84 72 85 73 86 74 87
REMARK SMILES IDX 53 88 54 89 62 90 55 91 61 92 56 93 57 94 58 95 59 96 60 97
REMARK H PARENT 18 7 11 17 25 34 81 53 51 64
REMARK Flexibility Score: inf
ROOT
ATOM      1  C   UNL A   1      37.622  21.500  24.773  1.00  0.00     0.002 C 
ENDROOT
BRANCH   1   2
ATOM      2  C   UNL A   1      36.459  20.530  25.005  1.00  0.00     0.021 C 
BRANCH   2   3
ATOM      3  C   UNL A   1      35.393  21.089  25.947  1.00  0.00     0.116 C 
BRANCH   3   4
ATOM      4  N   UNL A   1      34.071  20.921  25.387  1.00  0.00    -0.356 N 
ATOM      5  C   UNL A   1      33.105  21.855  25.168  1.00  0.00     0.224 C 
ATOM      6  O   UNL A   1      32.047  21.465  24.668  1.00  0.00    -0.275 OA
ATOM      7  H   UNL A   1      33.836  20.001  25.126  1.00  0.00     0.163 HD
BRANCH   5   8
ATOM      8  C   UNL A   1      33.361  23.322  25.512  1.00  0.00     0.098 C 
ATOM      9  C   UNL A   1      32.197  24.296  25.048  1.00  0.00     0.099 C 
ATOM     10  C   UNL A   1      32.956  25.247  24.082  1.00  0.00     0.025 C 
ATOM     11  C   UNL A   1      34.579  23.847  24.698  1.00  0.00     0.025 C 
ATOM     12  C   UNL A   1      33.969  26.059  24.845  1.00  0.00    -0.027 C 
ATOM     13  C   UNL A   1      33.910  24.268  23.389  1.00  0.00     0.017 C 
ATOM     14  C   UNL A   1      34.945  25.220  25.217  1.00  0.00    -0.027 C 
BRANCH   9  15
ATOM     15  C   UNL A   1      31.471  24.952  26.236  1.00  0.00     0.228 C 
ATOM     16  N   UNL A   1      30.594  25.998  26.132  1.00  0.00    -0.326 N 
ATOM     17  H   UNL A   1      29.913  26.049  26.841  1.00  0.00     0.169 HD
ATOM     18  O   UNL A   1      31.612  24.516  27.386  1.00  0.00    -0.274 OA
BRANCH  16  19
ATOM     19  C   UNL A   1      30.526  27.006  25.162  1.00  0.00     0.044 A 
ATOM     20  C   UNL A   1      31.249  28.212  25.350  1.00  0.00    -0.022 A 
ATOM     21  C   UNL A   1      31.412  29.028  24.211  1.00  0.00     0.006 A 
ATOM     22  C   UNL A   1      30.761  28.755  23.006  1.00  0.00     0.000 A 
ATOM     23  C   UNL A   1      29.779  26.806  23.998  1.00  0.00     0.026 A 
ATOM     24  C   UNL A   1      29.895  27.677  22.919  1.00  0.00     0.002 A 
BRANCH  20  25
ATOM     25  C   UNL A   1      31.717  28.716  26.734  1.00  0.00     0.018 C 
ATOM     26  C   UNL A   1      31.717  30.258  26.860  1.00  0.00     0.013 C 
BRANCH  25  27
ATOM     27  C   UNL A   1      33.075  28.187  27.261  1.00  0.00     0.005 C 
ATOM     28  C   UNL A   1      34.241  29.097  26.857  1.00  0.00     0.004 C 
ENDBRANCH  25  27
ENDBRANCH  20  25
ENDBRANCH  16  19
ENDBRANCH   9  15
ENDBRANCH   5   8
ENDBRANCH   3   4
ENDBRANCH   2   3
ENDBRANCH   1   2
BRANCH   1  29
ATOM     29  C   UNL A   1      37.952  22.395  25.973  1.00  0.00     0.002 C 
BRANCH  29  30
ATOM     30  C   UNL A   1      39.357  22.206  26.553  1.00  0.00     0.021 C 
BRANCH  30  31
ATOM     31  C   UNL A   1      39.982  23.477  27.121  1.00  0.00     0.116 C 
BRANCH  31  32
ATOM     32  N   UNL A   1      40.827  24.139  26.141  1.00  0.00    -0.352 N 
ATOM     33  C   UNL A   1      41.222  25.449  26.073  1.00  0.00     0.251 C 
ATOM     34  H   UNL A   1      41.166  23.560  25.419  1.00  0.00     0.163 HD
ATOM     35  O   UNL A   1      41.728  25.882  25.043  1.00  0.00    -0.269 OA
BRANCH  33  36
ATOM     36  C   UNL A   1      41.039  26.338  27.242  1.00  0.00     0.039 A 
ATOM     37  C   UNL A   1      41.951  27.376  27.448  1.00  0.00     0.014 A 
ATOM     38  C   UNL A   1      40.001  26.121  28.153  1.00  0.00     0.014 A 
ATOM     39  C   UNL A   1      41.801  28.218  28.552  1.00  0.00     0.010 A 
ATOM     40  C   UNL A   1      39.814  27.002  29.215  1.00  0.00     0.010 A 
ATOM     41  C   UNL A   1      40.721  28.049  29.435  1.00  0.00    -0.014 A 
BRANCH  41  42
ATOM     42  C   UNL A   1      40.541  28.952  30.599  1.00  0.00     0.031 A 
ATOM     43  C   UNL A   1      41.395  28.787  31.827  1.00  0.00     0.074 A 
ATOM     44  C   UNL A   1      39.580  29.897  30.564  1.00  0.00     0.049 A 
ATOM     45  N   UNL A   1      41.376  29.470  32.942  1.00  0.00    -0.248 NA
ATOM     46  C   UNL A   1      42.384  27.696  31.811  1.00  0.00     0.031 C 
ATOM     47  C   UNL A   1      38.656  30.124  29.450  1.00  0.00     0.029 A 
ATOM     48  N   UNL A   1      39.221  30.842  31.490  1.00  0.00    -0.354 N 
ATOM     49  C   UNL A   1      42.334  28.885  33.764  1.00  0.00     0.074 A 
ATOM     50  C   UNL A   1      42.881  27.760  33.038  1.00  0.00     0.031 C 
ATOM     51  C   UNL A   1      37.857  31.161  29.747  1.00  0.00     0.029 A 
ATOM     52  C   UNL A   1      38.188  31.652  31.081  1.00  0.00     0.049 A 
ATOM     53  H   UNL A   1      39.661  30.933  32.366  1.00  0.00     0.167 HD
ATOM     54  C   UNL A   1      42.733  29.261  35.002  1.00  0.00     0.031 A 
ATOM     55  C   UNL A   1      37.577  32.676  31.707  1.00  0.00     0.031 A 
ATOM     56  C   UNL A   1      42.198  30.391  35.713  1.00  0.00     0.049 A 
ATOM     57  C   UNL A   1      38.056  33.089  33.071  1.00  0.00     0.074 A 
ATOM     58  C   UNL A   1      42.576  30.890  36.948  1.00  0.00     0.029 A 
ATOM     59  N   UNL A   1      41.170  31.201  35.253  1.00  0.00    -0.354 N 
ATOM     60  N   UNL A   1      39.009  32.563  33.804  1.00  0.00    -0.248 NA
ATOM     61  C   UNL A   1      37.391  34.246  33.684  1.00  0.00     0.031 C 
ATOM     62  C   UNL A   1      41.747  31.974  37.254  1.00  0.00     0.029 A 
ATOM     63  C   UNL A   1      40.890  32.185  36.185  1.00  0.00     0.049 A 
ATOM     64  H   UNL A   1      40.708  31.092  34.390  1.00  0.00     0.167 HD
ATOM     65  C   UNL A   1      39.078  33.345  34.951  1.00  0.00     0.074 A 
ATOM     66  C   UNL A   1      38.081  34.387  34.807  1.00  0.00     0.031 C 
ATOM     67  C   UNL A   1      39.894  33.215  36.027  1.00  0.00     0.031 A 
BRANCH  54  68
ATOM     68  C   UNL A   1      43.806  28.439  35.668  1.00  0.00    -0.014 A 
ATOM     69  C   UNL A   1      43.478  27.340  36.483  1.00  0.00     0.010 A 
ATOM     70  C   UNL A   1      45.161  28.740  35.441  1.00  0.00     0.010 A 
ATOM     71  C   UNL A   1      44.484  26.583  37.091  1.00  0.00     0.020 A 
ATOM     72  C   UNL A   1      46.171  27.968  36.024  1.00  0.00     0.020 A 
ATOM     73  C   UNL A   1      45.825  26.904  36.859  1.00  0.00     0.054 A 
BRANCH  73  74
ATOM     74  S   UNL A   1      47.111  25.888  37.638  1.00  0.00     0.124 S 
ATOM     75  O   UNL A   1      46.342  24.734  38.099  1.00  0.00    -0.237 OA
ATOM     76  O   UNL A   1      48.029  25.630  36.532  1.00  0.00    -0.237 OA
ATOM     77  O   UNL A   1      47.638  26.748  38.695  1.00  0.00    -0.744 OA
ENDBRANCH  73  74
ENDBRANCH  54  68
BRANCH  55  78
ATOM     78  C   UNL A   1      36.464  33.399  31.035  1.00  0.00    -0.014 A 
ATOM     79  C   UNL A   1      35.193  33.472  31.634  1.00  0.00     0.010 A 
ATOM     80  C   UNL A   1      36.672  34.031  29.796  1.00  0.00     0.010 A 
ATOM     81  C   UNL A   1      34.146  34.141  30.995  1.00  0.00     0.020 A 
ATOM     82  C   UNL A   1      35.635  34.725  29.168  1.00  0.00     0.020 A 
ATOM     83  C   UNL A   1      34.374  34.764  29.765  1.00  0.00     0.054 A 
BRANCH  83  84
ATOM     84  S   UNL A   1      33.013  35.667  28.975  1.00  0.00     0.124 S 
ATOM     85  O   UNL A   1      32.366  34.618  28.193  1.00  0.00    -0.237 OA
ATOM     86  O   UNL A   1      32.254  36.163  30.120  1.00  0.00    -0.237 OA
ATOM     87  O   UNL A   1      33.695  36.700  28.197  1.00  0.00    -0.744 OA
ENDBRANCH  83  84
ENDBRANCH  55  78
BRANCH  67  88
ATOM     88  C   UNL A   1      39.770  34.248  37.114  1.00  0.00    -0.014 A 
ATOM     89  C   UNL A   1      39.069  33.978  38.303  1.00  0.00     0.010 A 
ATOM     90  C   UNL A   1      40.397  35.497  36.955  1.00  0.00     0.010 A 
ATOM     91  C   UNL A   1      38.960  34.958  39.294  1.00  0.00     0.020 A 
ATOM     92  C   UNL A   1      40.314  36.468  37.955  1.00  0.00     0.020 A 
ATOM     93  C   UNL A   1      39.579  36.199  39.112  1.00  0.00     0.054 A 
BRANCH  93  94
ATOM     94  S   UNL A   1      39.441  37.447  40.420  1.00  0.00     0.124 S 
ATOM     95  O   UNL A   1      38.815  38.560  39.712  1.00  0.00    -0.237 OA
ATOM     96  O   UNL A   1      38.602  36.780  41.413  1.00  0.00    -0.237 OA
ATOM     97  O   UNL A   1      40.825  37.669  40.833  1.00  0.00    -0.744 OA
ENDBRANCH  93  94
ENDBRANCH  67  88
ENDBRANCH  41  42
ENDBRANCH  33  36
ENDBRANCH  31  32
ENDBRANCH  30  31
ENDBRANCH  29  30
ENDBRANCH   1  29
TORSDOF 20
ENDMDL
MODEL 2
REMARK VINA RESULT:     -10.8      6.044      8.375
REMARK SMILES CC[C@@H](C)c1ccccc1NC(=O)[C@@H]1[C@@H](C(=O)NCCCCCCNC(=O)c2ccc(-c3c4nc(c(-c5ccc(S(=O)(=O)[O-])cc5)c5ccc([nH]5)c(-c5ccc(S(=O)(=O)[O-])cc5)c5nc(c(-c6ccc(S(=O)(=O)[O-])cc6)c6ccc3[nH]6)C=C5)C=C4)cc2)[C@@H]2C=C[C@H]1C2
REMARK SMILES IDX 21 1 20 2 19 3 18 4 16 5 17 6 15 8 14 9 91 10 88 11 90 12
REMARK SMILES IDX 92 13 89 14 12 15 11 16 13 18 10 19 5 20 6 21 7 22 9 23 8 24
REMARK SMILES IDX 3 25 4 26 2 27 1 28 22 29 23 30 24 31 25 32 26 33 27 35
REMARK SMILES IDX 28 36 29 37 87 38 30 39 86 40 31 41 32 42 33 43 80 44 34 45
REMARK SMILES IDX 85 46 79 47 81 48 35 49 84 50 78 51 77 52 36 54 66 55 47 56
REMARK SMILES IDX 65 57 48 58 51 59 64 60 82 61 49 62 50 63 63 65 83 66 52 67
REMARK SMILES IDX 37 68 38 69 46 70 39 71 45 72 40 73 41 74 42 75 43 76 44 77
REMARK SMILES IDX 67 78 68 79 76 80 69 81 75 82 70 83 71 84 72 85 73 86 74 87
REMARK SMILES IDX 53 88 54 89 62 90 55 91 61 92 56 93 57 94 58 95 59 96 60 97
REMARK H PARENT 18 7 11 17 25 34 81 53 51 64
REMARK Flexibility Score: inf
ROOT
ATOM      1  C   UNL A   1      38.677  23.446  26.503  1.00  0.00     0.002 C 
ENDROOT
BRANCH   1   2
ATOM      2  C   UNL A   1      37.552  23.054  25.540  1.00  0.00     0.021 C 
BRANCH   2   3
ATOM      3  C   UNL A   1      36.193  23.625  25.945  1.00  0.00     0.116 C 
BRANCH   3   4
ATOM      4  N   UNL A   1      35.493  22.714  26.825  1.00  0.00    -0.356 N 
ATOM      5  C   UNL A   1      34.204  22.281  26.765  1.00  0.00     0.224 C 
ATOM      6  O   UNL A   1      33.834  21.492  27.637  1.00  0.00    -0.275 OA
ATOM      7  H   UNL A   1      36.025  22.357  27.572  1.00  0.00     0.163 HD
BRANCH   5   8
ATOM      8  C   UNL A   1      33.287  22.749  25.636  1.00  0.00     0.098 C 
ATOM      9  C   UNL A   1      32.958  24.301  25.685  1.00  0.00     0.099 C 
ATOM     10  C   UNL A   1      31.411  24.286  25.823  1.00  0.00     0.025 C 
ATOM     11  C   UNL A   1      31.880  22.106  25.803  1.00  0.00     0.025 C 
ATOM     12  C   UNL A   1      30.787  23.715  24.577  1.00  0.00    -0.027 C 
ATOM     13  C   UNL A   1      31.207  23.090  26.760  1.00  0.00     0.017 C 
ATOM     14  C   UNL A   1      31.068  22.405  24.562  1.00  0.00    -0.027 C 
BRANCH   9  15
ATOM     15  C   UNL A   1      33.539  25.063  24.480  1.00  0.00     0.228 C 
ATOM     16  N   UNL A   1      33.840  26.398  24.475  1.00  0.00    -0.326 N 
ATOM     17  H   UNL A   1      34.552  26.667  23.850  1.00  0.00     0.169 HD
ATOM     18  O   UNL A   1      33.818  24.472  23.429  1.00  0.00    -0.274 OA
BRANCH  16  19
ATOM     19  C   UNL A   1      33.283  27.437  25.230  1.00  0.00     0.044 A 
ATOM     20  C   UNL A   1      32.065  28.032  24.815  1.00  0.00    -0.022 A 
ATOM     21  C   UNL A   1      31.393  28.819  25.775  1.00  0.00     0.006 A 
ATOM     22  C   UNL A   1      31.970  29.134  27.008  1.00  0.00     0.000 A 
ATOM     23  C   UNL A   1      33.908  27.857  26.408  1.00  0.00     0.026 A 
ATOM     24  C   UNL A   1      33.254  28.704  27.298  1.00  0.00     0.002 A 
BRANCH  20  25
ATOM     25  C   UNL A   1      31.542  27.976  23.361  1.00  0.00     0.018 C 
ATOM     26  C   UNL A   1      32.090  29.112  22.466  1.00  0.00     0.013 C 
BRANCH  25  27
ATOM     27  C   UNL A   1      30.006  27.898  23.161  1.00  0.00     0.005 C 
ATOM     28  C   UNL A   1      29.378  26.766  23.984  1.00  0.00     0.004 C 
ENDBRANCH  25  27
ENDBRANCH  20  25
ENDBRANCH  16  19
ENDBRANCH   9  15
ENDBRANCH   5   8
ENDBRANCH   3   4
ENDBRANCH   2   3
ENDBRANCH   1   2
BRANCH   1  29
ATOM     29  C   UNL A   1      39.927  22.561  26.414  1.00  0.00     0.002 C 
BRANCH  29  30
ATOM     30  C   UNL A   1      39.717  21.103  26.833  1.00  0.00     0.021 C 
BRANCH  30  31
ATOM     31  C   UNL A   1      39.911  20.089  25.708  1.00  0.00     0.116 C 
BRANCH  31  32
ATOM     32  N   UNL A   1      40.988  19.161  26.009  1.00  0.00    -0.352 N 
ATOM     33  C   UNL A   1      42.317  19.410  26.229  1.00  0.00     0.251 C 
ATOM     34  H   UNL A   1      40.723  18.214  26.062  1.00  0.00     0.163 HD
ATOM     35  O   UNL A   1      43.121  18.484  26.220  1.00  0.00    -0.269 OA
BRANCH  33  36
ATOM     36  C   UNL A   1      42.779  20.794  26.476  1.00  0.00     0.039 A 
ATOM     37  C   UNL A   1      43.093  21.605  25.383  1.00  0.00     0.014 A 
ATOM     38  C   UNL A   1      42.947  21.273  27.779  1.00  0.00     0.014 A 
ATOM     39  C   UNL A   1      43.542  22.909  25.597  1.00  0.00     0.010 A 
ATOM     40  C   UNL A   1      43.331  22.595  27.989  1.00  0.00     0.010 A 
ATOM     41  C   UNL A   1      43.648  23.421  26.901  1.00  0.00    -0.014 A 
BRANCH  41  42
ATOM     42  C   UNL A   1      44.104  24.814  27.137  1.00  0.00     0.031 A 
ATOM     43  C   UNL A   1      45.542  25.191  26.902  1.00  0.00     0.074 A 
ATOM     44  C   UNL A   1      43.231  25.729  27.601  1.00  0.00     0.049 A 
ATOM     45  N   UNL A   1      46.127  26.350  27.065  1.00  0.00    -0.248 NA
ATOM     46  C   UNL A   1      46.448  24.122  26.451  1.00  0.00     0.031 C 
ATOM     47  C   UNL A   1      41.822  25.473  27.913  1.00  0.00     0.029 A 
ATOM     48  N   UNL A   1      43.398  27.059  27.892  1.00  0.00    -0.354 N 
ATOM     49  C   UNL A   1      47.467  26.147  26.752  1.00  0.00     0.074 A 
ATOM     50  C   UNL A   1      47.619  24.744  26.437  1.00  0.00     0.031 C 
ATOM     51  C   UNL A   1      41.249  26.616  28.323  1.00  0.00     0.029 A 
ATOM     52  C   UNL A   1      42.252  27.676  28.333  1.00  0.00     0.049 A 
ATOM     53  H   UNL A   1      44.258  27.528  27.792  1.00  0.00     0.167 HD
ATOM     54  C   UNL A   1      48.474  27.052  26.711  1.00  0.00     0.031 A 
ATOM     55  C   UNL A   1      42.031  28.952  28.704  1.00  0.00     0.031 A 
ATOM     56  C   UNL A   1      48.315  28.450  27.007  1.00  0.00     0.049 A 
ATOM     57  C   UNL A   1      43.161  29.941  28.627  1.00  0.00     0.074 A 
ATOM     58  C   UNL A   1      49.261  29.458  26.939  1.00  0.00     0.029 A 
ATOM     59  N   UNL A   1      47.132  29.040  27.427  1.00  0.00    -0.354 N 
ATOM     60  N   UNL A   1      44.406  29.743  28.264  1.00  0.00    -0.248 NA
ATOM     61  C   UNL A   1      42.851  31.330  28.989  1.00  0.00     0.031 C 
ATOM     62  C   UNL A   1      48.661  30.650  27.360  1.00  0.00     0.029 A 
ATOM     63  C   UNL A   1      47.328  30.395  27.637  1.00  0.00     0.049 A 
ATOM     64  H   UNL A   1      46.279  28.566  27.556  1.00  0.00     0.167 HD
ATOM     65  C   UNL A   1      45.020  30.989  28.325  1.00  0.00     0.074 A 
ATOM     66  C   UNL A   1      44.005  31.935  28.745  1.00  0.00     0.031 C 
ATOM     67  C   UNL A   1      46.307  31.322  28.056  1.00  0.00     0.031 A 
BRANCH  54  68
ATOM     68  C   UNL A   1      49.845  26.552  26.331  1.00  0.00    -0.014 A 
ATOM     69  C   UNL A   1      50.343  26.718  25.026  1.00  0.00     0.010 A 
ATOM     70  C   UNL A   1      50.664  25.948  27.302  1.00  0.00     0.010 A 
ATOM     71  C   UNL A   1      51.618  26.254  24.689  1.00  0.00     0.020 A 
ATOM     72  C   UNL A   1      51.950  25.508  26.977  1.00  0.00     0.020 A 
ATOM     73  C   UNL A   1      52.413  25.650  25.668  1.00  0.00     0.054 A 
BRANCH  73  74
ATOM     74  S   UNL A   1      54.074  25.081  25.210  1.00  0.00     0.124 S 
ATOM     75  O   UNL A   1      54.342  25.870  24.010  1.00  0.00    -0.237 OA
ATOM     76  O   UNL A   1      54.868  25.434  26.384  1.00  0.00    -0.237 OA
ATOM     77  O   UNL A   1      53.900  23.648  24.987  1.00  0.00    -0.744 OA
ENDBRANCH  73  74
ENDBRANCH  54  68
BRANCH  55  78
ATOM     78  C   UNL A   1      40.676  29.371  29.153  1.00  0.00    -0.014 A 
ATOM     79  C   UNL A   1      40.381  29.488  30.523  1.00  0.00     0.010 A 
ATOM     80  C   UNL A   1      39.675  29.669  28.211  1.00  0.00     0.010 A 
ATOM     81  C   UNL A   1      39.104  29.869  30.943  1.00  0.00     0.020 A 
ATOM     82  C   UNL A   1      38.405  30.078  28.627  1.00  0.00     0.020 A 
ATOM     83  C   UNL A   1      38.124  30.163  29.991  1.00  0.00     0.054 A 
BRANCH  83  84
ATOM     84  S   UNL A   1      36.486  30.702  30.557  1.00  0.00     0.124 S 
ATOM     85  O   UNL A   1      35.664  30.471  29.373  1.00  0.00    -0.237 OA
ATOM     86  O   UNL A   1      36.233  29.813  31.688  1.00  0.00    -0.237 OA
ATOM     87  O   UNL A   1      36.693  32.104  30.914  1.00  0.00    -0.744 OA
ENDBRANCH  83  84
ENDBRANCH  55  78
BRANCH  67  88
ATOM     88  C   UNL A   1      46.680  32.775  28.169  1.00  0.00    -0.014 A 
ATOM     89  C   UNL A   1      46.562  33.648  27.072  1.00  0.00     0.010 A 
ATOM     90  C   UNL A   1      47.123  33.281  29.404  1.00  0.00     0.010 A 
ATOM     91  C   UNL A   1      46.924  34.993  27.199  1.00  0.00     0.020 A 
ATOM     92  C   UNL A   1      47.459  34.630  29.543  1.00  0.00     0.020 A 
ATOM     93  C   UNL A   1      47.375  35.474  28.433  1.00  0.00     0.054 A 
BRANCH  93  94
ATOM     94  S   UNL A   1      47.818  37.226  28.579  1.00  0.00     0.124 S 
ATOM     95  O   UNL A   1      48.815  37.376  27.522  1.00  0.00    -0.237 OA
ATOM     96  O   UNL A   1      46.544  37.900  28.343  1.00  0.00    -0.237 OA
ATOM     97  O   UNL A   1      48.332  37.340  29.942  1.00  0.00    -0.744 OA
ENDBRANCH  93  94
ENDBRANCH  67  88
ENDBRANCH  41  42
ENDBRANCH  33  36
ENDBRANCH  31  32
ENDBRANCH  30  31
ENDBRANCH  29  30
ENDBRANCH   1  29
TORSDOF 20
ENDMDL
MODEL 3
REMARK VINA RESULT:     -10.6      2.951      9.456
REMARK SMILES CC[C@@H](C)c1ccccc1NC(=O)[C@@H]1[C@@H](C(=O)NCCCCCCNC(=O)c2ccc(-c3c4nc(c(-c5ccc(S(=O)(=O)[O-])cc5)c5ccc([nH]5)c(-c5ccc(S(=O)(=O)[O-])cc5)c5nc(c(-c6ccc(S(=O)(=O)[O-])cc6)c6ccc3[nH]6)C=C5)C=C4)cc2)[C@@H]2C=C[C@H]1C2
REMARK SMILES IDX 21 1 20 2 19 3 18 4 16 5 17 6 15 8 14 9 91 10 88 11 90 12
REMARK SMILES IDX 92 13 89 14 12 15 11 16 13 18 10 19 5 20 6 21 7 22 9 23 8 24
REMARK SMILES IDX 3 25 4 26 2 27 1 28 22 29 23 30 24 31 25 32 26 33 27 35
REMARK SMILES IDX 28 36 29 37 87 38 30 39 86 40 31 41 32 42 33 43 80 44 34 45
REMARK SMILES IDX 85 46 79 47 81 48 35 49 84 50 78 51 77 52 36 54 66 55 47 56
REMARK SMILES IDX 65 57 48 58 51 59 64 60 82 61 49 62 50 63 63 65 83 66 52 67
REMARK SMILES IDX 37 68 38 69 46 70 39 71 45 72 40 73 41 74 42 75 43 76 44 77
REMARK SMILES IDX 67 78 68 79 76 80 69 81 75 82 70 83 71 84 72 85 73 86 74 87
REMARK SMILES IDX 53 88 54 89 62 90 55 91 61 92 56 93 57 94 58 95 59 96 60 97
REMARK H PARENT 18 7 11 17 25 34 81 53 51 64
REMARK Flexibility Score: inf
ROOT
ATOM      1  C   UNL A   1      31.407  29.039  25.800  1.00  0.00     0.002 C 
ENDROOT
BRANCH   1   2
ATOM      2  C   UNL A   1      31.435  28.106  27.015  1.00  0.00     0.021 C 
BRANCH   2   3
ATOM      3  C   UNL A   1      31.511  26.629  26.632  1.00  0.00     0.116 C 
BRANCH   3   4
ATOM      4  N   UNL A   1      32.886  26.203  26.493  1.00  0.00    -0.356 N 
ATOM      5  C   UNL A   1      33.502  25.619  25.429  1.00  0.00     0.224 C 
ATOM      6  O   UNL A   1      34.699  25.349  25.550  1.00  0.00    -0.275 OA
ATOM      7  H   UNL A   1      33.458  26.357  27.280  1.00  0.00     0.163 HD
BRANCH   5   8
ATOM      8  C   UNL A   1      32.724  25.349  24.142  1.00  0.00     0.098 C 
ATOM      9  C   UNL A   1      33.588  24.644  23.012  1.00  0.00     0.099 C 
ATOM     10  C   UNL A   1      33.507  25.688  21.866  1.00  0.00     0.025 C 
ATOM     11  C   UNL A   1      32.335  26.698  23.471  1.00  0.00     0.025 C 
ATOM     12  C   UNL A   1      32.091  25.802  21.368  1.00  0.00    -0.027 C 
ATOM     13  C   UNL A   1      33.590  27.002  22.651  1.00  0.00     0.017 C 
ATOM     14  C   UNL A   1      31.384  26.408  22.331  1.00  0.00    -0.027 C 
BRANCH   9  15
ATOM     15  C   UNL A   1      33.089  23.223  22.692  1.00  0.00     0.228 C 
ATOM     16  N   UNL A   1      32.580  22.351  23.615  1.00  0.00    -0.326 N 
ATOM     17  H   UNL A   1      31.942  21.689  23.262  1.00  0.00     0.169 HD
ATOM     18  O   UNL A   1      33.078  22.801  21.529  1.00  0.00    -0.274 OA
BRANCH  16  19
ATOM     19  C   UNL A   1      32.836  22.262  24.989  1.00  0.00     0.044 A 
ATOM     20  C   UNL A   1      34.123  21.871  25.440  1.00  0.00    -0.022 A 
ATOM     21  C   UNL A   1      34.415  22.125  26.797  1.00  0.00     0.006 A 
ATOM     22  C   UNL A   1      33.441  22.581  27.690  1.00  0.00     0.000 A 
ATOM     23  C   UNL A   1      31.838  22.596  25.909  1.00  0.00     0.026 A 
ATOM     24  C   UNL A   1      32.137  22.756  27.258  1.00  0.00     0.002 A 
BRANCH  20  25
ATOM     25  C   UNL A   1      35.123  21.072  24.573  1.00  0.00     0.018 C 
ATOM     26  C   UNL A   1      35.071  19.547  24.821  1.00  0.00     0.013 C 
BRANCH  25  27
ATOM     27  C   UNL A   1      36.607  21.520  24.606  1.00  0.00     0.005 C 
ATOM     28  C   UNL A   1      36.788  22.944  24.066  1.00  0.00     0.004 C 
ENDBRANCH  25  27
ENDBRANCH  20  25
ENDBRANCH  16  19
ENDBRANCH   9  15
ENDBRANCH   5   8
ENDBRANCH   3   4
ENDBRANCH   2   3
ENDBRANCH   1   2
BRANCH   1  29
ATOM     29  C   UNL A   1      32.632  29.954  25.671  1.00  0.00     0.002 C 
BRANCH  29  30
ATOM     30  C   UNL A   1      33.983  29.239  25.756  1.00  0.00     0.021 C 
BRANCH  30  31
ATOM     31  C   UNL A   1      34.747  29.483  27.055  1.00  0.00     0.116 C 
BRANCH  31  32
ATOM     32  N   UNL A   1      34.415  30.775  27.633  1.00  0.00    -0.352 N 
ATOM     33  C   UNL A   1      34.976  31.420  28.703  1.00  0.00     0.251 C 
ATOM     34  H   UNL A   1      33.680  31.256  27.190  1.00  0.00     0.163 HD
ATOM     35  O   UNL A   1      34.405  32.385  29.201  1.00  0.00    -0.269 OA
BRANCH  33  36
ATOM     36  C   UNL A   1      36.266  30.953  29.256  1.00  0.00     0.039 A 
ATOM     37  C   UNL A   1      36.267  29.874  30.145  1.00  0.00     0.014 A 
ATOM     38  C   UNL A   1      37.462  31.603  28.937  1.00  0.00     0.014 A 
ATOM     39  C   UNL A   1      37.473  29.427  30.686  1.00  0.00     0.010 A 
ATOM     40  C   UNL A   1      38.670  31.113  29.425  1.00  0.00     0.010 A 
ATOM     41  C   UNL A   1      38.687  30.032  30.317  1.00  0.00    -0.014 A 
BRANCH  41  42
ATOM     42  C   UNL A   1      39.977  29.548  30.871  1.00  0.00     0.031 A 
ATOM     43  C   UNL A   1      40.571  30.202  32.090  1.00  0.00     0.074 A 
ATOM     44  C   UNL A   1      40.632  28.547  30.252  1.00  0.00     0.049 A 
ATOM     45  N   UNL A   1      41.691  29.927  32.710  1.00  0.00    -0.248 NA
ATOM     46  C   UNL A   1      39.824  31.328  32.676  1.00  0.00     0.031 C 
ATOM     47  C   UNL A   1      40.182  27.865  29.036  1.00  0.00     0.029 A 
ATOM     48  N   UNL A   1      41.816  27.927  30.561  1.00  0.00    -0.354 N 
ATOM     49  C   UNL A   1      41.790  30.852  33.744  1.00  0.00     0.074 A 
ATOM     50  C   UNL A   1      40.643  31.726  33.639  1.00  0.00     0.031 C 
ATOM     51  C   UNL A   1      41.064  26.903  28.720  1.00  0.00     0.029 A 
ATOM     52  C   UNL A   1      42.155  26.920  29.689  1.00  0.00     0.049 A 
ATOM     53  H   UNL A   1      42.371  28.178  31.334  1.00  0.00     0.167 HD
ATOM     54  C   UNL A   1      42.740  30.950  34.704  1.00  0.00     0.031 A 
ATOM     55  C   UNL A   1      43.223  26.099  29.671  1.00  0.00     0.031 A 
ATOM     56  C   UNL A   1      43.870  30.067  34.815  1.00  0.00     0.049 A 
ATOM     57  C   UNL A   1      44.251  26.214  30.762  1.00  0.00     0.074 A 
ATOM     58  C   UNL A   1      44.857  30.048  35.785  1.00  0.00     0.029 A 
ATOM     59  N   UNL A   1      44.164  29.043  33.926  1.00  0.00    -0.354 N 
ATOM     60  N   UNL A   1      44.292  27.053  31.771  1.00  0.00    -0.248 NA
ATOM     61  C   UNL A   1      45.366  25.258  30.726  1.00  0.00     0.031 C 
ATOM     62  C   UNL A   1      45.772  29.042  35.458  1.00  0.00     0.029 A 
ATOM     63  C   UNL A   1      45.325  28.398  34.316  1.00  0.00     0.049 A 
ATOM     64  H   UNL A   1      43.626  28.811  33.135  1.00  0.00     0.167 HD
ATOM     65  C   UNL A   1      45.420  26.705  32.505  1.00  0.00     0.074 A 
ATOM     66  C   UNL A   1      46.024  25.572  31.833  1.00  0.00     0.031 C 
ATOM     67  C   UNL A   1      45.913  27.272  33.635  1.00  0.00     0.031 A 
BRANCH  54  68
ATOM     68  C   UNL A   1      42.596  32.059  35.716  1.00  0.00    -0.014 A 
ATOM     69  C   UNL A   1      43.199  33.313  35.510  1.00  0.00     0.010 A 
ATOM     70  C   UNL A   1      41.810  31.859  36.865  1.00  0.00     0.010 A 
ATOM     71  C   UNL A   1      43.053  34.333  36.454  1.00  0.00     0.020 A 
ATOM     72  C   UNL A   1      41.639  32.886  37.798  1.00  0.00     0.020 A 
ATOM     73  C   UNL A   1      42.275  34.112  37.594  1.00  0.00     0.054 A 
BRANCH  73  74
ATOM     74  S   UNL A   1      42.079  35.462  38.790  1.00  0.00     0.124 S 
ATOM     75  O   UNL A   1      40.986  36.231  38.199  1.00  0.00    -0.237 OA
ATOM     76  O   UNL A   1      41.752  34.753  40.024  1.00  0.00    -0.237 OA
ATOM     77  O   UNL A   1      43.382  36.124  38.781  1.00  0.00    -0.744 OA
ENDBRANCH  73  74
ENDBRANCH  54  68
BRANCH  55  78
ATOM     78  C   UNL A   1      43.358  25.078  28.597  1.00  0.00    -0.014 A 
ATOM     79  C   UNL A   1      44.069  25.368  27.419  1.00  0.00     0.010 A 
ATOM     80  C   UNL A   1      42.784  23.803  28.753  1.00  0.00     0.010 A 
ATOM     81  C   UNL A   1      44.183  24.411  26.407  1.00  0.00     0.020 A 
ATOM     82  C   UNL A   1      42.920  22.834  27.755  1.00  0.00     0.020 A 
ATOM     83  C   UNL A   1      43.608  23.149  26.582  1.00  0.00     0.054 A 
BRANCH  83  84
ATOM     84  S   UNL A   1      43.808  21.907  25.275  1.00  0.00     0.124 S 
ATOM     85  O   UNL A   1      45.175  21.447  25.499  1.00  0.00    -0.237 OA
ATOM     86  O   UNL A   1      42.756  20.944  25.590  1.00  0.00    -0.237 OA
ATOM     87  O   UNL A   1      43.595  22.668  24.046  1.00  0.00    -0.744 OA
ENDBRANCH  83  84
ENDBRANCH  55  78
BRANCH  67  88
ATOM     88  C   UNL A   1      47.142  26.648  34.238  1.00  0.00    -0.014 A 
ATOM     89  C   UNL A   1      48.431  27.095  33.898  1.00  0.00     0.010 A 
ATOM     90  C   UNL A   1      47.000  25.620  35.188  1.00  0.00     0.010 A 
ATOM     91  C   UNL A   1      49.559  26.493  34.465  1.00  0.00     0.020 A 
ATOM     92  C   UNL A   1      48.123  25.035  35.777  1.00  0.00     0.020 A 
ATOM     93  C   UNL A   1      49.398  25.463  35.397  1.00  0.00     0.054 A 
BRANCH  93  94
ATOM     94  S   UNL A   1      50.874  24.712  36.135  1.00  0.00     0.124 S 
ATOM     95  O   UNL A   1      51.561  25.875  36.689  1.00  0.00    -0.237 OA
ATOM     96  O   UNL A   1      50.308  23.789  37.116  1.00  0.00    -0.237 OA
ATOM     97  O   UNL A   1      51.541  24.074  35.001  1.00  0.00    -0.744 OA
ENDBRANCH  93  94
ENDBRANCH  67  88
ENDBRANCH  41  42
ENDBRANCH  33  36
ENDBRANCH  31  32
ENDBRANCH  30  31
ENDBRANCH  29  30
ENDBRANCH   1  29
TORSDOF 20
ENDMDL
