MODEL 1
REMARK VINA RESULT:     -10.3      0.000      0.000
REMARK SMILES Cc1nonc1-c1noc(CCC(=O)NCCCCCCNC(=O)c2ccc(-c3c4nc(c(-c5ccc(S(=O)(=O)[O-])cc5)c5ccc([nH]5)c(-c5ccc(S(=O)(=O)[O-])cc5)c5nc(c(-c6ccc(S(=O)(=O)[O-])cc6)c6ccc3[nH]6)C=C5)C=C4)cc2)n1
REMARK SMILES IDX 18 1 17 2 16 3 15 4 13 5 14 6 12 8 11 9 10 10 7 11 8 12
REMARK SMILES IDX 85 13 9 14 6 15 1 16 2 17 3 18 4 19 5 20 19 21 20 22 21 23
REMARK SMILES IDX 22 24 23 25 24 27 25 28 26 29 84 30 27 31 83 32 28 33 29 34
REMARK SMILES IDX 30 35 77 36 31 37 82 38 76 39 78 40 32 41 81 42 75 43 74 44
REMARK SMILES IDX 33 46 63 47 44 48 62 49 45 50 48 51 61 52 79 53 46 54 47 55
REMARK SMILES IDX 60 57 80 58 49 59 34 60 35 61 43 62 36 63 42 64 37 65 38 66
REMARK SMILES IDX 39 67 40 68 41 69 64 70 65 71 73 72 66 73 72 74 67 75 68 76
REMARK SMILES IDX 69 77 70 78 71 79 50 80 51 81 59 82 52 83 58 84 53 85 54 86
REMARK SMILES IDX 55 87 56 88 57 89
REMARK H PARENT 15 7 22 26 78 45 48 56
REMARK Flexibility Score: inf
ROOT
ATOM      1  C   UNL A   1      33.480  25.277  25.794  1.00  0.00     0.002 C 
ENDROOT
BRANCH   1   2
ATOM      2  C   UNL A   1      33.948  26.676  26.204  1.00  0.00     0.021 C 
BRANCH   2   3
ATOM      3  C   UNL A   1      34.044  27.663  25.040  1.00  0.00     0.116 C 
BRANCH   3   4
ATOM      4  N   UNL A   1      33.355  28.900  25.366  1.00  0.00    -0.356 N 
ATOM      5  C   UNL A   1      32.025  29.148  25.489  1.00  0.00     0.220 C 
ATOM      6  O   UNL A   1      31.653  30.307  25.678  1.00  0.00    -0.275 OA
ATOM      7  H   UNL A   1      33.941  29.675  25.523  1.00  0.00     0.163 HD
BRANCH   5   8
ATOM      8  C   UNL A   1      31.015  28.028  25.376  1.00  0.00     0.110 C 
BRANCH   8   9
ATOM      9  C   UNL A   1      30.648  27.755  23.923  1.00  0.00     0.110 C 
BRANCH   9  10
ATOM     10  C   UNL A   1      29.670  28.728  23.383  1.00  0.00     0.227 A 
ATOM     11  C   UNL A   1      28.594  30.348  22.601  1.00  0.00     0.226 A 
ATOM     12  N   UNL A   1      27.716  29.336  22.542  1.00  0.00    -0.055 NA
ATOM     13  N   UNL A   1      29.820  30.006  23.122  1.00  0.00    -0.190 NA
ATOM     14  O   UNL A   1      28.431  28.256  23.062  1.00  0.00    -0.339 OA
BRANCH  11  15
ATOM     15  C   UNL A   1      28.300  31.727  22.224  1.00  0.00     0.178 A 
ATOM     16  C   UNL A   1      27.741  31.483  19.667  1.00  0.00     0.073 C 
ATOM     17  C   UNL A   1      27.909  32.188  20.955  1.00  0.00     0.113 A 
ATOM     18  N   UNL A   1      27.704  33.508  21.017  1.00  0.00    -0.054 NA
ATOM     19  O   UNL A   1      27.994  33.864  22.329  1.00  0.00    -0.244 OA
ATOM     20  N   UNL A   1      28.357  32.751  23.082  1.00  0.00    -0.046 NA
ENDBRANCH  11  15
ENDBRANCH   9  10
ENDBRANCH   8   9
ENDBRANCH   5   8
ENDBRANCH   3   4
ENDBRANCH   2   3
ENDBRANCH   1   2
BRANCH   1  21
ATOM     21  C   UNL A   1      34.411  24.539  24.823  1.00  0.00     0.002 C 
BRANCH  21  22
ATOM     22  C   UNL A   1      35.461  23.628  25.471  1.00  0.00     0.021 C 
BRANCH  22  23
ATOM     23  C   UNL A   1      36.891  23.821  24.971  1.00  0.00     0.116 C 
BRANCH  23  24
ATOM     24  N   UNL A   1      37.781  22.770  25.437  1.00  0.00    -0.352 N 
ATOM     25  C   UNL A   1      38.936  22.863  26.171  1.00  0.00     0.251 C 
ATOM     26  H   UNL A   1      37.515  21.856  25.189  1.00  0.00     0.163 HD
ATOM     27  O   UNL A   1      39.653  21.871  26.304  1.00  0.00    -0.269 OA
BRANCH  25  28
ATOM     28  C   UNL A   1      39.332  24.146  26.791  1.00  0.00     0.039 A 
ATOM     29  C   UNL A   1      38.917  24.416  28.099  1.00  0.00     0.014 A 
ATOM     30  C   UNL A   1      40.076  25.095  26.084  1.00  0.00     0.014 A 
ATOM     31  C   UNL A   1      39.291  25.613  28.714  1.00  0.00     0.010 A 
ATOM     32  C   UNL A   1      40.495  26.265  26.716  1.00  0.00     0.010 A 
ATOM     33  C   UNL A   1      40.101  26.537  28.036  1.00  0.00    -0.014 A 
BRANCH  33  34
ATOM     34  C   UNL A   1      40.544  27.795  28.690  1.00  0.00     0.031 A 
ATOM     35  C   UNL A   1      41.924  27.896  29.279  1.00  0.00     0.074 A 
ATOM     36  C   UNL A   1      39.686  28.827  28.802  1.00  0.00     0.049 A 
ATOM     37  N   UNL A   1      42.469  28.885  29.939  1.00  0.00    -0.248 NA
ATOM     38  C   UNL A   1      42.800  26.723  29.122  1.00  0.00     0.031 C 
ATOM     39  C   UNL A   1      38.311  28.843  28.299  1.00  0.00     0.029 A 
ATOM     40  N   UNL A   1      39.841  30.059  29.386  1.00  0.00    -0.354 N 
ATOM     41  C   UNL A   1      43.741  28.452  30.293  1.00  0.00     0.074 A 
ATOM     42  C   UNL A   1      43.874  27.096  29.803  1.00  0.00     0.031 C 
ATOM     43  C   UNL A   1      37.756  30.033  28.579  1.00  0.00     0.029 A 
ATOM     44  C   UNL A   1      38.720  30.849  29.311  1.00  0.00     0.049 A 
ATOM     45  H   UNL A   1      40.678  30.349  29.817  1.00  0.00     0.167 HD
ATOM     46  C   UNL A   1      44.714  29.123  30.954  1.00  0.00     0.031 A 
ATOM     47  C   UNL A   1      38.490  32.089  29.785  1.00  0.00     0.031 A 
ATOM     48  C   UNL A   1      44.584  30.474  31.433  1.00  0.00     0.049 A 
ATOM     49  C   UNL A   1      39.583  32.814  30.517  1.00  0.00     0.074 A 
ATOM     50  C   UNL A   1      45.531  31.255  32.072  1.00  0.00     0.029 A 
ATOM     51  N   UNL A   1      43.437  31.244  31.326  1.00  0.00    -0.354 N 
ATOM     52  N   UNL A   1      40.796  32.404  30.798  1.00  0.00    -0.248 NA
ATOM     53  C   UNL A   1      39.278  34.172  30.987  1.00  0.00     0.031 C 
ATOM     54  C   UNL A   1      44.943  32.487  32.385  1.00  0.00     0.029 A 
ATOM     55  C   UNL A   1      43.644  32.486  31.902  1.00  0.00     0.049 A 
ATOM     56  H   UNL A   1      42.598  30.950  30.903  1.00  0.00     0.167 HD
ATOM     57  C   UNL A   1      41.409  33.464  31.459  1.00  0.00     0.074 A 
ATOM     58  C   UNL A   1      40.435  34.535  31.526  1.00  0.00     0.031 C 
ATOM     59  C   UNL A   1      42.666  33.541  31.962  1.00  0.00     0.031 A 
BRANCH  46  60
ATOM     60  C   UNL A   1      46.006  28.393  31.205  1.00  0.00    -0.014 A 
ATOM     61  C   UNL A   1      46.998  28.310  30.210  1.00  0.00     0.010 A 
ATOM     62  C   UNL A   1      46.239  27.794  32.456  1.00  0.00     0.010 A 
ATOM     63  C   UNL A   1      48.177  27.599  30.446  1.00  0.00     0.020 A 
ATOM     64  C   UNL A   1      47.429  27.104  32.703  1.00  0.00     0.020 A 
ATOM     65  C   UNL A   1      48.382  26.992  31.688  1.00  0.00     0.054 A 
BRANCH  65  66
ATOM     66  S   UNL A   1      49.919  26.073  31.969  1.00  0.00     0.124 S 
ATOM     67  O   UNL A   1      49.623  25.365  33.212  1.00  0.00    -0.237 OA
ATOM     68  O   UNL A   1      50.019  25.234  30.777  1.00  0.00    -0.237 OA
ATOM     69  O   UNL A   1      50.933  27.120  32.076  1.00  0.00    -0.744 OA
ENDBRANCH  65  66
ENDBRANCH  46  60
BRANCH  47  70
ATOM     70  C   UNL A   1      37.167  32.729  29.557  1.00  0.00    -0.014 A 
ATOM     71  C   UNL A   1      36.167  32.660  30.543  1.00  0.00     0.010 A 
ATOM     72  C   UNL A   1      36.913  33.437  28.369  1.00  0.00     0.010 A 
ATOM     73  C   UNL A   1      34.931  33.280  30.341  1.00  0.00     0.020 A 
ATOM     74  C   UNL A   1      35.685  34.076  28.173  1.00  0.00     0.020 A 
ATOM     75  C   UNL A   1      34.698  33.987  29.157  1.00  0.00     0.054 A 
BRANCH  75  76
ATOM     76  S   UNL A   1      33.112  34.841  28.943  1.00  0.00     0.124 S 
ATOM     77  O   UNL A   1      32.430  33.978  27.984  1.00  0.00    -0.237 OA
ATOM     78  O   UNL A   1      32.564  34.839  30.297  1.00  0.00    -0.237 OA
ATOM     79  O   UNL A   1      33.499  36.157  28.439  1.00  0.00    -0.744 OA
ENDBRANCH  75  76
ENDBRANCH  47  70
BRANCH  59  80
ATOM     80  C   UNL A   1      43.071  34.839  32.605  1.00  0.00    -0.014 A 
ATOM     81  C   UNL A   1      43.654  35.872  31.852  1.00  0.00     0.010 A 
ATOM     82  C   UNL A   1      42.814  35.045  33.974  1.00  0.00     0.010 A 
ATOM     83  C   UNL A   1      43.999  37.081  32.462  1.00  0.00     0.020 A 
ATOM     84  C   UNL A   1      43.138  36.260  34.581  1.00  0.00     0.020 A 
ATOM     85  C   UNL A   1      43.742  37.266  33.824  1.00  0.00     0.054 A 
BRANCH  85  86
ATOM     86  S   UNL A   1      44.155  38.860  34.585  1.00  0.00     0.124 S 
ATOM     87  O   UNL A   1      45.498  39.104  34.068  1.00  0.00    -0.237 OA
ATOM     88  O   UNL A   1      43.113  39.744  34.071  1.00  0.00    -0.237 OA
ATOM     89  O   UNL A   1      44.078  38.588  36.019  1.00  0.00    -0.744 OA
ENDBRANCH  85  86
ENDBRANCH  59  80
ENDBRANCH  33  34
ENDBRANCH  25  28
ENDBRANCH  23  24
ENDBRANCH  22  23
ENDBRANCH  21  22
ENDBRANCH   1  21
TORSDOF 19
ENDMDL
MODEL 2
REMARK VINA RESULT:      -9.9      5.074      7.472
REMARK SMILES Cc1nonc1-c1noc(CCC(=O)NCCCCCCNC(=O)c2ccc(-c3c4nc(c(-c5ccc(S(=O)(=O)[O-])cc5)c5ccc([nH]5)c(-c5ccc(S(=O)(=O)[O-])cc5)c5nc(c(-c6ccc(S(=O)(=O)[O-])cc6)c6ccc3[nH]6)C=C5)C=C4)cc2)n1
REMARK SMILES IDX 18 1 17 2 16 3 15 4 13 5 14 6 12 8 11 9 10 10 7 11 8 12
REMARK SMILES IDX 85 13 9 14 6 15 1 16 2 17 3 18 4 19 5 20 19 21 20 22 21 23
REMARK SMILES IDX 22 24 23 25 24 27 25 28 26 29 84 30 27 31 83 32 28 33 29 34
REMARK SMILES IDX 30 35 77 36 31 37 82 38 76 39 78 40 32 41 81 42 75 43 74 44
REMARK SMILES IDX 33 46 63 47 44 48 62 49 45 50 48 51 61 52 79 53 46 54 47 55
REMARK SMILES IDX 60 57 80 58 49 59 34 60 35 61 43 62 36 63 42 64 37 65 38 66
REMARK SMILES IDX 39 67 40 68 41 69 64 70 65 71 73 72 66 73 72 74 67 75 68 76
REMARK SMILES IDX 69 77 70 78 71 79 50 80 51 81 59 82 52 83 58 84 53 85 54 86
REMARK SMILES IDX 55 87 56 88 57 89
REMARK H PARENT 15 7 22 26 78 45 48 56
REMARK Flexibility Score: inf
ROOT
ATOM      1  C   UNL A   1      37.615  23.131  25.478  1.00  0.00     0.002 C 
ENDROOT
BRANCH   1   2
ATOM      2  C   UNL A   1      36.253  23.534  26.051  1.00  0.00     0.021 C 
BRANCH   2   3
ATOM      3  C   UNL A   1      35.375  24.311  25.070  1.00  0.00     0.116 C 
BRANCH   3   4
ATOM      4  N   UNL A   1      34.159  24.761  25.725  1.00  0.00    -0.356 N 
ATOM      5  C   UNL A   1      32.861  24.484  25.434  1.00  0.00     0.220 C 
ATOM      6  O   UNL A   1      31.976  25.059  26.069  1.00  0.00    -0.275 OA
ATOM      7  H   UNL A   1      34.296  25.356  26.497  1.00  0.00     0.163 HD
BRANCH   5   8
ATOM      8  C   UNL A   1      32.504  23.504  24.339  1.00  0.00     0.110 C 
BRANCH   8   9
ATOM      9  C   UNL A   1      31.688  22.338  24.882  1.00  0.00     0.110 C 
BRANCH   9  10
ATOM     10  C   UNL A   1      32.453  21.069  24.923  1.00  0.00     0.227 A 
ATOM     11  C   UNL A   1      33.182  19.105  24.951  1.00  0.00     0.226 A 
ATOM     12  N   UNL A   1      34.294  19.845  24.841  1.00  0.00    -0.055 NA
ATOM     13  N   UNL A   1      32.017  19.834  25.007  1.00  0.00    -0.190 NA
ATOM     14  O   UNL A   1      33.811  21.155  24.822  1.00  0.00    -0.339 OA
BRANCH  11  15
ATOM     15  C   UNL A   1      33.160  17.650  25.076  1.00  0.00     0.178 A 
ATOM     16  C   UNL A   1      34.231  16.895  22.797  1.00  0.00     0.073 C 
ATOM     17  C   UNL A   1      33.642  16.718  24.141  1.00  0.00     0.113 A 
ATOM     18  N   UNL A   1      33.471  15.485  24.630  1.00  0.00    -0.054 NA
ATOM     19  O   UNL A   1      32.857  15.661  25.864  1.00  0.00    -0.244 OA
ATOM     20  N   UNL A   1      32.672  17.012  26.144  1.00  0.00    -0.046 NA
ENDBRANCH  11  15
ENDBRANCH   9  10
ENDBRANCH   8   9
ENDBRANCH   5   8
ENDBRANCH   3   4
ENDBRANCH   2   3
ENDBRANCH   1   2
BRANCH   1  21
ATOM     21  C   UNL A   1      37.872  21.620  25.415  1.00  0.00     0.002 C 
BRANCH  21  22
ATOM     22  C   UNL A   1      39.342  21.190  25.493  1.00  0.00     0.021 C 
BRANCH  22  23
ATOM     23  C   UNL A   1      39.666  20.158  26.570  1.00  0.00     0.116 C 
BRANCH  23  24
ATOM     24  N   UNL A   1      40.775  19.299  26.191  1.00  0.00    -0.352 N 
ATOM     25  C   UNL A   1      42.081  19.622  25.923  1.00  0.00     0.251 C 
ATOM     26  H   UNL A   1      40.556  18.343  26.114  1.00  0.00     0.163 HD
ATOM     27  O   UNL A   1      42.827  18.776  25.431  1.00  0.00    -0.269 OA
BRANCH  25  28
ATOM     28  C   UNL A   1      42.594  20.979  26.210  1.00  0.00     0.039 A 
ATOM     29  C   UNL A   1      42.820  21.853  25.141  1.00  0.00     0.014 A 
ATOM     30  C   UNL A   1      42.888  21.382  27.516  1.00  0.00     0.014 A 
ATOM     31  C   UNL A   1      43.289  23.145  25.386  1.00  0.00     0.010 A 
ATOM     32  C   UNL A   1      43.304  22.690  27.765  1.00  0.00     0.010 A 
ATOM     33  C   UNL A   1      43.514  23.581  26.701  1.00  0.00    -0.014 A 
BRANCH  33  34
ATOM     34  C   UNL A   1      43.971  24.966  26.983  1.00  0.00     0.031 A 
ATOM     35  C   UNL A   1      45.410  25.346  26.771  1.00  0.00     0.074 A 
ATOM     36  C   UNL A   1      43.102  25.867  27.481  1.00  0.00     0.049 A 
ATOM     37  N   UNL A   1      46.007  26.484  27.015  1.00  0.00    -0.248 NA
ATOM     38  C   UNL A   1      46.298  24.305  26.230  1.00  0.00     0.031 C 
ATOM     39  C   UNL A   1      41.687  25.614  27.760  1.00  0.00     0.029 A 
ATOM     40  N   UNL A   1      43.286  27.175  27.852  1.00  0.00    -0.354 N 
ATOM     41  C   UNL A   1      47.342  26.293  26.678  1.00  0.00     0.074 A 
ATOM     42  C   UNL A   1      47.473  24.918  26.243  1.00  0.00     0.031 C 
ATOM     43  C   UNL A   1      41.128  26.736  28.240  1.00  0.00     0.029 A 
ATOM     44  C   UNL A   1      42.149  27.775  28.337  1.00  0.00     0.049 A 
ATOM     45  H   UNL A   1      44.150  27.640  27.778  1.00  0.00     0.167 HD
ATOM     46  C   UNL A   1      48.363  27.182  26.714  1.00  0.00     0.031 A 
ATOM     47  C   UNL A   1      41.950  29.020  28.812  1.00  0.00     0.031 A 
ATOM     48  C   UNL A   1      48.231  28.551  27.138  1.00  0.00     0.049 A 
ATOM     49  C   UNL A   1      43.097  29.989  28.846  1.00  0.00     0.074 A 
ATOM     50  C   UNL A   1      49.198  29.541  27.166  1.00  0.00     0.029 A 
ATOM     51  N   UNL A   1      47.059  29.123  27.609  1.00  0.00    -0.354 N 
ATOM     52  N   UNL A   1      44.342  29.803  28.476  1.00  0.00    -0.248 NA
ATOM     53  C   UNL A   1      42.812  31.338  29.351  1.00  0.00     0.031 C 
ATOM     54  C   UNL A   1      48.618  30.704  27.688  1.00  0.00     0.029 A 
ATOM     55  C   UNL A   1      47.281  30.448  27.946  1.00  0.00     0.049 A 
ATOM     56  H   UNL A   1      46.197  28.656  27.692  1.00  0.00     0.167 HD
ATOM     57  C   UNL A   1      44.983  31.019  28.683  1.00  0.00     0.074 A 
ATOM     58  C   UNL A   1      43.987  31.935  29.201  1.00  0.00     0.031 C 
ATOM     59  C   UNL A   1      46.280  31.346  28.462  1.00  0.00     0.031 A 
BRANCH  46  60
ATOM     60  C   UNL A   1      49.721  26.689  26.291  1.00  0.00    -0.014 A 
ATOM     61  C   UNL A   1      50.197  26.908  24.985  1.00  0.00     0.010 A 
ATOM     62  C   UNL A   1      50.539  26.013  27.214  1.00  0.00     0.010 A 
ATOM     63  C   UNL A   1      51.445  26.415  24.596  1.00  0.00     0.020 A 
ATOM     64  C   UNL A   1      51.798  25.539  26.835  1.00  0.00     0.020 A 
ATOM     65  C   UNL A   1      52.234  25.725  25.521  1.00  0.00     0.054 A 
BRANCH  65  66
ATOM     66  S   UNL A   1      53.849  25.092  24.992  1.00  0.00     0.124 S 
ATOM     67  O   UNL A   1      54.017  25.744  23.696  1.00  0.00    -0.237 OA
ATOM     68  O   UNL A   1      54.743  25.558  26.050  1.00  0.00    -0.237 OA
ATOM     69  O   UNL A   1      53.653  23.645  24.940  1.00  0.00    -0.744 OA
ENDBRANCH  65  66
ENDBRANCH  46  60
BRANCH  47  70
ATOM     70  C   UNL A   1      40.596  29.423  29.275  1.00  0.00    -0.014 A 
ATOM     71  C   UNL A   1      40.343  29.615  30.645  1.00  0.00     0.010 A 
ATOM     72  C   UNL A   1      39.563  29.646  28.348  1.00  0.00     0.010 A 
ATOM     73  C   UNL A   1      39.077  30.016  31.081  1.00  0.00     0.020 A 
ATOM     74  C   UNL A   1      38.301  30.068  28.779  1.00  0.00     0.020 A 
ATOM     75  C   UNL A   1      38.064  30.242  30.144  1.00  0.00     0.054 A 
BRANCH  75  76
ATOM     76  S   UNL A   1      36.447  30.827  30.725  1.00  0.00     0.124 S 
ATOM     77  O   UNL A   1      36.027  29.738  31.600  1.00  0.00    -0.237 OA
ATOM     78  O   UNL A   1      36.784  32.081  31.393  1.00  0.00    -0.237 OA
ATOM     79  O   UNL A   1      35.677  30.976  29.493  1.00  0.00    -0.744 OA
ENDBRANCH  75  76
ENDBRANCH  47  70
BRANCH  59  80
ATOM     80  C   UNL A   1      46.692  32.763  28.751  1.00  0.00    -0.014 A 
ATOM     81  C   UNL A   1      47.196  33.131  30.011  1.00  0.00     0.010 A 
ATOM     82  C   UNL A   1      46.620  33.729  27.730  1.00  0.00     0.010 A 
ATOM     83  C   UNL A   1      47.598  34.447  30.253  1.00  0.00     0.020 A 
ATOM     84  C   UNL A   1      47.042  35.040  27.962  1.00  0.00     0.020 A 
ATOM     85  C   UNL A   1      47.515  35.394  29.228  1.00  0.00     0.054 A 
BRANCH  85  86
ATOM     86  S   UNL A   1      48.086  37.086  29.550  1.00  0.00     0.124 S 
ATOM     87  O   UNL A   1      48.901  36.909  30.747  1.00  0.00    -0.237 OA
ATOM     88  O   UNL A   1      48.820  37.417  28.331  1.00  0.00    -0.237 OA
ATOM     89  O   UNL A   1      46.847  37.837  29.743  1.00  0.00    -0.744 OA
ENDBRANCH  85  86
ENDBRANCH  59  80
ENDBRANCH  33  34
ENDBRANCH  25  28
ENDBRANCH  23  24
ENDBRANCH  22  23
ENDBRANCH  21  22
ENDBRANCH   1  21
TORSDOF 19
ENDMDL
MODEL 3
REMARK VINA RESULT:      -9.7      4.283      8.100
REMARK SMILES Cc1nonc1-c1noc(CCC(=O)NCCCCCCNC(=O)c2ccc(-c3c4nc(c(-c5ccc(S(=O)(=O)[O-])cc5)c5ccc([nH]5)c(-c5ccc(S(=O)(=O)[O-])cc5)c5nc(c(-c6ccc(S(=O)(=O)[O-])cc6)c6ccc3[nH]6)C=C5)C=C4)cc2)n1
REMARK SMILES IDX 18 1 17 2 16 3 15 4 13 5 14 6 12 8 11 9 10 10 7 11 8 12
REMARK SMILES IDX 85 13 9 14 6 15 1 16 2 17 3 18 4 19 5 20 19 21 20 22 21 23
REMARK SMILES IDX 22 24 23 25 24 27 25 28 26 29 84 30 27 31 83 32 28 33 29 34
REMARK SMILES IDX 30 35 77 36 31 37 82 38 76 39 78 40 32 41 81 42 75 43 74 44
REMARK SMILES IDX 33 46 63 47 44 48 62 49 45 50 48 51 61 52 79 53 46 54 47 55
REMARK SMILES IDX 60 57 80 58 49 59 34 60 35 61 43 62 36 63 42 64 37 65 38 66
REMARK SMILES IDX 39 67 40 68 41 69 64 70 65 71 73 72 66 73 72 74 67 75 68 76
REMARK SMILES IDX 69 77 70 78 71 79 50 80 51 81 59 82 52 83 58 84 53 85 54 86
REMARK SMILES IDX 55 87 56 88 57 89
REMARK H PARENT 15 7 22 26 78 45 48 56
REMARK Flexibility Score: inf
ROOT
ATOM      1  C   UNL A   1      32.149  27.869  26.214  1.00  0.00     0.002 C 
ENDROOT
BRANCH   1   2
ATOM      2  C   UNL A   1      30.891  27.094  26.616  1.00  0.00     0.021 C 
BRANCH   2   3
ATOM      3  C   UNL A   1      30.561  25.925  25.687  1.00  0.00     0.116 C 
BRANCH   3   4
ATOM      4  N   UNL A   1      29.837  24.892  26.408  1.00  0.00    -0.356 N 
ATOM      5  C   UNL A   1      30.298  23.758  26.997  1.00  0.00     0.220 C 
ATOM      6  O   UNL A   1      29.484  22.966  27.475  1.00  0.00    -0.275 OA
ATOM      7  H   UNL A   1      28.866  25.037  26.482  1.00  0.00     0.163 HD
BRANCH   5   8
ATOM      8  C   UNL A   1      31.779  23.460  27.051  1.00  0.00     0.110 C 
BRANCH   8   9
ATOM      9  C   UNL A   1      32.144  22.294  26.141  1.00  0.00     0.110 C 
BRANCH   9  10
ATOM     10  C   UNL A   1      32.766  22.729  24.868  1.00  0.00     0.227 A 
ATOM     11  C   UNL A   1      33.355  23.608  23.060  1.00  0.00     0.226 A 
ATOM     12  N   UNL A   1      34.376  22.791  23.352  1.00  0.00    -0.055 NA
ATOM     13  N   UNL A   1      32.333  23.593  23.981  1.00  0.00    -0.190 NA
ATOM     14  O   UNL A   1      33.986  22.203  24.557  1.00  0.00    -0.339 OA
BRANCH  11  15
ATOM     15  C   UNL A   1      33.255  24.412  21.845  1.00  0.00     0.178 A 
ATOM     16  C   UNL A   1      33.122  26.851  22.819  1.00  0.00     0.073 C 
ATOM     17  C   UNL A   1      33.181  25.814  21.767  1.00  0.00     0.113 A 
ATOM     18  N   UNL A   1      33.132  26.175  20.480  1.00  0.00    -0.054 NA
ATOM     19  O   UNL A   1      33.152  24.984  19.764  1.00  0.00    -0.244 OA
ATOM     20  N   UNL A   1      33.238  23.887  20.616  1.00  0.00    -0.046 NA
ENDBRANCH  11  15
ENDBRANCH   9  10
ENDBRANCH   8   9
ENDBRANCH   5   8
ENDBRANCH   3   4
ENDBRANCH   2   3
ENDBRANCH   1   2
BRANCH   1  21
ATOM     21  C   UNL A   1      32.699  28.817  27.288  1.00  0.00     0.002 C 
BRANCH  21  22
ATOM     22  C   UNL A   1      32.426  30.309  27.063  1.00  0.00     0.021 C 
BRANCH  22  23
ATOM     23  C   UNL A   1      33.589  31.243  27.392  1.00  0.00     0.116 C 
BRANCH  23  24
ATOM     24  N   UNL A   1      33.139  32.591  27.700  1.00  0.00    -0.352 N 
ATOM     25  C   UNL A   1      33.607  33.477  28.635  1.00  0.00     0.251 C 
ATOM     26  H   UNL A   1      32.386  32.914  27.156  1.00  0.00     0.163 HD
ATOM     27  O   UNL A   1      32.969  34.502  28.874  1.00  0.00    -0.269 OA
BRANCH  25  28
ATOM     28  C   UNL A   1      34.864  33.206  29.366  1.00  0.00     0.039 A 
ATOM     29  C   UNL A   1      34.837  32.314  30.443  1.00  0.00     0.014 A 
ATOM     30  C   UNL A   1      36.056  33.850  29.022  1.00  0.00     0.014 A 
ATOM     31  C   UNL A   1      36.013  32.029  31.140  1.00  0.00     0.010 A 
ATOM     32  C   UNL A   1      37.240  33.523  29.682  1.00  0.00     0.010 A 
ATOM     33  C   UNL A   1      37.228  32.614  30.751  1.00  0.00    -0.014 A 
BRANCH  33  34
ATOM     34  C   UNL A   1      38.496  32.288  31.453  1.00  0.00     0.031 A 
ATOM     35  C   UNL A   1      39.444  31.275  30.873  1.00  0.00     0.074 A 
ATOM     36  C   UNL A   1      38.768  32.864  32.640  1.00  0.00     0.049 A 
ATOM     37  N   UNL A   1      40.565  30.818  31.366  1.00  0.00    -0.248 NA
ATOM     38  C   UNL A   1      39.072  30.686  29.576  1.00  0.00     0.031 C 
ATOM     39  C   UNL A   1      37.917  33.840  33.323  1.00  0.00     0.029 A 
ATOM     40  N   UNL A   1      39.836  32.703  33.487  1.00  0.00    -0.354 N 
ATOM     41  C   UNL A   1      41.025  29.875  30.454  1.00  0.00     0.074 A 
ATOM     42  C   UNL A   1      40.042  29.802  29.394  1.00  0.00     0.031 C 
ATOM     43  C   UNL A   1      38.503  34.203  34.475  1.00  0.00     0.029 A 
ATOM     44  C   UNL A   1      39.752  33.463  34.628  1.00  0.00     0.049 A 
ATOM     45  H   UNL A   1      40.590  32.100  33.295  1.00  0.00     0.167 HD
ATOM     46  C   UNL A   1      42.166  29.145  30.489  1.00  0.00     0.031 A 
ATOM     47  C   UNL A   1      40.583  33.550  35.685  1.00  0.00     0.031 A 
ATOM     48  C   UNL A   1      43.146  29.224  31.539  1.00  0.00     0.049 A 
ATOM     49  C   UNL A   1      41.842  32.730  35.704  1.00  0.00     0.074 A 
ATOM     50  C   UNL A   1      44.356  28.559  31.640  1.00  0.00     0.029 A 
ATOM     51  N   UNL A   1      43.031  30.016  32.671  1.00  0.00    -0.354 N 
ATOM     52  N   UNL A   1      42.283  31.880  34.807  1.00  0.00    -0.248 NA
ATOM     53  C   UNL A   1      42.719  32.888  36.871  1.00  0.00     0.031 C 
ATOM     54  C   UNL A   1      44.956  28.922  32.852  1.00  0.00     0.029 A 
ATOM     55  C   UNL A   1      44.138  29.845  33.485  1.00  0.00     0.049 A 
ATOM     56  H   UNL A   1      42.272  30.611  32.868  1.00  0.00     0.167 HD
ATOM     57  C   UNL A   1      43.501  31.418  35.292  1.00  0.00     0.074 A 
ATOM     58  C   UNL A   1      43.732  32.090  36.555  1.00  0.00     0.031 C 
ATOM     59  C   UNL A   1      44.353  30.519  34.739  1.00  0.00     0.031 A 
BRANCH  46  60
ATOM     60  C   UNL A   1      42.404  28.185  29.354  1.00  0.00    -0.014 A 
ATOM     61  C   UNL A   1      43.055  28.601  28.178  1.00  0.00     0.010 A 
ATOM     62  C   UNL A   1      41.988  26.848  29.470  1.00  0.00     0.010 A 
ATOM     63  C   UNL A   1      43.239  27.709  27.118  1.00  0.00     0.020 A 
ATOM     64  C   UNL A   1      42.192  25.946  28.422  1.00  0.00     0.020 A 
ATOM     65  C   UNL A   1      42.797  26.389  27.243  1.00  0.00     0.054 A 
BRANCH  65  66
ATOM     66  S   UNL A   1      43.045  25.249  25.854  1.00  0.00     0.124 S 
ATOM     67  O   UNL A   1      44.432  24.834  26.051  1.00  0.00    -0.237 OA
ATOM     68  O   UNL A   1      42.040  24.217  26.098  1.00  0.00    -0.237 OA
ATOM     69  O   UNL A   1      42.805  26.082  24.678  1.00  0.00    -0.744 OA
ENDBRANCH  65  66
ENDBRANCH  46  60
BRANCH  47  70
ATOM     70  C   UNL A   1      40.256  34.471  36.805  1.00  0.00    -0.014 A 
ATOM     71  C   UNL A   1      40.757  35.785  36.812  1.00  0.00     0.010 A 
ATOM     72  C   UNL A   1      39.417  34.051  37.852  1.00  0.00     0.010 A 
ATOM     73  C   UNL A   1      40.432  36.660  37.853  1.00  0.00     0.020 A 
ATOM     74  C   UNL A   1      39.073  34.930  38.883  1.00  0.00     0.020 A 
ATOM     75  C   UNL A   1      39.590  36.228  38.881  1.00  0.00     0.054 A 
BRANCH  75  76
ATOM     76  S   UNL A   1      39.126  37.399  40.187  1.00  0.00     0.124 S 
ATOM     77  O   UNL A   1      40.427  37.890  40.630  1.00  0.00    -0.237 OA
ATOM     78  O   UNL A   1      38.298  38.365  39.468  1.00  0.00    -0.237 OA
ATOM     79  O   UNL A   1      38.406  36.569  41.149  1.00  0.00    -0.744 OA
ENDBRANCH  75  76
ENDBRANCH  47  70
BRANCH  59  80
ATOM     80  C   UNL A   1      45.628  30.231  35.482  1.00  0.00    -0.014 A 
ATOM     81  C   UNL A   1      45.708  29.175  36.406  1.00  0.00     0.010 A 
ATOM     82  C   UNL A   1      46.777  30.998  35.212  1.00  0.00     0.010 A 
ATOM     83  C   UNL A   1      46.910  28.906  37.067  1.00  0.00     0.020 A 
ATOM     84  C   UNL A   1      47.985  30.718  35.855  1.00  0.00     0.020 A 
ATOM     85  C   UNL A   1      48.039  29.681  36.789  1.00  0.00     0.054 A 
BRANCH  85  86
ATOM     86  S   UNL A   1      49.601  29.286  37.624  1.00  0.00     0.124 S 
ATOM     87  O   UNL A   1      49.387  29.853  38.952  1.00  0.00    -0.237 OA
ATOM     88  O   UNL A   1      49.640  27.827  37.562  1.00  0.00    -0.237 OA
ATOM     89  O   UNL A   1      50.608  29.963  36.811  1.00  0.00    -0.744 OA
ENDBRANCH  85  86
ENDBRANCH  59  80
ENDBRANCH  33  34
ENDBRANCH  25  28
ENDBRANCH  23  24
ENDBRANCH  22  23
ENDBRANCH  21  22
ENDBRANCH   1  21
TORSDOF 19
ENDMDL
