MODEL 1
REMARK VINA RESULT:     -12.0      0.000      0.000
REMARK SMILES Cc1ccc(Nc2c(F)cccc2Cl)c(CC(=O)NCCCCCCNC(=O)c2ccc(-c3c4nc(c(-c5ccc(S(=O)(=O)[O-])cc5)c5ccc([nH]5)c(-c5ccc(S(=O)(=O)[O-])cc5)c5nc(c(-c6ccc(S(=O)(=O)[O-])cc6)c6ccc3[nH]6)C=C5)C=C4)cc2)c1
REMARK SMILES IDX 22 1 21 2 20 3 19 4 17 5 18 6 16 8 15 9 1 10 2 11 3 12 89 13
REMARK SMILES IDX 4 14 5 15 6 16 7 18 8 19 13 20 9 21 10 22 12 23 14 24 11 25
REMARK SMILES IDX 23 26 24 27 25 28 26 29 27 30 28 32 29 33 30 34 88 35 31 36
REMARK SMILES IDX 87 37 32 38 33 39 34 40 81 41 35 42 86 43 80 44 82 45 36 46
REMARK SMILES IDX 85 47 79 48 78 49 37 51 67 52 48 53 66 54 49 55 52 56 65 57
REMARK SMILES IDX 83 58 50 59 51 60 64 62 84 63 53 64 38 65 39 66 47 67 40 68
REMARK SMILES IDX 46 69 41 70 42 71 43 72 44 73 45 74 68 75 69 76 77 77 70 78
REMARK SMILES IDX 76 79 71 80 72 81 73 82 74 83 75 84 54 85 55 86 63 87 56 88
REMARK SMILES IDX 62 89 57 90 58 91 59 92 60 93 61 94
REMARK H PARENT 19 7 6 17 26 31 82 50 52 61
REMARK Flexibility Score: inf
ROOT
ATOM      1  C   UNL A   1      31.250  26.426  26.606  1.00  0.00     0.002 C 
ENDROOT
BRANCH   1   2
ATOM      2  C   UNL A   1      30.397  25.535  25.693  1.00  0.00     0.021 C 
BRANCH   2   3
ATOM      3  C   UNL A   1      30.637  24.031  25.840  1.00  0.00     0.116 C 
BRANCH   3   4
ATOM      4  N   UNL A   1      31.670  23.731  26.812  1.00  0.00    -0.356 N 
ATOM      5  C   UNL A   1      32.641  22.777  26.767  1.00  0.00     0.224 C 
ATOM      6  O   UNL A   1      33.364  22.620  27.754  1.00  0.00    -0.275 OA
ATOM      7  H   UNL A   1      31.668  24.296  27.619  1.00  0.00     0.163 HD
BRANCH   5   8
ATOM      8  C   UNL A   1      32.830  21.916  25.533  1.00  0.00     0.137 C 
BRANCH   8   9
ATOM      9  C   UNL A   1      34.152  22.123  24.827  1.00  0.00    -0.015 A 
ATOM     10  C   UNL A   1      37.597  20.449  24.941  1.00  0.00     0.044 C 
ATOM     11  C   UNL A   1      36.472  21.367  24.570  1.00  0.00    -0.051 A 
ATOM     12  C   UNL A   1      36.686  22.397  23.659  1.00  0.00     0.005 A 
ATOM     13  C   UNL A   1      35.201  21.224  25.130  1.00  0.00     0.009 A 
ATOM     14  C   UNL A   1      35.647  23.268  23.320  1.00  0.00     0.026 A 
ATOM     15  C   UNL A   1      34.369  23.164  23.896  1.00  0.00     0.042 A 
BRANCH  15  16
ATOM     16  N   UNL A   1      33.329  24.045  23.525  1.00  0.00    -0.352 N 
ATOM     17  H   UNL A   1      32.435  23.639  23.458  1.00  0.00     0.167 HD
BRANCH  16  18
ATOM     18  C   UNL A   1      33.391  25.429  23.237  1.00  0.00     0.094 A 
ATOM     19  C   UNL A   1      33.076  25.945  21.970  1.00  0.00     0.148 A 
ATOM     20  C   UNL A   1      33.876  26.337  24.198  1.00  0.00     0.067 A 
ATOM     21  F   UNL A   1      32.580  25.141  21.016  1.00  0.00    -0.205 F 
ATOM     22  C   UNL A   1      33.242  27.295  21.662  1.00  0.00     0.041 A 
ATOM     23  C   UNL A   1      34.052  27.692  23.894  1.00  0.00     0.023 A 
ATOM     24  Cl  UNL A   1      34.306  25.803  25.788  1.00  0.00    -0.082 Cl
ATOM     25  C   UNL A   1      33.738  28.171  22.623  1.00  0.00     0.005 A 
ENDBRANCH  16  18
ENDBRANCH  15  16
ENDBRANCH   8   9
ENDBRANCH   5   8
ENDBRANCH   3   4
ENDBRANCH   2   3
ENDBRANCH   1   2
BRANCH   1  26
ATOM     26  C   UNL A   1      31.221  27.935  26.321  1.00  0.00     0.002 C 
BRANCH  26  27
ATOM     27  C   UNL A   1      31.889  28.837  27.360  1.00  0.00     0.021 C 
BRANCH  27  28
ATOM     28  C   UNL A   1      33.372  29.095  27.096  1.00  0.00     0.116 C 
BRANCH  28  29
ATOM     29  N   UNL A   1      33.725  30.490  27.243  1.00  0.00    -0.352 N 
ATOM     30  C   UNL A   1      34.800  31.035  27.951  1.00  0.00     0.251 C 
ATOM     31  H   UNL A   1      33.134  31.134  26.790  1.00  0.00     0.163 HD
ATOM     32  O   UNL A   1      34.847  32.219  28.235  1.00  0.00    -0.269 OA
BRANCH  30  33
ATOM     33  C   UNL A   1      35.940  30.143  28.215  1.00  0.00     0.039 A 
ATOM     34  C   UNL A   1      36.035  29.602  29.502  1.00  0.00     0.014 A 
ATOM     35  C   UNL A   1      36.995  30.053  27.318  1.00  0.00     0.014 A 
ATOM     36  C   UNL A   1      37.262  29.117  29.956  1.00  0.00     0.010 A 
ATOM     37  C   UNL A   1      38.230  29.651  27.793  1.00  0.00     0.010 A 
ATOM     38  C   UNL A   1      38.375  29.233  29.125  1.00  0.00    -0.014 A 
BRANCH  38  39
ATOM     39  C   UNL A   1      39.750  29.031  29.566  1.00  0.00     0.031 A 
ATOM     40  C   UNL A   1      40.456  27.763  29.266  1.00  0.00     0.074 A 
ATOM     41  C   UNL A   1      40.443  30.058  30.110  1.00  0.00     0.049 A 
ATOM     42  N   UNL A   1      41.583  27.417  29.794  1.00  0.00    -0.248 NA
ATOM     43  C   UNL A   1      39.895  26.732  28.395  1.00  0.00     0.031 C 
ATOM     44  C   UNL A   1      41.897  30.181  30.198  1.00  0.00     0.029 A 
ATOM     45  N   UNL A   1      39.972  31.102  30.909  1.00  0.00    -0.354 N 
ATOM     46  C   UNL A   1      42.051  26.339  29.083  1.00  0.00     0.074 A 
ATOM     47  C   UNL A   1      40.907  25.858  28.348  1.00  0.00     0.031 C 
ATOM     48  C   UNL A   1      42.195  31.009  31.208  1.00  0.00     0.029 A 
ATOM     49  C   UNL A   1      40.952  31.305  31.898  1.00  0.00     0.049 A 
ATOM     50  H   UNL A   1      39.127  31.595  30.801  1.00  0.00     0.167 HD
ATOM     51  C   UNL A   1      43.389  26.077  29.073  1.00  0.00     0.031 A 
ATOM     52  C   UNL A   1      40.732  31.138  33.237  1.00  0.00     0.031 A 
ATOM     53  C   UNL A   1      44.108  26.826  30.108  1.00  0.00     0.049 A 
ATOM     54  C   UNL A   1      41.650  30.121  33.891  1.00  0.00     0.074 A 
ATOM     55  C   UNL A   1      45.065  27.825  30.117  1.00  0.00     0.029 A 
ATOM     56  N   UNL A   1      43.688  26.694  31.423  1.00  0.00    -0.354 N 
ATOM     57  N   UNL A   1      42.584  29.456  33.267  1.00  0.00    -0.248 NA
ATOM     58  C   UNL A   1      41.508  29.689  35.284  1.00  0.00     0.031 C 
ATOM     59  C   UNL A   1      45.200  28.301  31.457  1.00  0.00     0.029 A 
ATOM     60  C   UNL A   1      44.342  27.574  32.260  1.00  0.00     0.049 A 
ATOM     61  H   UNL A   1      43.007  26.050  31.724  1.00  0.00     0.167 HD
ATOM     62  C   UNL A   1      43.096  28.494  34.096  1.00  0.00     0.074 A 
ATOM     63  C   UNL A   1      42.409  28.693  35.358  1.00  0.00     0.031 C 
ATOM     64  C   UNL A   1      43.999  27.564  33.673  1.00  0.00     0.031 A 
BRANCH  51  65
ATOM     65  C   UNL A   1      44.091  25.272  27.993  1.00  0.00    -0.014 A 
ATOM     66  C   UNL A   1      44.209  25.801  26.690  1.00  0.00     0.010 A 
ATOM     67  C   UNL A   1      44.548  23.948  28.157  1.00  0.00     0.010 A 
ATOM     68  C   UNL A   1      44.705  25.039  25.615  1.00  0.00     0.020 A 
ATOM     69  C   UNL A   1      45.070  23.185  27.103  1.00  0.00     0.020 A 
ATOM     70  C   UNL A   1      45.120  23.727  25.828  1.00  0.00     0.054 A 
BRANCH  70  71
ATOM     71  S   UNL A   1      45.691  22.721  24.435  1.00  0.00     0.124 S 
ATOM     72  O   UNL A   1      46.294  21.574  25.108  1.00  0.00    -0.237 OA
ATOM     73  O   UNL A   1      44.454  22.451  23.707  1.00  0.00    -0.237 OA
ATOM     74  O   UNL A   1      46.636  23.595  23.741  1.00  0.00    -0.744 OA
ENDBRANCH  70  71
ENDBRANCH  51  65
BRANCH  52  75
ATOM     75  C   UNL A   1      39.329  31.413  33.654  1.00  0.00    -0.014 A 
ATOM     76  C   UNL A   1      39.005  32.744  33.993  1.00  0.00     0.010 A 
ATOM     77  C   UNL A   1      38.298  30.529  33.291  1.00  0.00     0.010 A 
ATOM     78  C   UNL A   1      37.714  33.232  33.785  1.00  0.00     0.020 A 
ATOM     79  C   UNL A   1      36.999  31.015  33.095  1.00  0.00     0.020 A 
ATOM     80  C   UNL A   1      36.739  32.377  33.271  1.00  0.00     0.054 A 
BRANCH  80  81
ATOM     81  S   UNL A   1      35.208  33.120  32.628  1.00  0.00     0.124 S 
ATOM     82  O   UNL A   1      34.824  32.189  31.573  1.00  0.00    -0.237 OA
ATOM     83  O   UNL A   1      34.357  33.117  33.817  1.00  0.00    -0.237 OA
ATOM     84  O   UNL A   1      35.642  34.440  32.179  1.00  0.00    -0.744 OA
ENDBRANCH  80  81
ENDBRANCH  52  75
BRANCH  64  85
ATOM     85  C   UNL A   1      44.590  26.506  34.566  1.00  0.00    -0.014 A 
ATOM     86  C   UNL A   1      45.779  26.707  35.286  1.00  0.00     0.010 A 
ATOM     87  C   UNL A   1      44.016  25.216  34.603  1.00  0.00     0.010 A 
ATOM     88  C   UNL A   1      46.340  25.678  36.056  1.00  0.00     0.020 A 
ATOM     89  C   UNL A   1      44.578  24.178  35.352  1.00  0.00     0.020 A 
ATOM     90  C   UNL A   1      45.731  24.421  36.089  1.00  0.00     0.054 A 
BRANCH  90  91
ATOM     91  S   UNL A   1      46.493  23.091  37.054  1.00  0.00     0.124 S 
ATOM     92  O   UNL A   1      46.463  23.623  38.415  1.00  0.00    -0.237 OA
ATOM     93  O   UNL A   1      45.587  21.974  36.798  1.00  0.00    -0.237 OA
ATOM     94  O   UNL A   1      47.827  22.958  36.473  1.00  0.00    -0.744 OA
ENDBRANCH  90  91
ENDBRANCH  64  85
ENDBRANCH  38  39
ENDBRANCH  30  33
ENDBRANCH  28  29
ENDBRANCH  27  28
ENDBRANCH  26  27
ENDBRANCH   1  26
TORSDOF 19
ENDMDL
MODEL 2
REMARK VINA RESULT:     -12.0      2.751      3.953
REMARK SMILES Cc1ccc(Nc2c(F)cccc2Cl)c(CC(=O)NCCCCCCNC(=O)c2ccc(-c3c4nc(c(-c5ccc(S(=O)(=O)[O-])cc5)c5ccc([nH]5)c(-c5ccc(S(=O)(=O)[O-])cc5)c5nc(c(-c6ccc(S(=O)(=O)[O-])cc6)c6ccc3[nH]6)C=C5)C=C4)cc2)c1
REMARK SMILES IDX 22 1 21 2 20 3 19 4 17 5 18 6 16 8 15 9 1 10 2 11 3 12 89 13
REMARK SMILES IDX 4 14 5 15 6 16 7 18 8 19 13 20 9 21 10 22 12 23 14 24 11 25
REMARK SMILES IDX 23 26 24 27 25 28 26 29 27 30 28 32 29 33 30 34 88 35 31 36
REMARK SMILES IDX 87 37 32 38 33 39 34 40 81 41 35 42 86 43 80 44 82 45 36 46
REMARK SMILES IDX 85 47 79 48 78 49 37 51 67 52 48 53 66 54 49 55 52 56 65 57
REMARK SMILES IDX 83 58 50 59 51 60 64 62 84 63 53 64 38 65 39 66 47 67 40 68
REMARK SMILES IDX 46 69 41 70 42 71 43 72 44 73 45 74 68 75 69 76 77 77 70 78
REMARK SMILES IDX 76 79 71 80 72 81 73 82 74 83 75 84 54 85 55 86 63 87 56 88
REMARK SMILES IDX 62 89 57 90 58 91 59 92 60 93 61 94
REMARK H PARENT 19 7 6 17 26 31 82 50 52 61
REMARK Flexibility Score: inf
ROOT
ATOM      1  C   UNL A   1      31.449  28.269  26.011  1.00  0.00     0.002 C 
ENDROOT
BRANCH   1   2
ATOM      2  C   UNL A   1      30.953  26.827  25.842  1.00  0.00     0.021 C 
BRANCH   2   3
ATOM      3  C   UNL A   1      31.758  25.768  26.597  1.00  0.00     0.116 C 
BRANCH   3   4
ATOM      4  N   UNL A   1      31.041  24.514  26.719  1.00  0.00    -0.356 N 
ATOM      5  C   UNL A   1      31.123  23.398  25.943  1.00  0.00     0.224 C 
ATOM      6  O   UNL A   1      30.345  22.466  26.159  1.00  0.00    -0.275 OA
ATOM      7  H   UNL A   1      30.404  24.462  27.469  1.00  0.00     0.163 HD
BRANCH   5   8
ATOM      8  C   UNL A   1      32.145  23.299  24.827  1.00  0.00     0.137 C 
BRANCH   8   9
ATOM      9  C   UNL A   1      33.497  22.778  25.265  1.00  0.00    -0.015 A 
ATOM     10  C   UNL A   1      36.945  24.329  25.892  1.00  0.00     0.044 C 
ATOM     11  C   UNL A   1      35.831  23.332  25.779  1.00  0.00    -0.051 A 
ATOM     12  C   UNL A   1      36.080  21.982  26.010  1.00  0.00     0.005 A 
ATOM     13  C   UNL A   1      34.537  23.722  25.429  1.00  0.00     0.009 A 
ATOM     14  C   UNL A   1      35.051  21.044  25.889  1.00  0.00     0.026 A 
ATOM     15  C   UNL A   1      33.750  21.409  25.507  1.00  0.00     0.042 A 
BRANCH  15  16
ATOM     16  N   UNL A   1      32.721  20.445  25.408  1.00  0.00    -0.352 N 
ATOM     17  H   UNL A   1      31.926  20.617  25.962  1.00  0.00     0.167 HD
BRANCH  16  18
ATOM     18  C   UNL A   1      32.673  19.267  24.625  1.00  0.00     0.094 A 
ATOM     19  C   UNL A   1      32.991  18.005  25.152  1.00  0.00     0.148 A 
ATOM     20  C   UNL A   1      32.399  19.338  23.247  1.00  0.00     0.067 A 
ATOM     21  F   UNL A   1      33.234  17.861  26.465  1.00  0.00    -0.205 F 
ATOM     22  C   UNL A   1      33.046  16.865  24.351  1.00  0.00     0.041 A 
ATOM     23  C   UNL A   1      32.459  18.199  22.434  1.00  0.00     0.023 A 
ATOM     24  Cl  UNL A   1      32.008  20.847  22.494  1.00  0.00    -0.082 Cl
ATOM     25  C   UNL A   1      32.787  16.961  22.987  1.00  0.00     0.005 A 
ENDBRANCH  16  18
ENDBRANCH  15  16
ENDBRANCH   8   9
ENDBRANCH   5   8
ENDBRANCH   3   4
ENDBRANCH   2   3
ENDBRANCH   1   2
BRANCH   1  26
ATOM     26  C   UNL A   1      32.303  28.564  27.253  1.00  0.00     0.002 C 
BRANCH  26  27
ATOM     27  C   UNL A   1      33.079  29.882  27.250  1.00  0.00     0.021 C 
BRANCH  27  28
ATOM     28  C   UNL A   1      34.595  29.709  27.167  1.00  0.00     0.116 C 
BRANCH  28  29
ATOM     29  N   UNL A   1      35.307  30.938  27.440  1.00  0.00    -0.352 N 
ATOM     30  C   UNL A   1      36.528  31.097  28.100  1.00  0.00     0.251 C 
ATOM     31  H   UNL A   1      34.876  31.765  27.121  1.00  0.00     0.163 HD
ATOM     32  O   UNL A   1      36.899  32.182  28.513  1.00  0.00    -0.269 OA
BRANCH  30  33
ATOM     33  C   UNL A   1      37.412  29.921  28.152  1.00  0.00     0.039 A 
ATOM     34  C   UNL A   1      37.416  29.184  29.341  1.00  0.00     0.014 A 
ATOM     35  C   UNL A   1      38.372  29.711  27.172  1.00  0.00     0.014 A 
ATOM     36  C   UNL A   1      38.494  28.347  29.628  1.00  0.00     0.010 A 
ATOM     37  C   UNL A   1      39.481  28.948  27.491  1.00  0.00     0.010 A 
ATOM     38  C   UNL A   1      39.566  28.309  28.738  1.00  0.00    -0.014 A 
BRANCH  38  39
ATOM     39  C   UNL A   1      40.860  27.709  29.041  1.00  0.00     0.031 A 
ATOM     40  C   UNL A   1      41.112  26.280  28.742  1.00  0.00     0.074 A 
ATOM     41  C   UNL A   1      41.889  28.488  29.446  1.00  0.00     0.049 A 
ATOM     42  N   UNL A   1      42.139  25.619  29.166  1.00  0.00    -0.248 NA
ATOM     43  C   UNL A   1      40.168  25.448  27.998  1.00  0.00     0.031 C 
ATOM     44  C   UNL A   1      43.312  28.165  29.370  1.00  0.00     0.029 A 
ATOM     45  N   UNL A   1      41.852  29.645  30.227  1.00  0.00    -0.354 N 
ATOM     46  C   UNL A   1      42.173  24.434  28.473  1.00  0.00     0.074 A 
ATOM     47  C   UNL A   1      40.858  24.307  27.894  1.00  0.00     0.031 C 
ATOM     48  C   UNL A   1      43.964  28.887  30.292  1.00  0.00     0.029 A 
ATOM     49  C   UNL A   1      42.959  29.563  31.092  1.00  0.00     0.049 A 
ATOM     50  H   UNL A   1      41.187  30.370  30.182  1.00  0.00     0.167 HD
ATOM     51  C   UNL A   1      43.359  23.776  28.335  1.00  0.00     0.031 A 
ATOM     52  C   UNL A   1      42.862  29.504  32.454  1.00  0.00     0.031 A 
ATOM     53  C   UNL A   1      44.389  24.296  29.242  1.00  0.00     0.049 A 
ATOM     54  C   UNL A   1      43.503  28.270  33.066  1.00  0.00     0.074 A 
ATOM     55  C   UNL A   1      45.596  24.956  29.089  1.00  0.00     0.029 A 
ATOM     56  N   UNL A   1      44.109  24.328  30.600  1.00  0.00    -0.354 N 
ATOM     57  N   UNL A   1      44.113  27.339  32.385  1.00  0.00    -0.248 NA
ATOM     58  C   UNL A   1      43.407  27.935  34.489  1.00  0.00     0.031 C 
ATOM     59  C   UNL A   1      46.027  25.399  30.376  1.00  0.00     0.029 A 
ATOM     60  C   UNL A   1      45.093  24.987  31.309  1.00  0.00     0.049 A 
ATOM     61  H   UNL A   1      43.308  23.930  31.009  1.00  0.00     0.167 HD
ATOM     62  C   UNL A   1      44.409  26.286  33.210  1.00  0.00     0.074 A 
ATOM     63  C   UNL A   1      43.970  26.715  34.524  1.00  0.00     0.031 C 
ATOM     64  C   UNL A   1      44.934  25.115  32.748  1.00  0.00     0.031 A 
BRANCH  51  65
ATOM     65  C   UNL A   1      43.653  22.770  27.235  1.00  0.00    -0.014 A 
ATOM     66  C   UNL A   1      42.758  21.704  27.004  1.00  0.00     0.010 A 
ATOM     67  C   UNL A   1      44.841  22.744  26.477  1.00  0.00     0.010 A 
ATOM     68  C   UNL A   1      43.055  20.657  26.112  1.00  0.00     0.020 A 
ATOM     69  C   UNL A   1      45.140  21.723  25.564  1.00  0.00     0.020 A 
ATOM     70  C   UNL A   1      44.256  20.668  25.405  1.00  0.00     0.054 A 
BRANCH  70  71
ATOM     71  S   UNL A   1      44.674  19.288  24.311  1.00  0.00     0.124 S 
ATOM     72  O   UNL A   1      46.078  19.050  24.636  1.00  0.00    -0.237 OA
ATOM     73  O   UNL A   1      43.740  18.249  24.734  1.00  0.00    -0.237 OA
ATOM     74  O   UNL A   1      44.435  19.824  22.971  1.00  0.00    -0.744 OA
ENDBRANCH  70  71
ENDBRANCH  51  65
BRANCH  52  75
ATOM     75  C   UNL A   1      41.666  30.202  33.002  1.00  0.00    -0.014 A 
ATOM     76  C   UNL A   1      40.780  29.442  33.793  1.00  0.00     0.010 A 
ATOM     77  C   UNL A   1      41.659  31.603  33.120  1.00  0.00     0.010 A 
ATOM     78  C   UNL A   1      40.047  30.048  34.816  1.00  0.00     0.020 A 
ATOM     79  C   UNL A   1      40.914  32.214  34.137  1.00  0.00     0.020 A 
ATOM     80  C   UNL A   1      40.177  31.422  35.022  1.00  0.00     0.054 A 
BRANCH  80  81
ATOM     81  S   UNL A   1      39.552  32.111  36.585  1.00  0.00     0.124 S 
ATOM     82  O   UNL A   1      39.253  33.492  36.223  1.00  0.00    -0.237 OA
ATOM     83  O   UNL A   1      38.393  31.257  36.842  1.00  0.00    -0.237 OA
ATOM     84  O   UNL A   1      40.673  31.926  37.502  1.00  0.00    -0.744 OA
ENDBRANCH  80  81
ENDBRANCH  52  75
BRANCH  64  85
ATOM     85  C   UNL A   1      45.284  23.950  33.633  1.00  0.00    -0.014 A 
ATOM     86  C   UNL A   1      46.600  23.685  34.045  1.00  0.00     0.010 A 
ATOM     87  C   UNL A   1      44.292  23.003  33.975  1.00  0.00     0.010 A 
ATOM     88  C   UNL A   1      46.902  22.551  34.813  1.00  0.00     0.020 A 
ATOM     89  C   UNL A   1      44.586  21.861  34.725  1.00  0.00     0.020 A 
ATOM     90  C   UNL A   1      45.891  21.650  35.155  1.00  0.00     0.054 A 
BRANCH  90  91
ATOM     91  S   UNL A   1      46.307  20.169  36.111  1.00  0.00     0.124 S 
ATOM     92  O   UNL A   1      47.767  20.141  36.042  1.00  0.00    -0.237 OA
ATOM     93  O   UNL A   1      45.749  20.489  37.422  1.00  0.00    -0.237 OA
ATOM     94  O   UNL A   1      45.634  19.089  35.393  1.00  0.00    -0.744 OA
ENDBRANCH  90  91
ENDBRANCH  64  85
ENDBRANCH  38  39
ENDBRANCH  30  33
ENDBRANCH  28  29
ENDBRANCH  27  28
ENDBRANCH  26  27
ENDBRANCH   1  26
TORSDOF 19
ENDMDL
MODEL 3
REMARK VINA RESULT:     -11.9      1.714      2.185
REMARK SMILES Cc1ccc(Nc2c(F)cccc2Cl)c(CC(=O)NCCCCCCNC(=O)c2ccc(-c3c4nc(c(-c5ccc(S(=O)(=O)[O-])cc5)c5ccc([nH]5)c(-c5ccc(S(=O)(=O)[O-])cc5)c5nc(c(-c6ccc(S(=O)(=O)[O-])cc6)c6ccc3[nH]6)C=C5)C=C4)cc2)c1
REMARK SMILES IDX 22 1 21 2 20 3 19 4 17 5 18 6 16 8 15 9 1 10 2 11 3 12 89 13
REMARK SMILES IDX 4 14 5 15 6 16 7 18 8 19 13 20 9 21 10 22 12 23 14 24 11 25
REMARK SMILES IDX 23 26 24 27 25 28 26 29 27 30 28 32 29 33 30 34 88 35 31 36
REMARK SMILES IDX 87 37 32 38 33 39 34 40 81 41 35 42 86 43 80 44 82 45 36 46
REMARK SMILES IDX 85 47 79 48 78 49 37 51 67 52 48 53 66 54 49 55 52 56 65 57
REMARK SMILES IDX 83 58 50 59 51 60 64 62 84 63 53 64 38 65 39 66 47 67 40 68
REMARK SMILES IDX 46 69 41 70 42 71 43 72 44 73 45 74 68 75 69 76 77 77 70 78
REMARK SMILES IDX 76 79 71 80 72 81 73 82 74 83 75 84 54 85 55 86 63 87 56 88
REMARK SMILES IDX 62 89 57 90 58 91 59 92 60 93 61 94
REMARK H PARENT 19 7 6 17 26 31 82 50 52 61
REMARK Flexibility Score: inf
ROOT
ATOM      1  C   UNL A   1      31.347  27.437  26.411  1.00  0.00     0.002 C 
ENDROOT
BRANCH   1   2
ATOM      2  C   UNL A   1      30.609  26.576  25.378  1.00  0.00     0.021 C 
BRANCH   2   3
ATOM      3  C   UNL A   1      30.242  25.167  25.846  1.00  0.00     0.116 C 
BRANCH   3   4
ATOM      4  N   UNL A   1      31.195  24.639  26.804  1.00  0.00    -0.356 N 
ATOM      5  C   UNL A   1      31.993  23.541  26.705  1.00  0.00     0.224 C 
ATOM      6  O   UNL A   1      32.665  23.205  27.684  1.00  0.00    -0.275 OA
ATOM      7  H   UNL A   1      31.275  25.147  27.644  1.00  0.00     0.163 HD
BRANCH   5   8
ATOM      8  C   UNL A   1      32.055  22.735  25.421  1.00  0.00     0.137 C 
BRANCH   8   9
ATOM      9  C   UNL A   1      33.434  22.653  24.804  1.00  0.00    -0.015 A 
ATOM     10  C   UNL A   1      36.458  20.330  25.186  1.00  0.00     0.044 C 
ATOM     11  C   UNL A   1      35.566  21.442  24.721  1.00  0.00    -0.051 A 
ATOM     12  C   UNL A   1      36.041  22.380  23.809  1.00  0.00     0.005 A 
ATOM     13  C   UNL A   1      34.259  21.573  25.195  1.00  0.00     0.009 A 
ATOM     14  C   UNL A   1      35.222  23.429  23.384  1.00  0.00     0.026 A 
ATOM     15  C   UNL A   1      33.915  23.600  23.872  1.00  0.00     0.042 A 
BRANCH  15  16
ATOM     16  N   UNL A   1      33.099  24.659  23.415  1.00  0.00    -0.352 N 
ATOM     17  H   UNL A   1      32.173  24.413  23.192  1.00  0.00     0.167 HD
BRANCH  16  18
ATOM     18  C   UNL A   1      33.426  26.024  23.232  1.00  0.00     0.094 A 
ATOM     19  C   UNL A   1      33.988  26.802  24.257  1.00  0.00     0.148 A 
ATOM     20  C   UNL A   1      33.100  26.681  22.031  1.00  0.00     0.067 A 
ATOM     21  F   UNL A   1      34.352  26.233  25.417  1.00  0.00    -0.205 F 
ATOM     22  C   UNL A   1      34.209  28.170  24.106  1.00  0.00     0.041 A 
ATOM     23  C   UNL A   1      33.312  28.057  21.874  1.00  0.00     0.023 A 
ATOM     24  Cl  UNL A   1      32.390  25.817  20.709  1.00  0.00    -0.082 Cl
ATOM     25  C   UNL A   1      33.863  28.803  22.915  1.00  0.00     0.005 A 
ENDBRANCH  16  18
ENDBRANCH  15  16
ENDBRANCH   8   9
ENDBRANCH   5   8
ENDBRANCH   3   4
ENDBRANCH   2   3
ENDBRANCH   1   2
BRANCH   1  26
ATOM     26  C   UNL A   1      31.391  28.949  26.145  1.00  0.00     0.002 C 
BRANCH  26  27
ATOM     27  C   UNL A   1      31.979  29.820  27.256  1.00  0.00     0.021 C 
BRANCH  27  28
ATOM     28  C   UNL A   1      33.493  30.005  27.165  1.00  0.00     0.116 C 
BRANCH  28  29
ATOM     29  N   UNL A   1      33.938  31.235  27.780  1.00  0.00    -0.352 N 
ATOM     30  C   UNL A   1      34.995  31.417  28.677  1.00  0.00     0.251 C 
ATOM     31  H   UNL A   1      33.433  32.045  27.538  1.00  0.00     0.163 HD
ATOM     32  O   UNL A   1      35.109  32.434  29.337  1.00  0.00    -0.269 OA
BRANCH  30  33
ATOM     33  C   UNL A   1      36.042  30.382  28.685  1.00  0.00     0.039 A 
ATOM     34  C   UNL A   1      36.240  29.692  29.886  1.00  0.00     0.014 A 
ATOM     35  C   UNL A   1      36.948  30.280  27.638  1.00  0.00     0.014 A 
ATOM     36  C   UNL A   1      37.448  29.029  30.106  1.00  0.00     0.010 A 
ATOM     37  C   UNL A   1      38.176  29.696  27.887  1.00  0.00     0.010 A 
ATOM     38  C   UNL A   1      38.446  29.116  29.137  1.00  0.00    -0.014 A 
BRANCH  38  39
ATOM     39  C   UNL A   1      39.832  28.719  29.351  1.00  0.00     0.031 A 
ATOM     40  C   UNL A   1      40.283  27.352  29.000  1.00  0.00     0.074 A 
ATOM     41  C   UNL A   1      40.750  29.641  29.721  1.00  0.00     0.049 A 
ATOM     42  N   UNL A   1      41.422  26.851  29.349  1.00  0.00    -0.248 NA
ATOM     43  C   UNL A   1      39.436  26.397  28.287  1.00  0.00     0.031 C 
ATOM     44  C   UNL A   1      42.200  29.544  29.558  1.00  0.00     0.029 A 
ATOM     45  N   UNL A   1      40.582  30.763  30.535  1.00  0.00    -0.354 N 
ATOM     46  C   UNL A   1      41.597  25.698  28.623  1.00  0.00     0.074 A 
ATOM     47  C   UNL A   1      40.286  25.379  28.114  1.00  0.00     0.031 C 
ATOM     48  C   UNL A   1      42.786  30.341  30.462  1.00  0.00     0.029 A 
ATOM     49  C   UNL A   1      41.737  30.838  31.335  1.00  0.00     0.049 A 
ATOM     50  H   UNL A   1      39.811  31.376  30.545  1.00  0.00     0.167 HD
ATOM     51  C   UNL A   1      42.860  25.235  28.402  1.00  0.00     0.031 A 
ATOM     52  C   UNL A   1      41.730  30.738  32.698  1.00  0.00     0.031 A 
ATOM     53  C   UNL A   1      43.849  25.891  29.265  1.00  0.00     0.049 A 
ATOM     54  C   UNL A   1      42.588  29.608  33.239  1.00  0.00     0.074 A 
ATOM     55  C   UNL A   1      44.929  26.733  29.064  1.00  0.00     0.029 A 
ATOM     56  N   UNL A   1      43.648  25.854  30.637  1.00  0.00    -0.354 N 
ATOM     57  N   UNL A   1      43.293  28.796  32.501  1.00  0.00    -0.248 NA
ATOM     58  C   UNL A   1      42.628  29.236  34.656  1.00  0.00     0.031 C 
ATOM     59  C   UNL A   1      45.361  27.213  30.337  1.00  0.00     0.029 A 
ATOM     60  C   UNL A   1      44.558  26.645  31.308  1.00  0.00     0.049 A 
ATOM     61  H   UNL A   1      42.942  25.329  31.078  1.00  0.00     0.167 HD
ATOM     62  C   UNL A   1      43.795  27.787  33.278  1.00  0.00     0.074 A 
ATOM     63  C   UNL A   1      43.373  28.117  34.627  1.00  0.00     0.031 C 
ATOM     64  C   UNL A   1      44.466  26.720  32.757  1.00  0.00     0.031 A 
BRANCH  51  65
ATOM     65  C   UNL A   1      43.240  24.307  27.261  1.00  0.00    -0.014 A 
ATOM     66  C   UNL A   1      42.954  22.929  27.354  1.00  0.00     0.010 A 
ATOM     67  C   UNL A   1      43.982  24.701  26.129  1.00  0.00     0.010 A 
ATOM     68  C   UNL A   1      43.422  22.001  26.405  1.00  0.00     0.020 A 
ATOM     69  C   UNL A   1      44.433  23.793  25.159  1.00  0.00     0.020 A 
ATOM     70  C   UNL A   1      44.173  22.441  25.317  1.00  0.00     0.054 A 
BRANCH  70  71
ATOM     71  S   UNL A   1      44.838  21.244  24.132  1.00  0.00     0.124 S 
ATOM     72  O   UNL A   1      46.260  21.236  24.466  1.00  0.00    -0.237 OA
ATOM     73  O   UNL A   1      44.102  20.027  24.460  1.00  0.00    -0.237 OA
ATOM     74  O   UNL A   1      44.514  21.829  22.831  1.00  0.00    -0.744 OA
ENDBRANCH  70  71
ENDBRANCH  51  65
BRANCH  52  75
ATOM     75  C   UNL A   1      40.475  31.233  33.329  1.00  0.00    -0.014 A 
ATOM     76  C   UNL A   1      39.565  30.265  33.804  1.00  0.00     0.010 A 
ATOM     77  C   UNL A   1      40.409  32.542  33.839  1.00  0.00     0.010 A 
ATOM     78  C   UNL A   1      38.744  30.542  34.898  1.00  0.00     0.020 A 
ATOM     79  C   UNL A   1      39.575  32.825  34.928  1.00  0.00     0.020 A 
ATOM     80  C   UNL A   1      38.809  31.802  35.494  1.00  0.00     0.054 A 
BRANCH  80  81
ATOM     81  S   UNL A   1      38.055  32.007  37.136  1.00  0.00     0.124 S 
ATOM     82  O   UNL A   1      37.061  33.047  36.899  1.00  0.00    -0.237 OA
ATOM     83  O   UNL A   1      37.524  30.668  37.387  1.00  0.00    -0.237 OA
ATOM     84  O   UNL A   1      39.186  32.392  37.976  1.00  0.00    -0.744 OA
ENDBRANCH  80  81
ENDBRANCH  52  75
BRANCH  64  85
ATOM     85  C   UNL A   1      45.042  25.606  33.589  1.00  0.00    -0.014 A 
ATOM     86  C   UNL A   1      44.310  24.452  33.912  1.00  0.00     0.010 A 
ATOM     87  C   UNL A   1      46.316  25.755  34.181  1.00  0.00     0.010 A 
ATOM     88  C   UNL A   1      44.850  23.463  34.747  1.00  0.00     0.020 A 
ATOM     89  C   UNL A   1      46.856  24.785  35.029  1.00  0.00     0.020 A 
ATOM     90  C   UNL A   1      46.124  23.633  35.295  1.00  0.00     0.054 A 
BRANCH  90  91
ATOM     91  S   UNL A   1      46.790  22.366  36.404  1.00  0.00     0.124 S 
ATOM     92  O   UNL A   1      48.225  22.642  36.385  1.00  0.00    -0.237 OA
ATOM     93  O   UNL A   1      46.109  22.675  37.659  1.00  0.00    -0.237 OA
ATOM     94  O   UNL A   1      46.395  21.108  35.774  1.00  0.00    -0.744 OA
ENDBRANCH  90  91
ENDBRANCH  64  85
ENDBRANCH  38  39
ENDBRANCH  30  33
ENDBRANCH  28  29
ENDBRANCH  27  28
ENDBRANCH  26  27
ENDBRANCH   1  26
TORSDOF 19
ENDMDL
