MODEL 1
REMARK VINA RESULT:     -12.5      0.000      0.000
REMARK SMILES Cc1ccnc(C(=O)c2[nH]c3cc(Cl)c(F)cc3c2CC(=O)NCCCCCCNC(=O)c2ccc(-c3c4nc(c(-c5ccc(S(=O)(=O)[O-])cc5)c5ccc([nH]5)c(-c5ccc(S(=O)(=O)[O-])cc5)c5nc(c(-c6ccc(S(=O)(=O)[O-])cc6)c6ccc3[nH]6)C=C5)C=C4)cc2)c1
REMARK SMILES IDX 26 1 25 2 24 3 23 4 21 5 22 6 20 8 19 9 9 10 10 11 11 12
REMARK SMILES IDX 18 14 12 15 17 16 13 17 15 18 14 19 16 20 7 21 8 22 6 23
REMARK SMILES IDX 1 24 2 25 3 26 93 27 4 28 5 29 27 30 28 31 29 32 30 33 31 34
REMARK SMILES IDX 32 36 33 37 34 38 92 39 35 40 91 41 36 42 37 43 38 44 85 45
REMARK SMILES IDX 39 46 90 47 84 48 86 49 40 50 89 51 83 52 82 53 41 55 71 56
REMARK SMILES IDX 52 57 70 58 53 59 56 60 69 61 87 62 54 63 55 64 68 66 88 67
REMARK SMILES IDX 57 68 42 69 43 70 51 71 44 72 50 73 45 74 46 75 47 76 48 77
REMARK SMILES IDX 49 78 72 79 73 80 81 81 74 82 80 83 75 84 76 85 77 86 78 87
REMARK SMILES IDX 79 88 58 89 59 90 67 91 60 92 66 93 61 94 62 95 63 96 64 97
REMARK SMILES IDX 65 98
REMARK H PARENT 23 7 10 13 30 35 86 54 56 65
REMARK Flexibility Score: inf
ROOT
ATOM      1  C   UNL A   1      35.075  29.020  27.492  1.00  0.00     0.002 C 
ENDROOT
BRANCH   1   2
ATOM      2  C   UNL A   1      33.558  28.866  27.347  1.00  0.00     0.021 C 
BRANCH   2   3
ATOM      3  C   UNL A   1      33.067  27.625  26.589  1.00  0.00     0.116 C 
BRANCH   3   4
ATOM      4  N   UNL A   1      34.123  26.773  26.074  1.00  0.00    -0.356 N 
ATOM      5  C   UNL A   1      34.086  25.551  25.472  1.00  0.00     0.224 C 
ATOM      6  O   UNL A   1      35.145  25.114  25.009  1.00  0.00    -0.275 OA
ATOM      7  H   UNL A   1      35.029  27.144  26.177  1.00  0.00     0.163 HD
BRANCH   5   8
ATOM      8  C   UNL A   1      32.808  24.753  25.309  1.00  0.00     0.138 C 
BRANCH   8   9
ATOM      9  C   UNL A   1      32.672  23.939  24.053  1.00  0.00    -0.002 A 
ATOM     10  C   UNL A   1      32.600  24.358  22.720  1.00  0.00     0.093 A 
ATOM     11  N   UNL A   1      32.344  23.224  21.969  1.00  0.00    -0.351 N 
ATOM     12  C   UNL A   1      32.362  22.090  22.736  1.00  0.00     0.048 A 
ATOM     13  H   UNL A   1      32.169  23.234  21.000  1.00  0.00     0.167 HD
ATOM     14  C   UNL A   1      32.489  22.505  24.057  1.00  0.00     0.007 A 
ATOM     15  C   UNL A   1      32.255  20.741  22.364  1.00  0.00     0.050 A 
ATOM     16  C   UNL A   1      32.451  21.519  25.070  1.00  0.00     0.051 A 
ATOM     17  C   UNL A   1      32.288  19.784  23.383  1.00  0.00     0.078 A 
ATOM     18  C   UNL A   1      32.374  20.172  24.715  1.00  0.00     0.142 A 
ATOM     19  Cl  UNL A   1      32.222  18.115  22.964  1.00  0.00    -0.081 Cl
ATOM     20  F   UNL A   1      32.405  19.254  25.693  1.00  0.00    -0.205 F 
BRANCH  10  21
ATOM     21  C   UNL A   1      32.618  25.652  22.036  1.00  0.00     0.227 C 
ATOM     22  O   UNL A   1      33.334  25.786  21.042  1.00  0.00    -0.285 OA
BRANCH  21  23
ATOM     23  C   UNL A   1      31.912  26.872  22.570  1.00  0.00     0.113 A 
ATOM     24  C   UNL A   1      28.448  28.340  23.154  1.00  0.00     0.044 C 
ATOM     25  C   UNL A   1      29.934  28.130  23.147  1.00  0.00    -0.047 A 
ATOM     26  C   UNL A   1      30.765  29.131  23.640  1.00  0.00     0.023 A 
ATOM     27  C   UNL A   1      30.527  26.955  22.663  1.00  0.00     0.036 A 
ATOM     28  C   UNL A   1      32.133  28.944  23.580  1.00  0.00     0.112 A 
ATOM     29  N   UNL A   1      32.725  27.851  23.051  1.00  0.00    -0.253 NA
ENDBRANCH  21  23
ENDBRANCH  10  21
ENDBRANCH   8   9
ENDBRANCH   5   8
ENDBRANCH   3   4
ENDBRANCH   2   3
ENDBRANCH   1   2
BRANCH   1  30
ATOM     30  C   UNL A   1      35.594  30.455  27.484  1.00  0.00     0.002 C 
BRANCH  30  31
ATOM     31  C   UNL A   1      34.497  31.511  27.649  1.00  0.00     0.021 C 
BRANCH  31  32
ATOM     32  C   UNL A   1      34.961  32.752  28.416  1.00  0.00     0.116 C 
BRANCH  32  33
ATOM     33  N   UNL A   1      34.632  32.695  29.826  1.00  0.00    -0.352 N 
ATOM     34  C   UNL A   1      35.252  32.183  30.933  1.00  0.00     0.251 C 
ATOM     35  H   UNL A   1      33.770  33.122  30.035  1.00  0.00     0.163 HD
ATOM     36  O   UNL A   1      34.688  32.390  32.011  1.00  0.00    -0.269 OA
BRANCH  34  37
ATOM     37  C   UNL A   1      36.498  31.367  30.916  1.00  0.00     0.039 A 
ATOM     38  C   UNL A   1      37.793  31.862  30.767  1.00  0.00     0.014 A 
ATOM     39  C   UNL A   1      36.322  29.971  31.004  1.00  0.00     0.014 A 
ATOM     40  C   UNL A   1      38.866  30.995  30.610  1.00  0.00     0.010 A 
ATOM     41  C   UNL A   1      37.397  29.098  30.869  1.00  0.00     0.010 A 
ATOM     42  C   UNL A   1      38.663  29.614  30.619  1.00  0.00    -0.014 A 
BRANCH  42  43
ATOM     43  C   UNL A   1      39.836  28.768  30.423  1.00  0.00     0.031 A 
ATOM     44  C   UNL A   1      40.676  28.563  31.637  1.00  0.00     0.074 A 
ATOM     45  C   UNL A   1      40.137  28.161  29.260  1.00  0.00     0.049 A 
ATOM     46  N   UNL A   1      41.895  28.946  31.842  1.00  0.00    -0.248 NA
ATOM     47  C   UNL A   1      40.031  27.956  32.811  1.00  0.00     0.031 C 
ATOM     48  C   UNL A   1      39.305  28.029  28.060  1.00  0.00     0.029 A 
ATOM     49  N   UNL A   1      41.249  27.443  28.944  1.00  0.00    -0.354 N 
ATOM     50  C   UNL A   1      42.236  28.484  33.112  1.00  0.00     0.074 A 
ATOM     51  C   UNL A   1      41.017  27.997  33.707  1.00  0.00     0.031 C 
ATOM     52  C   UNL A   1      39.840  27.086  27.249  1.00  0.00     0.029 A 
ATOM     53  C   UNL A   1      41.126  26.684  27.788  1.00  0.00     0.049 A 
ATOM     54  H   UNL A   1      42.069  27.460  29.487  1.00  0.00     0.167 HD
ATOM     55  C   UNL A   1      43.530  28.370  33.527  1.00  0.00     0.031 A 
ATOM     56  C   UNL A   1      42.001  25.751  27.340  1.00  0.00     0.031 A 
ATOM     57  C   UNL A   1      44.429  29.130  32.703  1.00  0.00     0.049 A 
ATOM     58  C   UNL A   1      43.314  26.054  27.955  1.00  0.00     0.074 A 
ATOM     59  C   UNL A   1      44.630  30.472  32.459  1.00  0.00     0.029 A 
ATOM     60  N   UNL A   1      45.079  28.452  31.702  1.00  0.00    -0.354 N 
ATOM     61  N   UNL A   1      44.004  27.131  27.706  1.00  0.00    -0.248 NA
ATOM     62  C   UNL A   1      43.696  25.331  29.158  1.00  0.00     0.031 C 
ATOM     63  C   UNL A   1      45.004  30.544  31.087  1.00  0.00     0.029 A 
ATOM     64  C   UNL A   1      45.061  29.241  30.582  1.00  0.00     0.049 A 
ATOM     65  H   UNL A   1      45.485  27.558  31.777  1.00  0.00     0.167 HD
ATOM     66  C   UNL A   1      44.616  27.448  28.910  1.00  0.00     0.074 A 
ATOM     67  C   UNL A   1      44.480  26.247  29.728  1.00  0.00     0.031 C 
ATOM     68  C   UNL A   1      44.943  28.736  29.224  1.00  0.00     0.031 A 
BRANCH  55  69
ATOM     69  C   UNL A   1      44.016  27.310  34.485  1.00  0.00    -0.014 A 
ATOM     70  C   UNL A   1      44.126  25.951  34.127  1.00  0.00     0.010 A 
ATOM     71  C   UNL A   1      44.620  27.697  35.699  1.00  0.00     0.010 A 
ATOM     72  C   UNL A   1      44.780  25.019  34.934  1.00  0.00     0.020 A 
ATOM     73  C   UNL A   1      45.318  26.777  36.499  1.00  0.00     0.020 A 
ATOM     74  C   UNL A   1      45.386  25.441  36.111  1.00  0.00     0.054 A 
BRANCH  74  75
ATOM     75  S   UNL A   1      46.320  24.222  37.068  1.00  0.00     0.124 S 
ATOM     76  O   UNL A   1      45.275  23.624  37.893  1.00  0.00    -0.237 OA
ATOM     77  O   UNL A   1      46.870  23.362  36.025  1.00  0.00    -0.237 OA
ATOM     78  O   UNL A   1      47.300  25.030  37.790  1.00  0.00    -0.744 OA
ENDBRANCH  74  75
ENDBRANCH  55  69
BRANCH  56  79
ATOM     79  C   UNL A   1      41.654  24.387  26.861  1.00  0.00    -0.014 A 
ATOM     80  C   UNL A   1      40.882  23.535  27.678  1.00  0.00     0.010 A 
ATOM     81  C   UNL A   1      42.345  23.813  25.776  1.00  0.00     0.010 A 
ATOM     82  C   UNL A   1      40.866  22.150  27.472  1.00  0.00     0.020 A 
ATOM     83  C   UNL A   1      42.332  22.424  25.565  1.00  0.00     0.020 A 
ATOM     84  C   UNL A   1      41.623  21.600  26.439  1.00  0.00     0.054 A 
BRANCH  84  85
ATOM     85  S   UNL A   1      41.728  19.790  26.327  1.00  0.00     0.124 S 
ATOM     86  O   UNL A   1      40.387  19.434  25.873  1.00  0.00    -0.237 OA
ATOM     87  O   UNL A   1      42.794  19.595  25.350  1.00  0.00    -0.237 OA
ATOM     88  O   UNL A   1      42.056  19.377  27.692  1.00  0.00    -0.744 OA
ENDBRANCH  84  85
ENDBRANCH  56  79
BRANCH  68  89
ATOM     89  C   UNL A   1      44.938  29.786  28.133  1.00  0.00    -0.014 A 
ATOM     90  C   UNL A   1      46.176  30.365  27.795  1.00  0.00     0.010 A 
ATOM     91  C   UNL A   1      43.764  30.362  27.608  1.00  0.00     0.010 A 
ATOM     92  C   UNL A   1      46.243  31.517  27.009  1.00  0.00     0.020 A 
ATOM     93  C   UNL A   1      43.827  31.506  26.794  1.00  0.00     0.020 A 
ATOM     94  C   UNL A   1      45.067  32.094  26.529  1.00  0.00     0.054 A 
BRANCH  94  95
ATOM     95  S   UNL A   1      45.196  33.647  25.599  1.00  0.00     0.124 S 
ATOM     96  O   UNL A   1      44.440  34.574  26.439  1.00  0.00    -0.237 OA
ATOM     97  O   UNL A   1      46.638  33.880  25.556  1.00  0.00    -0.237 OA
ATOM     98  O   UNL A   1      44.581  33.341  24.309  1.00  0.00    -0.744 OA
ENDBRANCH  94  95
ENDBRANCH  68  89
ENDBRANCH  42  43
ENDBRANCH  34  37
ENDBRANCH  32  33
ENDBRANCH  31  32
ENDBRANCH  30  31
ENDBRANCH   1  30
TORSDOF 19
ENDMDL
MODEL 2
REMARK VINA RESULT:     -12.4      2.056      3.581
REMARK SMILES Cc1ccnc(C(=O)c2[nH]c3cc(Cl)c(F)cc3c2CC(=O)NCCCCCCNC(=O)c2ccc(-c3c4nc(c(-c5ccc(S(=O)(=O)[O-])cc5)c5ccc([nH]5)c(-c5ccc(S(=O)(=O)[O-])cc5)c5nc(c(-c6ccc(S(=O)(=O)[O-])cc6)c6ccc3[nH]6)C=C5)C=C4)cc2)c1
REMARK SMILES IDX 26 1 25 2 24 3 23 4 21 5 22 6 20 8 19 9 9 10 10 11 11 12
REMARK SMILES IDX 18 14 12 15 17 16 13 17 15 18 14 19 16 20 7 21 8 22 6 23
REMARK SMILES IDX 1 24 2 25 3 26 93 27 4 28 5 29 27 30 28 31 29 32 30 33 31 34
REMARK SMILES IDX 32 36 33 37 34 38 92 39 35 40 91 41 36 42 37 43 38 44 85 45
REMARK SMILES IDX 39 46 90 47 84 48 86 49 40 50 89 51 83 52 82 53 41 55 71 56
REMARK SMILES IDX 52 57 70 58 53 59 56 60 69 61 87 62 54 63 55 64 68 66 88 67
REMARK SMILES IDX 57 68 42 69 43 70 51 71 44 72 50 73 45 74 46 75 47 76 48 77
REMARK SMILES IDX 49 78 72 79 73 80 81 81 74 82 80 83 75 84 76 85 77 86 78 87
REMARK SMILES IDX 79 88 58 89 59 90 67 91 60 92 66 93 61 94 62 95 63 96 64 97
REMARK SMILES IDX 65 98
REMARK H PARENT 23 7 10 13 30 35 86 54 56 65
REMARK Flexibility Score: inf
ROOT
ATOM      1  C   UNL A   1      34.946  29.118  27.208  1.00  0.00     0.002 C 
ENDROOT
BRANCH   1   2
ATOM      2  C   UNL A   1      33.419  29.159  27.107  1.00  0.00     0.021 C 
BRANCH   2   3
ATOM      3  C   UNL A   1      32.726  27.855  26.689  1.00  0.00     0.116 C 
BRANCH   3   4
ATOM      4  N   UNL A   1      33.627  26.748  26.427  1.00  0.00    -0.356 N 
ATOM      5  C   UNL A   1      33.867  26.027  25.295  1.00  0.00     0.224 C 
ATOM      6  O   UNL A   1      34.798  25.215  25.328  1.00  0.00    -0.275 OA
ATOM      7  H   UNL A   1      34.160  26.467  27.205  1.00  0.00     0.163 HD
BRANCH   5   8
ATOM      8  C   UNL A   1      33.083  26.222  24.013  1.00  0.00     0.138 C 
BRANCH   8   9
ATOM      9  C   UNL A   1      31.585  26.223  24.128  1.00  0.00    -0.002 A 
ATOM     10  C   UNL A   1      30.734  25.286  24.725  1.00  0.00     0.093 A 
ATOM     11  N   UNL A   1      29.443  25.692  24.434  1.00  0.00    -0.351 N 
ATOM     12  C   UNL A   1      29.422  26.897  23.783  1.00  0.00     0.048 A 
ATOM     13  H   UNL A   1      28.638  25.176  24.668  1.00  0.00     0.167 HD
ATOM     14  C   UNL A   1      30.745  27.223  23.507  1.00  0.00     0.007 A 
ATOM     15  C   UNL A   1      28.339  27.704  23.403  1.00  0.00     0.050 A 
ATOM     16  C   UNL A   1      30.999  28.395  22.759  1.00  0.00     0.051 A 
ATOM     17  C   UNL A   1      28.625  28.892  22.722  1.00  0.00     0.078 A 
ATOM     18  C   UNL A   1      29.935  29.224  22.398  1.00  0.00     0.142 A 
ATOM     19  Cl  UNL A   1      27.329  29.942  22.293  1.00  0.00    -0.081 Cl
ATOM     20  F   UNL A   1      30.211  30.363  21.744  1.00  0.00    -0.205 F 
BRANCH  10  21
ATOM     21  C   UNL A   1      30.918  24.015  25.426  1.00  0.00     0.227 C 
ATOM     22  O   UNL A   1      30.706  23.972  26.639  1.00  0.00    -0.285 OA
BRANCH  21  23
ATOM     23  C   UNL A   1      31.490  22.788  24.763  1.00  0.00     0.113 A 
ATOM     24  C   UNL A   1      32.811  19.296  25.508  1.00  0.00     0.044 C 
ATOM     25  C   UNL A   1      32.343  20.529  24.794  1.00  0.00    -0.047 A 
ATOM     26  C   UNL A   1      32.456  20.597  23.408  1.00  0.00     0.023 A 
ATOM     27  C   UNL A   1      31.790  21.627  25.469  1.00  0.00     0.036 A 
ATOM     28  C   UNL A   1      32.068  21.761  22.770  1.00  0.00     0.112 A 
ATOM     29  N   UNL A   1      31.601  22.855  23.409  1.00  0.00    -0.253 NA
ENDBRANCH  21  23
ENDBRANCH  10  21
ENDBRANCH   8   9
ENDBRANCH   5   8
ENDBRANCH   3   4
ENDBRANCH   2   3
ENDBRANCH   1   2
BRANCH   1  30
ATOM     30  C   UNL A   1      35.618  30.439  27.568  1.00  0.00     0.002 C 
BRANCH  30  31
ATOM     31  C   UNL A   1      34.656  31.631  27.614  1.00  0.00     0.021 C 
BRANCH  31  32
ATOM     32  C   UNL A   1      35.198  32.816  28.416  1.00  0.00     0.116 C 
BRANCH  32  33
ATOM     33  N   UNL A   1      34.826  32.763  29.816  1.00  0.00    -0.352 N 
ATOM     34  C   UNL A   1      35.392  32.218  30.935  1.00  0.00     0.251 C 
ATOM     35  H   UNL A   1      33.976  33.223  30.002  1.00  0.00     0.163 HD
ATOM     36  O   UNL A   1      34.805  32.441  31.998  1.00  0.00    -0.269 OA
BRANCH  34  37
ATOM     37  C   UNL A   1      36.604  31.352  30.948  1.00  0.00     0.039 A 
ATOM     38  C   UNL A   1      37.923  31.798  30.888  1.00  0.00     0.014 A 
ATOM     39  C   UNL A   1      36.368  29.962  30.966  1.00  0.00     0.014 A 
ATOM     40  C   UNL A   1      38.968  30.894  30.748  1.00  0.00     0.010 A 
ATOM     41  C   UNL A   1      37.413  29.051  30.848  1.00  0.00     0.010 A 
ATOM     42  C   UNL A   1      38.710  29.524  30.687  1.00  0.00    -0.014 A 
BRANCH  42  43
ATOM     43  C   UNL A   1      39.857  28.638  30.516  1.00  0.00     0.031 A 
ATOM     44  C   UNL A   1      40.648  28.382  31.753  1.00  0.00     0.074 A 
ATOM     45  C   UNL A   1      40.176  28.040  29.352  1.00  0.00     0.049 A 
ATOM     46  N   UNL A   1      41.872  28.716  32.006  1.00  0.00    -0.248 NA
ATOM     47  C   UNL A   1      39.941  27.780  32.893  1.00  0.00     0.031 C 
ATOM     48  C   UNL A   1      39.382  27.959  28.123  1.00  0.00     0.029 A 
ATOM     49  N   UNL A   1      41.271  27.287  29.061  1.00  0.00    -0.354 N 
ATOM     50  C   UNL A   1      42.153  28.220  33.278  1.00  0.00     0.074 A 
ATOM     51  C   UNL A   1      40.896  27.770  33.823  1.00  0.00     0.031 C 
ATOM     52  C   UNL A   1      39.909  27.011  27.314  1.00  0.00     0.029 A 
ATOM     53  C   UNL A   1      41.161  26.553  27.889  1.00  0.00     0.049 A 
ATOM     54  H   UNL A   1      42.073  27.264  29.632  1.00  0.00     0.167 HD
ATOM     55  C   UNL A   1      43.426  28.052  33.734  1.00  0.00     0.031 A 
ATOM     56  C   UNL A   1      42.016  25.595  27.453  1.00  0.00     0.031 A 
ATOM     57  C   UNL A   1      44.380  28.792  32.955  1.00  0.00     0.049 A 
ATOM     58  C   UNL A   1      43.317  25.839  28.118  1.00  0.00     0.074 A 
ATOM     59  C   UNL A   1      44.638  30.129  32.742  1.00  0.00     0.029 A 
ATOM     60  N   UNL A   1      45.039  28.107  31.964  1.00  0.00    -0.354 N 
ATOM     61  N   UNL A   1      44.054  26.894  27.912  1.00  0.00    -0.248 NA
ATOM     62  C   UNL A   1      43.631  25.082  29.319  1.00  0.00     0.031 C 
ATOM     63  C   UNL A   1      45.062  30.210  31.384  1.00  0.00     0.029 A 
ATOM     64  C   UNL A   1      45.088  28.915  30.859  1.00  0.00     0.049 A 
ATOM     65  H   UNL A   1      45.409  27.197  32.037  1.00  0.00     0.167 HD
ATOM     66  C   UNL A   1      44.635  27.168  29.141  1.00  0.00     0.074 A 
ATOM     67  C   UNL A   1      44.428  25.959  29.932  1.00  0.00     0.031 C 
ATOM     68  C   UNL A   1      44.999  28.437  29.489  1.00  0.00     0.031 A 
BRANCH  55  69
ATOM     69  C   UNL A   1      43.840  26.959  34.689  1.00  0.00    -0.014 A 
ATOM     70  C   UNL A   1      43.850  25.596  34.329  1.00  0.00     0.010 A 
ATOM     71  C   UNL A   1      44.478  27.300  35.900  1.00  0.00     0.010 A 
ATOM     72  C   UNL A   1      44.439  24.618  35.133  1.00  0.00     0.020 A 
ATOM     73  C   UNL A   1      45.112  26.332  36.695  1.00  0.00     0.020 A 
ATOM     74  C   UNL A   1      45.081  24.994  36.306  1.00  0.00     0.054 A 
BRANCH  74  75
ATOM     75  S   UNL A   1      45.930  23.710  37.257  1.00  0.00     0.124 S 
ATOM     76  O   UNL A   1      45.427  23.954  38.605  1.00  0.00    -0.237 OA
ATOM     77  O   UNL A   1      45.457  22.485  36.619  1.00  0.00    -0.237 OA
ATOM     78  O   UNL A   1      47.345  24.012  37.053  1.00  0.00    -0.744 OA
ENDBRANCH  74  75
ENDBRANCH  55  69
BRANCH  56  79
ATOM     79  C   UNL A   1      41.636  24.253  26.938  1.00  0.00    -0.014 A 
ATOM     80  C   UNL A   1      40.842  23.399  27.732  1.00  0.00     0.010 A 
ATOM     81  C   UNL A   1      42.314  23.691  25.839  1.00  0.00     0.010 A 
ATOM     82  C   UNL A   1      40.792  22.022  27.490  1.00  0.00     0.020 A 
ATOM     83  C   UNL A   1      42.268  22.309  25.592  1.00  0.00     0.020 A 
ATOM     84  C   UNL A   1      41.536  21.480  26.444  1.00  0.00     0.054 A 
BRANCH  84  85
ATOM     85  S   UNL A   1      41.597  19.671  26.285  1.00  0.00     0.124 S 
ATOM     86  O   UNL A   1      42.631  19.489  25.272  1.00  0.00    -0.237 OA
ATOM     87  O   UNL A   1      41.958  19.247  27.633  1.00  0.00    -0.237 OA
ATOM     88  O   UNL A   1      40.241  19.315  25.865  1.00  0.00    -0.744 OA
ENDBRANCH  84  85
ENDBRANCH  56  79
BRANCH  68  89
ATOM     89  C   UNL A   1      45.069  29.505  28.418  1.00  0.00    -0.014 A 
ATOM     90  C   UNL A   1      46.313  30.136  28.221  1.00  0.00     0.010 A 
ATOM     91  C   UNL A   1      43.936  30.046  27.777  1.00  0.00     0.010 A 
ATOM     92  C   UNL A   1      46.419  31.302  27.462  1.00  0.00     0.020 A 
ATOM     93  C   UNL A   1      44.041  31.205  26.989  1.00  0.00     0.020 A 
ATOM     94  C   UNL A   1      45.279  31.843  26.867  1.00  0.00     0.054 A 
BRANCH  94  95
ATOM     95  S   UNL A   1      45.447  33.415  25.976  1.00  0.00     0.124 S 
ATOM     96  O   UNL A   1      44.804  34.358  26.890  1.00  0.00    -0.237 OA
ATOM     97  O   UNL A   1      46.895  33.563  25.848  1.00  0.00    -0.237 OA
ATOM     98  O   UNL A   1      44.734  33.191  24.720  1.00  0.00    -0.744 OA
ENDBRANCH  94  95
ENDBRANCH  68  89
ENDBRANCH  42  43
ENDBRANCH  34  37
ENDBRANCH  32  33
ENDBRANCH  31  32
ENDBRANCH  30  31
ENDBRANCH   1  30
TORSDOF 19
ENDMDL
MODEL 3
REMARK VINA RESULT:     -12.3      2.714      4.609
REMARK SMILES Cc1ccnc(C(=O)c2[nH]c3cc(Cl)c(F)cc3c2CC(=O)NCCCCCCNC(=O)c2ccc(-c3c4nc(c(-c5ccc(S(=O)(=O)[O-])cc5)c5ccc([nH]5)c(-c5ccc(S(=O)(=O)[O-])cc5)c5nc(c(-c6ccc(S(=O)(=O)[O-])cc6)c6ccc3[nH]6)C=C5)C=C4)cc2)c1
REMARK SMILES IDX 26 1 25 2 24 3 23 4 21 5 22 6 20 8 19 9 9 10 10 11 11 12
REMARK SMILES IDX 18 14 12 15 17 16 13 17 15 18 14 19 16 20 7 21 8 22 6 23
REMARK SMILES IDX 1 24 2 25 3 26 93 27 4 28 5 29 27 30 28 31 29 32 30 33 31 34
REMARK SMILES IDX 32 36 33 37 34 38 92 39 35 40 91 41 36 42 37 43 38 44 85 45
REMARK SMILES IDX 39 46 90 47 84 48 86 49 40 50 89 51 83 52 82 53 41 55 71 56
REMARK SMILES IDX 52 57 70 58 53 59 56 60 69 61 87 62 54 63 55 64 68 66 88 67
REMARK SMILES IDX 57 68 42 69 43 70 51 71 44 72 50 73 45 74 46 75 47 76 48 77
REMARK SMILES IDX 49 78 72 79 73 80 81 81 74 82 80 83 75 84 76 85 77 86 78 87
REMARK SMILES IDX 79 88 58 89 59 90 67 91 60 92 66 93 61 94 62 95 63 96 64 97
REMARK SMILES IDX 65 98
REMARK H PARENT 23 7 10 13 30 35 86 54 56 65
REMARK Flexibility Score: inf
ROOT
ATOM      1  C   UNL A   1      31.763  27.264  25.582  1.00  0.00     0.002 C 
ENDROOT
BRANCH   1   2
ATOM      2  C   UNL A   1      30.615  26.475  26.221  1.00  0.00     0.021 C 
BRANCH   2   3
ATOM      3  C   UNL A   1      30.546  24.979  25.886  1.00  0.00     0.116 C 
BRANCH   3   4
ATOM      4  N   UNL A   1      31.213  24.113  26.841  1.00  0.00    -0.356 N 
ATOM      5  C   UNL A   1      32.393  23.434  26.774  1.00  0.00     0.224 C 
ATOM      6  O   UNL A   1      32.782  22.872  27.804  1.00  0.00    -0.275 OA
ATOM      7  H   UNL A   1      30.726  23.995  27.689  1.00  0.00     0.163 HD
BRANCH   5   8
ATOM      8  C   UNL A   1      33.249  23.392  25.524  1.00  0.00     0.138 C 
BRANCH   8   9
ATOM      9  C   UNL A   1      34.296  22.317  25.455  1.00  0.00    -0.002 A 
ATOM     10  C   UNL A   1      34.153  20.943  25.235  1.00  0.00     0.093 A 
ATOM     11  N   UNL A   1      35.410  20.388  25.402  1.00  0.00    -0.351 N 
ATOM     12  C   UNL A   1      36.367  21.347  25.604  1.00  0.00     0.048 A 
ATOM     13  H   UNL A   1      35.592  19.421  25.379  1.00  0.00     0.167 HD
ATOM     14  C   UNL A   1      35.697  22.560  25.719  1.00  0.00     0.007 A 
ATOM     15  C   UNL A   1      37.761  21.229  25.714  1.00  0.00     0.050 A 
ATOM     16  C   UNL A   1      36.457  23.714  26.016  1.00  0.00     0.051 A 
ATOM     17  C   UNL A   1      38.493  22.398  25.942  1.00  0.00     0.078 A 
ATOM     18  C   UNL A   1      37.847  23.618  26.100  1.00  0.00     0.142 A 
ATOM     19  Cl  UNL A   1      40.212  22.305  26.021  1.00  0.00    -0.081 Cl
ATOM     20  F   UNL A   1      38.549  24.740  26.319  1.00  0.00    -0.205 F 
BRANCH  10  21
ATOM     21  C   UNL A   1      33.024  20.041  25.004  1.00  0.00     0.227 C 
ATOM     22  O   UNL A   1      31.879  20.482  25.123  1.00  0.00    -0.285 OA
BRANCH  21  23
ATOM     23  C   UNL A   1      33.191  18.561  24.768  1.00  0.00     0.113 A 
ATOM     24  C   UNL A   1      32.215  15.154  26.159  1.00  0.00     0.044 C 
ATOM     25  C   UNL A   1      32.768  16.241  25.285  1.00  0.00    -0.047 A 
ATOM     26  C   UNL A   1      33.527  15.897  24.170  1.00  0.00     0.023 A 
ATOM     27  C   UNL A   1      32.549  17.602  25.544  1.00  0.00     0.036 A 
ATOM     28  C   UNL A   1      34.073  16.911  23.404  1.00  0.00     0.112 A 
ATOM     29  N   UNL A   1      33.934  18.226  23.679  1.00  0.00    -0.253 NA
ENDBRANCH  21  23
ENDBRANCH  10  21
ENDBRANCH   8   9
ENDBRANCH   5   8
ENDBRANCH   3   4
ENDBRANCH   2   3
ENDBRANCH   1   2
BRANCH   1  30
ATOM     30  C   UNL A   1      31.534  28.766  25.449  1.00  0.00     0.002 C 
BRANCH  30  31
ATOM     31  C   UNL A   1      31.835  29.555  26.727  1.00  0.00     0.021 C 
BRANCH  31  32
ATOM     32  C   UNL A   1      33.328  29.826  26.934  1.00  0.00     0.116 C 
BRANCH  32  33
ATOM     33  N   UNL A   1      33.579  31.035  27.691  1.00  0.00    -0.352 N 
ATOM     34  C   UNL A   1      34.693  31.603  28.243  1.00  0.00     0.251 C 
ATOM     35  H   UNL A   1      32.765  31.568  27.840  1.00  0.00     0.163 HD
ATOM     36  O   UNL A   1      34.531  32.707  28.770  1.00  0.00    -0.269 OA
BRANCH  34  37
ATOM     37  C   UNL A   1      36.041  30.970  28.299  1.00  0.00     0.039 A 
ATOM     38  C   UNL A   1      36.333  29.649  27.960  1.00  0.00     0.014 A 
ATOM     39  C   UNL A   1      37.084  31.779  28.793  1.00  0.00     0.014 A 
ATOM     40  C   UNL A   1      37.595  29.122  28.199  1.00  0.00     0.010 A 
ATOM     41  C   UNL A   1      38.356  31.262  29.014  1.00  0.00     0.010 A 
ATOM     42  C   UNL A   1      38.595  29.916  28.764  1.00  0.00    -0.014 A 
BRANCH  42  43
ATOM     43  C   UNL A   1      39.887  29.285  29.008  1.00  0.00     0.031 A 
ATOM     44  C   UNL A   1      40.347  29.315  30.425  1.00  0.00     0.074 A 
ATOM     45  C   UNL A   1      40.612  28.667  28.056  1.00  0.00     0.049 A 
ATOM     46  N   UNL A   1      41.375  29.925  30.921  1.00  0.00    -0.248 NA
ATOM     47  C   UNL A   1      39.482  28.681  31.430  1.00  0.00     0.031 C 
ATOM     48  C   UNL A   1      40.207  28.308  26.693  1.00  0.00     0.029 A 
ATOM     49  N   UNL A   1      41.863  28.142  28.154  1.00  0.00    -0.354 N 
ATOM     50  C   UNL A   1      41.388  29.617  32.280  1.00  0.00     0.074 A 
ATOM     51  C   UNL A   1      40.136  28.959  32.558  1.00  0.00     0.031 C 
ATOM     52  C   UNL A   1      41.097  27.426  26.182  1.00  0.00     0.029 A 
ATOM     53  C   UNL A   1      42.210  27.299  27.106  1.00  0.00     0.049 A 
ATOM     54  H   UNL A   1      42.471  28.343  28.901  1.00  0.00     0.167 HD
ATOM     55  C   UNL A   1      42.500  29.766  33.055  1.00  0.00     0.031 A 
ATOM     56  C   UNL A   1      43.310  26.511  27.036  1.00  0.00     0.031 A 
ATOM     57  C   UNL A   1      43.476  30.620  32.437  1.00  0.00     0.049 A 
ATOM     58  C   UNL A   1      44.317  27.086  27.959  1.00  0.00     0.074 A 
ATOM     59  C   UNL A   1      43.533  31.956  32.106  1.00  0.00     0.029 A 
ATOM     60  N   UNL A   1      44.492  30.006  31.747  1.00  0.00    -0.354 N 
ATOM     61  N   UNL A   1      44.876  28.252  27.792  1.00  0.00    -0.248 NA
ATOM     62  C   UNL A   1      44.427  26.525  29.295  1.00  0.00     0.031 C 
ATOM     63  C   UNL A   1      44.285  32.004  30.897  1.00  0.00     0.029 A 
ATOM     64  C   UNL A   1      44.689  30.703  30.584  1.00  0.00     0.049 A 
ATOM     65  H   UNL A   1      44.989  29.206  32.037  1.00  0.00     0.167 HD
ATOM     66  C   UNL A   1      45.044  28.753  29.074  1.00  0.00     0.074 A 
ATOM     67  C   UNL A   1      44.855  27.603  29.954  1.00  0.00     0.031 C 
ATOM     68  C   UNL A   1      45.062  30.096  29.317  1.00  0.00     0.031 A 
BRANCH  55  69
ATOM     69  C   UNL A   1      42.834  28.876  34.228  1.00  0.00    -0.014 A 
ATOM     70  C   UNL A   1      42.295  29.077  35.515  1.00  0.00     0.010 A 
ATOM     71  C   UNL A   1      43.503  27.655  34.003  1.00  0.00     0.010 A 
ATOM     72  C   UNL A   1      42.429  28.132  36.533  1.00  0.00     0.020 A 
ATOM     73  C   UNL A   1      43.605  26.678  35.007  1.00  0.00     0.020 A 
ATOM     74  C   UNL A   1      43.072  26.929  36.269  1.00  0.00     0.054 A 
BRANCH  74  75
ATOM     75  S   UNL A   1      43.120  25.687  37.583  1.00  0.00     0.124 S 
ATOM     76  O   UNL A   1      41.709  25.340  37.720  1.00  0.00    -0.237 OA
ATOM     77  O   UNL A   1      43.971  24.652  37.003  1.00  0.00    -0.237 OA
ATOM     78  O   UNL A   1      43.700  26.406  38.715  1.00  0.00    -0.744 OA
ENDBRANCH  74  75
ENDBRANCH  55  69
BRANCH  56  79
ATOM     79  C   UNL A   1      43.335  25.078  26.640  1.00  0.00    -0.014 A 
ATOM     80  C   UNL A   1      43.968  24.134  27.474  1.00  0.00     0.010 A 
ATOM     81  C   UNL A   1      43.042  24.698  25.316  1.00  0.00     0.010 A 
ATOM     82  C   UNL A   1      44.370  22.886  26.985  1.00  0.00     0.020 A 
ATOM     83  C   UNL A   1      43.444  23.447  24.819  1.00  0.00     0.020 A 
ATOM     84  C   UNL A   1      44.138  22.565  25.648  1.00  0.00     0.054 A 
BRANCH  84  85
ATOM     85  S   UNL A   1      44.845  21.021  25.005  1.00  0.00     0.124 S 
ATOM     86  O   UNL A   1      43.968  20.015  25.596  1.00  0.00    -0.237 OA
ATOM     87  O   UNL A   1      44.719  21.192  23.561  1.00  0.00    -0.237 OA
ATOM     88  O   UNL A   1      46.218  21.030  25.512  1.00  0.00    -0.744 OA
ENDBRANCH  84  85
ENDBRANCH  56  79
BRANCH  68  89
ATOM     89  C   UNL A   1      45.221  31.054  28.155  1.00  0.00    -0.014 A 
ATOM     90  C   UNL A   1      46.536  31.392  27.779  1.00  0.00     0.010 A 
ATOM     91  C   UNL A   1      44.156  31.781  27.588  1.00  0.00     0.010 A 
ATOM     92  C   UNL A   1      46.788  32.458  26.914  1.00  0.00     0.020 A 
ATOM     93  C   UNL A   1      44.402  32.838  26.695  1.00  0.00     0.020 A 
ATOM     94  C   UNL A   1      45.720  33.190  26.392  1.00  0.00     0.054 A 
BRANCH  94  95
ATOM     95  S   UNL A   1      46.099  34.630  25.356  1.00  0.00     0.124 S 
ATOM     96  O   UNL A   1      45.339  34.344  24.140  1.00  0.00    -0.237 OA
ATOM     97  O   UNL A   1      45.600  35.746  26.155  1.00  0.00    -0.237 OA
ATOM     98  O   UNL A   1      47.552  34.584  25.199  1.00  0.00    -0.744 OA
ENDBRANCH  94  95
ENDBRANCH  68  89
ENDBRANCH  42  43
ENDBRANCH  34  37
ENDBRANCH  32  33
ENDBRANCH  31  32
ENDBRANCH  30  31
ENDBRANCH   1  30
TORSDOF 19
ENDMDL
