MODEL 1
REMARK VINA RESULT:      -9.9      0.000      0.000
REMARK SMILES O=C(NCCCCCCNC(=O)c1ccc(S(=O)(=O)[O-])cc1N1C(=O)/C(=C\C=C\c2ccccc2)[NH+]=C1c1ccccc1)c1ccc(-c2c3nc(c(-c4ccc(S(=O)(=O)[O-])cc4)c4ccc([nH]4)c(-c4ccc(S(=O)(=O)[O-])cc4)c4nc(c(-c5ccc(S(=O)(=O)[O-])cc5)c5ccc2[nH]5)C=C4)C=C3)cc1
REMARK SMILES IDX 6 1 5 2 4 3 3 4 1 5 2 6 44 8 45 9 103 10 46 11 102 12 47 13
REMARK SMILES IDX 48 14 49 15 96 16 50 17 101 18 95 19 97 20 51 21 100 22
REMARK SMILES IDX 94 23 93 24 52 26 82 27 63 28 81 29 64 30 67 31 80 32 98 33
REMARK SMILES IDX 65 34 66 35 79 37 99 38 68 39 53 40 54 41 62 42 55 43 61 44
REMARK SMILES IDX 56 45 57 46 58 47 59 48 60 49 83 50 84 51 92 52 85 53 91 54
REMARK SMILES IDX 86 55 87 56 88 57 89 58 90 59 69 60 70 61 78 62 71 63 77 64
REMARK SMILES IDX 72 65 73 66 74 67 75 68 76 69 7 70 8 71 9 72 10 73 11 74
REMARK SMILES IDX 12 76 13 77 14 78 22 79 15 80 21 81 16 82 23 83 24 84 37 85
REMARK SMILES IDX 25 86 26 87 36 88 27 89 38 91 39 92 43 93 40 94 42 95 41 96
REMARK SMILES IDX 28 97 29 98 30 99 31 100 35 101 32 102 34 103 33 104 17 105
REMARK SMILES IDX 18 106 19 107 20 108
REMARK H PARENT 3 7 97 25 67 36 10 75 36 90
REMARK Flexibility Score: inf
ROOT
ATOM      1  C   UNL A   1      38.709  34.257  36.746  1.00  0.00     0.002 C 
ENDROOT
BRANCH   1   2
ATOM      2  C   UNL A   1      38.856  34.687  38.207  1.00  0.00     0.021 C 
BRANCH   2   3
ATOM      3  C   UNL A   1      40.289  34.887  38.687  1.00  0.00     0.116 C 
BRANCH   3   4
ATOM      4  N   UNL A   1      40.707  33.881  39.653  1.00  0.00    -0.352 N 
ATOM      5  O   UNL A   1      41.530  31.916  40.388  1.00  0.00    -0.269 OA
ATOM      6  C   UNL A   1      41.412  32.716  39.465  1.00  0.00     0.251 C 
ATOM      7  H   UNL A   1      40.442  34.062  40.584  1.00  0.00     0.163 HD
BRANCH   6   8
ATOM      8  C   UNL A   1      42.005  32.420  38.143  1.00  0.00     0.039 A 
ATOM      9  C   UNL A   1      41.232  31.856  37.128  1.00  0.00     0.014 A 
ATOM     10  C   UNL A   1      43.356  32.704  37.920  1.00  0.00     0.014 A 
ATOM     11  C   UNL A   1      41.844  31.416  35.960  1.00  0.00     0.010 A 
ATOM     12  C   UNL A   1      43.946  32.352  36.703  1.00  0.00     0.010 A 
ATOM     13  C   UNL A   1      43.207  31.662  35.730  1.00  0.00    -0.014 A 
BRANCH  13  14
ATOM     14  C   UNL A   1      43.824  31.209  34.454  1.00  0.00     0.031 A 
ATOM     15  C   UNL A   1      44.356  29.807  34.302  1.00  0.00     0.074 A 
ATOM     16  C   UNL A   1      43.865  32.062  33.413  1.00  0.00     0.049 A 
ATOM     17  N   UNL A   1      44.874  29.235  33.245  1.00  0.00    -0.248 NA
ATOM     18  C   UNL A   1      44.308  28.936  35.488  1.00  0.00     0.031 C 
ATOM     19  C   UNL A   1      43.381  33.445  33.436  1.00  0.00     0.029 A 
ATOM     20  N   UNL A   1      44.310  31.891  32.127  1.00  0.00    -0.354 N 
ATOM     21  C   UNL A   1      45.241  27.953  33.642  1.00  0.00     0.074 A 
ATOM     22  C   UNL A   1      44.907  27.840  35.045  1.00  0.00     0.031 C 
ATOM     23  C   UNL A   1      43.497  33.974  32.209  1.00  0.00     0.029 A 
ATOM     24  C   UNL A   1      44.128  32.997  31.330  1.00  0.00     0.049 A 
ATOM     25  H   UNL A   1      44.719  31.056  31.804  1.00  0.00     0.167 HD
ATOM     26  C   UNL A   1      45.799  26.962  32.905  1.00  0.00     0.031 A 
ATOM     27  C   UNL A   1      44.442  33.210  30.038  1.00  0.00     0.031 A 
ATOM     28  C   UNL A   1      46.128  27.084  31.507  1.00  0.00     0.049 A 
ATOM     29  C   UNL A   1      45.090  32.106  29.254  1.00  0.00     0.074 A 
ATOM     30  C   UNL A   1      46.660  26.124  30.663  1.00  0.00     0.029 A 
ATOM     31  N   UNL A   1      45.971  28.235  30.750  1.00  0.00    -0.354 N 
ATOM     32  N   UNL A   1      45.388  30.887  29.638  1.00  0.00    -0.248 NA
ATOM     33  C   UNL A   1      45.433  32.403  27.858  1.00  0.00     0.031 C 
ATOM     34  C   UNL A   1      46.885  26.714  29.415  1.00  0.00     0.029 A 
ATOM     35  C   UNL A   1      46.420  28.019  29.457  1.00  0.00     0.049 A 
ATOM     36  H   UNL A   1      45.594  29.082  31.083  1.00  0.00     0.167 HD
ATOM     37  C   UNL A   1      45.923  30.261  28.519  1.00  0.00     0.074 A 
ATOM     38  C   UNL A   1      45.893  31.231  27.444  1.00  0.00     0.031 C 
ATOM     39  C   UNL A   1      46.387  28.993  28.394  1.00  0.00     0.031 A 
BRANCH  26  40
ATOM     40  C   UNL A   1      46.132  25.667  33.606  1.00  0.00    -0.014 A 
ATOM     41  C   UNL A   1      47.367  25.472  34.252  1.00  0.00     0.010 A 
ATOM     42  C   UNL A   1      45.170  24.640  33.655  1.00  0.00     0.010 A 
ATOM     43  C   UNL A   1      47.651  24.260  34.888  1.00  0.00     0.020 A 
ATOM     44  C   UNL A   1      45.437  23.439  34.318  1.00  0.00     0.020 A 
ATOM     45  C   UNL A   1      46.684  23.249  34.913  1.00  0.00     0.054 A 
BRANCH  45  46
ATOM     46  S   UNL A   1      47.078  21.691  35.756  1.00  0.00     0.124 S 
ATOM     47  O   UNL A   1      47.524  20.854  34.645  1.00  0.00    -0.237 OA
ATOM     48  O   UNL A   1      48.119  22.092  36.698  1.00  0.00    -0.237 OA
ATOM     49  O   UNL A   1      45.810  21.294  36.364  1.00  0.00    -0.744 OA
ENDBRANCH  45  46
ENDBRANCH  26  40
BRANCH  27  50
ATOM     50  C   UNL A   1      44.137  34.525  29.411  1.00  0.00    -0.014 A 
ATOM     51  C   UNL A   1      44.988  35.627  29.609  1.00  0.00     0.010 A 
ATOM     52  C   UNL A   1      43.001  34.677  28.593  1.00  0.00     0.010 A 
ATOM     53  C   UNL A   1      44.700  36.859  29.017  1.00  0.00     0.020 A 
ATOM     54  C   UNL A   1      42.729  35.898  27.973  1.00  0.00     0.020 A 
ATOM     55  C   UNL A   1      43.574  36.985  28.198  1.00  0.00     0.054 A 
BRANCH  55  56
ATOM     56  S   UNL A   1      43.250  38.582  27.402  1.00  0.00     0.124 S 
ATOM     57  O   UNL A   1      44.492  38.815  26.672  1.00  0.00    -0.237 OA
ATOM     58  O   UNL A   1      42.076  38.291  26.582  1.00  0.00    -0.237 OA
ATOM     59  O   UNL A   1      43.007  39.482  28.527  1.00  0.00    -0.744 OA
ENDBRANCH  55  56
ENDBRANCH  27  50
BRANCH  39  60
ATOM     60  C   UNL A   1      46.848  28.559  27.026  1.00  0.00    -0.014 A 
ATOM     61  C   UNL A   1      45.937  28.183  26.021  1.00  0.00     0.010 A 
ATOM     62  C   UNL A   1      48.225  28.558  26.735  1.00  0.00     0.010 A 
ATOM     63  C   UNL A   1      46.400  27.767  24.769  1.00  0.00     0.020 A 
ATOM     64  C   UNL A   1      48.688  28.177  25.475  1.00  0.00     0.020 A 
ATOM     65  C   UNL A   1      47.773  27.764  24.505  1.00  0.00     0.054 A 
BRANCH  65  66
ATOM     66  S   UNL A   1      48.348  27.242  22.867  1.00  0.00     0.124 S 
ATOM     67  O   UNL A   1      49.691  27.814  22.819  1.00  0.00    -0.237 OA
ATOM     68  O   UNL A   1      48.289  25.785  22.956  1.00  0.00    -0.237 OA
ATOM     69  O   UNL A   1      47.382  27.844  21.951  1.00  0.00    -0.744 OA
ENDBRANCH  65  66
ENDBRANCH  39  60
ENDBRANCH  13  14
ENDBRANCH   6   8
ENDBRANCH   3   4
ENDBRANCH   2   3
ENDBRANCH   1   2
BRANCH   1  70
ATOM     70  C   UNL A   1      37.475  33.410  36.408  1.00  0.00     0.002 C 
BRANCH  70  71
ATOM     71  C   UNL A   1      36.674  33.851  35.185  1.00  0.00     0.021 C 
BRANCH  71  72
ATOM     72  C   UNL A   1      37.221  33.369  33.853  1.00  0.00     0.116 C 
BRANCH  72  73
ATOM     73  N   UNL A   1      36.686  32.128  33.357  1.00  0.00    -0.352 N 
ATOM     74  C   UNL A   1      35.804  31.905  32.321  1.00  0.00     0.255 C 
ATOM     75  H   UNL A   1      36.996  31.319  33.825  1.00  0.00     0.163 HD
ATOM     76  O   UNL A   1      35.424  30.750  32.122  1.00  0.00    -0.269 OA
BRANCH  74  77
ATOM     77  C   UNL A   1      35.197  33.004  31.500  1.00  0.00     0.087 A 
ATOM     78  C   UNL A   1      34.588  34.024  32.258  1.00  0.00     0.019 A 
ATOM     79  C   UNL A   1      35.183  33.112  30.088  1.00  0.00     0.150 A 
ATOM     80  C   UNL A   1      33.981  35.125  31.646  1.00  0.00     0.020 A 
ATOM     81  C   UNL A   1      34.561  34.217  29.479  1.00  0.00     0.072 A 
ATOM     82  C   UNL A   1      33.967  35.209  30.257  1.00  0.00     0.059 A 
BRANCH  79  83
ATOM     83  N   UNL A   1      35.738  32.139  29.237  1.00  0.00    -0.153 N 
ATOM     84  C   UNL A   1      34.960  31.258  28.528  1.00  0.00     0.385 C 
ATOM     85  C   UNL A   1      37.053  31.932  28.889  1.00  0.00     0.295 C 
ATOM     86  O   UNL A   1      33.746  31.204  28.445  1.00  0.00    -0.236 OA
ATOM     87  C   UNL A   1      35.977  30.433  27.806  1.00  0.00     0.215 C 
ATOM     88  N   UNL A   1      37.238  30.951  28.049  1.00  0.00    -0.233 N 
ATOM     89  C   UNL A   1      35.735  29.327  27.085  1.00  0.00     0.060 C 
ATOM     90  H   UNL A   1      38.092  30.643  27.669  1.00  0.00     0.312 HD
BRANCH  85  91
ATOM     91  C   UNL A   1      38.203  32.685  29.476  1.00  0.00     0.065 A 
ATOM     92  C   UNL A   1      38.992  32.050  30.439  1.00  0.00     0.017 A 
ATOM     93  C   UNL A   1      38.475  34.029  29.170  1.00  0.00     0.017 A 
ATOM     94  C   UNL A   1      40.027  32.746  31.077  1.00  0.00     0.001 A 
ATOM     95  C   UNL A   1      39.486  34.731  29.828  1.00  0.00     0.001 A 
ATOM     96  C   UNL A   1      40.264  34.088  30.781  1.00  0.00     0.000 A 
ENDBRANCH  85  91
BRANCH  89  97
ATOM     97  C   UNL A   1      34.431  28.750  26.823  1.00  0.00     0.005 C 
ATOM     98  C   UNL A   1      34.146  27.940  25.791  1.00  0.00     0.008 C 
BRANCH  98  99
ATOM     99  C   UNL A   1      32.776  27.480  25.493  1.00  0.00    -0.026 A 
ATOM    100  C   UNL A   1      32.116  27.942  24.348  1.00  0.00     0.008 A 
ATOM    101  C   UNL A   1      32.071  26.653  26.382  1.00  0.00     0.008 A 
ATOM    102  C   UNL A   1      30.791  27.571  24.090  1.00  0.00     0.001 A 
ATOM    103  C   UNL A   1      30.749  26.281  26.125  1.00  0.00     0.001 A 
ATOM    104  C   UNL A   1      30.109  26.743  24.979  1.00  0.00     0.000 A 
ENDBRANCH  98  99
ENDBRANCH  89  97
ENDBRANCH  79  83
BRANCH  82 105
ATOM    105  S   UNL A   1      33.151  36.577  29.485  1.00  0.00     0.124 S 
ATOM    106  O   UNL A   1      32.030  36.056  28.736  1.00  0.00    -0.237 OA
ATOM    107  O   UNL A   1      32.987  37.606  30.486  1.00  0.00    -0.237 OA
ATOM    108  O   UNL A   1      34.202  37.160  28.407  1.00  0.00    -0.744 OA
ENDBRANCH  82 105
ENDBRANCH  74  77
ENDBRANCH  72  73
ENDBRANCH  71  72
ENDBRANCH  70  71
ENDBRANCH   1  70
TORSDOF 21
ENDMDL
MODEL 2
REMARK VINA RESULT:      -9.3      4.273     14.881
REMARK SMILES O=C(NCCCCCCNC(=O)c1ccc(S(=O)(=O)[O-])cc1N1C(=O)/C(=C\C=C\c2ccccc2)[NH+]=C1c1ccccc1)c1ccc(-c2c3nc(c(-c4ccc(S(=O)(=O)[O-])cc4)c4ccc([nH]4)c(-c4ccc(S(=O)(=O)[O-])cc4)c4nc(c(-c5ccc(S(=O)(=O)[O-])cc5)c5ccc2[nH]5)C=C4)C=C3)cc1
REMARK SMILES IDX 6 1 5 2 4 3 3 4 1 5 2 6 44 8 45 9 103 10 46 11 102 12 47 13
REMARK SMILES IDX 48 14 49 15 96 16 50 17 101 18 95 19 97 20 51 21 100 22
REMARK SMILES IDX 94 23 93 24 52 26 82 27 63 28 81 29 64 30 67 31 80 32 98 33
REMARK SMILES IDX 65 34 66 35 79 37 99 38 68 39 53 40 54 41 62 42 55 43 61 44
REMARK SMILES IDX 56 45 57 46 58 47 59 48 60 49 83 50 84 51 92 52 85 53 91 54
REMARK SMILES IDX 86 55 87 56 88 57 89 58 90 59 69 60 70 61 78 62 71 63 77 64
REMARK SMILES IDX 72 65 73 66 74 67 75 68 76 69 7 70 8 71 9 72 10 73 11 74
REMARK SMILES IDX 12 76 13 77 14 78 22 79 15 80 21 81 16 82 23 83 24 84 37 85
REMARK SMILES IDX 25 86 26 87 36 88 27 89 38 91 39 92 43 93 40 94 42 95 41 96
REMARK SMILES IDX 28 97 29 98 30 99 31 100 35 101 32 102 34 103 33 104 17 105
REMARK SMILES IDX 18 106 19 107 20 108
REMARK H PARENT 3 7 97 25 67 36 10 75 36 90
REMARK Flexibility Score: inf
ROOT
ATOM      1  C   UNL A   1      43.066  24.459  29.605  1.00  0.00     0.002 C 
ENDROOT
BRANCH   1   2
ATOM      2  C   UNL A   1      42.938  23.357  28.551  1.00  0.00     0.021 C 
BRANCH   2   3
ATOM      3  C   UNL A   1      41.609  23.318  27.806  1.00  0.00     0.116 C 
BRANCH   3   4
ATOM      4  N   UNL A   1      41.662  24.003  26.522  1.00  0.00    -0.352 N 
ATOM      5  O   UNL A   1      41.345  25.668  25.036  1.00  0.00    -0.269 OA
ATOM      6  C   UNL A   1      41.397  25.315  26.211  1.00  0.00     0.251 C 
ATOM      7  H   UNL A   1      41.927  23.440  25.760  1.00  0.00     0.163 HD
BRANCH   6   8
ATOM      8  C   UNL A   1      41.152  26.294  27.292  1.00  0.00     0.039 A 
ATOM      9  C   UNL A   1      41.949  27.431  27.417  1.00  0.00     0.014 A 
ATOM     10  C   UNL A   1      40.112  26.064  28.200  1.00  0.00     0.014 A 
ATOM     11  C   UNL A   1      41.825  28.241  28.539  1.00  0.00     0.010 A 
ATOM     12  C   UNL A   1      39.924  26.938  29.274  1.00  0.00     0.010 A 
ATOM     13  C   UNL A   1      40.808  28.009  29.480  1.00  0.00    -0.014 A 
BRANCH  13  14
ATOM     14  C   UNL A   1      40.680  28.914  30.653  1.00  0.00     0.031 A 
ATOM     15  C   UNL A   1      39.590  29.954  30.717  1.00  0.00     0.074 A 
ATOM     16  C   UNL A   1      41.532  28.766  31.685  1.00  0.00     0.049 A 
ATOM     17  N   UNL A   1      39.305  30.787  31.686  1.00  0.00    -0.248 NA
ATOM     18  C   UNL A   1      38.713  30.084  29.543  1.00  0.00     0.031 C 
ATOM     19  C   UNL A   1      42.627  27.794  31.742  1.00  0.00     0.029 A 
ATOM     20  N   UNL A   1      41.600  29.409  32.895  1.00  0.00    -0.354 N 
ATOM     21  C   UNL A   1      38.240  31.557  31.231  1.00  0.00     0.074 A 
ATOM     22  C   UNL A   1      37.945  31.108  29.887  1.00  0.00     0.031 C 
ATOM     23  C   UNL A   1      43.216  27.862  32.944  1.00  0.00     0.029 A 
ATOM     24  C   UNL A   1      42.590  28.928  33.718  1.00  0.00     0.049 A 
ATOM     25  H   UNL A   1      40.996  30.144  33.150  1.00  0.00     0.167 HD
ATOM     26  C   UNL A   1      37.568  32.543  31.875  1.00  0.00     0.031 A 
ATOM     27  C   UNL A   1      42.966  29.306  34.955  1.00  0.00     0.031 A 
ATOM     28  C   UNL A   1      37.869  32.983  33.213  1.00  0.00     0.049 A 
ATOM     29  C   UNL A   1      42.225  30.423  35.631  1.00  0.00     0.074 A 
ATOM     30  C   UNL A   1      37.220  33.947  33.967  1.00  0.00     0.029 A 
ATOM     31  N   UNL A   1      38.909  32.502  33.994  1.00  0.00    -0.354 N 
ATOM     32  N   UNL A   1      41.192  31.108  35.199  1.00  0.00    -0.248 NA
ATOM     33  C   UNL A   1      42.692  30.810  36.967  1.00  0.00     0.031 C 
ATOM     34  C   UNL A   1      37.908  34.094  35.176  1.00  0.00     0.029 A 
ATOM     35  C   UNL A   1      38.938  33.167  35.209  1.00  0.00     0.049 A 
ATOM     36  H   UNL A   1      39.534  31.791  33.725  1.00  0.00     0.167 HD
ATOM     37  C   UNL A   1      40.866  31.984  36.227  1.00  0.00     0.074 A 
ATOM     38  C   UNL A   1      41.801  31.732  37.303  1.00  0.00     0.031 C 
ATOM     39  C   UNL A   1      39.874  32.909  36.275  1.00  0.00     0.031 A 
BRANCH  26  40
ATOM     40  C   UNL A   1      36.464  33.246  31.122  1.00  0.00    -0.014 A 
ATOM     41  C   UNL A   1      35.129  33.209  31.564  1.00  0.00     0.010 A 
ATOM     42  C   UNL A   1      36.779  33.995  29.972  1.00  0.00     0.010 A 
ATOM     43  C   UNL A   1      34.125  33.863  30.844  1.00  0.00     0.020 A 
ATOM     44  C   UNL A   1      35.783  34.678  29.267  1.00  0.00     0.020 A 
ATOM     45  C   UNL A   1      34.459  34.592  29.697  1.00  0.00     0.054 A 
BRANCH  45  46
ATOM     46  S   UNL A   1      33.137  35.440  28.789  1.00  0.00     0.124 S 
ATOM     47  O   UNL A   1      32.344  36.009  29.877  1.00  0.00    -0.237 OA
ATOM     48  O   UNL A   1      33.874  36.405  27.977  1.00  0.00    -0.237 OA
ATOM     49  O   UNL A   1      32.486  34.367  28.041  1.00  0.00    -0.744 OA
ENDBRANCH  45  46
ENDBRANCH  26  40
BRANCH  27  50
ATOM     50  C   UNL A   1      44.095  28.611  35.630  1.00  0.00    -0.014 A 
ATOM     51  C   UNL A   1      43.858  27.502  36.461  1.00  0.00     0.010 A 
ATOM     52  C   UNL A   1      45.420  29.044  35.429  1.00  0.00     0.010 A 
ATOM     53  C   UNL A   1      44.921  26.850  37.092  1.00  0.00     0.020 A 
ATOM     54  C   UNL A   1      46.487  28.374  36.032  1.00  0.00     0.020 A 
ATOM     55  C   UNL A   1      46.230  27.289  36.869  1.00  0.00     0.054 A 
BRANCH  55  56
ATOM     56  S   UNL A   1      47.595  26.395  37.661  1.00  0.00     0.124 S 
ATOM     57  O   UNL A   1      46.894  25.596  38.662  1.00  0.00    -0.237 OA
ATOM     58  O   UNL A   1      48.171  25.650  36.544  1.00  0.00    -0.237 OA
ATOM     59  O   UNL A   1      48.440  27.462  38.191  1.00  0.00    -0.744 OA
ENDBRANCH  55  56
ENDBRANCH  27  50
BRANCH  39  60
ATOM     60  C   UNL A   1      39.710  33.676  37.562  1.00  0.00    -0.014 A 
ATOM     61  C   UNL A   1      40.432  34.856  37.819  1.00  0.00     0.010 A 
ATOM     62  C   UNL A   1      38.788  33.217  38.521  1.00  0.00     0.010 A 
ATOM     63  C   UNL A   1      40.269  35.532  39.031  1.00  0.00     0.020 A 
ATOM     64  C   UNL A   1      38.597  33.909  39.718  1.00  0.00     0.020 A 
ATOM     65  C   UNL A   1      39.355  35.053  39.975  1.00  0.00     0.054 A 
BRANCH  65  66
ATOM     66  S   UNL A   1      39.145  35.960  41.530  1.00  0.00     0.124 S 
ATOM     67  O   UNL A   1      37.879  35.425  42.025  1.00  0.00    -0.237 OA
ATOM     68  O   UNL A   1      40.331  35.571  42.290  1.00  0.00    -0.237 OA
ATOM     69  O   UNL A   1      39.110  37.360  41.114  1.00  0.00    -0.744 OA
ENDBRANCH  65  66
ENDBRANCH  39  60
ENDBRANCH  13  14
ENDBRANCH   6   8
ENDBRANCH   3   4
ENDBRANCH   2   3
ENDBRANCH   1   2
BRANCH   1  70
ATOM     70  C   UNL A   1      44.285  25.381  29.479  1.00  0.00     0.002 C 
BRANCH  70  71
ATOM     71  C   UNL A   1      45.629  24.689  29.263  1.00  0.00     0.021 C 
BRANCH  71  72
ATOM     72  C   UNL A   1      46.435  25.210  28.086  1.00  0.00     0.116 C 
BRANCH  72  73
ATOM     73  N   UNL A   1      47.705  24.573  27.852  1.00  0.00    -0.352 N 
ATOM     74  C   UNL A   1      48.962  25.132  27.752  1.00  0.00     0.255 C 
ATOM     75  H   UNL A   1      47.672  23.594  27.748  1.00  0.00     0.163 HD
ATOM     76  O   UNL A   1      49.904  24.390  27.470  1.00  0.00    -0.269 OA
BRANCH  74  77
ATOM     77  C   UNL A   1      49.223  26.605  27.857  1.00  0.00     0.087 A 
ATOM     78  C   UNL A   1      49.562  27.221  26.635  1.00  0.00     0.019 A 
ATOM     79  C   UNL A   1      49.157  27.407  29.022  1.00  0.00     0.150 A 
ATOM     80  C   UNL A   1      49.830  28.591  26.558  1.00  0.00     0.020 A 
ATOM     81  C   UNL A   1      49.439  28.783  28.939  1.00  0.00     0.072 A 
ATOM     82  C   UNL A   1      49.773  29.362  27.716  1.00  0.00     0.059 A 
BRANCH  79  83
ATOM     83  N   UNL A   1      48.854  26.890  30.295  1.00  0.00    -0.153 N 
ATOM     84  C   UNL A   1      49.577  25.870  30.861  1.00  0.00     0.385 C 
ATOM     85  C   UNL A   1      47.914  27.313  31.206  1.00  0.00     0.295 C 
ATOM     86  O   UNL A   1      50.577  25.317  30.442  1.00  0.00    -0.236 OA
ATOM     87  C   UNL A   1      48.881  25.665  32.168  1.00  0.00     0.215 C 
ATOM     88  N   UNL A   1      47.900  26.630  32.318  1.00  0.00    -0.233 N 
ATOM     89  C   UNL A   1      49.111  24.673  33.043  1.00  0.00     0.060 C 
ATOM     90  H   UNL A   1      47.316  26.771  33.098  1.00  0.00     0.312 HD
BRANCH  85  91
ATOM     91  C   UNL A   1      46.917  28.395  30.941  1.00  0.00     0.065 A 
ATOM     92  C   UNL A   1      46.717  29.370  31.921  1.00  0.00     0.017 A 
ATOM     93  C   UNL A   1      46.110  28.427  29.791  1.00  0.00     0.017 A 
ATOM     94  C   UNL A   1      45.733  30.353  31.751  1.00  0.00     0.001 A 
ATOM     95  C   UNL A   1      45.109  29.387  29.636  1.00  0.00     0.001 A 
ATOM     96  C   UNL A   1      44.922  30.352  30.617  1.00  0.00     0.000 A 
ENDBRANCH  85  91
BRANCH  89  97
ATOM     97  C   UNL A   1      50.118  23.638  32.911  1.00  0.00     0.005 C 
ATOM     98  C   UNL A   1      50.222  22.565  33.711  1.00  0.00     0.008 C 
BRANCH  98  99
ATOM     99  C   UNL A   1      51.340  21.606  33.617  1.00  0.00    -0.026 A 
ATOM    100  C   UNL A   1      52.398  21.849  32.733  1.00  0.00     0.008 A 
ATOM    101  C   UNL A   1      51.331  20.397  34.332  1.00  0.00     0.008 A 
ATOM    102  C   UNL A   1      53.429  20.915  32.581  1.00  0.00     0.001 A 
ATOM    103  C   UNL A   1      52.360  19.464  34.182  1.00  0.00     0.001 A 
ATOM    104  C   UNL A   1      53.409  19.724  33.304  1.00  0.00     0.000 A 
ENDBRANCH  98  99
ENDBRANCH  89  97
ENDBRANCH  79  83
BRANCH  82 105
ATOM    105  S   UNL A   1      50.164  31.085  27.623  1.00  0.00     0.124 S 
ATOM    106  O   UNL A   1      51.601  31.216  27.708  1.00  0.00    -0.237 OA
ATOM    107  O   UNL A   1      49.412  31.644  26.523  1.00  0.00    -0.237 OA
ATOM    108  O   UNL A   1      49.556  31.744  28.966  1.00  0.00    -0.744 OA
ENDBRANCH  82 105
ENDBRANCH  74  77
ENDBRANCH  72  73
ENDBRANCH  71  72
ENDBRANCH  70  71
ENDBRANCH   1  70
TORSDOF 21
ENDMDL
MODEL 3
REMARK VINA RESULT:      -9.3      4.068     14.170
REMARK SMILES O=C(NCCCCCCNC(=O)c1ccc(S(=O)(=O)[O-])cc1N1C(=O)/C(=C\C=C\c2ccccc2)[NH+]=C1c1ccccc1)c1ccc(-c2c3nc(c(-c4ccc(S(=O)(=O)[O-])cc4)c4ccc([nH]4)c(-c4ccc(S(=O)(=O)[O-])cc4)c4nc(c(-c5ccc(S(=O)(=O)[O-])cc5)c5ccc2[nH]5)C=C4)C=C3)cc1
REMARK SMILES IDX 6 1 5 2 4 3 3 4 1 5 2 6 44 8 45 9 103 10 46 11 102 12 47 13
REMARK SMILES IDX 48 14 49 15 96 16 50 17 101 18 95 19 97 20 51 21 100 22
REMARK SMILES IDX 94 23 93 24 52 26 82 27 63 28 81 29 64 30 67 31 80 32 98 33
REMARK SMILES IDX 65 34 66 35 79 37 99 38 68 39 53 40 54 41 62 42 55 43 61 44
REMARK SMILES IDX 56 45 57 46 58 47 59 48 60 49 83 50 84 51 92 52 85 53 91 54
REMARK SMILES IDX 86 55 87 56 88 57 89 58 90 59 69 60 70 61 78 62 71 63 77 64
REMARK SMILES IDX 72 65 73 66 74 67 75 68 76 69 7 70 8 71 9 72 10 73 11 74
REMARK SMILES IDX 12 76 13 77 14 78 22 79 15 80 21 81 16 82 23 83 24 84 37 85
REMARK SMILES IDX 25 86 26 87 36 88 27 89 38 91 39 92 43 93 40 94 42 95 41 96
REMARK SMILES IDX 28 97 29 98 30 99 31 100 35 101 32 102 34 103 33 104 17 105
REMARK SMILES IDX 18 106 19 107 20 108
REMARK H PARENT 3 7 97 25 67 36 10 75 36 90
REMARK Flexibility Score: inf
ROOT
ATOM      1  C   UNL A   1      43.781  22.778  27.287  1.00  0.00     0.002 C 
ENDROOT
BRANCH   1   2
ATOM      2  C   UNL A   1      42.458  22.389  27.951  1.00  0.00     0.021 C 
BRANCH   2   3
ATOM      3  C   UNL A   1      41.293  23.337  27.691  1.00  0.00     0.116 C 
BRANCH   3   4
ATOM      4  N   UNL A   1      41.403  24.030  26.415  1.00  0.00    -0.352 N 
ATOM      5  O   UNL A   1      41.201  25.722  24.941  1.00  0.00    -0.269 OA
ATOM      6  C   UNL A   1      41.216  25.357  26.112  1.00  0.00     0.251 C 
ATOM      7  H   UNL A   1      41.649  23.459  25.651  1.00  0.00     0.163 HD
BRANCH   6   8
ATOM      8  C   UNL A   1      41.007  26.338  27.199  1.00  0.00     0.039 A 
ATOM      9  C   UNL A   1      41.903  27.390  27.390  1.00  0.00     0.014 A 
ATOM     10  C   UNL A   1      39.903  26.197  28.045  1.00  0.00     0.014 A 
ATOM     11  C   UNL A   1      41.796  28.191  28.520  1.00  0.00     0.010 A 
ATOM     12  C   UNL A   1      39.741  27.068  29.126  1.00  0.00     0.010 A 
ATOM     13  C   UNL A   1      40.712  28.044  29.401  1.00  0.00    -0.014 A 
BRANCH  13  14
ATOM     14  C   UNL A   1      40.608  28.939  30.584  1.00  0.00     0.031 A 
ATOM     15  C   UNL A   1      39.544  30.004  30.663  1.00  0.00     0.074 A 
ATOM     16  C   UNL A   1      41.459  28.760  31.612  1.00  0.00     0.049 A 
ATOM     17  N   UNL A   1      39.280  30.832  31.642  1.00  0.00    -0.248 NA
ATOM     18  C   UNL A   1      38.667  30.167  29.492  1.00  0.00     0.031 C 
ATOM     19  C   UNL A   1      42.531  27.762  31.655  1.00  0.00     0.029 A 
ATOM     20  N   UNL A   1      41.545  29.388  32.829  1.00  0.00    -0.354 N 
ATOM     21  C   UNL A   1      38.232  31.632  31.198  1.00  0.00     0.074 A 
ATOM     22  C   UNL A   1      37.924  31.205  29.850  1.00  0.00     0.031 C 
ATOM     23  C   UNL A   1      43.125  27.803  32.857  1.00  0.00     0.029 A 
ATOM     24  C   UNL A   1      42.526  28.875  33.644  1.00  0.00     0.049 A 
ATOM     25  H   UNL A   1      40.960  30.134  33.094  1.00  0.00     0.167 HD
ATOM     26  C   UNL A   1      37.586  32.626  31.854  1.00  0.00     0.031 A 
ATOM     27  C   UNL A   1      42.914  29.230  34.883  1.00  0.00     0.031 A 
ATOM     28  C   UNL A   1      37.900  33.045  33.196  1.00  0.00     0.049 A 
ATOM     29  C   UNL A   1      42.201  30.357  35.574  1.00  0.00     0.074 A 
ATOM     30  C   UNL A   1      37.276  34.015  33.962  1.00  0.00     0.029 A 
ATOM     31  N   UNL A   1      38.930  32.530  33.969  1.00  0.00    -0.354 N 
ATOM     32  N   UNL A   1      41.184  31.071  35.152  1.00  0.00    -0.248 NA
ATOM     33  C   UNL A   1      42.681  30.718  36.913  1.00  0.00     0.031 C 
ATOM     34  C   UNL A   1      37.970  34.133  35.171  1.00  0.00     0.029 A 
ATOM     35  C   UNL A   1      38.978  33.182  35.192  1.00  0.00     0.049 A 
ATOM     36  H   UNL A   1      39.538  31.808  33.690  1.00  0.00     0.167 HD
ATOM     37  C   UNL A   1      40.881  31.943  36.190  1.00  0.00     0.074 A 
ATOM     38  C   UNL A   1      41.812  31.657  37.262  1.00  0.00     0.031 C 
ATOM     39  C   UNL A   1      39.911  32.889  36.252  1.00  0.00     0.031 A 
BRANCH  26  40
ATOM     40  C   UNL A   1      36.496  33.364  31.113  1.00  0.00    -0.014 A 
ATOM     41  C   UNL A   1      36.743  34.010  29.887  1.00  0.00     0.010 A 
ATOM     42  C   UNL A   1      35.189  33.373  31.635  1.00  0.00     0.010 A 
ATOM     43  C   UNL A   1      35.717  34.691  29.226  1.00  0.00     0.020 A 
ATOM     44  C   UNL A   1      34.152  34.026  30.960  1.00  0.00     0.020 A 
ATOM     45  C   UNL A   1      34.428  34.697  29.770  1.00  0.00     0.054 A 
BRANCH  45  46
ATOM     46  S   UNL A   1      33.115  35.581  28.883  1.00  0.00     0.124 S 
ATOM     47  O   UNL A   1      32.400  34.484  28.234  1.00  0.00    -0.237 OA
ATOM     48  O   UNL A   1      32.392  36.248  29.963  1.00  0.00    -0.237 OA
ATOM     49  O   UNL A   1      33.842  36.470  27.980  1.00  0.00    -0.744 OA
ENDBRANCH  45  46
ENDBRANCH  26  40
BRANCH  27  50
ATOM     50  C   UNL A   1      44.028  28.501  35.548  1.00  0.00    -0.014 A 
ATOM     51  C   UNL A   1      43.762  27.444  36.435  1.00  0.00     0.010 A 
ATOM     52  C   UNL A   1      45.366  28.850  35.281  1.00  0.00     0.010 A 
ATOM     53  C   UNL A   1      44.811  26.761  37.056  1.00  0.00     0.020 A 
ATOM     54  C   UNL A   1      46.417  28.146  35.873  1.00  0.00     0.020 A 
ATOM     55  C   UNL A   1      46.133  27.114  36.767  1.00  0.00     0.054 A 
BRANCH  55  56
ATOM     56  S   UNL A   1      47.476  26.178  37.548  1.00  0.00     0.124 S 
ATOM     57  O   UNL A   1      47.195  24.816  37.105  1.00  0.00    -0.237 OA
ATOM     58  O   UNL A   1      48.666  26.800  36.974  1.00  0.00    -0.237 OA
ATOM     59  O   UNL A   1      47.279  26.425  38.975  1.00  0.00    -0.744 OA
ENDBRANCH  55  56
ENDBRANCH  27  50
BRANCH  39  60
ATOM     60  C   UNL A   1      39.768  33.647  37.547  1.00  0.00    -0.014 A 
ATOM     61  C   UNL A   1      40.432  34.867  37.770  1.00  0.00     0.010 A 
ATOM     62  C   UNL A   1      38.925  33.134  38.551  1.00  0.00     0.010 A 
ATOM     63  C   UNL A   1      40.292  35.533  38.991  1.00  0.00     0.020 A 
ATOM     64  C   UNL A   1      38.755  33.815  39.758  1.00  0.00     0.020 A 
ATOM     65  C   UNL A   1      39.457  35.001  39.979  1.00  0.00     0.054 A 
BRANCH  65  66
ATOM     66  S   UNL A   1      39.275  35.895  41.546  1.00  0.00     0.124 S 
ATOM     67  O   UNL A   1      39.571  37.269  41.147  1.00  0.00    -0.237 OA
ATOM     68  O   UNL A   1      37.883  35.631  41.905  1.00  0.00    -0.237 OA
ATOM     69  O   UNL A   1      40.267  35.272  42.418  1.00  0.00    -0.744 OA
ENDBRANCH  65  66
ENDBRANCH  39  60
ENDBRANCH  13  14
ENDBRANCH   6   8
ENDBRANCH   3   4
ENDBRANCH   2   3
ENDBRANCH   1   2
BRANCH   1  70
ATOM     70  C   UNL A   1      44.349  24.153  27.660  1.00  0.00     0.002 C 
BRANCH  70  71
ATOM     71  C   UNL A   1      45.688  24.520  27.023  1.00  0.00     0.021 C 
BRANCH  71  72
ATOM     72  C   UNL A   1      46.879  24.473  27.964  1.00  0.00     0.116 C 
BRANCH  72  73
ATOM     73  N   UNL A   1      48.159  24.790  27.388  1.00  0.00    -0.352 N 
ATOM     74  C   UNL A   1      48.678  26.014  27.020  1.00  0.00     0.255 C 
ATOM     75  H   UNL A   1      48.753  24.020  27.232  1.00  0.00     0.163 HD
ATOM     76  O   UNL A   1      49.780  26.034  26.471  1.00  0.00    -0.269 OA
BRANCH  74  77
ATOM     77  C   UNL A   1      47.924  27.304  27.152  1.00  0.00     0.087 A 
ATOM     78  C   UNL A   1      47.279  27.721  25.970  1.00  0.00     0.019 A 
ATOM     79  C   UNL A   1      47.800  28.111  28.309  1.00  0.00     0.150 A 
ATOM     80  C   UNL A   1      46.529  28.899  25.924  1.00  0.00     0.020 A 
ATOM     81  C   UNL A   1      47.053  29.301  28.252  1.00  0.00     0.072 A 
ATOM     82  C   UNL A   1      46.427  29.686  27.068  1.00  0.00     0.059 A 
BRANCH  79  83
ATOM     83  N   UNL A   1      48.424  27.802  29.531  1.00  0.00    -0.153 N 
ATOM     84  C   UNL A   1      47.781  27.109  30.527  1.00  0.00     0.385 C 
ATOM     85  C   UNL A   1      49.723  28.025  29.928  1.00  0.00     0.295 C 
ATOM     86  O   UNL A   1      46.673  26.606  30.515  1.00  0.00    -0.236 OA
ATOM     87  C   UNL A   1      48.818  27.048  31.602  1.00  0.00     0.215 C 
ATOM     88  N   UNL A   1      49.999  27.593  31.128  1.00  0.00    -0.233 N 
ATOM     89  C   UNL A   1      48.637  26.598  32.854  1.00  0.00     0.060 C 
ATOM     90  H   UNL A   1      50.863  27.644  31.597  1.00  0.00     0.312 HD
BRANCH  85  91
ATOM     91  C   UNL A   1      50.728  28.777  29.118  1.00  0.00     0.065 A 
ATOM     92  C   UNL A   1      51.809  28.074  28.579  1.00  0.00     0.017 A 
ATOM     93  C   UNL A   1      50.686  30.171  28.945  1.00  0.00     0.017 A 
ATOM     94  C   UNL A   1      52.819  28.752  27.885  1.00  0.00     0.001 A 
ATOM     95  C   UNL A   1      51.708  30.850  28.281  1.00  0.00     0.001 A 
ATOM     96  C   UNL A   1      52.776  30.139  27.749  1.00  0.00     0.000 A 
ENDBRANCH  85  91
BRANCH  89  97
ATOM     97  C   UNL A   1      47.412  26.035  33.388  1.00  0.00     0.005 C 
ATOM     98  C   UNL A   1      47.192  24.724  33.579  1.00  0.00     0.008 C 
BRANCH  98  99
ATOM     99  C   UNL A   1      45.884  24.190  34.004  1.00  0.00    -0.026 A 
ATOM    100  C   UNL A   1      45.780  22.869  34.456  1.00  0.00     0.008 A 
ATOM    101  C   UNL A   1      44.708  24.948  33.883  1.00  0.00     0.008 A 
ATOM    102  C   UNL A   1      44.535  22.326  34.795  1.00  0.00     0.001 A 
ATOM    103  C   UNL A   1      43.464  24.408  34.222  1.00  0.00     0.001 A 
ATOM    104  C   UNL A   1      43.379  23.095  34.676  1.00  0.00     0.000 A 
ENDBRANCH  98  99
ENDBRANCH  89  97
ENDBRANCH  79  83
BRANCH  82 105
ATOM    105  S   UNL A   1      45.520  31.204  26.992  1.00  0.00     0.124 S 
ATOM    106  O   UNL A   1      45.991  32.053  28.062  1.00  0.00    -0.237 OA
ATOM    107  O   UNL A   1      45.521  31.642  25.615  1.00  0.00    -0.237 OA
ATOM    108  O   UNL A   1      43.992  30.818  27.341  1.00  0.00    -0.744 OA
ENDBRANCH  82 105
ENDBRANCH  74  77
ENDBRANCH  72  73
ENDBRANCH  71  72
ENDBRANCH  70  71
ENDBRANCH   1  70
TORSDOF 21
ENDMDL
