MODEL 1
REMARK VINA RESULT:     -11.5      0.000      0.000
REMARK SMILES O=C(NCCCCCCNC(=O)c1nc2c(F)cccc2s1)c1ccc(-c2c3nc(c(-c4ccc(S(=O)(=O)[O-])cc4)c4ccc([nH]4)c(-c4ccc(S(=O)(=O)[O-])cc4)c4nc(c(-c5ccc(S(=O)(=O)[O-])cc5)c5ccc2[nH]5)C=C4)C=C3)cc1
REMARK SMILES IDX 5 1 4 2 3 3 1 4 2 5 23 7 24 8 82 9 25 10 81 11 26 12 27 13
REMARK SMILES IDX 28 14 75 15 29 16 80 17 74 18 76 19 30 20 79 21 73 22 72 23
REMARK SMILES IDX 31 25 61 26 42 27 60 28 43 29 46 30 59 31 77 32 44 33 45 34
REMARK SMILES IDX 58 36 78 37 47 38 32 39 33 40 41 41 34 42 40 43 35 44 36 45
REMARK SMILES IDX 37 46 38 47 39 48 62 49 63 50 71 51 64 52 70 53 65 54 66 55
REMARK SMILES IDX 67 56 68 57 69 58 48 59 49 60 57 61 50 62 56 63 51 64 52 65
REMARK SMILES IDX 53 66 54 67 55 68 6 69 7 70 8 71 9 72 10 73 11 74 12 76
REMARK SMILES IDX 13 77 14 78 22 79 15 80 21 81 16 82 20 83 17 84 18 85 19 86
REMARK H PARENT 3 6 76 24 46 35 10 75
REMARK Flexibility Score: inf
ROOT
ATOM      1  C   UNL A   1      39.514  22.258  26.451  1.00  0.00     0.021 C 
ENDROOT
BRANCH   1   2
ATOM      2  C   UNL A   1      40.951  21.915  26.845  1.00  0.00     0.116 C 
BRANCH   2   3
ATOM      3  N   UNL A   1      41.949  22.216  25.838  1.00  0.00    -0.352 N 
ATOM      4  O   UNL A   1      43.544  23.207  24.652  1.00  0.00    -0.269 OA
ATOM      5  C   UNL A   1      42.703  23.321  25.547  1.00  0.00     0.251 C 
ATOM      6  H   UNL A   1      42.123  21.461  25.231  1.00  0.00     0.163 HD
BRANCH   5   7
ATOM      7  C   UNL A   1      42.515  24.649  26.189  1.00  0.00     0.039 A 
ATOM      8  C   UNL A   1      42.941  24.978  27.474  1.00  0.00     0.014 A 
ATOM      9  C   UNL A   1      41.847  25.626  25.427  1.00  0.00     0.014 A 
ATOM     10  C   UNL A   1      42.600  26.205  28.033  1.00  0.00     0.010 A 
ATOM     11  C   UNL A   1      41.535  26.871  25.969  1.00  0.00     0.010 A 
ATOM     12  C   UNL A   1      41.876  27.142  27.291  1.00  0.00    -0.014 A 
BRANCH  12  13
ATOM     13  C   UNL A   1      41.551  28.399  27.955  1.00  0.00     0.031 A 
ATOM     14  C   UNL A   1      42.580  29.476  27.888  1.00  0.00     0.074 A 
ATOM     15  C   UNL A   1      40.381  28.640  28.576  1.00  0.00     0.049 A 
ATOM     16  N   UNL A   1      43.273  29.986  28.855  1.00  0.00    -0.248 NA
ATOM     17  C   UNL A   1      42.919  30.009  26.562  1.00  0.00     0.031 C 
ATOM     18  C   UNL A   1      39.137  27.870  28.526  1.00  0.00     0.029 A 
ATOM     19  N   UNL A   1      40.053  29.716  29.341  1.00  0.00    -0.354 N 
ATOM     20  C   UNL A   1      44.050  30.998  28.292  1.00  0.00     0.074 A 
ATOM     21  C   UNL A   1      43.848  30.917  26.865  1.00  0.00     0.031 C 
ATOM     22  C   UNL A   1      38.136  28.616  29.049  1.00  0.00     0.029 A 
ATOM     23  C   UNL A   1      38.699  29.836  29.603  1.00  0.00     0.049 A 
ATOM     24  H   UNL A   1      40.723  30.356  29.679  1.00  0.00     0.167 HD
ATOM     25  C   UNL A   1      44.724  31.922  29.032  1.00  0.00     0.031 A 
ATOM     26  C   UNL A   1      38.090  30.902  30.176  1.00  0.00     0.031 A 
ATOM     27  C   UNL A   1      44.793  31.576  30.423  1.00  0.00     0.049 A 
ATOM     28  C   UNL A   1      39.120  31.642  30.946  1.00  0.00     0.074 A 
ATOM     29  C   UNL A   1      45.410  30.587  31.159  1.00  0.00     0.029 A 
ATOM     30  N   UNL A   1      43.882  32.164  31.267  1.00  0.00    -0.354 N 
ATOM     31  N   UNL A   1      39.717  31.167  32.004  1.00  0.00    -0.248 NA
ATOM     32  C   UNL A   1      39.768  32.790  30.331  1.00  0.00     0.031 C 
ATOM     33  C   UNL A   1      44.526  30.326  32.245  1.00  0.00     0.029 A 
ATOM     34  C   UNL A   1      43.429  31.182  32.110  1.00  0.00     0.049 A 
ATOM     35  H   UNL A   1      43.607  33.109  31.266  1.00  0.00     0.167 HD
ATOM     36  C   UNL A   1      40.998  31.695  31.964  1.00  0.00     0.074 A 
ATOM     37  C   UNL A   1      40.934  32.770  30.981  1.00  0.00     0.031 C 
ATOM     38  C   UNL A   1      42.052  31.044  32.540  1.00  0.00     0.031 A 
BRANCH  25  39
ATOM     39  C   UNL A   1      45.099  33.298  28.551  1.00  0.00    -0.014 A 
ATOM     40  C   UNL A   1      46.431  33.743  28.696  1.00  0.00     0.010 A 
ATOM     41  C   UNL A   1      44.130  34.264  28.214  1.00  0.00     0.010 A 
ATOM     42  C   UNL A   1      46.763  35.098  28.569  1.00  0.00     0.020 A 
ATOM     43  C   UNL A   1      44.459  35.613  28.046  1.00  0.00     0.020 A 
ATOM     44  C   UNL A   1      45.769  36.027  28.260  1.00  0.00     0.054 A 
BRANCH  44  45
ATOM     45  S   UNL A   1      46.182  37.792  28.262  1.00  0.00     0.124 S 
ATOM     46  O   UNL A   1      46.780  37.965  26.941  1.00  0.00    -0.237 OA
ATOM     47  O   UNL A   1      44.875  38.414  28.452  1.00  0.00    -0.237 OA
ATOM     48  O   UNL A   1      47.104  37.928  29.387  1.00  0.00    -0.744 OA
ENDBRANCH  44  45
ENDBRANCH  25  39
BRANCH  26  49
ATOM     49  C   UNL A   1      36.784  31.498  29.800  1.00  0.00    -0.014 A 
ATOM     50  C   UNL A   1      35.878  31.917  30.791  1.00  0.00     0.010 A 
ATOM     51  C   UNL A   1      36.554  31.927  28.476  1.00  0.00     0.010 A 
ATOM     52  C   UNL A   1      34.831  32.800  30.484  1.00  0.00     0.020 A 
ATOM     53  C   UNL A   1      35.507  32.797  28.160  1.00  0.00     0.020 A 
ATOM     54  C   UNL A   1      34.673  33.259  29.174  1.00  0.00     0.054 A 
BRANCH  54  55
ATOM     55  S   UNL A   1      33.439  34.545  28.827  1.00  0.00     0.124 S 
ATOM     56  O   UNL A   1      32.867  34.798  30.146  1.00  0.00    -0.237 OA
ATOM     57  O   UNL A   1      34.260  35.619  28.276  1.00  0.00    -0.237 OA
ATOM     58  O   UNL A   1      32.534  33.906  27.871  1.00  0.00    -0.744 OA
ENDBRANCH  54  55
ENDBRANCH  26  49
BRANCH  38  59
ATOM     59  C   UNL A   1      41.762  29.884  33.462  1.00  0.00    -0.014 A 
ATOM     60  C   UNL A   1      41.647  28.559  32.998  1.00  0.00     0.010 A 
ATOM     61  C   UNL A   1      41.802  30.114  34.848  1.00  0.00     0.010 A 
ATOM     62  C   UNL A   1      41.582  27.489  33.902  1.00  0.00     0.020 A 
ATOM     63  C   UNL A   1      41.751  29.049  35.754  1.00  0.00     0.020 A 
ATOM     64  C   UNL A   1      41.651  27.741  35.275  1.00  0.00     0.054 A 
BRANCH  64  65
ATOM     65  S   UNL A   1      41.668  26.340  36.431  1.00  0.00     0.124 S 
ATOM     66  O   UNL A   1      40.726  26.761  37.463  1.00  0.00    -0.237 OA
ATOM     67  O   UNL A   1      41.224  25.229  35.589  1.00  0.00    -0.237 OA
ATOM     68  O   UNL A   1      43.063  26.258  36.863  1.00  0.00    -0.744 OA
ENDBRANCH  64  65
ENDBRANCH  38  59
ENDBRANCH  12  13
ENDBRANCH   5   7
ENDBRANCH   2   3
ENDBRANCH   1   2
BRANCH   1  69
ATOM     69  C   UNL A   1      39.035  23.643  26.900  1.00  0.00     0.002 C 
BRANCH  69  70
ATOM     70  C   UNL A   1      37.804  24.191  26.170  1.00  0.00     0.002 C 
BRANCH  70  71
ATOM     71  C   UNL A   1      37.047  23.182  25.300  1.00  0.00     0.021 C 
BRANCH  71  72
ATOM     72  C   UNL A   1      35.933  23.777  24.442  1.00  0.00     0.116 C 
BRANCH  72  73
ATOM     73  N   UNL A   1      34.897  24.398  25.252  1.00  0.00    -0.350 N 
ATOM     74  C   UNL A   1      33.655  23.902  25.597  1.00  0.00     0.280 C 
ATOM     75  H   UNL A   1      35.111  25.292  25.603  1.00  0.00     0.163 HD
ATOM     76  O   UNL A   1      32.880  24.676  26.170  1.00  0.00    -0.267 OA
BRANCH  74  77
ATOM     77  C   UNL A   1      33.313  22.531  25.247  1.00  0.00     0.182 A 
ATOM     78  N   UNL A   1      32.827  22.186  24.072  1.00  0.00    -0.228 NA
ATOM     79  S   UNL A   1      33.485  21.264  26.389  1.00  0.00    -0.109 S 
ATOM     80  C   UNL A   1      32.705  20.802  24.007  1.00  0.00     0.118 A 
ATOM     81  C   UNL A   1      33.076  20.120  25.170  1.00  0.00     0.058 A 
ATOM     82  C   UNL A   1      32.277  20.034  22.904  1.00  0.00     0.150 A 
ATOM     83  C   UNL A   1      33.082  18.717  25.245  1.00  0.00     0.021 A 
ATOM     84  F   UNL A   1      31.885  20.630  21.767  1.00  0.00    -0.205 F 
ATOM     85  C   UNL A   1      32.272  18.639  22.962  1.00  0.00     0.041 A 
ATOM     86  C   UNL A   1      32.685  17.988  24.119  1.00  0.00     0.005 A 
ENDBRANCH  74  77
ENDBRANCH  72  73
ENDBRANCH  71  72
ENDBRANCH  70  71
ENDBRANCH  69  70
ENDBRANCH   1  69
TORSDOF 16
ENDMDL
MODEL 2
REMARK VINA RESULT:     -11.4      1.598      2.407
REMARK SMILES O=C(NCCCCCCNC(=O)c1nc2c(F)cccc2s1)c1ccc(-c2c3nc(c(-c4ccc(S(=O)(=O)[O-])cc4)c4ccc([nH]4)c(-c4ccc(S(=O)(=O)[O-])cc4)c4nc(c(-c5ccc(S(=O)(=O)[O-])cc5)c5ccc2[nH]5)C=C4)C=C3)cc1
REMARK SMILES IDX 5 1 4 2 3 3 1 4 2 5 23 7 24 8 82 9 25 10 81 11 26 12 27 13
REMARK SMILES IDX 28 14 75 15 29 16 80 17 74 18 76 19 30 20 79 21 73 22 72 23
REMARK SMILES IDX 31 25 61 26 42 27 60 28 43 29 46 30 59 31 77 32 44 33 45 34
REMARK SMILES IDX 58 36 78 37 47 38 32 39 33 40 41 41 34 42 40 43 35 44 36 45
REMARK SMILES IDX 37 46 38 47 39 48 62 49 63 50 71 51 64 52 70 53 65 54 66 55
REMARK SMILES IDX 67 56 68 57 69 58 48 59 49 60 57 61 50 62 56 63 51 64 52 65
REMARK SMILES IDX 53 66 54 67 55 68 6 69 7 70 8 71 9 72 10 73 11 74 12 76
REMARK SMILES IDX 13 77 14 78 22 79 15 80 21 81 16 82 20 83 17 84 18 85 19 86
REMARK H PARENT 3 6 76 24 46 35 10 75
REMARK Flexibility Score: inf
ROOT
ATOM      1  C   UNL A   1      38.809  21.110  25.778  1.00  0.00     0.021 C 
ENDROOT
BRANCH   1   2
ATOM      2  C   UNL A   1      39.749  22.106  26.457  1.00  0.00     0.116 C 
BRANCH   2   3
ATOM      3  N   UNL A   1      41.109  22.102  25.955  1.00  0.00    -0.352 N 
ATOM      4  O   UNL A   1      43.232  22.619  25.558  1.00  0.00    -0.269 OA
ATOM      5  C   UNL A   1      42.155  22.982  26.037  1.00  0.00     0.251 C 
ATOM      6  H   UNL A   1      41.328  21.290  25.444  1.00  0.00     0.163 HD
BRANCH   5   7
ATOM      7  C   UNL A   1      42.044  24.356  26.595  1.00  0.00     0.039 A 
ATOM      8  C   UNL A   1      42.416  24.721  27.887  1.00  0.00     0.014 A 
ATOM      9  C   UNL A   1      41.515  25.340  25.740  1.00  0.00     0.014 A 
ATOM     10  C   UNL A   1      42.150  26.002  28.358  1.00  0.00     0.010 A 
ATOM     11  C   UNL A   1      41.281  26.636  26.195  1.00  0.00     0.010 A 
ATOM     12  C   UNL A   1      41.560  26.953  27.521  1.00  0.00    -0.014 A 
BRANCH  12  13
ATOM     13  C   UNL A   1      41.306  28.269  28.095  1.00  0.00     0.031 A 
ATOM     14  C   UNL A   1      42.357  29.306  27.881  1.00  0.00     0.074 A 
ATOM     15  C   UNL A   1      40.182  28.594  28.759  1.00  0.00     0.049 A 
ATOM     16  N   UNL A   1      43.117  29.872  28.762  1.00  0.00    -0.248 NA
ATOM     17  C   UNL A   1      42.631  29.718  26.498  1.00  0.00     0.031 C 
ATOM     18  C   UNL A   1      38.918  27.861  28.843  1.00  0.00     0.029 A 
ATOM     19  N   UNL A   1      39.926  29.739  29.449  1.00  0.00    -0.354 N 
ATOM     20  C   UNL A   1      43.885  30.811  28.074  1.00  0.00     0.074 A 
ATOM     21  C   UNL A   1      43.598  30.620  26.672  1.00  0.00     0.031 C 
ATOM     22  C   UNL A   1      37.968  28.677  29.358  1.00  0.00     0.029 A 
ATOM     23  C   UNL A   1      38.593  29.921  29.777  1.00  0.00     0.049 A 
ATOM     24  H   UNL A   1      40.630  30.384  29.695  1.00  0.00     0.167 HD
ATOM     25  C   UNL A   1      44.624  31.772  28.695  1.00  0.00     0.031 A 
ATOM     26  C   UNL A   1      38.046  31.047  30.292  1.00  0.00     0.031 A 
ATOM     27  C   UNL A   1      44.767  31.538  30.104  1.00  0.00     0.049 A 
ATOM     28  C   UNL A   1      39.137  31.816  30.939  1.00  0.00     0.074 A 
ATOM     29  C   UNL A   1      45.401  30.595  30.884  1.00  0.00     0.029 A 
ATOM     30  N   UNL A   1      43.921  32.220  30.946  1.00  0.00    -0.354 N 
ATOM     31  N   UNL A   1      39.783  31.412  31.997  1.00  0.00    -0.248 NA
ATOM     32  C   UNL A   1      39.777  32.891  30.195  1.00  0.00     0.031 C 
ATOM     33  C   UNL A   1      44.575  30.450  32.036  1.00  0.00     0.029 A 
ATOM     34  C   UNL A   1      43.494  31.324  31.892  1.00  0.00     0.049 A 
ATOM     35  H   UNL A   1      43.671  33.170  30.882  1.00  0.00     0.167 HD
ATOM     36  C   UNL A   1      41.073  31.896  31.841  1.00  0.00     0.074 A 
ATOM     37  C   UNL A   1      40.978  32.889  30.777  1.00  0.00     0.031 C 
ATOM     38  C   UNL A   1      42.142  31.263  32.408  1.00  0.00     0.031 A 
BRANCH  25  39
ATOM     39  C   UNL A   1      45.006  33.092  28.081  1.00  0.00    -0.014 A 
ATOM     40  C   UNL A   1      46.366  33.463  28.026  1.00  0.00     0.010 A 
ATOM     41  C   UNL A   1      44.052  34.094  27.807  1.00  0.00     0.010 A 
ATOM     42  C   UNL A   1      46.750  34.786  27.769  1.00  0.00     0.020 A 
ATOM     43  C   UNL A   1      44.427  35.409  27.510  1.00  0.00     0.020 A 
ATOM     44  C   UNL A   1      45.774  35.754  27.529  1.00  0.00     0.054 A 
BRANCH  44  45
ATOM     45  S   UNL A   1      46.277  37.487  27.362  1.00  0.00     0.124 S 
ATOM     46  O   UNL A   1      47.271  37.620  28.423  1.00  0.00    -0.237 OA
ATOM     47  O   UNL A   1      46.798  37.527  25.998  1.00  0.00    -0.237 OA
ATOM     48  O   UNL A   1      45.035  38.227  27.574  1.00  0.00    -0.744 OA
ENDBRANCH  44  45
ENDBRANCH  25  39
BRANCH  26  49
ATOM     49  C   UNL A   1      36.736  31.649  29.942  1.00  0.00    -0.014 A 
ATOM     50  C   UNL A   1      35.873  32.120  30.949  1.00  0.00     0.010 A 
ATOM     51  C   UNL A   1      36.462  32.032  28.612  1.00  0.00     0.010 A 
ATOM     52  C   UNL A   1      34.828  33.008  30.647  1.00  0.00     0.020 A 
ATOM     53  C   UNL A   1      35.416  32.906  28.302  1.00  0.00     0.020 A 
ATOM     54  C   UNL A   1      34.628  33.419  29.327  1.00  0.00     0.054 A 
BRANCH  54  55
ATOM     55  S   UNL A   1      33.401  34.711  28.977  1.00  0.00     0.124 S 
ATOM     56  O   UNL A   1      32.541  34.069  27.987  1.00  0.00    -0.237 OA
ATOM     57  O   UNL A   1      32.801  34.929  30.290  1.00  0.00    -0.237 OA
ATOM     58  O   UNL A   1      34.205  35.823  28.471  1.00  0.00    -0.744 OA
ENDBRANCH  54  55
ENDBRANCH  26  49
BRANCH  38  59
ATOM     59  C   UNL A   1      41.877  30.192  33.438  1.00  0.00    -0.014 A 
ATOM     60  C   UNL A   1      41.514  28.877  33.088  1.00  0.00     0.010 A 
ATOM     61  C   UNL A   1      42.194  30.469  34.779  1.00  0.00     0.010 A 
ATOM     62  C   UNL A   1      41.477  27.863  34.055  1.00  0.00     0.020 A 
ATOM     63  C   UNL A   1      42.172  29.459  35.746  1.00  0.00     0.020 A 
ATOM     64  C   UNL A   1      41.823  28.158  35.377  1.00  0.00     0.054 A 
BRANCH  64  65
ATOM     65  S   UNL A   1      41.869  26.815  36.599  1.00  0.00     0.124 S 
ATOM     66  O   UNL A   1      41.972  25.622  35.763  1.00  0.00    -0.237 OA
ATOM     67  O   UNL A   1      43.062  27.139  37.380  1.00  0.00    -0.237 OA
ATOM     68  O   UNL A   1      40.608  26.956  37.324  1.00  0.00    -0.744 OA
ENDBRANCH  64  65
ENDBRANCH  38  59
ENDBRANCH  12  13
ENDBRANCH   5   7
ENDBRANCH   2   3
ENDBRANCH   1   2
BRANCH   1  69
ATOM     69  C   UNL A   1      37.659  21.744  24.987  1.00  0.00     0.002 C 
BRANCH  69  70
ATOM     70  C   UNL A   1      36.255  21.236  25.330  1.00  0.00     0.002 C 
BRANCH  70  71
ATOM     71  C   UNL A   1      35.339  22.246  26.030  1.00  0.00     0.021 C 
BRANCH  71  72
ATOM     72  C   UNL A   1      34.277  21.632  26.940  1.00  0.00     0.116 C 
BRANCH  72  73
ATOM     73  N   UNL A   1      33.627  20.489  26.319  1.00  0.00    -0.350 N 
ATOM     74  C   UNL A   1      32.580  20.473  25.419  1.00  0.00     0.280 C 
ATOM     75  H   UNL A   1      33.982  19.608  26.576  1.00  0.00     0.163 HD
ATOM     76  O   UNL A   1      32.092  19.371  25.145  1.00  0.00    -0.267 OA
BRANCH  74  77
ATOM     77  C   UNL A   1      32.091  21.731  24.873  1.00  0.00     0.182 A 
ATOM     78  N   UNL A   1      31.322  22.561  25.548  1.00  0.00    -0.228 NA
ATOM     79  S   UNL A   1      32.458  22.191  23.263  1.00  0.00    -0.109 S 
ATOM     80  C   UNL A   1      31.113  23.714  24.800  1.00  0.00     0.118 A 
ATOM     81  C   UNL A   1      31.711  23.716  23.537  1.00  0.00     0.058 A 
ATOM     82  C   UNL A   1      30.394  24.864  25.189  1.00  0.00     0.150 A 
ATOM     83  C   UNL A   1      31.659  24.833  22.685  1.00  0.00     0.021 A 
ATOM     84  F   UNL A   1      29.777  24.915  26.379  1.00  0.00    -0.205 F 
ATOM     85  C   UNL A   1      30.328  25.981  24.354  1.00  0.00     0.041 A 
ATOM     86  C   UNL A   1      30.966  25.969  23.119  1.00  0.00     0.005 A 
ENDBRANCH  74  77
ENDBRANCH  72  73
ENDBRANCH  71  72
ENDBRANCH  70  71
ENDBRANCH  69  70
ENDBRANCH   1  69
TORSDOF 16
ENDMDL
MODEL 3
REMARK VINA RESULT:     -11.4      3.133      9.465
REMARK SMILES O=C(NCCCCCCNC(=O)c1nc2c(F)cccc2s1)c1ccc(-c2c3nc(c(-c4ccc(S(=O)(=O)[O-])cc4)c4ccc([nH]4)c(-c4ccc(S(=O)(=O)[O-])cc4)c4nc(c(-c5ccc(S(=O)(=O)[O-])cc5)c5ccc2[nH]5)C=C4)C=C3)cc1
REMARK SMILES IDX 5 1 4 2 3 3 1 4 2 5 23 7 24 8 82 9 25 10 81 11 26 12 27 13
REMARK SMILES IDX 28 14 75 15 29 16 80 17 74 18 76 19 30 20 79 21 73 22 72 23
REMARK SMILES IDX 31 25 61 26 42 27 60 28 43 29 46 30 59 31 77 32 44 33 45 34
REMARK SMILES IDX 58 36 78 37 47 38 32 39 33 40 41 41 34 42 40 43 35 44 36 45
REMARK SMILES IDX 37 46 38 47 39 48 62 49 63 50 71 51 64 52 70 53 65 54 66 55
REMARK SMILES IDX 67 56 68 57 69 58 48 59 49 60 57 61 50 62 56 63 51 64 52 65
REMARK SMILES IDX 53 66 54 67 55 68 6 69 7 70 8 71 9 72 10 73 11 74 12 76
REMARK SMILES IDX 13 77 14 78 22 79 15 80 21 81 16 82 20 83 17 84 18 85 19 86
REMARK H PARENT 3 6 76 24 46 35 10 75
REMARK Flexibility Score: inf
ROOT
ATOM      1  C   UNL A   1      33.779  31.045  27.437  1.00  0.00     0.021 C 
ENDROOT
BRANCH   1   2
ATOM      2  C   UNL A   1      34.653  32.169  27.992  1.00  0.00     0.116 C 
BRANCH   2   3
ATOM      3  N   UNL A   1      34.440  32.472  29.393  1.00  0.00    -0.352 N 
ATOM      4  O   UNL A   1      34.718  32.721  31.583  1.00  0.00    -0.269 OA
ATOM      5  C   UNL A   1      35.156  32.237  30.536  1.00  0.00     0.251 C 
ATOM      6  H   UNL A   1      33.597  32.953  29.560  1.00  0.00     0.163 HD
BRANCH   5   7
ATOM      7  C   UNL A   1      36.371  31.381  30.596  1.00  0.00     0.039 A 
ATOM      8  C   UNL A   1      37.671  31.830  30.371  1.00  0.00     0.014 A 
ATOM      9  C   UNL A   1      36.167  30.021  30.893  1.00  0.00     0.014 A 
ATOM     10  C   UNL A   1      38.726  30.926  30.318  1.00  0.00     0.010 A 
ATOM     11  C   UNL A   1      37.226  29.116  30.879  1.00  0.00     0.010 A 
ATOM     12  C   UNL A   1      38.501  29.565  30.548  1.00  0.00    -0.014 A 
BRANCH  12  13
ATOM     13  C   UNL A   1      39.659  28.683  30.464  1.00  0.00     0.031 A 
ATOM     14  C   UNL A   1      40.421  28.460  31.727  1.00  0.00     0.074 A 
ATOM     15  C   UNL A   1      40.040  28.048  29.341  1.00  0.00     0.049 A 
ATOM     16  N   UNL A   1      41.631  28.822  32.009  1.00  0.00    -0.248 NA
ATOM     17  C   UNL A   1      39.720  27.798  32.835  1.00  0.00     0.031 C 
ATOM     18  C   UNL A   1      39.307  27.879  28.085  1.00  0.00     0.029 A 
ATOM     19  N   UNL A   1      41.180  27.332  29.137  1.00  0.00    -0.354 N 
ATOM     20  C   UNL A   1      41.903  28.327  33.284  1.00  0.00     0.074 A 
ATOM     21  C   UNL A   1      40.665  27.771  33.775  1.00  0.00     0.031 C 
ATOM     22  C   UNL A   1      39.924  26.935  27.338  1.00  0.00     0.029 A 
ATOM     23  C   UNL A   1      41.165  26.554  27.992  1.00  0.00     0.049 A 
ATOM     24  H   UNL A   1      41.949  27.366  29.751  1.00  0.00     0.167 HD
ATOM     25  C   UNL A   1      43.155  28.294  33.822  1.00  0.00     0.031 A 
ATOM     26  C   UNL A   1      42.083  25.617  27.654  1.00  0.00     0.031 A 
ATOM     27  C   UNL A   1      44.099  29.077  33.077  1.00  0.00     0.049 A 
ATOM     28  C   UNL A   1      43.334  25.936  28.385  1.00  0.00     0.074 A 
ATOM     29  C   UNL A   1      44.280  30.420  32.827  1.00  0.00     0.029 A 
ATOM     30  N   UNL A   1      44.907  28.412  32.186  1.00  0.00    -0.354 N 
ATOM     31  N   UNL A   1      44.053  27.001  28.165  1.00  0.00    -0.248 NA
ATOM     32  C   UNL A   1      43.611  25.248  29.637  1.00  0.00     0.031 C 
ATOM     33  C   UNL A   1      44.821  30.483  31.510  1.00  0.00     0.029 A 
ATOM     34  C   UNL A   1      44.947  29.171  31.044  1.00  0.00     0.049 A 
ATOM     35  H   UNL A   1      45.368  27.557  32.338  1.00  0.00     0.167 HD
ATOM     36  C   UNL A   1      44.588  27.338  29.399  1.00  0.00     0.074 A 
ATOM     37  C   UNL A   1      44.375  26.163  30.237  1.00  0.00     0.031 C 
ATOM     38  C   UNL A   1      44.920  28.628  29.701  1.00  0.00     0.031 A 
BRANCH  25  39
ATOM     39  C   UNL A   1      43.607  27.328  34.883  1.00  0.00    -0.014 A 
ATOM     40  C   UNL A   1      44.260  27.819  36.034  1.00  0.00     0.010 A 
ATOM     41  C   UNL A   1      43.655  25.937  34.659  1.00  0.00     0.010 A 
ATOM     42  C   UNL A   1      44.977  26.966  36.884  1.00  0.00     0.020 A 
ATOM     43  C   UNL A   1      44.334  25.072  35.523  1.00  0.00     0.020 A 
ATOM     44  C   UNL A   1      45.022  25.598  36.612  1.00  0.00     0.054 A 
BRANCH  44  45
ATOM     45  S   UNL A   1      46.085  24.534  37.623  1.00  0.00     0.124 S 
ATOM     46  O   UNL A   1      45.515  23.212  37.377  1.00  0.00    -0.237 OA
ATOM     47  O   UNL A   1      47.403  24.773  37.039  1.00  0.00    -0.237 OA
ATOM     48  O   UNL A   1      45.903  25.052  38.976  1.00  0.00    -0.744 OA
ENDBRANCH  44  45
ENDBRANCH  25  39
BRANCH  26  49
ATOM     49  C   UNL A   1      41.827  24.292  27.037  1.00  0.00    -0.014 A 
ATOM     50  C   UNL A   1      42.744  23.739  26.125  1.00  0.00     0.010 A 
ATOM     51  C   UNL A   1      40.835  23.442  27.568  1.00  0.00     0.010 A 
ATOM     52  C   UNL A   1      42.722  22.369  25.820  1.00  0.00     0.020 A 
ATOM     53  C   UNL A   1      40.799  22.078  27.261  1.00  0.00     0.020 A 
ATOM     54  C   UNL A   1      41.767  21.542  26.417  1.00  0.00     0.054 A 
BRANCH  54  55
ATOM     55  S   UNL A   1      41.867  19.746  26.167  1.00  0.00     0.124 S 
ATOM     56  O   UNL A   1      42.874  19.631  25.116  1.00  0.00    -0.237 OA
ATOM     57  O   UNL A   1      42.272  19.274  27.487  1.00  0.00    -0.237 OA
ATOM     58  O   UNL A   1      40.510  19.377  25.767  1.00  0.00    -0.744 OA
ENDBRANCH  54  55
ENDBRANCH  26  49
BRANCH  38  59
ATOM     59  C   UNL A   1      44.961  29.639  28.580  1.00  0.00    -0.014 A 
ATOM     60  C   UNL A   1      43.794  30.171  27.998  1.00  0.00     0.010 A 
ATOM     61  C   UNL A   1      46.202  30.207  28.245  1.00  0.00     0.010 A 
ATOM     62  C   UNL A   1      43.868  31.252  27.107  1.00  0.00     0.020 A 
ATOM     63  C   UNL A   1      46.281  31.294  27.368  1.00  0.00     0.020 A 
ATOM     64  C   UNL A   1      45.112  31.817  26.811  1.00  0.00     0.054 A 
BRANCH  64  65
ATOM     65  S   UNL A   1      45.184  33.279  25.737  1.00  0.00     0.124 S 
ATOM     66  O   UNL A   1      44.549  32.810  24.509  1.00  0.00    -0.237 OA
ATOM     67  O   UNL A   1      44.424  34.270  26.498  1.00  0.00    -0.237 OA
ATOM     68  O   UNL A   1      46.614  33.563  25.625  1.00  0.00    -0.744 OA
ENDBRANCH  64  65
ENDBRANCH  38  59
ENDBRANCH  12  13
ENDBRANCH   5   7
ENDBRANCH   2   3
ENDBRANCH   1   2
BRANCH   1  69
ATOM     69  C   UNL A   1      34.487  29.695  27.278  1.00  0.00     0.002 C 
BRANCH  69  70
ATOM     70  C   UNL A   1      33.614  28.538  26.780  1.00  0.00     0.002 C 
BRANCH  70  71
ATOM     71  C   UNL A   1      34.105  27.837  25.510  1.00  0.00     0.021 C 
BRANCH  71  72
ATOM     72  C   UNL A   1      33.114  26.856  24.888  1.00  0.00     0.116 C 
BRANCH  72  73
ATOM     73  N   UNL A   1      33.136  26.912  23.436  1.00  0.00    -0.350 N 
ATOM     74  C   UNL A   1      33.497  25.926  22.537  1.00  0.00     0.280 C 
ATOM     75  H   UNL A   1      32.855  27.767  23.039  1.00  0.00     0.163 HD
ATOM     76  O   UNL A   1      33.583  26.254  21.348  1.00  0.00    -0.267 OA
BRANCH  74  77
ATOM     77  C   UNL A   1      33.785  24.586  23.028  1.00  0.00     0.182 A 
ATOM     78  N   UNL A   1      35.007  24.144  23.245  1.00  0.00    -0.228 NA
ATOM     79  S   UNL A   1      32.520  23.464  23.312  1.00  0.00    -0.109 S 
ATOM     80  C   UNL A   1      34.949  22.875  23.808  1.00  0.00     0.118 A 
ATOM     81  C   UNL A   1      33.660  22.360  23.976  1.00  0.00     0.058 A 
ATOM     82  C   UNL A   1      36.033  22.082  24.240  1.00  0.00     0.150 A 
ATOM     83  C   UNL A   1      33.423  21.122  24.597  1.00  0.00     0.021 A 
ATOM     84  F   UNL A   1      37.296  22.509  24.086  1.00  0.00    -0.205 F 
ATOM     85  C   UNL A   1      35.817  20.848  24.855  1.00  0.00     0.041 A 
ATOM     86  C   UNL A   1      34.521  20.379  25.044  1.00  0.00     0.005 A 
ENDBRANCH  74  77
ENDBRANCH  72  73
ENDBRANCH  71  72
ENDBRANCH  70  71
ENDBRANCH  69  70
ENDBRANCH   1  69
TORSDOF 16
ENDMDL
