MODEL 1
REMARK VINA RESULT:     -12.8      0.000      0.000
REMARK SMILES CC(C)c1cc(C#N)cc2nc(-c3ccc(C(=O)NCCCCCCNC(=O)c4ccc(-c5c6nc(c(-c7ccc(S(=O)(=O)[O-])cc7)c7ccc([nH]7)c(-c7ccc(S(=O)(=O)[O-])cc7)c7nc(c(-c8ccc(S(=O)(=O)[O-])cc8)c8ccc5[nH]8)C=C7)C=C6)cc4)cc3)oc12
REMARK SMILES IDX 23 1 22 2 21 3 20 4 19 5 17 6 18 7 16 9 13 10 14 11 90 12
REMARK SMILES IDX 15 13 89 14 12 15 4 16 5 17 92 18 6 19 10 20 91 21 9 22
REMARK SMILES IDX 11 23 2 24 1 25 3 26 7 27 8 28 24 29 25 30 26 31 27 32 28 34
REMARK SMILES IDX 29 35 30 36 88 37 31 38 87 39 32 40 33 41 34 42 81 43 35 44
REMARK SMILES IDX 86 45 80 46 82 47 36 48 85 49 79 50 78 51 37 53 67 54 48 55
REMARK SMILES IDX 66 56 49 57 52 58 65 59 83 60 50 61 51 62 64 64 84 65 53 66
REMARK SMILES IDX 38 67 39 68 47 69 40 70 46 71 41 72 42 73 43 74 44 75 45 76
REMARK SMILES IDX 68 77 69 78 77 79 70 80 76 81 71 82 72 83 73 84 74 85 75 86
REMARK SMILES IDX 54 87 55 88 63 89 56 90 62 91 57 92 58 93 59 94 60 95 61 96
REMARK H PARENT 19 8 26 33 82 52 52 63
REMARK Flexibility Score: inf
ROOT
ATOM      1  C   UNL A   1      38.178  23.058  25.736  1.00  0.00     0.002 C 
ENDROOT
BRANCH   1   2
ATOM      2  C   UNL A   1      36.781  22.889  25.128  1.00  0.00     0.002 C 
BRANCH   2   3
ATOM      3  C   UNL A   1      36.406  21.473  24.699  1.00  0.00     0.021 C 
BRANCH   3   4
ATOM      4  C   UNL A   1      35.471  20.720  25.635  1.00  0.00     0.116 C 
BRANCH   4   5
ATOM      5  N   UNL A   1      34.563  19.811  24.954  1.00  0.00    -0.352 N 
ATOM      6  C   UNL A   1      33.363  20.029  24.312  1.00  0.00     0.251 C 
ATOM      7  O   UNL A   1      32.748  19.059  23.870  1.00  0.00    -0.269 OA
ATOM      8  H   UNL A   1      34.858  18.872  24.952  1.00  0.00     0.163 HD
BRANCH   6   9
ATOM      9  C   UNL A   1      32.754  21.384  24.190  1.00  0.00     0.039 A 
ATOM     10  C   UNL A   1      31.726  24.016  24.162  1.00  0.00     0.037 A 
ATOM     11  C   UNL A   1      31.380  23.140  25.195  1.00  0.00     0.014 A 
ATOM     12  C   UNL A   1      32.519  23.534  23.112  1.00  0.00     0.014 A 
ATOM     13  C   UNL A   1      31.896  21.833  25.209  1.00  0.00     0.014 A 
ATOM     14  C   UNL A   1      32.981  22.220  23.099  1.00  0.00     0.014 A 
BRANCH  10  15
ATOM     15  C   UNL A   1      31.259  25.390  24.066  1.00  0.00     0.227 A 
ATOM     16  C   UNL A   1      31.314  28.763  25.126  1.00  0.00     0.001 A 
ATOM     17  C   UNL A   1      30.646  29.789  24.411  1.00  0.00     0.027 A 
ATOM     18  C   UNL A   1      31.169  27.491  24.560  1.00  0.00     0.158 A 
ATOM     19  C   UNL A   1      29.900  29.544  23.244  1.00  0.00     0.055 A 
ATOM     20  C   UNL A   1      30.461  27.225  23.397  1.00  0.00     0.111 A 
ATOM     21  O   UNL A   1      31.681  26.296  25.009  1.00  0.00    -0.436 OA
ATOM     22  C   UNL A   1      29.808  28.254  22.715  1.00  0.00     0.052 A 
ATOM     23  N   UNL A   1      30.538  25.903  23.090  1.00  0.00    -0.209 NA
BRANCH  16  24
ATOM     24  C   UNL A   1      32.132  29.044  26.366  1.00  0.00     0.017 C 
ATOM     25  C   UNL A   1      32.260  30.552  26.597  1.00  0.00     0.012 C 
ATOM     26  C   UNL A   1      31.566  28.353  27.610  1.00  0.00     0.012 C 
ENDBRANCH  16  24
BRANCH  19  27
ATOM     27  C   UNL A   1      29.218  30.617  22.591  1.00  0.00     0.099 C 
ATOM     28  N   UNL A   1      28.649  31.492  22.065  1.00  0.00    -0.192 NA
ENDBRANCH  19  27
ENDBRANCH  10  15
ENDBRANCH   6   9
ENDBRANCH   4   5
ENDBRANCH   3   4
ENDBRANCH   2   3
ENDBRANCH   1   2
BRANCH   1  29
ATOM     29  C   UNL A   1      38.977  21.771  25.971  1.00  0.00     0.021 C 
BRANCH  29  30
ATOM     30  C   UNL A   1      40.366  21.966  26.577  1.00  0.00     0.116 C 
BRANCH  30  31
ATOM     31  N   UNL A   1      41.408  22.236  25.610  1.00  0.00    -0.352 N 
ATOM     32  C   UNL A   1      42.345  23.218  25.459  1.00  0.00     0.251 C 
ATOM     33  H   UNL A   1      41.451  21.556  24.899  1.00  0.00     0.163 HD
ATOM     34  O   UNL A   1      43.216  23.006  24.612  1.00  0.00    -0.269 OA
BRANCH  32  35
ATOM     35  C   UNL A   1      42.320  24.534  26.151  1.00  0.00     0.039 A 
ATOM     36  C   UNL A   1      43.033  24.870  27.302  1.00  0.00     0.014 A 
ATOM     37  C   UNL A   1      41.408  25.470  25.627  1.00  0.00     0.014 A 
ATOM     38  C   UNL A   1      42.714  26.027  28.005  1.00  0.00     0.010 A 
ATOM     39  C   UNL A   1      41.105  26.640  26.309  1.00  0.00     0.010 A 
ATOM     40  C   UNL A   1      41.704  26.877  27.538  1.00  0.00    -0.014 A 
BRANCH  40  41
ATOM     41  C   UNL A   1      41.415  28.101  28.279  1.00  0.00     0.031 A 
ATOM     42  C   UNL A   1      42.450  29.151  28.085  1.00  0.00     0.074 A 
ATOM     43  C   UNL A   1      40.294  28.306  29.004  1.00  0.00     0.049 A 
ATOM     44  N   UNL A   1      43.271  29.596  28.976  1.00  0.00    -0.248 NA
ATOM     45  C   UNL A   1      42.739  29.624  26.720  1.00  0.00     0.031 C 
ATOM     46  C   UNL A   1      39.113  27.447  29.129  1.00  0.00     0.029 A 
ATOM     47  N   UNL A   1      39.935  29.397  29.741  1.00  0.00    -0.354 N 
ATOM     48  C   UNL A   1      44.043  30.563  28.343  1.00  0.00     0.074 A 
ATOM     49  C   UNL A   1      43.790  30.420  26.932  1.00  0.00     0.031 C 
ATOM     50  C   UNL A   1      38.092  28.154  29.672  1.00  0.00     0.029 A 
ATOM     51  C   UNL A   1      38.581  29.462  30.072  1.00  0.00     0.049 A 
ATOM     52  H   UNL A   1      40.582  30.084  30.019  1.00  0.00     0.167 HD
ATOM     53  C   UNL A   1      44.664  31.542  29.056  1.00  0.00     0.031 A 
ATOM     54  C   UNL A   1      37.915  30.519  30.617  1.00  0.00     0.031 A 
ATOM     55  C   UNL A   1      44.724  31.212  30.456  1.00  0.00     0.049 A 
ATOM     56  C   UNL A   1      38.934  31.371  31.276  1.00  0.00     0.074 A 
ATOM     57  C   UNL A   1      45.316  30.196  31.180  1.00  0.00     0.029 A 
ATOM     58  N   UNL A   1      43.760  31.757  31.268  1.00  0.00    -0.354 N 
ATOM     59  N   UNL A   1      39.587  30.996  32.338  1.00  0.00    -0.248 NA
ATOM     60  C   UNL A   1      39.561  32.415  30.480  1.00  0.00     0.031 C 
ATOM     61  C   UNL A   1      44.362  29.864  32.182  1.00  0.00     0.029 A 
ATOM     62  C   UNL A   1      43.296  30.761  32.088  1.00  0.00     0.049 A 
ATOM     63  H   UNL A   1      43.455  32.693  31.263  1.00  0.00     0.167 HD
ATOM     64  C   UNL A   1      40.891  31.392  32.090  1.00  0.00     0.074 A 
ATOM     65  C   UNL A   1      40.801  32.331  30.970  1.00  0.00     0.031 C 
ATOM     66  C   UNL A   1      41.947  30.703  32.612  1.00  0.00     0.031 A 
BRANCH  53  67
ATOM     67  C   UNL A   1      44.885  32.943  28.551  1.00  0.00    -0.014 A 
ATOM     68  C   UNL A   1      43.834  33.825  28.229  1.00  0.00     0.010 A 
ATOM     69  C   UNL A   1      46.180  33.494  28.634  1.00  0.00     0.010 A 
ATOM     70  C   UNL A   1      44.057  35.182  27.989  1.00  0.00     0.020 A 
ATOM     71  C   UNL A   1      46.409  34.861  28.435  1.00  0.00     0.020 A 
ATOM     72  C   UNL A   1      45.345  35.694  28.101  1.00  0.00     0.054 A 
BRANCH  72  73
ATOM     73  S   UNL A   1      45.586  37.466  27.835  1.00  0.00     0.124 S 
ATOM     74  O   UNL A   1      44.709  37.717  26.695  1.00  0.00    -0.237 OA
ATOM     75  O   UNL A   1      45.150  38.035  29.106  1.00  0.00    -0.237 OA
ATOM     76  O   UNL A   1      47.016  37.579  27.559  1.00  0.00    -0.744 OA
ENDBRANCH  72  73
ENDBRANCH  53  67
BRANCH  54  77
ATOM     77  C   UNL A   1      36.588  31.088  30.233  1.00  0.00    -0.014 A 
ATOM     78  C   UNL A   1      36.298  31.343  28.880  1.00  0.00     0.010 A 
ATOM     79  C   UNL A   1      35.777  31.722  31.204  1.00  0.00     0.010 A 
ATOM     80  C   UNL A   1      35.337  32.294  28.510  1.00  0.00     0.020 A 
ATOM     81  C   UNL A   1      34.812  32.679  30.839  1.00  0.00     0.020 A 
ATOM     82  C   UNL A   1      34.640  32.997  29.493  1.00  0.00     0.054 A 
BRANCH  82  83
ATOM     83  S   UNL A   1      33.624  34.416  28.979  1.00  0.00     0.124 S 
ATOM     84  O   UNL A   1      32.728  33.806  28.000  1.00  0.00    -0.237 OA
ATOM     85  O   UNL A   1      32.994  34.826  30.231  1.00  0.00    -0.237 OA
ATOM     86  O   UNL A   1      34.594  35.362  28.435  1.00  0.00    -0.744 OA
ENDBRANCH  82  83
ENDBRANCH  54  77
BRANCH  66  87
ATOM     87  C   UNL A   1      41.690  29.632  33.653  1.00  0.00    -0.014 A 
ATOM     88  C   UNL A   1      41.986  29.963  34.987  1.00  0.00     0.010 A 
ATOM     89  C   UNL A   1      41.386  28.288  33.349  1.00  0.00     0.010 A 
ATOM     90  C   UNL A   1      42.030  28.986  35.981  1.00  0.00     0.020 A 
ATOM     91  C   UNL A   1      41.397  27.303  34.353  1.00  0.00     0.020 A 
ATOM     92  C   UNL A   1      41.746  27.659  35.658  1.00  0.00     0.054 A 
BRANCH  92  93
ATOM     93  S   UNL A   1      41.874  26.422  36.979  1.00  0.00     0.124 S 
ATOM     94  O   UNL A   1      43.001  26.922  37.764  1.00  0.00    -0.237 OA
ATOM     95  O   UNL A   1      40.570  26.515  37.633  1.00  0.00    -0.237 OA
ATOM     96  O   UNL A   1      42.121  25.169  36.269  1.00  0.00    -0.744 OA
ENDBRANCH  92  93
ENDBRANCH  66  87
ENDBRANCH  40  41
ENDBRANCH  32  35
ENDBRANCH  30  31
ENDBRANCH  29  30
ENDBRANCH   1  29
TORSDOF 19
ENDMDL
MODEL 2
REMARK VINA RESULT:     -12.0      2.677      9.982
REMARK SMILES CC(C)c1cc(C#N)cc2nc(-c3ccc(C(=O)NCCCCCCNC(=O)c4ccc(-c5c6nc(c(-c7ccc(S(=O)(=O)[O-])cc7)c7ccc([nH]7)c(-c7ccc(S(=O)(=O)[O-])cc7)c7nc(c(-c8ccc(S(=O)(=O)[O-])cc8)c8ccc5[nH]8)C=C7)C=C6)cc4)cc3)oc12
REMARK SMILES IDX 23 1 22 2 21 3 20 4 19 5 17 6 18 7 16 9 13 10 14 11 90 12
REMARK SMILES IDX 15 13 89 14 12 15 4 16 5 17 92 18 6 19 10 20 91 21 9 22
REMARK SMILES IDX 11 23 2 24 1 25 3 26 7 27 8 28 24 29 25 30 26 31 27 32 28 34
REMARK SMILES IDX 29 35 30 36 88 37 31 38 87 39 32 40 33 41 34 42 81 43 35 44
REMARK SMILES IDX 86 45 80 46 82 47 36 48 85 49 79 50 78 51 37 53 67 54 48 55
REMARK SMILES IDX 66 56 49 57 52 58 65 59 83 60 50 61 51 62 64 64 84 65 53 66
REMARK SMILES IDX 38 67 39 68 47 69 40 70 46 71 41 72 42 73 43 74 44 75 45 76
REMARK SMILES IDX 68 77 69 78 77 79 70 80 76 81 71 82 72 83 73 84 74 85 75 86
REMARK SMILES IDX 54 87 55 88 63 89 56 90 62 91 57 92 58 93 59 94 60 95 61 96
REMARK H PARENT 19 8 26 33 82 52 52 63
REMARK Flexibility Score: inf
ROOT
ATOM      1  C   UNL A   1      33.246  27.079  26.039  1.00  0.00     0.002 C 
ENDROOT
BRANCH   1   2
ATOM      2  C   UNL A   1      31.990  26.896  25.180  1.00  0.00     0.002 C 
BRANCH   2   3
ATOM      3  C   UNL A   1      32.028  27.541  23.797  1.00  0.00     0.021 C 
BRANCH   3   4
ATOM      4  C   UNL A   1      32.329  26.606  22.633  1.00  0.00     0.116 C 
BRANCH   4   5
ATOM      5  N   UNL A   1      31.601  25.349  22.684  1.00  0.00    -0.352 N 
ATOM      6  C   UNL A   1      31.971  24.096  23.123  1.00  0.00     0.251 C 
ATOM      7  O   UNL A   1      31.174  23.168  22.991  1.00  0.00    -0.269 OA
ATOM      8  H   UNL A   1      30.679  25.402  22.344  1.00  0.00     0.163 HD
BRANCH   6   9
ATOM      9  C   UNL A   1      33.319  23.812  23.692  1.00  0.00     0.039 A 
ATOM     10  C   UNL A   1      35.782  23.056  24.852  1.00  0.00     0.037 A 
ATOM     11  C   UNL A   1      34.675  23.312  25.665  1.00  0.00     0.014 A 
ATOM     12  C   UNL A   1      35.661  23.261  23.471  1.00  0.00     0.014 A 
ATOM     13  C   UNL A   1      33.450  23.683  25.086  1.00  0.00     0.014 A 
ATOM     14  C   UNL A   1      34.462  23.686  22.906  1.00  0.00     0.014 A 
BRANCH  10  15
ATOM     15  C   UNL A   1      37.086  22.651  25.352  1.00  0.00     0.227 A 
ATOM     16  C   UNL A   1      40.088  23.337  27.092  1.00  0.00     0.001 A 
ATOM     17  C   UNL A   1      41.019  22.319  27.419  1.00  0.00     0.027 A 
ATOM     18  C   UNL A   1      38.966  22.875  26.392  1.00  0.00     0.158 A 
ATOM     19  C   UNL A   1      40.832  20.970  27.063  1.00  0.00     0.055 A 
ATOM     20  C   UNL A   1      38.744  21.548  26.052  1.00  0.00     0.111 A 
ATOM     21  O   UNL A   1      37.895  23.601  25.928  1.00  0.00    -0.436 OA
ATOM     22  C   UNL A   1      39.681  20.567  26.382  1.00  0.00     0.052 A 
ATOM     23  N   UNL A   1      37.552  21.420  25.411  1.00  0.00    -0.209 NA
BRANCH  16  24
ATOM     24  C   UNL A   1      40.290  24.778  27.501  1.00  0.00     0.017 C 
ATOM     25  C   UNL A   1      39.052  25.309  28.230  1.00  0.00     0.012 C 
ATOM     26  C   UNL A   1      41.546  24.974  28.355  1.00  0.00     0.012 C 
ENDBRANCH  16  24
BRANCH  19  27
ATOM     27  C   UNL A   1      41.828  19.999  27.389  1.00  0.00     0.099 C 
ATOM     28  N   UNL A   1      42.645  19.202  27.642  1.00  0.00    -0.192 NA
ENDBRANCH  19  27
ENDBRANCH  10  15
ENDBRANCH   6   9
ENDBRANCH   4   5
ENDBRANCH   3   4
ENDBRANCH   2   3
ENDBRANCH   1   2
BRANCH   1  29
ATOM     29  C   UNL A   1      33.241  28.272  27.004  1.00  0.00     0.021 C 
BRANCH  29  30
ATOM     30  C   UNL A   1      33.991  29.510  26.515  1.00  0.00     0.116 C 
BRANCH  30  31
ATOM     31  N   UNL A   1      33.914  30.647  27.405  1.00  0.00    -0.352 N 
ATOM     32  C   UNL A   1      34.809  31.307  28.198  1.00  0.00     0.251 C 
ATOM     33  H   UNL A   1      33.009  31.033  27.451  1.00  0.00     0.163 HD
ATOM     34  O   UNL A   1      34.424  32.380  28.669  1.00  0.00    -0.269 OA
BRANCH  32  35
ATOM     35  C   UNL A   1      36.138  30.778  28.606  1.00  0.00     0.039 A 
ATOM     36  C   UNL A   1      37.093  31.455  29.365  1.00  0.00     0.014 A 
ATOM     37  C   UNL A   1      36.470  29.517  28.077  1.00  0.00     0.014 A 
ATOM     38  C   UNL A   1      38.394  30.967  29.442  1.00  0.00     0.010 A 
ATOM     39  C   UNL A   1      37.759  29.011  28.173  1.00  0.00     0.010 A 
ATOM     40  C   UNL A   1      38.737  29.777  28.790  1.00  0.00    -0.014 A 
BRANCH  40  41
ATOM     41  C   UNL A   1      40.102  29.273  28.917  1.00  0.00     0.031 A 
ATOM     42  C   UNL A   1      40.452  28.902  30.314  1.00  0.00     0.074 A 
ATOM     43  C   UNL A   1      40.943  29.082  27.878  1.00  0.00     0.049 A 
ATOM     44  N   UNL A   1      41.309  29.495  31.075  1.00  0.00    -0.248 NA
ATOM     45  C   UNL A   1      39.636  27.892  31.010  1.00  0.00     0.031 C 
ATOM     46  C   UNL A   1      40.675  29.220  26.444  1.00  0.00     0.029 A 
ATOM     47  N   UNL A   1      42.232  28.635  27.888  1.00  0.00    -0.354 N 
ATOM     48  C   UNL A   1      41.302  28.802  32.280  1.00  0.00     0.074 A 
ATOM     49  C   UNL A   1      40.146  27.942  32.243  1.00  0.00     0.031 C 
ATOM     50  C   UNL A   1      41.667  28.627  25.737  1.00  0.00     0.029 A 
ATOM     51  C   UNL A   1      42.712  28.200  26.651  1.00  0.00     0.049 A 
ATOM     52  H   UNL A   1      42.782  28.621  28.704  1.00  0.00     0.167 HD
ATOM     53  C   UNL A   1      42.372  28.842  33.120  1.00  0.00     0.031 A 
ATOM     54  C   UNL A   1      43.872  27.526  26.407  1.00  0.00     0.031 A 
ATOM     55  C   UNL A   1      43.256  29.929  32.789  1.00  0.00     0.049 A 
ATOM     56  C   UNL A   1      44.769  27.793  27.556  1.00  0.00     0.074 A 
ATOM     57  C   UNL A   1      43.122  31.303  32.761  1.00  0.00     0.029 A 
ATOM     58  N   UNL A   1      44.352  29.630  32.016  1.00  0.00    -0.354 N 
ATOM     59  N   UNL A   1      45.282  28.966  27.794  1.00  0.00    -0.248 NA
ATOM     60  C   UNL A   1      44.701  26.888  28.693  1.00  0.00     0.031 C 
ATOM     61  C   UNL A   1      43.830  31.711  31.597  1.00  0.00     0.029 A 
ATOM     62  C   UNL A   1      44.447  30.588  31.041  1.00  0.00     0.049 A 
ATOM     63  H   UNL A   1      44.960  28.865  32.140  1.00  0.00     0.167 HD
ATOM     64  C   UNL A   1      45.155  29.119  29.165  1.00  0.00     0.074 A 
ATOM     65  C   UNL A   1      44.866  27.777  29.676  1.00  0.00     0.031 C 
ATOM     66  C   UNL A   1      45.001  30.354  29.724  1.00  0.00     0.031 A 
BRANCH  53  67
ATOM     67  C   UNL A   1      42.803  27.694  33.993  1.00  0.00    -0.014 A 
ATOM     68  C   UNL A   1      43.498  26.569  33.508  1.00  0.00     0.010 A 
ATOM     69  C   UNL A   1      42.736  27.850  35.393  1.00  0.00     0.010 A 
ATOM     70  C   UNL A   1      44.086  25.638  34.365  1.00  0.00     0.020 A 
ATOM     71  C   UNL A   1      43.358  26.944  36.262  1.00  0.00     0.020 A 
ATOM     72  C   UNL A   1      44.018  25.835  35.740  1.00  0.00     0.054 A 
BRANCH  72  73
ATOM     73  S   UNL A   1      44.838  24.637  36.817  1.00  0.00     0.124 S 
ATOM     74  O   UNL A   1      44.232  24.938  38.112  1.00  0.00    -0.237 OA
ATOM     75  O   UNL A   1      44.452  23.363  36.220  1.00  0.00    -0.237 OA
ATOM     76  O   UNL A   1      46.253  24.979  36.697  1.00  0.00    -0.744 OA
ENDBRANCH  72  73
ENDBRANCH  53  67
BRANCH  54  77
ATOM     77  C   UNL A   1      44.097  26.337  25.532  1.00  0.00    -0.014 A 
ATOM     78  C   UNL A   1      43.070  25.392  25.354  1.00  0.00     0.010 A 
ATOM     79  C   UNL A   1      45.412  25.942  25.192  1.00  0.00     0.010 A 
ATOM     80  C   UNL A   1      43.356  24.069  24.988  1.00  0.00     0.020 A 
ATOM     81  C   UNL A   1      45.706  24.615  24.825  1.00  0.00     0.020 A 
ATOM     82  C   UNL A   1      44.678  23.675  24.781  1.00  0.00     0.054 A 
BRANCH  82  83
ATOM     83  S   UNL A   1      45.028  21.899  24.597  1.00  0.00     0.124 S 
ATOM     84  O   UNL A   1      44.652  21.662  23.206  1.00  0.00    -0.237 OA
ATOM     85  O   UNL A   1      46.459  21.827  24.878  1.00  0.00    -0.237 OA
ATOM     86  O   UNL A   1      44.167  21.268  25.594  1.00  0.00    -0.744 OA
ENDBRANCH  82  83
ENDBRANCH  54  77
BRANCH  66  87
ATOM     87  C   UNL A   1      45.196  31.586  28.863  1.00  0.00    -0.014 A 
ATOM     88  C   UNL A   1      44.393  31.687  27.713  1.00  0.00     0.010 A 
ATOM     89  C   UNL A   1      46.255  32.505  29.022  1.00  0.00     0.010 A 
ATOM     90  C   UNL A   1      44.661  32.636  26.727  1.00  0.00     0.020 A 
ATOM     91  C   UNL A   1      46.510  33.485  28.047  1.00  0.00     0.020 A 
ATOM     92  C   UNL A   1      45.725  33.524  26.892  1.00  0.00     0.054 A 
BRANCH  92  93
ATOM     93  S   UNL A   1      46.062  34.698  25.552  1.00  0.00     0.124 S 
ATOM     94  O   UNL A   1      45.080  34.306  24.542  1.00  0.00    -0.237 OA
ATOM     95  O   UNL A   1      45.816  35.991  26.189  1.00  0.00    -0.237 OA
ATOM     96  O   UNL A   1      47.454  34.439  25.194  1.00  0.00    -0.744 OA
ENDBRANCH  92  93
ENDBRANCH  66  87
ENDBRANCH  40  41
ENDBRANCH  32  35
ENDBRANCH  30  31
ENDBRANCH  29  30
ENDBRANCH   1  29
TORSDOF 19
ENDMDL
MODEL 3
REMARK VINA RESULT:     -11.9      2.781      9.846
REMARK SMILES CC(C)c1cc(C#N)cc2nc(-c3ccc(C(=O)NCCCCCCNC(=O)c4ccc(-c5c6nc(c(-c7ccc(S(=O)(=O)[O-])cc7)c7ccc([nH]7)c(-c7ccc(S(=O)(=O)[O-])cc7)c7nc(c(-c8ccc(S(=O)(=O)[O-])cc8)c8ccc5[nH]8)C=C7)C=C6)cc4)cc3)oc12
REMARK SMILES IDX 23 1 22 2 21 3 20 4 19 5 17 6 18 7 16 9 13 10 14 11 90 12
REMARK SMILES IDX 15 13 89 14 12 15 4 16 5 17 92 18 6 19 10 20 91 21 9 22
REMARK SMILES IDX 11 23 2 24 1 25 3 26 7 27 8 28 24 29 25 30 26 31 27 32 28 34
REMARK SMILES IDX 29 35 30 36 88 37 31 38 87 39 32 40 33 41 34 42 81 43 35 44
REMARK SMILES IDX 86 45 80 46 82 47 36 48 85 49 79 50 78 51 37 53 67 54 48 55
REMARK SMILES IDX 66 56 49 57 52 58 65 59 83 60 50 61 51 62 64 64 84 65 53 66
REMARK SMILES IDX 38 67 39 68 47 69 40 70 46 71 41 72 42 73 43 74 44 75 45 76
REMARK SMILES IDX 68 77 69 78 77 79 70 80 76 81 71 82 72 83 73 84 74 85 75 86
REMARK SMILES IDX 54 87 55 88 63 89 56 90 62 91 57 92 58 93 59 94 60 95 61 96
REMARK H PARENT 19 8 26 33 82 52 52 63
REMARK Flexibility Score: inf
ROOT
ATOM      1  C   UNL A   1      32.679  30.933  27.259  1.00  0.00     0.002 C 
ENDROOT
BRANCH   1   2
ATOM      2  C   UNL A   1      33.414  29.963  26.327  1.00  0.00     0.002 C 
BRANCH   2   3
ATOM      3  C   UNL A   1      32.672  29.572  25.052  1.00  0.00     0.021 C 
BRANCH   3   4
ATOM      4  C   UNL A   1      31.180  29.877  25.029  1.00  0.00     0.116 C 
BRANCH   4   5
ATOM      5  N   UNL A   1      30.584  29.798  23.706  1.00  0.00    -0.352 N 
ATOM      6  C   UNL A   1      30.497  28.762  22.802  1.00  0.00     0.251 C 
ATOM      7  O   UNL A   1      29.991  28.981  21.702  1.00  0.00    -0.269 OA
ATOM      8  H   UNL A   1      30.166  30.636  23.400  1.00  0.00     0.163 HD
BRANCH   6   9
ATOM      9  C   UNL A   1      31.051  27.405  23.082  1.00  0.00     0.039 A 
ATOM     10  C   UNL A   1      31.895  24.743  23.505  1.00  0.00     0.037 A 
ATOM     11  C   UNL A   1      30.770  25.235  24.173  1.00  0.00     0.014 A 
ATOM     12  C   UNL A   1      32.629  25.618  22.694  1.00  0.00     0.014 A 
ATOM     13  C   UNL A   1      30.349  26.558  23.958  1.00  0.00     0.014 A 
ATOM     14  C   UNL A   1      32.243  26.946  22.529  1.00  0.00     0.014 A 
BRANCH  10  15
ATOM     15  C   UNL A   1      32.400  23.386  23.648  1.00  0.00     0.227 A 
ATOM     16  C   UNL A   1      34.803  21.084  24.845  1.00  0.00     0.001 A 
ATOM     17  C   UNL A   1      34.601  19.683  24.781  1.00  0.00     0.027 A 
ATOM     18  C   UNL A   1      33.747  21.834  24.312  1.00  0.00     0.158 A 
ATOM     19  C   UNL A   1      33.446  19.102  24.224  1.00  0.00     0.055 A 
ATOM     20  C   UNL A   1      32.587  21.288  23.781  1.00  0.00     0.111 A 
ATOM     21  O   UNL A   1      33.637  23.201  24.217  1.00  0.00    -0.436 OA
ATOM     22  C   UNL A   1      32.417  19.904  23.726  1.00  0.00     0.052 A 
ATOM     23  N   UNL A   1      31.743  22.276  23.381  1.00  0.00    -0.209 NA
BRANCH  16  24
ATOM     24  C   UNL A   1      36.038  21.695  25.467  1.00  0.00     0.017 C 
ATOM     25  C   UNL A   1      37.184  21.743  24.453  1.00  0.00     0.012 C 
ATOM     26  C   UNL A   1      35.773  23.087  26.049  1.00  0.00     0.012 C 
ENDBRANCH  16  24
BRANCH  19  27
ATOM     27  C   UNL A   1      33.321  17.680  24.156  1.00  0.00     0.099 C 
ATOM     28  N   UNL A   1      33.204  16.519  24.099  1.00  0.00    -0.192 NA
ENDBRANCH  19  27
ENDBRANCH  10  15
ENDBRANCH   6   9
ENDBRANCH   4   5
ENDBRANCH   3   4
ENDBRANCH   2   3
ENDBRANCH   1   2
BRANCH   1  29
ATOM     29  C   UNL A   1      33.429  32.219  27.629  1.00  0.00     0.021 C 
BRANCH  29  30
ATOM     30  C   UNL A   1      34.665  32.025  28.507  1.00  0.00     0.116 C 
BRANCH  30  31
ATOM     31  N   UNL A   1      34.427  32.204  29.922  1.00  0.00    -0.352 N 
ATOM     32  C   UNL A   1      35.175  32.023  31.051  1.00  0.00     0.251 C 
ATOM     33  H   UNL A   1      33.518  32.530  30.116  1.00  0.00     0.163 HD
ATOM     34  O   UNL A   1      34.699  32.483  32.092  1.00  0.00    -0.269 OA
BRANCH  32  35
ATOM     35  C   UNL A   1      36.435  31.237  31.122  1.00  0.00     0.039 A 
ATOM     36  C   UNL A   1      37.721  31.758  31.259  1.00  0.00     0.014 A 
ATOM     37  C   UNL A   1      36.288  29.850  30.930  1.00  0.00     0.014 A 
ATOM     38  C   UNL A   1      38.829  30.946  31.034  1.00  0.00     0.010 A 
ATOM     39  C   UNL A   1      37.389  29.029  30.731  1.00  0.00     0.010 A 
ATOM     40  C   UNL A   1      38.655  29.596  30.707  1.00  0.00    -0.014 A 
BRANCH  40  41
ATOM     41  C   UNL A   1      39.837  28.762  30.509  1.00  0.00     0.031 A 
ATOM     42  C   UNL A   1      40.554  28.467  31.778  1.00  0.00     0.074 A 
ATOM     43  C   UNL A   1      40.210  28.238  29.321  1.00  0.00     0.049 A 
ATOM     44  N   UNL A   1      41.726  28.888  32.115  1.00  0.00    -0.248 NA
ATOM     45  C   UNL A   1      39.826  27.797  32.869  1.00  0.00     0.031 C 
ATOM     46  C   UNL A   1      39.505  28.284  28.038  1.00  0.00     0.029 A 
ATOM     47  N   UNL A   1      41.294  27.466  29.025  1.00  0.00    -0.354 N 
ATOM     48  C   UNL A   1      41.981  28.360  33.375  1.00  0.00     0.074 A 
ATOM     49  C   UNL A   1      40.725  27.843  33.856  1.00  0.00     0.031 C 
ATOM     50  C   UNL A   1      40.041  27.372  27.191  1.00  0.00     0.029 A 
ATOM     51  C   UNL A   1      41.217  26.784  27.810  1.00  0.00     0.049 A 
ATOM     52  H   UNL A   1      42.073  27.395  29.624  1.00  0.00     0.167 HD
ATOM     53  C   UNL A   1      43.255  28.204  33.827  1.00  0.00     0.031 A 
ATOM     54  C   UNL A   1      42.047  25.802  27.361  1.00  0.00     0.031 A 
ATOM     55  C   UNL A   1      44.186  28.971  33.040  1.00  0.00     0.049 A 
ATOM     56  C   UNL A   1      43.319  25.943  28.110  1.00  0.00     0.074 A 
ATOM     57  C   UNL A   1      44.352  30.318  32.790  1.00  0.00     0.029 A 
ATOM     58  N   UNL A   1      44.860  28.305  32.045  1.00  0.00    -0.354 N 
ATOM     59  N   UNL A   1      44.124  26.954  27.951  1.00  0.00    -0.248 NA
ATOM     60  C   UNL A   1      43.448  25.220  29.366  1.00  0.00     0.031 C 
ATOM     61  C   UNL A   1      44.691  30.391  31.411  1.00  0.00     0.029 A 
ATOM     62  C   UNL A   1      44.821  29.089  30.921  1.00  0.00     0.049 A 
ATOM     63  H   UNL A   1      45.292  27.424  32.123  1.00  0.00     0.167 HD
ATOM     64  C   UNL A   1      44.509  27.286  29.239  1.00  0.00     0.074 A 
ATOM     65  C   UNL A   1      44.128  26.136  30.062  1.00  0.00     0.031 C 
ATOM     66  C   UNL A   1      44.827  28.571  29.569  1.00  0.00     0.031 A 
BRANCH  53  67
ATOM     67  C   UNL A   1      43.699  27.087  34.733  1.00  0.00    -0.014 A 
ATOM     68  C   UNL A   1      43.208  25.769  34.636  1.00  0.00     0.010 A 
ATOM     69  C   UNL A   1      44.829  27.290  35.550  1.00  0.00     0.010 A 
ATOM     70  C   UNL A   1      43.798  24.709  35.325  1.00  0.00     0.020 A 
ATOM     71  C   UNL A   1      45.455  26.226  36.213  1.00  0.00     0.020 A 
ATOM     72  C   UNL A   1      44.925  24.943  36.105  1.00  0.00     0.054 A 
BRANCH  72  73
ATOM     73  S   UNL A   1      45.694  23.536  36.940  1.00  0.00     0.124 S 
ATOM     74  O   UNL A   1      45.142  23.651  38.287  1.00  0.00    -0.237 OA
ATOM     75  O   UNL A   1      45.213  22.404  36.154  1.00  0.00    -0.237 OA
ATOM     76  O   UNL A   1      47.124  23.810  36.827  1.00  0.00    -0.744 OA
ENDBRANCH  72  73
ENDBRANCH  53  67
BRANCH  54  77
ATOM     77  C   UNL A   1      41.696  24.506  26.705  1.00  0.00    -0.014 A 
ATOM     78  C   UNL A   1      40.612  23.748  27.184  1.00  0.00     0.010 A 
ATOM     79  C   UNL A   1      42.638  23.848  25.879  1.00  0.00     0.010 A 
ATOM     80  C   UNL A   1      40.542  22.364  26.969  1.00  0.00     0.020 A 
ATOM     81  C   UNL A   1      42.574  22.459  25.660  1.00  0.00     0.020 A 
ATOM     82  C   UNL A   1      41.553  21.720  26.256  1.00  0.00     0.054 A 
BRANCH  82  83
ATOM     83  S   UNL A   1      41.577  19.901  26.250  1.00  0.00     0.124 S 
ATOM     84  O   UNL A   1      42.653  19.617  25.304  1.00  0.00    -0.237 OA
ATOM     85  O   UNL A   1      41.871  19.582  27.645  1.00  0.00    -0.237 OA
ATOM     86  O   UNL A   1      40.237  19.535  25.800  1.00  0.00    -0.744 OA
ENDBRANCH  82  83
ENDBRANCH  54  77
BRANCH  66  87
ATOM     87  C   UNL A   1      44.978  29.602  28.469  1.00  0.00    -0.014 A 
ATOM     88  C   UNL A   1      46.193  30.309  28.426  1.00  0.00     0.010 A 
ATOM     89  C   UNL A   1      43.921  30.039  27.642  1.00  0.00     0.010 A 
ATOM     90  C   UNL A   1      46.342  31.442  27.627  1.00  0.00     0.020 A 
ATOM     91  C   UNL A   1      44.075  31.162  26.810  1.00  0.00     0.020 A 
ATOM     92  C   UNL A   1      45.279  31.870  26.831  1.00  0.00     0.054 A 
BRANCH  92  93
ATOM     93  S   UNL A   1      45.510  33.383  25.856  1.00  0.00     0.124 S 
ATOM     94  O   UNL A   1      46.966  33.466  25.753  1.00  0.00    -0.237 OA
ATOM     95  O   UNL A   1      44.815  33.069  24.609  1.00  0.00    -0.237 OA
ATOM     96  O   UNL A   1      44.886  34.426  26.666  1.00  0.00    -0.744 OA
ENDBRANCH  92  93
ENDBRANCH  66  87
ENDBRANCH  40  41
ENDBRANCH  32  35
ENDBRANCH  30  31
ENDBRANCH  29  30
ENDBRANCH   1  29
TORSDOF 19
ENDMDL
