MODEL 1
REMARK VINA RESULT:     -12.3      0.000      0.000
REMARK SMILES O=C(NCCCCCCNC(=O)c1ccc(N2C(=O)C[C@H]([NH+]3CCN(c4ccc(F)cc4)CC3)C2=O)cc1)c1ccc(-c2c3nc(c(-c4ccc(S(=O)(=O)[O-])cc4)c4ccc([nH]4)c(-c4ccc(S(=O)(=O)[O-])cc4)c4nc(c(-c5ccc(S(=O)(=O)[O-])cc5)c5ccc2[nH]5)C=C4)C=C3)cc1
REMARK SMILES IDX 6 1 5 2 4 3 3 4 1 5 2 6 39 8 40 9 98 10 41 11 97 12 42 13
REMARK SMILES IDX 43 14 44 15 91 16 45 17 96 18 90 19 92 20 46 21 95 22 89 23
REMARK SMILES IDX 88 24 47 26 77 27 58 28 76 29 59 30 62 31 75 32 93 33 60 34
REMARK SMILES IDX 61 35 74 37 94 38 63 39 48 40 49 41 57 42 50 43 56 44 51 45
REMARK SMILES IDX 52 46 53 47 54 48 55 49 78 50 79 51 87 52 80 53 86 54 81 55
REMARK SMILES IDX 82 56 83 57 84 58 85 59 64 60 65 61 73 62 66 63 72 64 67 65
REMARK SMILES IDX 68 66 69 67 70 68 71 69 7 70 8 71 9 72 10 73 11 74 12 76
REMARK SMILES IDX 13 77 14 78 38 79 15 80 37 81 16 82 17 83 18 84 35 85 19 86
REMARK SMILES IDX 20 87 21 88 36 89 22 90 23 91 34 92 24 94 33 95 25 96 26 97
REMARK SMILES IDX 27 98 32 99 28 100 31 101 29 102 30 103
REMARK H PARENT 3 7 92 25 62 36 10 75 22 93
REMARK Flexibility Score: inf
ROOT
ATOM      1  C   UNL A   1      31.009  32.032  26.119  1.00  0.00     0.002 C 
ENDROOT
BRANCH   1   2
ATOM      2  C   UNL A   1      32.085  31.236  26.856  1.00  0.00     0.021 C 
BRANCH   2   3
ATOM      3  C   UNL A   1      33.253  32.058  27.382  1.00  0.00     0.116 C 
BRANCH   3   4
ATOM      4  N   UNL A   1      32.889  33.429  27.696  1.00  0.00    -0.352 N 
ATOM      5  O   UNL A   1      32.915  35.355  28.874  1.00  0.00    -0.269 OA
ATOM      6  C   UNL A   1      33.428  34.264  28.647  1.00  0.00     0.251 C 
ATOM      7  H   UNL A   1      32.159  33.812  27.157  1.00  0.00     0.163 HD
BRANCH   6   8
ATOM      8  C   UNL A   1      34.615  33.823  29.416  1.00  0.00     0.039 A 
ATOM      9  C   UNL A   1      35.897  34.210  29.024  1.00  0.00     0.014 A 
ATOM     10  C   UNL A   1      34.443  33.002  30.536  1.00  0.00     0.014 A 
ATOM     11  C   UNL A   1      37.006  33.662  29.656  1.00  0.00     0.010 A 
ATOM     12  C   UNL A   1      35.561  32.523  31.228  1.00  0.00     0.010 A 
ATOM     13  C   UNL A   1      36.853  32.826  30.776  1.00  0.00    -0.014 A 
BRANCH  13  14
ATOM     14  C   UNL A   1      38.073  32.361  31.487  1.00  0.00     0.031 A 
ATOM     15  C   UNL A   1      38.473  32.923  32.823  1.00  0.00     0.074 A 
ATOM     16  C   UNL A   1      38.787  31.360  30.933  1.00  0.00     0.049 A 
ATOM     17  N   UNL A   1      39.457  32.553  33.605  1.00  0.00    -0.248 NA
ATOM     18  C   UNL A   1      37.679  34.044  33.351  1.00  0.00     0.031 C 
ATOM     19  C   UNL A   1      38.508  30.751  29.628  1.00  0.00     0.029 A 
ATOM     20  N   UNL A   1      39.863  30.653  31.404  1.00  0.00    -0.354 N 
ATOM     21  C   UNL A   1      39.408  33.396  34.709  1.00  0.00     0.074 A 
ATOM     22  C   UNL A   1      38.312  34.316  34.485  1.00  0.00     0.031 C 
ATOM     23  C   UNL A   1      39.345  29.721  29.436  1.00  0.00     0.029 A 
ATOM     24  C   UNL A   1      40.256  29.633  30.571  1.00  0.00     0.049 A 
ATOM     25  H   UNL A   1      40.310  30.856  32.257  1.00  0.00     0.167 HD
ATOM     26  C   UNL A   1      40.201  33.399  35.810  1.00  0.00     0.031 A 
ATOM     27  C   UNL A   1      41.242  28.728  30.696  1.00  0.00     0.031 A 
ATOM     28  C   UNL A   1      41.293  32.485  36.025  1.00  0.00     0.049 A 
ATOM     29  C   UNL A   1      42.097  28.750  31.928  1.00  0.00     0.074 A 
ATOM     30  C   UNL A   1      42.151  32.407  37.111  1.00  0.00     0.029 A 
ATOM     31  N   UNL A   1      41.678  31.485  35.144  1.00  0.00    -0.354 N 
ATOM     32  N   UNL A   1      42.022  29.549  32.965  1.00  0.00    -0.248 NA
ATOM     33  C   UNL A   1      43.169  27.750  32.005  1.00  0.00     0.031 C 
ATOM     34  C   UNL A   1      43.077  31.386  36.868  1.00  0.00     0.029 A 
ATOM     35  C   UNL A   1      42.767  30.796  35.654  1.00  0.00     0.049 A 
ATOM     36  H   UNL A   1      41.242  31.294  34.282  1.00  0.00     0.167 HD
ATOM     37  C   UNL A   1      43.040  29.150  33.819  1.00  0.00     0.074 A 
ATOM     38  C   UNL A   1      43.690  28.014  33.196  1.00  0.00     0.031 C 
ATOM     39  C   UNL A   1      43.413  29.682  35.009  1.00  0.00     0.031 A 
BRANCH  26  40
ATOM     40  C   UNL A   1      39.924  34.432  36.871  1.00  0.00    -0.014 A 
ATOM     41  C   UNL A   1      39.048  34.157  37.936  1.00  0.00     0.010 A 
ATOM     42  C   UNL A   1      40.601  35.665  36.843  1.00  0.00     0.010 A 
ATOM     43  C   UNL A   1      38.836  35.105  38.941  1.00  0.00     0.020 A 
ATOM     44  C   UNL A   1      40.408  36.608  37.859  1.00  0.00     0.020 A 
ATOM     45  C   UNL A   1      39.516  36.325  38.896  1.00  0.00     0.054 A 
BRANCH  45  46
ATOM     46  S   UNL A   1      39.251  37.521  40.235  1.00  0.00     0.124 S 
ATOM     47  O   UNL A   1      38.155  38.328  39.705  1.00  0.00    -0.237 OA
ATOM     48  O   UNL A   1      38.909  36.665  41.368  1.00  0.00    -0.237 OA
ATOM     49  O   UNL A   1      40.535  38.209  40.345  1.00  0.00    -0.744 OA
ENDBRANCH  45  46
ENDBRANCH  26  40
BRANCH  27  50
ATOM     50  C   UNL A   1      41.481  27.742  29.609  1.00  0.00    -0.014 A 
ATOM     51  C   UNL A   1      40.663  26.608  29.469  1.00  0.00     0.010 A 
ATOM     52  C   UNL A   1      42.525  27.952  28.689  1.00  0.00     0.010 A 
ATOM     53  C   UNL A   1      40.896  25.692  28.440  1.00  0.00     0.020 A 
ATOM     54  C   UNL A   1      42.742  27.054  27.642  1.00  0.00     0.020 A 
ATOM     55  C   UNL A   1      41.935  25.921  27.534  1.00  0.00     0.054 A 
BRANCH  55  56
ATOM     56  S   UNL A   1      42.195  24.750  26.172  1.00  0.00     0.124 S 
ATOM     57  O   UNL A   1      41.023  23.890  26.287  1.00  0.00    -0.237 OA
ATOM     58  O   UNL A   1      42.228  25.624  25.001  1.00  0.00    -0.237 OA
ATOM     59  O   UNL A   1      43.472  24.122  26.505  1.00  0.00    -0.744 OA
ENDBRANCH  55  56
ENDBRANCH  27  50
BRANCH  39  60
ATOM     60  C   UNL A   1      44.579  29.034  35.703  1.00  0.00    -0.014 A 
ATOM     61  C   UNL A   1      44.377  28.105  36.738  1.00  0.00     0.010 A 
ATOM     62  C   UNL A   1      45.891  29.359  35.315  1.00  0.00     0.010 A 
ATOM     63  C   UNL A   1      45.468  27.547  37.409  1.00  0.00     0.020 A 
ATOM     64  C   UNL A   1      46.984  28.785  35.967  1.00  0.00     0.020 A 
ATOM     65  C   UNL A   1      46.765  27.899  37.026  1.00  0.00     0.054 A 
BRANCH  65  66
ATOM     66  S   UNL A   1      48.168  27.162  37.907  1.00  0.00     0.124 S 
ATOM     67  O   UNL A   1      47.709  27.200  39.292  1.00  0.00    -0.237 OA
ATOM     68  O   UNL A   1      48.264  25.832  37.311  1.00  0.00    -0.237 OA
ATOM     69  O   UNL A   1      49.280  28.058  37.593  1.00  0.00    -0.744 OA
ENDBRANCH  65  66
ENDBRANCH  39  60
ENDBRANCH  13  14
ENDBRANCH   6   8
ENDBRANCH   3   4
ENDBRANCH   2   3
ENDBRANCH   1   2
BRANCH   1  70
ATOM     70  C   UNL A   1      30.276  31.283  25.003  1.00  0.00     0.002 C 
BRANCH  70  71
ATOM     71  C   UNL A   1      29.272  32.110  24.190  1.00  0.00     0.021 C 
BRANCH  71  72
ATOM     72  C   UNL A   1      27.913  31.449  23.967  1.00  0.00     0.116 C 
BRANCH  72  73
ATOM     73  N   UNL A   1      27.638  31.247  22.555  1.00  0.00    -0.352 N 
ATOM     74  C   UNL A   1      28.262  30.403  21.677  1.00  0.00     0.251 C 
ATOM     75  H   UNL A   1      26.907  31.789  22.180  1.00  0.00     0.163 HD
ATOM     76  O   UNL A   1      28.032  30.453  20.474  1.00  0.00    -0.269 OA
BRANCH  74  77
ATOM     77  C   UNL A   1      29.224  29.417  22.197  1.00  0.00     0.039 A 
ATOM     78  C   UNL A   1      30.588  29.635  22.022  1.00  0.00     0.016 A 
ATOM     79  C   UNL A   1      28.767  28.264  22.832  1.00  0.00     0.016 A 
ATOM     80  C   UNL A   1      31.505  28.702  22.519  1.00  0.00     0.027 A 
ATOM     81  C   UNL A   1      29.687  27.323  23.300  1.00  0.00     0.027 A 
ATOM     82  C   UNL A   1      31.071  27.525  23.152  1.00  0.00     0.052 A 
BRANCH  82  83
ATOM     83  N   UNL A   1      32.000  26.549  23.606  1.00  0.00    -0.245 N 
ATOM     84  C   UNL A   1      32.702  25.715  22.767  1.00  0.00     0.240 C 
ATOM     85  C   UNL A   1      32.334  26.338  24.930  1.00  0.00     0.292 C 
ATOM     86  O   UNL A   1      32.645  25.621  21.548  1.00  0.00    -0.274 OA
ATOM     87  C   UNL A   1      33.714  24.956  23.564  1.00  0.00     0.176 C 
ATOM     88  C   UNL A   1      33.271  25.132  25.000  1.00  0.00     0.284 C 
ATOM     89  O   UNL A   1      31.933  26.945  25.917  1.00  0.00    -0.267 OA
BRANCH  88  90
ATOM     90  N   UNL A   1      32.642  23.999  25.700  1.00  0.00    -0.321 N 
ATOM     91  C   UNL A   1      31.630  23.208  24.975  1.00  0.00     0.284 C 
ATOM     92  C   UNL A   1      33.591  23.097  26.383  1.00  0.00     0.284 C 
ATOM     93  H   UNL A   1      32.112  24.521  26.398  1.00  0.00     0.348 HD
ATOM     94  C   UNL A   1      32.156  22.071  24.068  1.00  0.00     0.178 C 
ATOM     95  C   UNL A   1      34.182  21.940  25.545  1.00  0.00     0.178 C 
ATOM     96  N   UNL A   1      33.139  21.248  24.778  1.00  0.00    -0.360 N 
BRANCH  96  97
ATOM     97  C   UNL A   1      33.363  19.941  24.376  1.00  0.00     0.037 A 
ATOM     98  C   UNL A   1      34.530  19.238  24.715  1.00  0.00     0.029 A 
ATOM     99  C   UNL A   1      32.425  19.289  23.559  1.00  0.00     0.029 A 
ATOM    100  C   UNL A   1      34.753  17.936  24.252  1.00  0.00     0.041 A 
ATOM    101  C   UNL A   1      32.645  17.993  23.084  1.00  0.00     0.041 A 
ATOM    102  C   UNL A   1      33.810  17.329  23.436  1.00  0.00     0.123 A 
ATOM    103  F   UNL A   1      34.026  16.088  22.982  1.00  0.00    -0.207 F 
ENDBRANCH  96  97
ENDBRANCH  88  90
ENDBRANCH  82  83
ENDBRANCH  74  77
ENDBRANCH  72  73
ENDBRANCH  71  72
ENDBRANCH  70  71
ENDBRANCH   1  70
TORSDOF 19
ENDMDL
MODEL 2
REMARK VINA RESULT:     -12.2      6.030      8.040
REMARK SMILES O=C(NCCCCCCNC(=O)c1ccc(N2C(=O)C[C@H]([NH+]3CCN(c4ccc(F)cc4)CC3)C2=O)cc1)c1ccc(-c2c3nc(c(-c4ccc(S(=O)(=O)[O-])cc4)c4ccc([nH]4)c(-c4ccc(S(=O)(=O)[O-])cc4)c4nc(c(-c5ccc(S(=O)(=O)[O-])cc5)c5ccc2[nH]5)C=C4)C=C3)cc1
REMARK SMILES IDX 6 1 5 2 4 3 3 4 1 5 2 6 39 8 40 9 98 10 41 11 97 12 42 13
REMARK SMILES IDX 43 14 44 15 91 16 45 17 96 18 90 19 92 20 46 21 95 22 89 23
REMARK SMILES IDX 88 24 47 26 77 27 58 28 76 29 59 30 62 31 75 32 93 33 60 34
REMARK SMILES IDX 61 35 74 37 94 38 63 39 48 40 49 41 57 42 50 43 56 44 51 45
REMARK SMILES IDX 52 46 53 47 54 48 55 49 78 50 79 51 87 52 80 53 86 54 81 55
REMARK SMILES IDX 82 56 83 57 84 58 85 59 64 60 65 61 73 62 66 63 72 64 67 65
REMARK SMILES IDX 68 66 69 67 70 68 71 69 7 70 8 71 9 72 10 73 11 74 12 76
REMARK SMILES IDX 13 77 14 78 38 79 15 80 37 81 16 82 17 83 18 84 35 85 19 86
REMARK SMILES IDX 20 87 21 88 36 89 22 90 23 91 34 92 24 94 33 95 25 96 26 97
REMARK SMILES IDX 27 98 32 99 28 100 31 101 29 102 30 103
REMARK H PARENT 3 7 92 25 62 36 10 75 22 93
REMARK Flexibility Score: inf
ROOT
ATOM      1  C   UNL A   1      33.048  30.243  27.164  1.00  0.00     0.002 C 
ENDROOT
BRANCH   1   2
ATOM      2  C   UNL A   1      34.029  29.080  27.303  1.00  0.00     0.021 C 
BRANCH   2   3
ATOM      3  C   UNL A   1      35.416  29.460  27.803  1.00  0.00     0.116 C 
BRANCH   3   4
ATOM      4  N   UNL A   1      35.437  29.810  29.213  1.00  0.00    -0.352 N 
ATOM      5  O   UNL A   1      36.308  29.964  31.290  1.00  0.00    -0.269 OA
ATOM      6  C   UNL A   1      36.492  29.757  30.095  1.00  0.00     0.251 C 
ATOM      7  H   UNL A   1      34.584  30.127  29.588  1.00  0.00     0.163 HD
BRANCH   6   8
ATOM      8  C   UNL A   1      37.844  29.418  29.595  1.00  0.00     0.039 A 
ATOM      9  C   UNL A   1      38.825  28.947  30.469  1.00  0.00     0.014 A 
ATOM     10  C   UNL A   1      38.139  29.587  28.238  1.00  0.00     0.014 A 
ATOM     11  C   UNL A   1      40.129  28.786  30.020  1.00  0.00     0.010 A 
ATOM     12  C   UNL A   1      39.433  29.337  27.769  1.00  0.00     0.010 A 
ATOM     13  C   UNL A   1      40.447  28.962  28.661  1.00  0.00    -0.014 A 
BRANCH  13  14
ATOM     14  C   UNL A   1      41.832  28.664  28.211  1.00  0.00     0.031 A 
ATOM     15  C   UNL A   1      42.914  29.708  28.237  1.00  0.00     0.074 A 
ATOM     16  C   UNL A   1      42.120  27.400  27.840  1.00  0.00     0.049 A 
ATOM     17  N   UNL A   1      44.188  29.572  27.963  1.00  0.00    -0.248 NA
ATOM     18  C   UNL A   1      42.525  31.077  28.608  1.00  0.00     0.031 C 
ATOM     19  C   UNL A   1      41.146  26.306  27.754  1.00  0.00     0.029 A 
ATOM     20  N   UNL A   1      43.310  26.809  27.504  1.00  0.00    -0.354 N 
ATOM     21  C   UNL A   1      44.751  30.834  28.118  1.00  0.00     0.074 A 
ATOM     22  C   UNL A   1      43.674  31.730  28.486  1.00  0.00     0.031 C 
ATOM     23  C   UNL A   1      41.788  25.168  27.456  1.00  0.00     0.029 A 
ATOM     24  C   UNL A   1      43.205  25.458  27.272  1.00  0.00     0.049 A 
ATOM     25  H   UNL A   1      44.158  27.304  27.436  1.00  0.00     0.167 HD
ATOM     26  C   UNL A   1      46.046  31.208  27.973  1.00  0.00     0.031 A 
ATOM     27  C   UNL A   1      44.139  24.548  26.940  1.00  0.00     0.031 A 
ATOM     28  C   UNL A   1      47.113  30.314  27.602  1.00  0.00     0.049 A 
ATOM     29  C   UNL A   1      45.564  24.991  26.795  1.00  0.00     0.074 A 
ATOM     30  C   UNL A   1      48.458  30.600  27.433  1.00  0.00     0.029 A 
ATOM     31  N   UNL A   1      46.961  28.959  27.346  1.00  0.00    -0.354 N 
ATOM     32  N   UNL A   1      46.073  26.187  26.962  1.00  0.00    -0.248 NA
ATOM     33  C   UNL A   1      46.539  23.961  26.417  1.00  0.00     0.031 C 
ATOM     34  C   UNL A   1      49.112  29.426  27.040  1.00  0.00     0.029 A 
ATOM     35  C   UNL A   1      48.183  28.399  27.009  1.00  0.00     0.049 A 
ATOM     36  H   UNL A   1      46.109  28.468  27.396  1.00  0.00     0.167 HD
ATOM     37  C   UNL A   1      47.431  26.056  26.705  1.00  0.00     0.074 A 
ATOM     38  C   UNL A   1      47.668  24.656  26.412  1.00  0.00     0.031 C 
ATOM     39  C   UNL A   1      48.395  27.009  26.701  1.00  0.00     0.031 A 
BRANCH  26  40
ATOM     40  C   UNL A   1      46.388  32.657  28.207  1.00  0.00    -0.014 A 
ATOM     41  C   UNL A   1      46.817  33.103  29.470  1.00  0.00     0.010 A 
ATOM     42  C   UNL A   1      46.349  33.569  27.137  1.00  0.00     0.010 A 
ATOM     43  C   UNL A   1      47.179  34.439  29.664  1.00  0.00     0.020 A 
ATOM     44  C   UNL A   1      46.730  34.903  27.322  1.00  0.00     0.020 A 
ATOM     45  C   UNL A   1      47.131  35.331  28.590  1.00  0.00     0.054 A 
BRANCH  45  46
ATOM     46  S   UNL A   1      47.643  37.051  28.861  1.00  0.00     0.124 S 
ATOM     47  O   UNL A   1      48.100  37.442  27.530  1.00  0.00    -0.237 OA
ATOM     48  O   UNL A   1      46.409  37.688  29.312  1.00  0.00    -0.237 OA
ATOM     49  O   UNL A   1      48.691  36.946  29.873  1.00  0.00    -0.744 OA
ENDBRANCH  45  46
ENDBRANCH  26  40
BRANCH  27  50
ATOM     50  C   UNL A   1      43.741  23.135  26.705  1.00  0.00    -0.014 A 
ATOM     51  C   UNL A   1      43.943  22.527  25.455  1.00  0.00     0.010 A 
ATOM     52  C   UNL A   1      43.176  22.383  27.751  1.00  0.00     0.010 A 
ATOM     53  C   UNL A   1      43.568  21.196  25.249  1.00  0.00     0.020 A 
ATOM     54  C   UNL A   1      42.827  21.045  27.558  1.00  0.00     0.020 A 
ATOM     55  C   UNL A   1      43.012  20.465  26.302  1.00  0.00     0.054 A 
BRANCH  55  56
ATOM     56  S   UNL A   1      42.576  18.723  26.037  1.00  0.00     0.124 S 
ATOM     57  O   UNL A   1      43.480  18.349  24.954  1.00  0.00    -0.237 OA
ATOM     58  O   UNL A   1      42.862  18.120  27.336  1.00  0.00    -0.237 OA
ATOM     59  O   UNL A   1      41.159  18.779  25.683  1.00  0.00    -0.744 OA
ENDBRANCH  55  56
ENDBRANCH  27  50
BRANCH  39  60
ATOM     60  C   UNL A   1      49.789  26.557  26.365  1.00  0.00    -0.014 A 
ATOM     61  C   UNL A   1      50.300  26.699  25.063  1.00  0.00     0.010 A 
ATOM     62  C   UNL A   1      50.596  25.983  27.362  1.00  0.00     0.010 A 
ATOM     63  C   UNL A   1      51.577  26.229  24.750  1.00  0.00     0.020 A 
ATOM     64  C   UNL A   1      51.884  25.534  27.059  1.00  0.00     0.020 A 
ATOM     65  C   UNL A   1      52.358  25.640  25.749  1.00  0.00     0.054 A 
BRANCH  65  66
ATOM     66  S   UNL A   1      54.015  25.039  25.324  1.00  0.00     0.124 S 
ATOM     67  O   UNL A   1      53.747  23.653  24.951  1.00  0.00    -0.237 OA
ATOM     68  O   UNL A   1      54.410  25.922  24.229  1.00  0.00    -0.237 OA
ATOM     69  O   UNL A   1      54.773  25.217  26.562  1.00  0.00    -0.744 OA
ENDBRANCH  65  66
ENDBRANCH  39  60
ENDBRANCH  13  14
ENDBRANCH   6   8
ENDBRANCH   3   4
ENDBRANCH   2   3
ENDBRANCH   1   2
BRANCH   1  70
ATOM     70  C   UNL A   1      31.721  29.912  26.475  1.00  0.00     0.002 C 
BRANCH  70  71
ATOM     71  C   UNL A   1      31.495  30.568  25.107  1.00  0.00     0.021 C 
BRANCH  71  72
ATOM     72  C   UNL A   1      30.042  30.908  24.779  1.00  0.00     0.116 C 
BRANCH  72  73
ATOM     73  N   UNL A   1      29.781  30.829  23.352  1.00  0.00    -0.352 N 
ATOM     74  C   UNL A   1      29.922  29.754  22.518  1.00  0.00     0.251 C 
ATOM     75  H   UNL A   1      29.459  31.658  22.930  1.00  0.00     0.163 HD
ATOM     76  O   UNL A   1      29.818  29.874  21.302  1.00  0.00    -0.269 OA
BRANCH  74  77
ATOM     77  C   UNL A   1      30.202  28.431  23.100  1.00  0.00     0.039 A 
ATOM     78  C   UNL A   1      31.499  27.925  23.057  1.00  0.00     0.016 A 
ATOM     79  C   UNL A   1      29.169  27.684  23.663  1.00  0.00     0.016 A 
ATOM     80  C   UNL A   1      31.769  26.670  23.613  1.00  0.00     0.027 A 
ATOM     81  C   UNL A   1      29.441  26.419  24.191  1.00  0.00     0.027 A 
ATOM     82  C   UNL A   1      30.743  25.890  24.175  1.00  0.00     0.052 A 
BRANCH  82  83
ATOM     83  N   UNL A   1      31.006  24.591  24.690  1.00  0.00    -0.245 N 
ATOM     84  C   UNL A   1      31.521  24.356  25.943  1.00  0.00     0.240 C 
ATOM     85  C   UNL A   1      30.753  23.413  24.014  1.00  0.00     0.292 C 
ATOM     86  O   UNL A   1      31.871  25.161  26.797  1.00  0.00    -0.274 OA
ATOM     87  C   UNL A   1      31.492  22.887  26.218  1.00  0.00     0.176 C 
ATOM     88  C   UNL A   1      31.282  22.254  24.860  1.00  0.00     0.284 C 
ATOM     89  O   UNL A   1      30.249  23.270  22.906  1.00  0.00    -0.267 OA
BRANCH  88  90
ATOM     90  N   UNL A   1      32.413  21.577  24.202  1.00  0.00    -0.321 N 
ATOM     91  C   UNL A   1      33.358  22.398  23.423  1.00  0.00     0.284 C 
ATOM     92  C   UNL A   1      33.155  20.640  25.070  1.00  0.00     0.284 C 
ATOM     93  H   UNL A   1      31.891  21.047  23.503  1.00  0.00     0.348 HD
ATOM     94  C   UNL A   1      34.506  23.072  24.211  1.00  0.00     0.178 C 
ATOM     95  C   UNL A   1      34.311  21.233  25.909  1.00  0.00     0.178 C 
ATOM     96  N   UNL A   1      35.165  22.110  25.100  1.00  0.00    -0.360 N 
BRANCH  96  97
ATOM     97  C   UNL A   1      36.470  22.332  25.507  1.00  0.00     0.037 A 
ATOM     98  C   UNL A   1      36.909  23.576  25.987  1.00  0.00     0.029 A 
ATOM     99  C   UNL A   1      37.420  21.303  25.403  1.00  0.00     0.029 A 
ATOM    100  C   UNL A   1      38.246  23.785  26.345  1.00  0.00     0.041 A 
ATOM    101  C   UNL A   1      38.759  21.507  25.747  1.00  0.00     0.041 A 
ATOM    102  C   UNL A   1      39.159  22.750  26.216  1.00  0.00     0.123 A 
ATOM    103  F   UNL A   1      40.441  22.950  26.545  1.00  0.00    -0.207 F 
ENDBRANCH  96  97
ENDBRANCH  88  90
ENDBRANCH  82  83
ENDBRANCH  74  77
ENDBRANCH  72  73
ENDBRANCH  71  72
ENDBRANCH  70  71
ENDBRANCH   1  70
TORSDOF 19
ENDMDL
MODEL 3
REMARK VINA RESULT:     -12.0      5.838     10.155
REMARK SMILES O=C(NCCCCCCNC(=O)c1ccc(N2C(=O)C[C@H]([NH+]3CCN(c4ccc(F)cc4)CC3)C2=O)cc1)c1ccc(-c2c3nc(c(-c4ccc(S(=O)(=O)[O-])cc4)c4ccc([nH]4)c(-c4ccc(S(=O)(=O)[O-])cc4)c4nc(c(-c5ccc(S(=O)(=O)[O-])cc5)c5ccc2[nH]5)C=C4)C=C3)cc1
REMARK SMILES IDX 6 1 5 2 4 3 3 4 1 5 2 6 39 8 40 9 98 10 41 11 97 12 42 13
REMARK SMILES IDX 43 14 44 15 91 16 45 17 96 18 90 19 92 20 46 21 95 22 89 23
REMARK SMILES IDX 88 24 47 26 77 27 58 28 76 29 59 30 62 31 75 32 93 33 60 34
REMARK SMILES IDX 61 35 74 37 94 38 63 39 48 40 49 41 57 42 50 43 56 44 51 45
REMARK SMILES IDX 52 46 53 47 54 48 55 49 78 50 79 51 87 52 80 53 86 54 81 55
REMARK SMILES IDX 82 56 83 57 84 58 85 59 64 60 65 61 73 62 66 63 72 64 67 65
REMARK SMILES IDX 68 66 69 67 70 68 71 69 7 70 8 71 9 72 10 73 11 74 12 76
REMARK SMILES IDX 13 77 14 78 38 79 15 80 37 81 16 82 17 83 18 84 35 85 19 86
REMARK SMILES IDX 20 87 21 88 36 89 22 90 23 91 34 92 24 94 33 95 25 96 26 97
REMARK SMILES IDX 27 98 32 99 28 100 31 101 29 102 30 103
REMARK H PARENT 3 7 92 25 62 36 10 75 22 93
REMARK Flexibility Score: inf
ROOT
ATOM      1  C   UNL A   1      33.304  30.261  26.743  1.00  0.00     0.002 C 
ENDROOT
BRANCH   1   2
ATOM      2  C   UNL A   1      34.191  29.032  26.940  1.00  0.00     0.021 C 
BRANCH   2   3
ATOM      3  C   UNL A   1      35.511  29.294  27.652  1.00  0.00     0.116 C 
BRANCH   3   4
ATOM      4  N   UNL A   1      35.351  30.021  28.899  1.00  0.00    -0.352 N 
ATOM      5  O   UNL A   1      35.974  30.829  30.913  1.00  0.00    -0.269 OA
ATOM      6  C   UNL A   1      36.303  30.319  29.847  1.00  0.00     0.251 C 
ATOM      7  H   UNL A   1      34.441  30.343  29.093  1.00  0.00     0.163 HD
BRANCH   6   8
ATOM      8  C   UNL A   1      37.723  29.991  29.583  1.00  0.00     0.039 A 
ATOM      9  C   UNL A   1      38.245  30.089  28.292  1.00  0.00     0.014 A 
ATOM     10  C   UNL A   1      38.538  29.567  30.637  1.00  0.00     0.014 A 
ATOM     11  C   UNL A   1      39.528  29.628  28.031  1.00  0.00     0.010 A 
ATOM     12  C   UNL A   1      39.862  29.188  30.386  1.00  0.00     0.010 A 
ATOM     13  C   UNL A   1      40.360  29.188  29.076  1.00  0.00    -0.014 A 
BRANCH  13  14
ATOM     14  C   UNL A   1      41.763  28.815  28.758  1.00  0.00     0.031 A 
ATOM     15  C   UNL A   1      42.130  27.429  28.303  1.00  0.00     0.074 A 
ATOM     16  C   UNL A   1      42.704  29.778  28.820  1.00  0.00     0.049 A 
ATOM     17  N   UNL A   1      43.294  26.981  27.903  1.00  0.00    -0.248 NA
ATOM     18  C   UNL A   1      41.065  26.414  28.301  1.00  0.00     0.031 C 
ATOM     19  C   UNL A   1      42.471  31.154  29.271  1.00  0.00     0.029 A 
ATOM     20  N   UNL A   1      44.030  29.766  28.472  1.00  0.00    -0.354 N 
ATOM     21  C   UNL A   1      43.108  25.635  27.610  1.00  0.00     0.074 A 
ATOM     22  C   UNL A   1      41.723  25.331  27.903  1.00  0.00     0.031 C 
ATOM     23  C   UNL A   1      43.594  31.868  29.107  1.00  0.00     0.029 A 
ATOM     24  C   UNL A   1      44.641  30.990  28.599  1.00  0.00     0.049 A 
ATOM     25  H   UNL A   1      44.499  28.958  28.161  1.00  0.00     0.167 HD
ATOM     26  C   UNL A   1      44.007  24.738  27.135  1.00  0.00     0.031 A 
ATOM     27  C   UNL A   1      45.906  31.371  28.342  1.00  0.00     0.031 A 
ATOM     28  C   UNL A   1      45.386  25.045  26.850  1.00  0.00     0.049 A 
ATOM     29  C   UNL A   1      46.876  30.359  27.810  1.00  0.00     0.074 A 
ATOM     30  C   UNL A   1      46.373  24.203  26.363  1.00  0.00     0.029 A 
ATOM     31  N   UNL A   1      45.974  26.289  27.019  1.00  0.00    -0.354 N 
ATOM     32  N   UNL A   1      46.671  29.095  27.528  1.00  0.00    -0.248 NA
ATOM     33  C   UNL A   1      48.246  30.825  27.563  1.00  0.00     0.031 C 
ATOM     34  C   UNL A   1      47.566  24.930  26.273  1.00  0.00     0.029 A 
ATOM     35  C   UNL A   1      47.311  26.236  26.659  1.00  0.00     0.049 A 
ATOM     36  H   UNL A   1      45.510  27.093  27.348  1.00  0.00     0.167 HD
ATOM     37  C   UNL A   1      47.890  28.611  27.072  1.00  0.00     0.074 A 
ATOM     38  C   UNL A   1      48.813  29.729  27.078  1.00  0.00     0.031 C 
ATOM     39  C   UNL A   1      48.219  27.352  26.692  1.00  0.00     0.031 A 
BRANCH  26  40
ATOM     40  C   UNL A   1      43.534  23.327  26.900  1.00  0.00    -0.014 A 
ATOM     41  C   UNL A   1      43.542  22.768  25.610  1.00  0.00     0.010 A 
ATOM     42  C   UNL A   1      43.144  22.527  27.989  1.00  0.00     0.010 A 
ATOM     43  C   UNL A   1      43.147  21.443  25.410  1.00  0.00     0.020 A 
ATOM     44  C   UNL A   1      42.769  21.193  27.796  1.00  0.00     0.020 A 
ATOM     45  C   UNL A   1      42.761  20.663  26.504  1.00  0.00     0.054 A 
BRANCH  45  46
ATOM     46  S   UNL A   1      42.290  18.934  26.220  1.00  0.00     0.124 S 
ATOM     47  O   UNL A   1      42.508  18.343  27.538  1.00  0.00    -0.237 OA
ATOM     48  O   UNL A   1      40.894  19.043  25.806  1.00  0.00    -0.237 OA
ATOM     49  O   UNL A   1      43.212  18.490  25.178  1.00  0.00    -0.744 OA
ENDBRANCH  45  46
ENDBRANCH  26  40
BRANCH  27  50
ATOM     50  C   UNL A   1      46.322  32.774  28.609  1.00  0.00    -0.014 A 
ATOM     51  C   UNL A   1      46.873  33.140  29.848  1.00  0.00     0.010 A 
ATOM     52  C   UNL A   1      46.186  33.748  27.603  1.00  0.00     0.010 A 
ATOM     53  C   UNL A   1      47.264  34.462  30.083  1.00  0.00     0.020 A 
ATOM     54  C   UNL A   1      46.602  35.062  27.824  1.00  0.00     0.020 A 
ATOM     55  C   UNL A   1      47.125  35.414  29.069  1.00  0.00     0.054 A 
BRANCH  55  56
ATOM     56  S   UNL A   1      47.683  37.114  29.370  1.00  0.00     0.124 S 
ATOM     57  O   UNL A   1      48.963  36.897  30.036  1.00  0.00    -0.237 OA
ATOM     58  O   UNL A   1      47.757  37.670  28.021  1.00  0.00    -0.237 OA
ATOM     59  O   UNL A   1      46.625  37.674  30.208  1.00  0.00    -0.744 OA
ENDBRANCH  55  56
ENDBRANCH  27  50
BRANCH  39  60
ATOM     60  C   UNL A   1      49.641  27.130  26.256  1.00  0.00    -0.014 A 
ATOM     61  C   UNL A   1      50.013  27.269  24.908  1.00  0.00     0.010 A 
ATOM     62  C   UNL A   1      50.615  26.776  27.206  1.00  0.00     0.010 A 
ATOM     63  C   UNL A   1      51.326  27.011  24.507  1.00  0.00     0.020 A 
ATOM     64  C   UNL A   1      51.935  26.540  26.813  1.00  0.00     0.020 A 
ATOM     65  C   UNL A   1      52.276  26.638  25.461  1.00  0.00     0.054 A 
BRANCH  65  66
ATOM     66  S   UNL A   1      53.976  26.309  24.922  1.00  0.00     0.124 S 
ATOM     67  O   UNL A   1      53.881  24.932  24.447  1.00  0.00    -0.237 OA
ATOM     68  O   UNL A   1      54.189  27.318  23.887  1.00  0.00    -0.237 OA
ATOM     69  O   UNL A   1      54.765  26.498  26.138  1.00  0.00    -0.744 OA
ENDBRANCH  65  66
ENDBRANCH  39  60
ENDBRANCH  13  14
ENDBRANCH   6   8
ENDBRANCH   3   4
ENDBRANCH   2   3
ENDBRANCH   1   2
BRANCH   1  70
ATOM     70  C   UNL A   1      31.908  29.987  26.175  1.00  0.00     0.002 C 
BRANCH  70  71
ATOM     71  C   UNL A   1      31.285  31.125  25.357  1.00  0.00     0.021 C 
BRANCH  71  72
ATOM     72  C   UNL A   1      29.854  30.878  24.882  1.00  0.00     0.116 C 
BRANCH  72  73
ATOM     73  N   UNL A   1      29.770  30.825  23.433  1.00  0.00    -0.352 N 
ATOM     74  C   UNL A   1      30.042  29.774  22.601  1.00  0.00     0.251 C 
ATOM     75  H   UNL A   1      29.478  31.656  22.992  1.00  0.00     0.163 HD
ATOM     76  O   UNL A   1      30.084  29.920  21.384  1.00  0.00    -0.269 OA
BRANCH  74  77
ATOM     77  C   UNL A   1      30.287  28.446  23.186  1.00  0.00     0.039 A 
ATOM     78  C   UNL A   1      31.592  27.966  23.271  1.00  0.00     0.016 A 
ATOM     79  C   UNL A   1      29.216  27.668  23.623  1.00  0.00     0.016 A 
ATOM     80  C   UNL A   1      31.828  26.705  23.831  1.00  0.00     0.027 A 
ATOM     81  C   UNL A   1      29.457  26.399  24.154  1.00  0.00     0.027 A 
ATOM     82  C   UNL A   1      30.765  25.895  24.268  1.00  0.00     0.052 A 
BRANCH  82  83
ATOM     83  N   UNL A   1      31.000  24.591  24.784  1.00  0.00    -0.245 N 
ATOM     84  C   UNL A   1      31.470  24.346  26.053  1.00  0.00     0.240 C 
ATOM     85  C   UNL A   1      30.759  23.419  24.095  1.00  0.00     0.292 C 
ATOM     86  O   UNL A   1      31.797  25.144  26.922  1.00  0.00    -0.274 OA
ATOM     87  C   UNL A   1      31.419  22.876  26.320  1.00  0.00     0.176 C 
ATOM     88  C   UNL A   1      31.250  22.251  24.952  1.00  0.00     0.284 C 
ATOM     89  O   UNL A   1      30.292  23.285  22.969  1.00  0.00    -0.267 OA
BRANCH  88  90
ATOM     90  N   UNL A   1      32.397  21.567  24.329  1.00  0.00    -0.321 N 
ATOM     91  C   UNL A   1      33.324  22.369  23.509  1.00  0.00     0.284 C 
ATOM     92  C   UNL A   1      33.159  20.694  25.244  1.00  0.00     0.284 C 
ATOM     93  H   UNL A   1      31.888  20.991  23.658  1.00  0.00     0.348 HD
ATOM     94  C   UNL A   1      34.455  23.109  24.261  1.00  0.00     0.178 C 
ATOM     95  C   UNL A   1      34.300  21.355  26.052  1.00  0.00     0.178 C 
ATOM     96  N   UNL A   1      35.134  22.209  25.198  1.00  0.00    -0.360 N 
BRANCH  96  97
ATOM     97  C   UNL A   1      36.434  22.481  25.594  1.00  0.00     0.037 A 
ATOM     98  C   UNL A   1      36.833  23.746  26.056  1.00  0.00     0.029 A 
ATOM     99  C   UNL A   1      37.419  21.485  25.494  1.00  0.00     0.029 A 
ATOM    100  C   UNL A   1      38.163  24.006  26.401  1.00  0.00     0.041 A 
ATOM    101  C   UNL A   1      38.753  21.741  25.827  1.00  0.00     0.041 A 
ATOM    102  C   UNL A   1      39.112  23.002  26.278  1.00  0.00     0.123 A 
ATOM    103  F   UNL A   1      40.388  23.251  26.595  1.00  0.00    -0.207 F 
ENDBRANCH  96  97
ENDBRANCH  88  90
ENDBRANCH  82  83
ENDBRANCH  74  77
ENDBRANCH  72  73
ENDBRANCH  71  72
ENDBRANCH  70  71
ENDBRANCH   1  70
TORSDOF 19
ENDMDL
