MODEL 1
REMARK VINA RESULT:     -10.9      0.000      0.000
REMARK SMILES CC(C)c1nc(N(C)CCc2ccccn2)sc1C(=O)NCCCCCCNC(=O)c1ccc(-c2c3nc(c(-c4ccc(S(=O)(=O)[O-])cc4)c4ccc([nH]4)c(-c4ccc(S(=O)(=O)[O-])cc4)c4nc(c(-c5ccc(S(=O)(=O)[O-])cc5)c5ccc2[nH]5)C=C4)C=C3)cc1
REMARK SMILES IDX 24 1 23 2 22 3 21 4 19 5 20 6 18 8 4 9 5 10 6 11 17 12 2 13
REMARK SMILES IDX 1 14 3 15 7 16 8 17 9 18 10 19 11 20 12 21 16 22 13 23 15 24
REMARK SMILES IDX 14 25 25 26 26 27 27 28 28 29 29 30 30 32 31 33 32 34 90 35
REMARK SMILES IDX 33 36 89 37 34 38 35 39 36 40 83 41 37 42 88 43 82 44 84 45
REMARK SMILES IDX 38 46 87 47 81 48 80 49 39 51 69 52 50 53 68 54 51 55 54 56
REMARK SMILES IDX 67 57 85 58 52 59 53 60 66 62 86 63 55 64 40 65 41 66 49 67
REMARK SMILES IDX 42 68 48 69 43 70 44 71 45 72 46 73 47 74 70 75 71 76 79 77
REMARK SMILES IDX 72 78 78 79 73 80 74 81 75 82 76 83 77 84 56 85 57 86 65 87
REMARK SMILES IDX 58 88 64 89 59 90 60 91 61 92 62 93 63 94
REMARK H PARENT 21 7 28 31 84 50 54 61
REMARK Flexibility Score: inf
ROOT
ATOM      1  C   UNL A   1      36.106  21.731  24.684  1.00  0.00     0.002 C 
ENDROOT
BRANCH   1   2
ATOM      2  C   UNL A   1      35.561  20.338  25.009  1.00  0.00     0.021 C 
BRANCH   2   3
ATOM      3  C   UNL A   1      34.057  20.287  25.350  1.00  0.00     0.116 C 
BRANCH   3   4
ATOM      4  N   UNL A   1      33.254  20.597  24.184  1.00  0.00    -0.351 N 
ATOM      5  C   UNL A   1      32.584  21.624  23.587  1.00  0.00     0.263 C 
ATOM      6  O   UNL A   1      32.105  21.218  22.512  1.00  0.00    -0.268 OA
ATOM      7  H   UNL A   1      33.158  19.787  23.634  1.00  0.00     0.163 HD
BRANCH   5   8
ATOM      8  C   UNL A   1      32.377  23.005  24.029  1.00  0.00     0.117 A 
ATOM      9  C   UNL A   1      32.015  23.770  25.138  1.00  0.00     0.069 A 
ATOM     10  N   UNL A   1      31.945  25.137  24.892  1.00  0.00    -0.224 NA
ATOM     11  C   UNL A   1      32.012  25.453  23.631  1.00  0.00     0.186 A 
ATOM     12  S   UNL A   1      32.592  24.159  22.690  1.00  0.00    -0.091 S 
BRANCH   9  13
ATOM     13  C   UNL A   1      31.565  23.505  26.547  1.00  0.00     0.034 C 
ATOM     14  C   UNL A   1      30.216  22.835  26.638  1.00  0.00     0.014 C 
ATOM     15  C   UNL A   1      32.638  22.905  27.443  1.00  0.00     0.014 C 
ENDBRANCH   9  13
BRANCH  11  16
ATOM     16  N   UNL A   1      31.621  26.678  23.181  1.00  0.00    -0.351 N 
ATOM     17  C   UNL A   1      30.256  27.158  23.209  1.00  0.00     0.146 C 
BRANCH  16  18
ATOM     18  C   UNL A   1      32.651  27.542  22.580  1.00  0.00     0.125 C 
BRANCH  18  19
ATOM     19  C   UNL A   1      33.770  27.918  23.559  1.00  0.00     0.077 C 
BRANCH  19  20
ATOM     20  C   UNL A   1      33.350  28.562  24.859  1.00  0.00     0.042 A 
ATOM     21  C   UNL A   1      33.776  28.035  26.077  1.00  0.00     0.024 A 
ATOM     22  N   UNL A   1      32.470  29.593  24.785  1.00  0.00    -0.261 NA
ATOM     23  C   UNL A   1      33.258  28.559  27.259  1.00  0.00     0.003 A 
ATOM     24  C   UNL A   1      32.000  30.095  25.950  1.00  0.00     0.111 A 
ATOM     25  C   UNL A   1      32.345  29.604  27.198  1.00  0.00     0.020 A 
ENDBRANCH  19  20
ENDBRANCH  18  19
ENDBRANCH  16  18
ENDBRANCH  11  16
ENDBRANCH   5   8
ENDBRANCH   3   4
ENDBRANCH   2   3
ENDBRANCH   1   2
BRANCH   1  26
ATOM     26  C   UNL A   1      37.300  22.188  25.526  1.00  0.00     0.002 C 
BRANCH  26  27
ATOM     27  C   UNL A   1      37.523  23.702  25.621  1.00  0.00     0.021 C 
BRANCH  27  28
ATOM     28  C   UNL A   1      38.597  24.154  26.610  1.00  0.00     0.116 C 
BRANCH  28  29
ATOM     29  N   UNL A   1      39.852  24.479  25.950  1.00  0.00    -0.352 N 
ATOM     30  C   UNL A   1      40.706  25.535  26.133  1.00  0.00     0.251 C 
ATOM     31  H   UNL A   1      40.134  23.837  25.259  1.00  0.00     0.163 HD
ATOM     32  O   UNL A   1      41.580  25.756  25.291  1.00  0.00    -0.269 OA
BRANCH  30  33
ATOM     33  C   UNL A   1      40.598  26.408  27.322  1.00  0.00     0.039 A 
ATOM     34  C   UNL A   1      39.746  26.032  28.365  1.00  0.00     0.014 A 
ATOM     35  C   UNL A   1      41.279  27.627  27.383  1.00  0.00     0.014 A 
ATOM     36  C   UNL A   1      39.615  26.853  29.489  1.00  0.00     0.010 A 
ATOM     37  C   UNL A   1      41.196  28.415  28.531  1.00  0.00     0.010 A 
ATOM     38  C   UNL A   1      40.357  28.041  29.592  1.00  0.00    -0.014 A 
BRANCH  38  39
ATOM     39  C   UNL A   1      40.268  28.906  30.797  1.00  0.00     0.031 A 
ATOM     40  C   UNL A   1      39.253  30.018  30.859  1.00  0.00     0.074 A 
ATOM     41  C   UNL A   1      41.142  28.733  31.809  1.00  0.00     0.049 A 
ATOM     42  N   UNL A   1      39.074  30.920  31.791  1.00  0.00    -0.248 NA
ATOM     43  C   UNL A   1      38.336  30.147  29.715  1.00  0.00     0.031 C 
ATOM     44  C   UNL A   1      42.195  27.715  31.854  1.00  0.00     0.029 A 
ATOM     45  N   UNL A   1      41.293  29.417  32.989  1.00  0.00    -0.354 N 
ATOM     46  C   UNL A   1      38.041  31.733  31.337  1.00  0.00     0.074 A 
ATOM     47  C   UNL A   1      37.663  31.245  30.030  1.00  0.00     0.031 C 
ATOM     48  C   UNL A   1      42.868  27.828  33.009  1.00  0.00     0.029 A 
ATOM     49  C   UNL A   1      42.324  28.949  33.770  1.00  0.00     0.049 A 
ATOM     50  H   UNL A   1      40.717  30.171  33.252  1.00  0.00     0.167 HD
ATOM     51  C   UNL A   1      37.451  32.782  31.960  1.00  0.00     0.031 A 
ATOM     52  C   UNL A   1      42.787  29.378  34.961  1.00  0.00     0.031 A 
ATOM     53  C   UNL A   1      37.821  33.256  33.267  1.00  0.00     0.049 A 
ATOM     54  C   UNL A   1      42.117  30.546  35.630  1.00  0.00     0.074 A 
ATOM     55  C   UNL A   1      37.247  34.276  34.007  1.00  0.00     0.029 A 
ATOM     56  N   UNL A   1      38.857  32.743  34.032  1.00  0.00    -0.354 N 
ATOM     57  N   UNL A   1      41.103  31.265  35.210  1.00  0.00    -0.248 NA
ATOM     58  C   UNL A   1      42.643  30.951  36.941  1.00  0.00     0.031 C 
ATOM     59  C   UNL A   1      37.967  34.411  35.198  1.00  0.00     0.029 A 
ATOM     60  C   UNL A   1      38.953  33.436  35.226  1.00  0.00     0.049 A 
ATOM     61  H   UNL A   1      39.439  31.994  33.765  1.00  0.00     0.167 HD
ATOM     62  C   UNL A   1      40.852  32.190  36.219  1.00  0.00     0.074 A 
ATOM     63  C   UNL A   1      41.811  31.929  37.273  1.00  0.00     0.031 C 
ATOM     64  C   UNL A   1      39.910  33.164  36.268  1.00  0.00     0.031 A 
BRANCH  51  65
ATOM     65  C   UNL A   1      36.341  33.495  31.229  1.00  0.00    -0.014 A 
ATOM     66  C   UNL A   1      35.119  33.780  31.864  1.00  0.00     0.010 A 
ATOM     67  C   UNL A   1      36.538  33.924  29.904  1.00  0.00     0.010 A 
ATOM     68  C   UNL A   1      34.100  34.445  31.176  1.00  0.00     0.020 A 
ATOM     69  C   UNL A   1      35.533  34.614  29.221  1.00  0.00     0.020 A 
ATOM     70  C   UNL A   1      34.313  34.855  29.857  1.00  0.00     0.054 A 
BRANCH  70  71
ATOM     71  S   UNL A   1      32.981  35.735  28.995  1.00  0.00     0.124 S 
ATOM     72  O   UNL A   1      32.166  36.213  30.109  1.00  0.00    -0.237 OA
ATOM     73  O   UNL A   1      33.705  36.768  28.257  1.00  0.00    -0.237 OA
ATOM     74  O   UNL A   1      32.362  34.703  28.168  1.00  0.00    -0.744 OA
ENDBRANCH  70  71
ENDBRANCH  51  65
BRANCH  52  75
ATOM     75  C   UNL A   1      43.940  28.688  35.602  1.00  0.00    -0.014 A 
ATOM     76  C   UNL A   1      43.749  27.484  36.302  1.00  0.00     0.010 A 
ATOM     77  C   UNL A   1      45.237  29.224  35.506  1.00  0.00     0.010 A 
ATOM     78  C   UNL A   1      44.830  26.839  36.912  1.00  0.00     0.020 A 
ATOM     79  C   UNL A   1      46.324  28.567  36.090  1.00  0.00     0.020 A 
ATOM     80  C   UNL A   1      46.111  27.384  36.800  1.00  0.00     0.054 A 
BRANCH  80  81
ATOM     81  S   UNL A   1      47.506  26.505  37.557  1.00  0.00     0.124 S 
ATOM     82  O   UNL A   1      46.935  25.186  37.804  1.00  0.00    -0.237 OA
ATOM     83  O   UNL A   1      48.524  26.569  36.511  1.00  0.00    -0.237 OA
ATOM     84  O   UNL A   1      47.800  27.296  38.750  1.00  0.00    -0.744 OA
ENDBRANCH  80  81
ENDBRANCH  52  75
BRANCH  64  85
ATOM     85  C   UNL A   1      39.842  33.999  37.518  1.00  0.00    -0.014 A 
ATOM     86  C   UNL A   1      40.558  35.203  37.631  1.00  0.00     0.010 A 
ATOM     87  C   UNL A   1      38.999  33.599  38.571  1.00  0.00     0.010 A 
ATOM     88  C   UNL A   1      40.455  35.978  38.790  1.00  0.00     0.020 A 
ATOM     89  C   UNL A   1      38.874  34.384  39.719  1.00  0.00     0.020 A 
ATOM     90  C   UNL A   1      39.613  35.563  39.827  1.00  0.00     0.054 A 
BRANCH  90  91
ATOM     91  S   UNL A   1      39.460  36.610  41.300  1.00  0.00     0.124 S 
ATOM     92  O   UNL A   1      38.797  37.795  40.763  1.00  0.00    -0.237 OA
ATOM     93  O   UNL A   1      38.649  35.788  42.196  1.00  0.00    -0.237 OA
ATOM     94  O   UNL A   1      40.843  36.809  41.729  1.00  0.00    -0.744 OA
ENDBRANCH  90  91
ENDBRANCH  64  85
ENDBRANCH  38  39
ENDBRANCH  30  33
ENDBRANCH  28  29
ENDBRANCH  27  28
ENDBRANCH  26  27
ENDBRANCH   1  26
TORSDOF 21
ENDMDL
MODEL 2
REMARK VINA RESULT:     -10.8      6.275     11.663
REMARK SMILES CC(C)c1nc(N(C)CCc2ccccn2)sc1C(=O)NCCCCCCNC(=O)c1ccc(-c2c3nc(c(-c4ccc(S(=O)(=O)[O-])cc4)c4ccc([nH]4)c(-c4ccc(S(=O)(=O)[O-])cc4)c4nc(c(-c5ccc(S(=O)(=O)[O-])cc5)c5ccc2[nH]5)C=C4)C=C3)cc1
REMARK SMILES IDX 24 1 23 2 22 3 21 4 19 5 20 6 18 8 4 9 5 10 6 11 17 12 2 13
REMARK SMILES IDX 1 14 3 15 7 16 8 17 9 18 10 19 11 20 12 21 16 22 13 23 15 24
REMARK SMILES IDX 14 25 25 26 26 27 27 28 28 29 29 30 30 32 31 33 32 34 90 35
REMARK SMILES IDX 33 36 89 37 34 38 35 39 36 40 83 41 37 42 88 43 82 44 84 45
REMARK SMILES IDX 38 46 87 47 81 48 80 49 39 51 69 52 50 53 68 54 51 55 54 56
REMARK SMILES IDX 67 57 85 58 52 59 53 60 66 62 86 63 55 64 40 65 41 66 49 67
REMARK SMILES IDX 42 68 48 69 43 70 44 71 45 72 46 73 47 74 70 75 71 76 79 77
REMARK SMILES IDX 72 78 78 79 73 80 74 81 75 82 76 83 77 84 56 85 57 86 65 87
REMARK SMILES IDX 58 88 64 89 59 90 60 91 61 92 62 93 63 94
REMARK H PARENT 21 7 28 31 84 50 54 61
REMARK Flexibility Score: inf
ROOT
ATOM      1  C   UNL A   1      32.202  29.408  25.721  1.00  0.00     0.002 C 
ENDROOT
BRANCH   1   2
ATOM      2  C   UNL A   1      32.062  28.991  24.256  1.00  0.00     0.021 C 
BRANCH   2   3
ATOM      3  C   UNL A   1      30.732  28.299  23.897  1.00  0.00     0.116 C 
BRANCH   3   4
ATOM      4  N   UNL A   1      30.353  27.346  24.921  1.00  0.00    -0.351 N 
ATOM      5  C   UNL A   1      30.741  26.164  25.480  1.00  0.00     0.263 C 
ATOM      6  O   UNL A   1      29.959  25.885  26.408  1.00  0.00    -0.268 OA
ATOM      7  H   UNL A   1      29.534  27.660  25.366  1.00  0.00     0.163 HD
BRANCH   5   8
ATOM      8  C   UNL A   1      31.853  25.274  25.140  1.00  0.00     0.117 A 
ATOM      9  C   UNL A   1      32.742  24.957  24.113  1.00  0.00     0.069 A 
ATOM     10  N   UNL A   1      33.597  23.898  24.403  1.00  0.00    -0.224 NA
ATOM     11  C   UNL A   1      33.283  23.244  25.484  1.00  0.00     0.186 A 
ATOM     12  S   UNL A   1      32.192  24.120  26.453  1.00  0.00    -0.091 S 
BRANCH   9  13
ATOM     13  C   UNL A   1      32.971  25.391  22.693  1.00  0.00     0.034 C 
ATOM     14  C   UNL A   1      31.701  25.522  21.887  1.00  0.00     0.014 C 
ATOM     15  C   UNL A   1      33.945  26.550  22.543  1.00  0.00     0.014 C 
ENDBRANCH   9  13
BRANCH  11  16
ATOM     16  N   UNL A   1      33.779  22.000  25.734  1.00  0.00    -0.351 N 
ATOM     17  C   UNL A   1      35.131  21.737  26.179  1.00  0.00     0.146 C 
BRANCH  16  18
ATOM     18  C   UNL A   1      32.892  20.851  25.485  1.00  0.00     0.125 C 
BRANCH  18  19
ATOM     19  C   UNL A   1      33.378  19.951  24.342  1.00  0.00     0.077 C 
BRANCH  19  20
ATOM     20  C   UNL A   1      33.358  18.461  24.592  1.00  0.00     0.042 A 
ATOM     21  C   UNL A   1      34.087  17.599  23.775  1.00  0.00     0.024 A 
ATOM     22  N   UNL A   1      32.528  18.006  25.564  1.00  0.00    -0.261 NA
ATOM     23  C   UNL A   1      33.936  16.224  23.937  1.00  0.00     0.003 A 
ATOM     24  C   UNL A   1      32.417  16.666  25.713  1.00  0.00     0.111 A 
ATOM     25  C   UNL A   1      33.078  15.744  24.919  1.00  0.00     0.020 A 
ENDBRANCH  19  20
ENDBRANCH  18  19
ENDBRANCH  16  18
ENDBRANCH  11  16
ENDBRANCH   5   8
ENDBRANCH   3   4
ENDBRANCH   2   3
ENDBRANCH   1   2
BRANCH   1  26
ATOM     26  C   UNL A   1      33.636  29.552  26.235  1.00  0.00     0.002 C 
BRANCH  26  27
ATOM     27  C   UNL A   1      33.816  30.350  27.533  1.00  0.00     0.021 C 
BRANCH  27  28
ATOM     28  C   UNL A   1      35.252  30.480  28.040  1.00  0.00     0.116 C 
BRANCH  28  29
ATOM     29  N   UNL A   1      35.308  30.877  29.439  1.00  0.00    -0.352 N 
ATOM     30  C   UNL A   1      36.296  30.705  30.373  1.00  0.00     0.251 C 
ATOM     31  H   UNL A   1      34.506  31.344  29.768  1.00  0.00     0.163 HD
ATOM     32  O   UNL A   1      36.036  30.887  31.565  1.00  0.00    -0.269 OA
BRANCH  30  33
ATOM     33  C   UNL A   1      37.664  30.310  29.975  1.00  0.00     0.039 A 
ATOM     34  C   UNL A   1      38.614  30.058  30.970  1.00  0.00     0.014 A 
ATOM     35  C   UNL A   1      38.034  30.256  28.628  1.00  0.00     0.014 A 
ATOM     36  C   UNL A   1      39.919  29.703  30.614  1.00  0.00     0.010 A 
ATOM     37  C   UNL A   1      39.318  29.842  28.274  1.00  0.00     0.010 A 
ATOM     38  C   UNL A   1      40.276  29.569  29.263  1.00  0.00    -0.014 A 
BRANCH  38  39
ATOM     39  C   UNL A   1      41.645  29.149  28.863  1.00  0.00     0.031 A 
ATOM     40  C   UNL A   1      42.763  30.157  28.813  1.00  0.00     0.074 A 
ATOM     41  C   UNL A   1      41.866  27.875  28.483  1.00  0.00     0.049 A 
ATOM     42  N   UNL A   1      44.001  29.997  28.419  1.00  0.00    -0.248 NA
ATOM     43  C   UNL A   1      42.442  31.529  29.239  1.00  0.00     0.031 C 
ATOM     44  C   UNL A   1      40.859  26.812  28.453  1.00  0.00     0.029 A 
ATOM     45  N   UNL A   1      43.009  27.260  28.036  1.00  0.00    -0.354 N 
ATOM     46  C   UNL A   1      44.599  31.248  28.530  1.00  0.00     0.074 A 
ATOM     47  C   UNL A   1      43.578  32.164  28.986  1.00  0.00     0.031 C 
ATOM     48  C   UNL A   1      41.432  25.674  28.032  1.00  0.00     0.029 A 
ATOM     49  C   UNL A   1      42.836  25.932  27.724  1.00  0.00     0.049 A 
ATOM     50  H   UNL A   1      43.873  27.726  27.948  1.00  0.00     0.167 HD
ATOM     51  C   UNL A   1      45.886  31.597  28.289  1.00  0.00     0.031 A 
ATOM     52  C   UNL A   1      43.704  25.025  27.235  1.00  0.00     0.031 A 
ATOM     53  C   UNL A   1      46.902  30.679  27.849  1.00  0.00     0.049 A 
ATOM     54  C   UNL A   1      45.126  25.438  26.973  1.00  0.00     0.074 A 
ATOM     55  C   UNL A   1      48.247  30.924  27.630  1.00  0.00     0.029 A 
ATOM     56  N   UNL A   1      46.689  29.339  27.563  1.00  0.00    -0.354 N 
ATOM     57  N   UNL A   1      45.686  26.613  27.140  1.00  0.00    -0.248 NA
ATOM     58  C   UNL A   1      46.037  24.401  26.471  1.00  0.00     0.031 C 
ATOM     59  C   UNL A   1      48.837  29.744  27.164  1.00  0.00     0.029 A 
ATOM     60  C   UNL A   1      47.871  28.749  27.150  1.00  0.00     0.049 A 
ATOM     61  H   UNL A   1      45.823  28.875  27.641  1.00  0.00     0.167 HD
ATOM     62  C   UNL A   1      47.022  26.447  26.791  1.00  0.00     0.074 A 
ATOM     63  C   UNL A   1      47.188  25.058  26.416  1.00  0.00     0.031 C 
ATOM     64  C   UNL A   1      48.022  27.364  26.783  1.00  0.00     0.031 A 
BRANCH  51  65
ATOM     65  C   UNL A   1      46.268  33.041  28.492  1.00  0.00    -0.014 A 
ATOM     66  C   UNL A   1      46.751  33.498  29.732  1.00  0.00     0.010 A 
ATOM     67  C   UNL A   1      46.185  33.946  27.418  1.00  0.00     0.010 A 
ATOM     68  C   UNL A   1      47.105  34.839  29.905  1.00  0.00     0.020 A 
ATOM     69  C   UNL A   1      46.565  35.281  27.579  1.00  0.00     0.020 A 
ATOM     70  C   UNL A   1      47.007  35.723  28.828  1.00  0.00     0.054 A 
BRANCH  70  71
ATOM     71  S   UNL A   1      47.493  37.453  29.076  1.00  0.00     0.124 S 
ATOM     72  O   UNL A   1      48.582  37.599  28.113  1.00  0.00    -0.237 OA
ATOM     73  O   UNL A   1      46.268  38.180  28.753  1.00  0.00    -0.237 OA
ATOM     74  O   UNL A   1      47.892  37.503  30.479  1.00  0.00    -0.744 OA
ENDBRANCH  70  71
ENDBRANCH  51  65
BRANCH  52  75
ATOM     75  C   UNL A   1      43.254  23.630  26.976  1.00  0.00    -0.014 A 
ATOM     76  C   UNL A   1      43.075  22.729  28.040  1.00  0.00     0.010 A 
ATOM     77  C   UNL A   1      42.988  23.197  25.663  1.00  0.00     0.010 A 
ATOM     78  C   UNL A   1      42.659  21.416  27.796  1.00  0.00     0.020 A 
ATOM     79  C   UNL A   1      42.545  21.895  25.418  1.00  0.00     0.020 A 
ATOM     80  C   UNL A   1      42.396  21.008  26.487  1.00  0.00     0.054 A 
BRANCH  80  81
ATOM     81  S   UNL A   1      41.810  19.315  26.198  1.00  0.00     0.124 S 
ATOM     82  O   UNL A   1      40.392  19.526  25.933  1.00  0.00    -0.237 OA
ATOM     83  O   UNL A   1      42.614  18.894  25.053  1.00  0.00    -0.237 OA
ATOM     84  O   UNL A   1      42.119  18.630  27.452  1.00  0.00    -0.744 OA
ENDBRANCH  80  81
ENDBRANCH  52  75
BRANCH  64  85
ATOM     85  C   UNL A   1      49.396  26.887  26.395  1.00  0.00    -0.014 A 
ATOM     86  C   UNL A   1      50.204  26.176  27.297  1.00  0.00     0.010 A 
ATOM     87  C   UNL A   1      49.857  27.108  25.084  1.00  0.00     0.010 A 
ATOM     88  C   UNL A   1      51.464  25.717  26.903  1.00  0.00     0.020 A 
ATOM     89  C   UNL A   1      51.105  26.628  24.680  1.00  0.00     0.020 A 
ATOM     90  C   UNL A   1      51.907  25.946  25.597  1.00  0.00     0.054 A 
BRANCH  90  91
ATOM     91  S   UNL A   1      53.526  25.300  25.097  1.00  0.00     0.124 S 
ATOM     92  O   UNL A   1      53.528  25.562  23.660  1.00  0.00    -0.237 OA
ATOM     93  O   UNL A   1      54.453  26.109  25.885  1.00  0.00    -0.237 OA
ATOM     94  O   UNL A   1      53.467  23.888  25.472  1.00  0.00    -0.744 OA
ENDBRANCH  90  91
ENDBRANCH  64  85
ENDBRANCH  38  39
ENDBRANCH  30  33
ENDBRANCH  28  29
ENDBRANCH  27  28
ENDBRANCH  26  27
ENDBRANCH   1  26
TORSDOF 21
ENDMDL
MODEL 3
REMARK VINA RESULT:     -10.5      5.192      6.381
REMARK SMILES CC(C)c1nc(N(C)CCc2ccccn2)sc1C(=O)NCCCCCCNC(=O)c1ccc(-c2c3nc(c(-c4ccc(S(=O)(=O)[O-])cc4)c4ccc([nH]4)c(-c4ccc(S(=O)(=O)[O-])cc4)c4nc(c(-c5ccc(S(=O)(=O)[O-])cc5)c5ccc2[nH]5)C=C4)C=C3)cc1
REMARK SMILES IDX 24 1 23 2 22 3 21 4 19 5 20 6 18 8 4 9 5 10 6 11 17 12 2 13
REMARK SMILES IDX 1 14 3 15 7 16 8 17 9 18 10 19 11 20 12 21 16 22 13 23 15 24
REMARK SMILES IDX 14 25 25 26 26 27 27 28 28 29 29 30 30 32 31 33 32 34 90 35
REMARK SMILES IDX 33 36 89 37 34 38 35 39 36 40 83 41 37 42 88 43 82 44 84 45
REMARK SMILES IDX 38 46 87 47 81 48 80 49 39 51 69 52 50 53 68 54 51 55 54 56
REMARK SMILES IDX 67 57 85 58 52 59 53 60 66 62 86 63 55 64 40 65 41 66 49 67
REMARK SMILES IDX 42 68 48 69 43 70 44 71 45 72 46 73 47 74 70 75 71 76 79 77
REMARK SMILES IDX 72 78 78 79 73 80 74 81 75 82 76 83 77 84 56 85 57 86 65 87
REMARK SMILES IDX 58 88 64 89 59 90 60 91 61 92 62 93 63 94
REMARK H PARENT 21 7 28 31 84 50 54 61
REMARK Flexibility Score: inf
ROOT
ATOM      1  C   UNL A   1      35.181  20.458  24.860  1.00  0.00     0.002 C 
ENDROOT
BRANCH   1   2
ATOM      2  C   UNL A   1      33.864  19.680  24.875  1.00  0.00     0.021 C 
BRANCH   2   3
ATOM      3  C   UNL A   1      32.595  20.540  24.707  1.00  0.00     0.116 C 
BRANCH   3   4
ATOM      4  N   UNL A   1      32.705  21.402  23.547  1.00  0.00    -0.351 N 
ATOM      5  C   UNL A   1      32.675  22.716  23.182  1.00  0.00     0.263 C 
ATOM      6  O   UNL A   1      32.890  22.795  21.958  1.00  0.00    -0.268 OA
ATOM      7  H   UNL A   1      32.853  20.848  22.747  1.00  0.00     0.163 HD
BRANCH   5   8
ATOM      8  C   UNL A   1      32.431  23.917  23.983  1.00  0.00     0.117 A 
ATOM      9  C   UNL A   1      32.013  24.340  25.245  1.00  0.00     0.069 A 
ATOM     10  N   UNL A   1      31.934  25.721  25.389  1.00  0.00    -0.224 NA
ATOM     11  C   UNL A   1      32.048  26.378  24.271  1.00  0.00     0.186 A 
ATOM     12  S   UNL A   1      32.685  25.401  23.031  1.00  0.00    -0.091 S 
BRANCH   9  13
ATOM     13  C   UNL A   1      31.509  23.690  26.503  1.00  0.00     0.034 C 
ATOM     14  C   UNL A   1      30.304  22.806  26.289  1.00  0.00     0.014 C 
ATOM     15  C   UNL A   1      32.600  23.083  27.372  1.00  0.00     0.014 C 
ENDBRANCH   9  13
BRANCH  11  16
ATOM     16  N   UNL A   1      31.660  27.679  24.165  1.00  0.00    -0.351 N 
ATOM     17  C   UNL A   1      30.315  28.103  23.839  1.00  0.00     0.146 C 
BRANCH  16  18
ATOM     18  C   UNL A   1      32.693  28.714  24.342  1.00  0.00     0.125 C 
BRANCH  18  19
ATOM     19  C   UNL A   1      32.385  29.684  25.489  1.00  0.00     0.077 C 
BRANCH  19  20
ATOM     20  C   UNL A   1      33.463  29.873  26.530  1.00  0.00     0.042 A 
ATOM     21  C   UNL A   1      33.507  31.036  27.297  1.00  0.00     0.024 A 
ATOM     22  N   UNL A   1      34.428  28.921  26.604  1.00  0.00    -0.261 NA
ATOM     23  C   UNL A   1      34.592  31.247  28.143  1.00  0.00     0.003 A 
ATOM     24  C   UNL A   1      35.459  29.143  27.452  1.00  0.00     0.111 A 
ATOM     25  C   UNL A   1      35.594  30.288  28.218  1.00  0.00     0.020 A 
ENDBRANCH  19  20
ENDBRANCH  18  19
ENDBRANCH  16  18
ENDBRANCH  11  16
ENDBRANCH   5   8
ENDBRANCH   3   4
ENDBRANCH   2   3
ENDBRANCH   1   2
BRANCH   1  26
ATOM     26  C   UNL A   1      35.302  21.577  25.897  1.00  0.00     0.002 C 
BRANCH  26  27
ATOM     27  C   UNL A   1      35.782  22.937  25.376  1.00  0.00     0.021 C 
BRANCH  27  28
ATOM     28  C   UNL A   1      37.135  23.412  25.907  1.00  0.00     0.116 C 
BRANCH  28  29
ATOM     29  N   UNL A   1      38.054  22.308  26.137  1.00  0.00    -0.352 N 
ATOM     30  C   UNL A   1      39.388  22.314  26.452  1.00  0.00     0.251 C 
ATOM     31  H   UNL A   1      37.654  21.413  26.053  1.00  0.00     0.163 HD
ATOM     32  O   UNL A   1      40.035  21.268  26.349  1.00  0.00    -0.269 OA
BRANCH  30  33
ATOM     33  C   UNL A   1      40.060  23.546  26.915  1.00  0.00     0.039 A 
ATOM     34  C   UNL A   1      40.834  23.501  28.079  1.00  0.00     0.014 A 
ATOM     35  C   UNL A   1      39.874  24.761  26.248  1.00  0.00     0.014 A 
ATOM     36  C   UNL A   1      41.461  24.660  28.545  1.00  0.00     0.010 A 
ATOM     37  C   UNL A   1      40.551  25.902  26.678  1.00  0.00     0.010 A 
ATOM     38  C   UNL A   1      41.344  25.867  27.835  1.00  0.00    -0.014 A 
BRANCH  38  39
ATOM     39  C   UNL A   1      42.039  27.100  28.287  1.00  0.00     0.031 A 
ATOM     40  C   UNL A   1      41.246  28.269  28.810  1.00  0.00     0.074 A 
ATOM     41  C   UNL A   1      43.378  27.193  28.167  1.00  0.00     0.049 A 
ATOM     42  N   UNL A   1      41.666  29.453  29.180  1.00  0.00    -0.248 NA
ATOM     43  C   UNL A   1      39.787  28.094  28.907  1.00  0.00     0.031 C 
ATOM     44  C   UNL A   1      44.257  26.144  27.643  1.00  0.00     0.029 A 
ATOM     45  N   UNL A   1      44.235  28.222  28.467  1.00  0.00    -0.354 N 
ATOM     46  C   UNL A   1      40.526  30.167  29.533  1.00  0.00     0.074 A 
ATOM     47  C   UNL A   1      39.394  29.300  29.292  1.00  0.00     0.031 C 
ATOM     48  C   UNL A   1      45.527  26.576  27.677  1.00  0.00     0.029 A 
ATOM     49  C   UNL A   1      45.553  27.944  28.186  1.00  0.00     0.049 A 
ATOM     50  H   UNL A   1      43.935  29.080  28.847  1.00  0.00     0.167 HD
ATOM     51  C   UNL A   1      40.433  31.425  30.027  1.00  0.00     0.031 A 
ATOM     52  C   UNL A   1      46.657  28.705  28.314  1.00  0.00     0.031 A 
ATOM     53  C   UNL A   1      41.563  32.279  30.279  1.00  0.00     0.049 A 
ATOM     54  C   UNL A   1      46.527  30.099  28.864  1.00  0.00     0.074 A 
ATOM     55  C   UNL A   1      41.577  33.548  30.830  1.00  0.00     0.029 A 
ATOM     56  N   UNL A   1      42.881  31.951  29.999  1.00  0.00    -0.354 N 
ATOM     57  N   UNL A   1      45.445  30.735  29.246  1.00  0.00    -0.248 NA
ATOM     58  C   UNL A   1      47.767  30.873  29.012  1.00  0.00     0.031 C 
ATOM     59  C   UNL A   1      42.898  34.008  30.839  1.00  0.00     0.029 A 
ATOM     60  C   UNL A   1      43.714  33.001  30.347  1.00  0.00     0.049 A 
ATOM     61  H   UNL A   1      43.181  31.097  29.610  1.00  0.00     0.167 HD
ATOM     62  C   UNL A   1      45.878  31.974  29.708  1.00  0.00     0.074 A 
ATOM     63  C   UNL A   1      47.321  31.991  29.568  1.00  0.00     0.031 C 
ATOM     64  C   UNL A   1      45.148  33.002  30.205  1.00  0.00     0.031 A 
BRANCH  51  65
ATOM     65  C   UNL A   1      39.055  31.957  30.326  1.00  0.00    -0.014 A 
ATOM     66  C   UNL A   1      38.373  31.591  31.501  1.00  0.00     0.010 A 
ATOM     67  C   UNL A   1      38.451  32.872  29.444  1.00  0.00     0.010 A 
ATOM     68  C   UNL A   1      37.097  32.096  31.767  1.00  0.00     0.020 A 
ATOM     69  C   UNL A   1      37.187  33.402  29.721  1.00  0.00     0.020 A 
ATOM     70  C   UNL A   1      36.511  32.996  30.873  1.00  0.00     0.054 A 
BRANCH  70  71
ATOM     71  S   UNL A   1      34.863  33.652  31.255  1.00  0.00     0.124 S 
ATOM     72  O   UNL A   1      34.174  32.464  31.752  1.00  0.00    -0.237 OA
ATOM     73  O   UNL A   1      35.150  34.677  32.256  1.00  0.00    -0.237 OA
ATOM     74  O   UNL A   1      34.384  34.157  29.971  1.00  0.00    -0.744 OA
ENDBRANCH  70  71
ENDBRANCH  51  65
BRANCH  52  75
ATOM     75  C   UNL A   1      47.986  28.157  27.929  1.00  0.00    -0.014 A 
ATOM     76  C   UNL A   1      48.833  27.591  28.898  1.00  0.00     0.010 A 
ATOM     77  C   UNL A   1      48.409  28.186  26.587  1.00  0.00     0.010 A 
ATOM     78  C   UNL A   1      50.084  27.083  28.537  1.00  0.00     0.020 A 
ATOM     79  C   UNL A   1      49.647  27.654  26.217  1.00  0.00     0.020 A 
ATOM     80  C   UNL A   1      50.483  27.117  27.199  1.00  0.00     0.054 A 
BRANCH  80  81
ATOM     81  S   UNL A   1      52.091  26.408  26.745  1.00  0.00     0.124 S 
ATOM     82  O   UNL A   1      52.896  26.705  27.924  1.00  0.00    -0.237 OA
ATOM     83  O   UNL A   1      51.766  24.998  26.539  1.00  0.00    -0.237 OA
ATOM     84  O   UNL A   1      52.456  27.139  25.534  1.00  0.00    -0.744 OA
ENDBRANCH  80  81
ENDBRANCH  52  75
BRANCH  64  85
ATOM     85  C   UNL A   1      45.897  34.222  30.673  1.00  0.00    -0.014 A 
ATOM     86  C   UNL A   1      46.147  35.301  29.808  1.00  0.00     0.010 A 
ATOM     87  C   UNL A   1      46.302  34.309  32.017  1.00  0.00     0.010 A 
ATOM     88  C   UNL A   1      46.817  36.436  30.273  1.00  0.00     0.020 A 
ATOM     89  C   UNL A   1      46.949  35.452  32.491  1.00  0.00     0.020 A 
ATOM     90  C   UNL A   1      47.214  36.504  31.612  1.00  0.00     0.054 A 
BRANCH  90  91
ATOM     91  S   UNL A   1      48.040  38.007  32.203  1.00  0.00     0.124 S 
ATOM     92  O   UNL A   1      47.548  39.013  31.265  1.00  0.00    -0.237 OA
ATOM     93  O   UNL A   1      47.545  38.129  33.573  1.00  0.00    -0.237 OA
ATOM     94  O   UNL A   1      49.462  37.690  32.087  1.00  0.00    -0.744 OA
ENDBRANCH  90  91
ENDBRANCH  64  85
ENDBRANCH  38  39
ENDBRANCH  30  33
ENDBRANCH  28  29
ENDBRANCH  27  28
ENDBRANCH  26  27
ENDBRANCH   1  26
TORSDOF 21
ENDMDL
