MODEL 1
REMARK VINA RESULT:      -8.7      0.000      0.000
REMARK SMILES O=C(CNC(=O)Nc1cccc2c1CCCC2)NCCCCCCNC(=O)c1ccc(-c2c3nc(c(-c4ccc(S(=O)(=O)[O-])cc4)c4ccc([nH]4)c(-c4ccc(S(=O)(=O)[O-])cc4)c4nc(c(-c5ccc(S(=O)(=O)[O-])cc5)c5ccc2[nH]5)C=C4)C=C3)cc1
REMARK SMILES IDX 22 1 21 2 20 3 19 4 18 5 1 6 2 7 3 9 4 10 5 11 6 13 7 14
REMARK SMILES IDX 8 16 9 17 13 18 10 19 12 20 14 21 11 22 17 23 15 24 16 25
REMARK SMILES IDX 23 26 24 27 25 28 26 29 27 31 28 32 29 33 87 34 30 35 86 36
REMARK SMILES IDX 31 37 32 38 33 39 80 40 34 41 85 42 79 43 81 44 35 45 84 46
REMARK SMILES IDX 78 47 77 48 36 50 66 51 47 52 65 53 48 54 51 55 64 56 82 57
REMARK SMILES IDX 49 58 50 59 63 61 83 62 52 63 37 64 38 65 46 66 39 67 45 68
REMARK SMILES IDX 40 69 41 70 42 71 43 72 44 73 67 74 68 75 76 76 69 77 75 78
REMARK SMILES IDX 70 79 71 80 72 81 73 82 74 83 53 84 54 85 62 86 55 87 61 88
REMARK SMILES IDX 56 89 57 90 58 91 59 92 60 93
REMARK H PARENT 18 8 4 12 7 15 25 30 81 49 51 60
REMARK Flexibility Score: inf
ROOT
ATOM      1  C   UNL A   1      34.868  32.892  30.526  1.00  0.00     0.002 C 
ENDROOT
BRANCH   1   2
ATOM      2  C   UNL A   1      36.397  32.978  30.566  1.00  0.00     0.002 C 
BRANCH   2   3
ATOM      3  C   UNL A   1      37.017  33.018  31.969  1.00  0.00     0.021 C 
BRANCH   3   4
ATOM      4  C   UNL A   1      37.196  34.422  32.552  1.00  0.00     0.116 C 
BRANCH   4   5
ATOM      5  N   UNL A   1      38.048  34.390  33.718  1.00  0.00    -0.355 N 
ATOM      6  O   UNL A   1      40.028  34.603  32.573  1.00  0.00    -0.273 OA
ATOM      7  C   UNL A   1      39.418  34.414  33.622  1.00  0.00     0.239 C 
ATOM      8  H   UNL A   1      37.632  34.350  34.610  1.00  0.00     0.163 HD
BRANCH   7   9
ATOM      9  C   UNL A   1      40.111  33.883  34.865  1.00  0.00     0.217 C 
BRANCH   9  10
ATOM     10  N   UNL A   1      39.272  33.678  36.039  1.00  0.00    -0.329 N 
ATOM     11  C   UNL A   1      39.021  32.634  36.845  1.00  0.00     0.319 C 
ATOM     12  H   UNL A   1      38.778  34.489  36.301  1.00  0.00     0.165 HD
ATOM     13  O   UNL A   1      38.251  32.832  37.791  1.00  0.00    -0.248 OA
ATOM     14  N   UNL A   1      39.459  31.373  36.648  1.00  0.00    -0.308 N 
ATOM     15  H   UNL A   1      39.103  30.725  37.299  1.00  0.00     0.171 HD
BRANCH  14  16
ATOM     16  C   UNL A   1      40.318  30.803  35.702  1.00  0.00     0.046 A 
ATOM     17  C   UNL A   1      41.684  30.856  36.011  1.00  0.00     0.026 A 
ATOM     18  C   UNL A   1      39.882  30.170  34.523  1.00  0.00    -0.021 A 
ATOM     19  C   UNL A   1      42.605  30.147  35.246  1.00  0.00     0.002 A 
ATOM     20  C   UNL A   1      40.806  29.369  33.818  1.00  0.00    -0.043 A 
ATOM     21  C   UNL A   1      38.472  30.357  34.000  1.00  0.00     0.038 C 
ATOM     22  C   UNL A   1      42.162  29.375  34.178  1.00  0.00     0.004 A 
ATOM     23  C   UNL A   1      40.352  28.461  32.701  1.00  0.00     0.036 C 
ATOM     24  C   UNL A   1      38.071  29.442  32.837  1.00  0.00     0.005 C 
ATOM     25  C   UNL A   1      38.865  28.145  32.815  1.00  0.00     0.005 C 
ENDBRANCH  14  16
ENDBRANCH   9  10
ENDBRANCH   7   9
ENDBRANCH   4   5
ENDBRANCH   3   4
ENDBRANCH   2   3
ENDBRANCH   1   2
BRANCH   1  26
ATOM     26  C   UNL A   1      34.211  33.505  29.288  1.00  0.00     0.021 C 
BRANCH  26  27
ATOM     27  C   UNL A   1      34.572  32.829  27.973  1.00  0.00     0.116 C 
BRANCH  27  28
ATOM     28  N   UNL A   1      33.795  31.624  27.747  1.00  0.00    -0.352 N 
ATOM     29  C   UNL A   1      34.225  30.322  27.658  1.00  0.00     0.251 C 
ATOM     30  H   UNL A   1      32.826  31.757  27.643  1.00  0.00     0.163 HD
ATOM     31  O   UNL A   1      33.452  29.449  27.276  1.00  0.00    -0.269 OA
BRANCH  29  32
ATOM     32  C   UNL A   1      35.624  29.980  28.003  1.00  0.00     0.039 A 
ATOM     33  C   UNL A   1      35.909  29.539  29.298  1.00  0.00     0.014 A 
ATOM     34  C   UNL A   1      36.652  30.107  27.065  1.00  0.00     0.014 A 
ATOM     35  C   UNL A   1      37.218  29.189  29.639  1.00  0.00     0.010 A 
ATOM     36  C   UNL A   1      37.941  29.685  27.384  1.00  0.00     0.010 A 
ATOM     37  C   UNL A   1      38.242  29.239  28.679  1.00  0.00    -0.014 A 
BRANCH  37  38
ATOM     38  C   UNL A   1      39.639  28.867  29.025  1.00  0.00     0.031 A 
ATOM     39  C   UNL A   1      40.538  29.870  29.701  1.00  0.00     0.074 A 
ATOM     40  C   UNL A   1      40.111  27.646  28.703  1.00  0.00     0.049 A 
ATOM     41  N   UNL A   1      41.798  29.756  30.035  1.00  0.00    -0.248 NA
ATOM     42  C   UNL A   1      39.950  31.182  30.022  1.00  0.00     0.031 C 
ATOM     43  C   UNL A   1      39.356  26.597  28.014  1.00  0.00     0.029 A 
ATOM     44  N   UNL A   1      41.346  27.082  28.909  1.00  0.00    -0.354 N 
ATOM     45  C   UNL A   1      42.152  30.976  30.600  1.00  0.00     0.074 A 
ATOM     46  C   UNL A   1      40.994  31.837  30.506  1.00  0.00     0.031 C 
ATOM     47  C   UNL A   1      40.136  25.512  27.874  1.00  0.00     0.029 A 
ATOM     48  C   UNL A   1      41.455  25.797  28.430  1.00  0.00     0.049 A 
ATOM     49  H   UNL A   1      42.085  27.553  29.359  1.00  0.00     0.167 HD
ATOM     50  C   UNL A   1      43.323  31.339  31.175  1.00  0.00     0.031 A 
ATOM     51  C   UNL A   1      42.501  24.947  28.432  1.00  0.00     0.031 A 
ATOM     52  C   UNL A   1      44.473  30.481  31.277  1.00  0.00     0.049 A 
ATOM     53  C   UNL A   1      43.795  25.379  29.071  1.00  0.00     0.074 A 
ATOM     54  C   UNL A   1      45.702  30.752  31.853  1.00  0.00     0.029 A 
ATOM     55  N   UNL A   1      44.530  29.179  30.805  1.00  0.00    -0.354 N 
ATOM     56  N   UNL A   1      44.096  26.526  29.632  1.00  0.00    -0.248 NA
ATOM     57  C   UNL A   1      44.882  24.391  29.098  1.00  0.00     0.031 C 
ATOM     58  C   UNL A   1      46.515  29.624  31.700  1.00  0.00     0.029 A 
ATOM     59  C   UNL A   1      45.774  28.633  31.078  1.00  0.00     0.049 A 
ATOM     60  H   UNL A   1      43.797  28.712  30.344  1.00  0.00     0.167 HD
ATOM     61  C   UNL A   1      45.393  26.382  30.112  1.00  0.00     0.074 A 
ATOM     62  C   UNL A   1      45.813  25.035  29.788  1.00  0.00     0.031 C 
ATOM     63  C   UNL A   1      46.169  27.284  30.764  1.00  0.00     0.031 A 
BRANCH  50  64
ATOM     64  C   UNL A   1      43.411  32.726  31.756  1.00  0.00    -0.014 A 
ATOM     65  C   UNL A   1      43.281  32.934  33.142  1.00  0.00     0.010 A 
ATOM     66  C   UNL A   1      43.673  33.828  30.922  1.00  0.00     0.010 A 
ATOM     67  C   UNL A   1      43.376  34.220  33.679  1.00  0.00     0.020 A 
ATOM     68  C   UNL A   1      43.799  35.114  31.459  1.00  0.00     0.020 A 
ATOM     69  C   UNL A   1      43.634  35.302  32.833  1.00  0.00     0.054 A 
BRANCH  69  70
ATOM     70  S   UNL A   1      43.790  36.955  33.565  1.00  0.00     0.124 S 
ATOM     71  O   UNL A   1      43.795  37.808  32.379  1.00  0.00    -0.237 OA
ATOM     72  O   UNL A   1      42.596  37.049  34.400  1.00  0.00    -0.237 OA
ATOM     73  O   UNL A   1      45.054  36.895  34.293  1.00  0.00    -0.744 OA
ENDBRANCH  69  70
ENDBRANCH  50  64
BRANCH  51  74
ATOM     74  C   UNL A   1      42.372  23.596  27.817  1.00  0.00    -0.014 A 
ATOM     75  C   UNL A   1      41.815  22.527  28.540  1.00  0.00     0.010 A 
ATOM     76  C   UNL A   1      42.835  23.368  26.508  1.00  0.00     0.010 A 
ATOM     77  C   UNL A   1      41.762  21.245  27.982  1.00  0.00     0.020 A 
ATOM     78  C   UNL A   1      42.754  22.096  25.935  1.00  0.00     0.020 A 
ATOM     79  C   UNL A   1      42.238  21.038  26.685  1.00  0.00     0.054 A 
BRANCH  79  80
ATOM     80  S   UNL A   1      42.151  19.370  25.975  1.00  0.00     0.124 S 
ATOM     81  O   UNL A   1      42.683  18.551  27.060  1.00  0.00    -0.237 OA
ATOM     82  O   UNL A   1      40.725  19.214  25.703  1.00  0.00    -0.237 OA
ATOM     83  O   UNL A   1      42.998  19.462  24.787  1.00  0.00    -0.744 OA
ENDBRANCH  79  80
ENDBRANCH  51  74
BRANCH  63  84
ATOM     84  C   UNL A   1      47.525  26.824  31.229  1.00  0.00    -0.014 A 
ATOM     85  C   UNL A   1      48.656  26.906  30.397  1.00  0.00     0.010 A 
ATOM     86  C   UNL A   1      47.671  26.332  32.539  1.00  0.00     0.010 A 
ATOM     87  C   UNL A   1      49.899  26.461  30.853  1.00  0.00     0.020 A 
ATOM     88  C   UNL A   1      48.919  25.914  33.008  1.00  0.00     0.020 A 
ATOM     89  C   UNL A   1      50.022  25.963  32.155  1.00  0.00     0.054 A 
BRANCH  89  90
ATOM     90  S   UNL A   1      51.652  25.413  32.731  1.00  0.00     0.124 S 
ATOM     91  O   UNL A   1      51.704  24.043  32.230  1.00  0.00    -0.237 OA
ATOM     92  O   UNL A   1      52.558  26.356  32.080  1.00  0.00    -0.237 OA
ATOM     93  O   UNL A   1      51.566  25.543  34.184  1.00  0.00    -0.744 OA
ENDBRANCH  89  90
ENDBRANCH  63  84
ENDBRANCH  37  38
ENDBRANCH  29  32
ENDBRANCH  27  28
ENDBRANCH  26  27
ENDBRANCH   1  26
TORSDOF 18
ENDMDL
MODEL 2
REMARK VINA RESULT:      -8.6      4.267      7.724
REMARK SMILES O=C(CNC(=O)Nc1cccc2c1CCCC2)NCCCCCCNC(=O)c1ccc(-c2c3nc(c(-c4ccc(S(=O)(=O)[O-])cc4)c4ccc([nH]4)c(-c4ccc(S(=O)(=O)[O-])cc4)c4nc(c(-c5ccc(S(=O)(=O)[O-])cc5)c5ccc2[nH]5)C=C4)C=C3)cc1
REMARK SMILES IDX 22 1 21 2 20 3 19 4 18 5 1 6 2 7 3 9 4 10 5 11 6 13 7 14
REMARK SMILES IDX 8 16 9 17 13 18 10 19 12 20 14 21 11 22 17 23 15 24 16 25
REMARK SMILES IDX 23 26 24 27 25 28 26 29 27 31 28 32 29 33 87 34 30 35 86 36
REMARK SMILES IDX 31 37 32 38 33 39 80 40 34 41 85 42 79 43 81 44 35 45 84 46
REMARK SMILES IDX 78 47 77 48 36 50 66 51 47 52 65 53 48 54 51 55 64 56 82 57
REMARK SMILES IDX 49 58 50 59 63 61 83 62 52 63 37 64 38 65 46 66 39 67 45 68
REMARK SMILES IDX 40 69 41 70 42 71 43 72 44 73 67 74 68 75 76 76 69 77 75 78
REMARK SMILES IDX 70 79 71 80 72 81 73 82 74 83 53 84 54 85 62 86 55 87 61 88
REMARK SMILES IDX 56 89 57 90 58 91 59 92 60 93
REMARK H PARENT 18 8 4 12 7 15 25 30 81 49 51 60
REMARK Flexibility Score: inf
ROOT
ATOM      1  C   UNL A   1      34.735  29.511  27.592  1.00  0.00     0.002 C 
ENDROOT
BRANCH   1   2
ATOM      2  C   UNL A   1      33.680  28.894  26.668  1.00  0.00     0.002 C 
BRANCH   2   3
ATOM      3  C   UNL A   1      32.370  29.683  26.545  1.00  0.00     0.021 C 
BRANCH   3   4
ATOM      4  C   UNL A   1      31.843  29.834  25.116  1.00  0.00     0.116 C 
BRANCH   4   5
ATOM      5  N   UNL A   1      32.791  29.309  24.161  1.00  0.00    -0.355 N 
ATOM      6  O   UNL A   1      31.230  28.365  22.767  1.00  0.00    -0.273 OA
ATOM      7  C   UNL A   1      32.400  28.547  23.087  1.00  0.00     0.239 C 
ATOM      8  H   UNL A   1      33.749  29.504  24.285  1.00  0.00     0.163 HD
BRANCH   7   9
ATOM      9  C   UNL A   1      33.526  27.703  22.515  1.00  0.00     0.217 C 
BRANCH   9  10
ATOM     10  N   UNL A   1      33.241  26.995  21.273  1.00  0.00    -0.329 N 
ATOM     11  C   UNL A   1      32.978  25.716  20.958  1.00  0.00     0.319 C 
ATOM     12  H   UNL A   1      33.240  27.589  20.488  1.00  0.00     0.165 HD
ATOM     13  O   UNL A   1      32.751  25.470  19.769  1.00  0.00    -0.248 OA
ATOM     14  N   UNL A   1      33.042  24.673  21.813  1.00  0.00    -0.308 N 
ATOM     15  H   UNL A   1      32.898  23.800  21.381  1.00  0.00     0.171 HD
BRANCH  14  16
ATOM     16  C   UNL A   1      33.271  24.587  23.190  1.00  0.00     0.046 A 
ATOM     17  C   UNL A   1      34.562  24.194  23.568  1.00  0.00     0.026 A 
ATOM     18  C   UNL A   1      32.311  24.902  24.170  1.00  0.00    -0.021 A 
ATOM     19  C   UNL A   1      34.958  24.269  24.900  1.00  0.00     0.002 A 
ATOM     20  C   UNL A   1      32.750  25.078  25.499  1.00  0.00    -0.043 A 
ATOM     21  C   UNL A   1      30.840  25.026  23.824  1.00  0.00     0.038 C 
ATOM     22  C   UNL A   1      34.067  24.748  25.855  1.00  0.00     0.004 A 
ATOM     23  C   UNL A   1      31.837  25.665  26.548  1.00  0.00     0.036 C 
ATOM     24  C   UNL A   1      29.945  25.586  24.936  1.00  0.00     0.005 C 
ATOM     25  C   UNL A   1      30.709  26.469  25.911  1.00  0.00     0.005 C 
ENDBRANCH  14  16
ENDBRANCH   9  10
ENDBRANCH   7   9
ENDBRANCH   4   5
ENDBRANCH   3   4
ENDBRANCH   2   3
ENDBRANCH   1   2
BRANCH   1  26
ATOM     26  C   UNL A   1      34.524  30.988  27.929  1.00  0.00     0.021 C 
BRANCH  26  27
ATOM     27  C   UNL A   1      35.646  31.624  28.738  1.00  0.00     0.116 C 
BRANCH  27  28
ATOM     28  N   UNL A   1      35.516  31.352  30.158  1.00  0.00    -0.352 N 
ATOM     29  C   UNL A   1      36.375  30.674  30.989  1.00  0.00     0.251 C 
ATOM     30  H   UNL A   1      34.702  31.701  30.585  1.00  0.00     0.163 HD
ATOM     31  O   UNL A   1      36.016  30.377  32.125  1.00  0.00    -0.269 OA
BRANCH  29  32
ATOM     32  C   UNL A   1      37.721  30.288  30.508  1.00  0.00     0.039 A 
ATOM     33  C   UNL A   1      38.666  29.843  31.436  1.00  0.00     0.014 A 
ATOM     34  C   UNL A   1      38.058  30.379  29.155  1.00  0.00     0.014 A 
ATOM     35  C   UNL A   1      39.935  29.452  31.001  1.00  0.00     0.010 A 
ATOM     36  C   UNL A   1      39.297  29.917  28.714  1.00  0.00     0.010 A 
ATOM     37  C   UNL A   1      40.254  29.466  29.633  1.00  0.00    -0.014 A 
BRANCH  37  38
ATOM     38  C   UNL A   1      41.599  29.050  29.154  1.00  0.00     0.031 A 
ATOM     39  C   UNL A   1      42.720  30.056  29.098  1.00  0.00     0.074 A 
ATOM     40  C   UNL A   1      41.805  27.785  28.738  1.00  0.00     0.049 A 
ATOM     41  N   UNL A   1      43.945  29.903  28.663  1.00  0.00    -0.248 NA
ATOM     42  C   UNL A   1      42.419  31.418  29.571  1.00  0.00     0.031 C 
ATOM     43  C   UNL A   1      40.794  26.726  28.706  1.00  0.00     0.029 A 
ATOM     44  N   UNL A   1      42.937  27.176  28.254  1.00  0.00    -0.354 N 
ATOM     45  C   UNL A   1      44.555  31.144  28.806  1.00  0.00     0.074 A 
ATOM     46  C   UNL A   1      43.550  32.054  29.308  1.00  0.00     0.031 C 
ATOM     47  C   UNL A   1      41.357  25.594  28.249  1.00  0.00     0.029 A 
ATOM     48  C   UNL A   1      42.755  25.853  27.923  1.00  0.00     0.049 A 
ATOM     49  H   UNL A   1      43.799  27.642  28.156  1.00  0.00     0.167 HD
ATOM     50  C   UNL A   1      45.843  31.491  28.573  1.00  0.00     0.031 A 
ATOM     51  C   UNL A   1      43.616  24.953  27.409  1.00  0.00     0.031 A 
ATOM     52  C   UNL A   1      46.847  30.585  28.082  1.00  0.00     0.049 A 
ATOM     53  C   UNL A   1      45.041  25.366  27.152  1.00  0.00     0.074 A 
ATOM     54  C   UNL A   1      48.184  30.836  27.825  1.00  0.00     0.029 A 
ATOM     55  N   UNL A   1      46.627  29.248  27.787  1.00  0.00    -0.354 N 
ATOM     56  N   UNL A   1      45.607  26.536  27.328  1.00  0.00    -0.248 NA
ATOM     57  C   UNL A   1      45.951  24.328  26.646  1.00  0.00     0.031 C 
ATOM     58  C   UNL A   1      48.765  29.659  27.343  1.00  0.00     0.029 A 
ATOM     59  C   UNL A   1      47.804  28.661  27.352  1.00  0.00     0.049 A 
ATOM     60  H   UNL A   1      45.763  28.785  27.873  1.00  0.00     0.167 HD
ATOM     61  C   UNL A   1      46.945  26.364  26.994  1.00  0.00     0.074 A 
ATOM     62  C   UNL A   1      47.107  24.975  26.618  1.00  0.00     0.031 C 
ATOM     63  C   UNL A   1      47.952  27.273  26.998  1.00  0.00     0.031 A 
BRANCH  50  64
ATOM     64  C   UNL A   1      46.244  32.913  28.865  1.00  0.00    -0.014 A 
ATOM     65  C   UNL A   1      46.734  33.274  30.135  1.00  0.00     0.010 A 
ATOM     66  C   UNL A   1      46.180  33.889  27.855  1.00  0.00     0.010 A 
ATOM     67  C   UNL A   1      47.117  34.591  30.399  1.00  0.00     0.020 A 
ATOM     68  C   UNL A   1      46.590  35.202  28.106  1.00  0.00     0.020 A 
ATOM     69  C   UNL A   1      47.043  35.547  29.382  1.00  0.00     0.054 A 
BRANCH  69  70
ATOM     70  S   UNL A   1      47.583  37.241  29.745  1.00  0.00     0.124 S 
ATOM     71  O   UNL A   1      48.937  37.248  29.197  1.00  0.00    -0.237 OA
ATOM     72  O   UNL A   1      46.608  38.050  29.020  1.00  0.00    -0.237 OA
ATOM     73  O   UNL A   1      47.501  37.327  31.201  1.00  0.00    -0.744 OA
ENDBRANCH  69  70
ENDBRANCH  50  64
BRANCH  51  74
ATOM     74  C   UNL A   1      43.162  23.566  27.109  1.00  0.00    -0.014 A 
ATOM     75  C   UNL A   1      43.007  22.620  28.138  1.00  0.00     0.010 A 
ATOM     76  C   UNL A   1      42.908  23.177  25.781  1.00  0.00     0.010 A 
ATOM     77  C   UNL A   1      42.649  21.301  27.841  1.00  0.00     0.020 A 
ATOM     78  C   UNL A   1      42.519  21.868  25.483  1.00  0.00     0.020 A 
ATOM     79  C   UNL A   1      42.413  20.933  26.514  1.00  0.00     0.054 A 
BRANCH  79  80
ATOM     80  S   UNL A   1      41.940  19.219  26.150  1.00  0.00     0.124 S 
ATOM     81  O   UNL A   1      42.271  18.542  27.399  1.00  0.00    -0.237 OA
ATOM     82  O   UNL A   1      40.515  19.340  25.852  1.00  0.00    -0.237 OA
ATOM     83  O   UNL A   1      42.780  18.871  25.005  1.00  0.00    -0.744 OA
ENDBRANCH  79  80
ENDBRANCH  51  74
BRANCH  63  84
ATOM     84  C   UNL A   1      49.331  26.781  26.647  1.00  0.00    -0.014 A 
ATOM     85  C   UNL A   1      50.203  26.272  27.625  1.00  0.00     0.010 A 
ATOM     86  C   UNL A   1      49.746  26.801  25.303  1.00  0.00     0.010 A 
ATOM     87  C   UNL A   1      51.481  25.833  27.271  1.00  0.00     0.020 A 
ATOM     88  C   UNL A   1      51.012  26.335  24.941  1.00  0.00     0.020 A 
ATOM     89  C   UNL A   1      51.879  25.872  25.930  1.00  0.00     0.054 A 
BRANCH  89  90
ATOM     90  S   UNL A   1      53.535  25.275  25.492  1.00  0.00     0.124 S 
ATOM     91  O   UNL A   1      54.313  25.648  26.670  1.00  0.00    -0.237 OA
ATOM     92  O   UNL A   1      53.322  23.842  25.307  1.00  0.00    -0.237 OA
ATOM     93  O   UNL A   1      53.857  26.014  24.273  1.00  0.00    -0.744 OA
ENDBRANCH  89  90
ENDBRANCH  63  84
ENDBRANCH  37  38
ENDBRANCH  29  32
ENDBRANCH  27  28
ENDBRANCH  26  27
ENDBRANCH   1  26
TORSDOF 18
ENDMDL
MODEL 3
REMARK VINA RESULT:      -8.6      5.266     12.692
REMARK SMILES O=C(CNC(=O)Nc1cccc2c1CCCC2)NCCCCCCNC(=O)c1ccc(-c2c3nc(c(-c4ccc(S(=O)(=O)[O-])cc4)c4ccc([nH]4)c(-c4ccc(S(=O)(=O)[O-])cc4)c4nc(c(-c5ccc(S(=O)(=O)[O-])cc5)c5ccc2[nH]5)C=C4)C=C3)cc1
REMARK SMILES IDX 22 1 21 2 20 3 19 4 18 5 1 6 2 7 3 9 4 10 5 11 6 13 7 14
REMARK SMILES IDX 8 16 9 17 13 18 10 19 12 20 14 21 11 22 17 23 15 24 16 25
REMARK SMILES IDX 23 26 24 27 25 28 26 29 27 31 28 32 29 33 87 34 30 35 86 36
REMARK SMILES IDX 31 37 32 38 33 39 80 40 34 41 85 42 79 43 81 44 35 45 84 46
REMARK SMILES IDX 78 47 77 48 36 50 66 51 47 52 65 53 48 54 51 55 64 56 82 57
REMARK SMILES IDX 49 58 50 59 63 61 83 62 52 63 37 64 38 65 46 66 39 67 45 68
REMARK SMILES IDX 40 69 41 70 42 71 43 72 44 73 67 74 68 75 76 76 69 77 75 78
REMARK SMILES IDX 70 79 71 80 72 81 73 82 74 83 53 84 54 85 62 86 55 87 61 88
REMARK SMILES IDX 56 89 57 90 58 91 59 92 60 93
REMARK H PARENT 18 8 4 12 7 15 25 30 81 49 51 60
REMARK Flexibility Score: inf
ROOT
ATOM      1  C   UNL A   1      41.844  21.600  27.954  1.00  0.00     0.002 C 
ENDROOT
BRANCH   1   2
ATOM      2  C   UNL A   1      40.526  22.350  27.740  1.00  0.00     0.002 C 
BRANCH   2   3
ATOM      3  C   UNL A   1      39.838  22.099  26.391  1.00  0.00     0.021 C 
BRANCH   3   4
ATOM      4  C   UNL A   1      38.613  22.978  26.123  1.00  0.00     0.116 C 
BRANCH   4   5
ATOM      5  N   UNL A   1      37.415  22.176  26.034  1.00  0.00    -0.355 N 
ATOM      6  O   UNL A   1      37.222  22.285  23.748  1.00  0.00    -0.273 OA
ATOM      7  C   UNL A   1      36.773  21.952  24.840  1.00  0.00     0.239 C 
ATOM      8  H   UNL A   1      37.048  21.776  26.856  1.00  0.00     0.163 HD
BRANCH   7   9
ATOM      9  C   UNL A   1      35.322  21.534  25.014  1.00  0.00     0.217 C 
BRANCH   9  10
ATOM     10  N   UNL A   1      34.705  21.848  26.296  1.00  0.00    -0.329 N 
ATOM     11  C   UNL A   1      33.530  21.546  26.874  1.00  0.00     0.319 C 
ATOM     12  H   UNL A   1      35.279  22.406  26.869  1.00  0.00     0.165 HD
ATOM     13  O   UNL A   1      33.346  21.974  28.019  1.00  0.00    -0.248 OA
ATOM     14  N   UNL A   1      32.506  20.906  26.272  1.00  0.00    -0.308 N 
ATOM     15  H   UNL A   1      31.695  20.849  26.827  1.00  0.00     0.171 HD
BRANCH  14  16
ATOM     16  C   UNL A   1      32.368  20.307  25.014  1.00  0.00     0.046 A 
ATOM     17  C   UNL A   1      32.028  21.170  23.964  1.00  0.00     0.026 A 
ATOM     18  C   UNL A   1      32.586  18.939  24.766  1.00  0.00    -0.021 A 
ATOM     19  C   UNL A   1      32.064  20.722  22.647  1.00  0.00     0.002 A 
ATOM     20  C   UNL A   1      32.724  18.521  23.425  1.00  0.00    -0.043 A 
ATOM     21  C   UNL A   1      32.646  17.930  25.895  1.00  0.00     0.038 C 
ATOM     22  C   UNL A   1      32.449  19.413  22.377  1.00  0.00     0.004 A 
ATOM     23  C   UNL A   1      33.211  17.132  23.091  1.00  0.00     0.036 C 
ATOM     24  C   UNL A   1      33.105  16.522  25.500  1.00  0.00     0.005 C 
ATOM     25  C   UNL A   1      33.982  16.521  24.257  1.00  0.00     0.005 C 
ENDBRANCH  14  16
ENDBRANCH   9  10
ENDBRANCH   7   9
ENDBRANCH   4   5
ENDBRANCH   3   4
ENDBRANCH   2   3
ENDBRANCH   1   2
BRANCH   1  26
ATOM     26  C   UNL A   1      43.094  22.314  27.437  1.00  0.00     0.021 C 
BRANCH  26  27
ATOM     27  C   UNL A   1      43.029  23.834  27.492  1.00  0.00     0.116 C 
BRANCH  27  28
ATOM     28  N   UNL A   1      42.518  24.404  26.260  1.00  0.00    -0.352 N 
ATOM     29  C   UNL A   1      41.743  25.525  26.083  1.00  0.00     0.251 C 
ATOM     30  H   UNL A   1      42.759  23.922  25.437  1.00  0.00     0.163 HD
ATOM     31  O   UNL A   1      41.246  25.755  24.985  1.00  0.00    -0.269 OA
BRANCH  29  32
ATOM     32  C   UNL A   1      41.495  26.441  27.220  1.00  0.00     0.039 A 
ATOM     33  C   UNL A   1      40.501  26.112  28.145  1.00  0.00     0.014 A 
ATOM     34  C   UNL A   1      42.224  27.624  27.367  1.00  0.00     0.014 A 
ATOM     35  C   UNL A   1      40.266  26.950  29.238  1.00  0.00     0.010 A 
ATOM     36  C   UNL A   1      42.041  28.419  28.497  1.00  0.00     0.010 A 
ATOM     37  C   UNL A   1      41.048  28.100  29.435  1.00  0.00    -0.014 A 
BRANCH  37  38
ATOM     38  C   UNL A   1      40.812  29.000  30.594  1.00  0.00     0.031 A 
ATOM     39  C   UNL A   1      41.646  28.853  31.841  1.00  0.00     0.074 A 
ATOM     40  C   UNL A   1      39.831  29.923  30.543  1.00  0.00     0.049 A 
ATOM     41  N   UNL A   1      41.559  29.503  32.974  1.00  0.00    -0.248 NA
ATOM     42  C   UNL A   1      42.699  27.823  31.822  1.00  0.00     0.031 C 
ATOM     43  C   UNL A   1      38.929  30.142  29.410  1.00  0.00     0.029 A 
ATOM     44  N   UNL A   1      39.424  30.848  31.473  1.00  0.00    -0.354 N 
ATOM     45  C   UNL A   1      42.541  28.962  33.797  1.00  0.00     0.074 A 
ATOM     46  C   UNL A   1      43.167  27.888  33.059  1.00  0.00     0.031 C 
ATOM     47  C   UNL A   1      38.091  31.150  29.703  1.00  0.00     0.029 A 
ATOM     48  C   UNL A   1      38.370  31.626  31.054  1.00  0.00     0.049 A 
ATOM     49  H   UNL A   1      39.849  30.947  32.356  1.00  0.00     0.167 HD
ATOM     50  C   UNL A   1      42.910  29.342  35.043  1.00  0.00     0.031 A 
ATOM     51  C   UNL A   1      37.700  32.608  31.689  1.00  0.00     0.031 A 
ATOM     52  C   UNL A   1      42.294  30.416  35.776  1.00  0.00     0.049 A 
ATOM     53  C   UNL A   1      38.126  33.007  33.077  1.00  0.00     0.074 A 
ATOM     54  C   UNL A   1      42.606  30.888  37.039  1.00  0.00     0.029 A 
ATOM     55  N   UNL A   1      41.250  31.197  35.304  1.00  0.00    -0.354 N 
ATOM     56  N   UNL A   1      39.081  32.505  33.825  1.00  0.00    -0.248 NA
ATOM     57  C   UNL A   1      37.399  34.122  33.699  1.00  0.00     0.031 C 
ATOM     58  C   UNL A   1      41.727  31.932  37.345  1.00  0.00     0.029 A 
ATOM     59  C   UNL A   1      40.905  32.147  36.251  1.00  0.00     0.049 A 
ATOM     60  H   UNL A   1      40.817  31.090  34.426  1.00  0.00     0.167 HD
ATOM     61  C   UNL A   1      39.092  33.269  34.986  1.00  0.00     0.074 A 
ATOM     62  C   UNL A   1      38.061  34.274  34.837  1.00  0.00     0.031 C 
ATOM     63  C   UNL A   1      39.887  33.151  36.079  1.00  0.00     0.031 A 
BRANCH  50  64
ATOM     64  C   UNL A   1      44.051  28.599  35.687  1.00  0.00    -0.014 A 
ATOM     65  C   UNL A   1      45.379  29.036  35.518  1.00  0.00     0.010 A 
ATOM     66  C   UNL A   1      43.798  27.485  36.506  1.00  0.00     0.010 A 
ATOM     67  C   UNL A   1      46.433  28.352  36.127  1.00  0.00     0.020 A 
ATOM     68  C   UNL A   1      44.848  26.814  37.142  1.00  0.00     0.020 A 
ATOM     69  C   UNL A   1      46.161  27.245  36.935  1.00  0.00     0.054 A 
BRANCH  69  70
ATOM     70  S   UNL A   1      47.548  26.400  37.743  1.00  0.00     0.124 S 
ATOM     71  O   UNL A   1      47.085  26.316  39.126  1.00  0.00    -0.237 OA
ATOM     72  O   UNL A   1      47.612  25.130  37.025  1.00  0.00    -0.237 OA
ATOM     73  O   UNL A   1      48.679  27.297  37.520  1.00  0.00    -0.744 OA
ENDBRANCH  69  70
ENDBRANCH  50  64
BRANCH  51  74
ATOM     74  C   UNL A   1      36.558  33.292  31.020  1.00  0.00    -0.014 A 
ATOM     75  C   UNL A   1      36.661  33.730  29.688  1.00  0.00     0.010 A 
ATOM     76  C   UNL A   1      35.366  33.533  31.727  1.00  0.00     0.010 A 
ATOM     77  C   UNL A   1      35.612  34.434  29.089  1.00  0.00     0.020 A 
ATOM     78  C   UNL A   1      34.302  34.209  31.122  1.00  0.00     0.020 A 
ATOM     79  C   UNL A   1      34.441  34.673  29.814  1.00  0.00     0.054 A 
BRANCH  79  80
ATOM     80  S   UNL A   1      33.086  35.580  29.016  1.00  0.00     0.124 S 
ATOM     81  O   UNL A   1      33.807  36.600  28.261  1.00  0.00    -0.237 OA
ATOM     82  O   UNL A   1      32.436  34.543  28.219  1.00  0.00    -0.237 OA
ATOM     83  O   UNL A   1      32.298  36.075  30.143  1.00  0.00    -0.744 OA
ENDBRANCH  79  80
ENDBRANCH  51  74
BRANCH  63  84
ATOM     84  C   UNL A   1      39.718  34.172  37.173  1.00  0.00    -0.014 A 
ATOM     85  C   UNL A   1      40.136  35.504  37.007  1.00  0.00     0.010 A 
ATOM     86  C   UNL A   1      39.096  33.793  38.376  1.00  0.00     0.010 A 
ATOM     87  C   UNL A   1      39.975  36.427  38.044  1.00  0.00     0.020 A 
ATOM     88  C   UNL A   1      38.907  34.720  39.404  1.00  0.00     0.020 A 
ATOM     89  C   UNL A   1      39.365  36.027  39.239  1.00  0.00     0.054 A 
BRANCH  89  90
ATOM     90  S   UNL A   1      39.148  37.249  40.561  1.00  0.00     0.124 S 
ATOM     91  O   UNL A   1      40.523  37.665  40.819  1.00  0.00    -0.237 OA
ATOM     92  O   UNL A   1      38.294  38.254  39.933  1.00  0.00    -0.237 OA
ATOM     93  O   UNL A   1      38.515  36.486  41.635  1.00  0.00    -0.744 OA
ENDBRANCH  89  90
ENDBRANCH  63  84
ENDBRANCH  37  38
ENDBRANCH  29  32
ENDBRANCH  27  28
ENDBRANCH  26  27
ENDBRANCH   1  26
TORSDOF 18
ENDMDL
