MODEL 1
REMARK VINA RESULT:      -9.0      0.000      0.000
REMARK SMILES COCCC(=O)N[C@H](C)CC(=O)NCCCCCCNC(=O)c1ccc(-c2c3nc(c(-c4ccc(S(=O)(=O)[O-])cc4)c4ccc([nH]4)c(-c4ccc(S(=O)(=O)[O-])cc4)c4nc(c(-c5ccc(S(=O)(=O)[O-])cc5)c5ccc2[nH]5)C=C4)C=C3)cc1
REMARK SMILES IDX 15 1 14 2 13 3 11 4 12 5 10 7 8 8 9 9 7 10 5 11 6 12 4 14
REMARK SMILES IDX 3 15 2 16 1 17 16 18 17 19 18 20 19 21 20 22 21 23 22 25
REMARK SMILES IDX 23 26 24 27 82 28 25 29 81 30 26 31 27 32 28 33 75 34 29 35
REMARK SMILES IDX 80 36 74 37 76 38 30 39 79 40 73 41 72 42 31 44 61 45 42 46
REMARK SMILES IDX 60 47 43 48 46 49 59 50 77 51 44 52 45 53 58 55 78 56 47 57
REMARK SMILES IDX 32 58 33 59 41 60 34 61 40 62 35 63 36 64 37 65 38 66 39 67
REMARK SMILES IDX 62 68 63 69 71 70 64 71 70 72 65 73 66 74 67 75 68 76 69 77
REMARK SMILES IDX 48 78 49 79 57 80 50 81 56 82 51 83 52 84 53 85 54 86 55 87
REMARK H PARENT 13 6 7 13 20 24 76 43 46 54
REMARK Flexibility Score: inf
ROOT
ATOM      1  C   UNL A   1      32.804  21.361  25.979  1.00  0.00     0.021 C 
ENDROOT
BRANCH   1   2
ATOM      2  C   UNL A   1      32.598  22.410  27.068  1.00  0.00     0.116 C 
BRANCH   2   3
ATOM      3  N   UNL A   1      31.238  22.896  27.001  1.00  0.00    -0.356 N 
ATOM      4  C   UNL A   1      30.812  24.088  26.498  1.00  0.00     0.222 C 
ATOM      5  O   UNL A   1      29.725  24.527  26.869  1.00  0.00    -0.275 OA
ATOM      6  H   UNL A   1      30.543  22.298  27.358  1.00  0.00     0.163 HD
BRANCH   4   7
ATOM      7  C   UNL A   1      31.660  24.802  25.467  1.00  0.00     0.124 C 
BRANCH   7   8
ATOM      8  C   UNL A   1      31.002  24.903  24.088  1.00  0.00     0.088 C 
ATOM      9  C   UNL A   1      30.953  23.578  23.334  1.00  0.00     0.031 C 
BRANCH   8  10
ATOM     10  N   UNL A   1      29.612  25.359  24.200  1.00  0.00    -0.353 N 
ATOM     11  C   UNL A   1      29.073  26.570  23.882  1.00  0.00     0.222 C 
ATOM     12  O   UNL A   1      27.848  26.696  23.882  1.00  0.00    -0.275 OA
ATOM     13  H   UNL A   1      28.977  24.696  24.555  1.00  0.00     0.163 HD
BRANCH  11  14
ATOM     14  C   UNL A   1      29.975  27.750  23.621  1.00  0.00     0.128 C 
BRANCH  14  15
ATOM     15  C   UNL A   1      29.189  28.924  23.048  1.00  0.00     0.169 C 
BRANCH  15  16
ATOM     16  O   UNL A   1      29.683  29.340  21.777  1.00  0.00    -0.384 OA
ATOM     17  C   UNL A   1      29.179  30.612  21.373  1.00  0.00     0.194 C 
ENDBRANCH  15  16
ENDBRANCH  14  15
ENDBRANCH  11  14
ENDBRANCH   8  10
ENDBRANCH   7   8
ENDBRANCH   4   7
ENDBRANCH   2   3
ENDBRANCH   1   2
BRANCH   1  18
ATOM     18  C   UNL A   1      33.929  21.696  25.002  1.00  0.00     0.002 C 
BRANCH  18  19
ATOM     19  C   UNL A   1      35.337  21.501  25.565  1.00  0.00     0.002 C 
BRANCH  19  20
ATOM     20  C   UNL A   1      35.993  22.781  26.087  1.00  0.00     0.021 C 
BRANCH  20  21
ATOM     21  C   UNL A   1      37.412  23.009  25.577  1.00  0.00     0.116 C 
BRANCH  21  22
ATOM     22  N   UNL A   1      38.310  21.952  26.009  1.00  0.00    -0.352 N 
ATOM     23  C   UNL A   1      39.584  22.061  26.498  1.00  0.00     0.251 C 
ATOM     24  H   UNL A   1      37.957  21.036  25.940  1.00  0.00     0.163 HD
ATOM     25  O   UNL A   1      40.312  21.073  26.566  1.00  0.00    -0.269 OA
BRANCH  23  26
ATOM     26  C   UNL A   1      40.068  23.383  26.933  1.00  0.00     0.039 A 
ATOM     27  C   UNL A   1      40.836  23.482  28.094  1.00  0.00     0.014 A 
ATOM     28  C   UNL A   1      39.774  24.520  26.172  1.00  0.00     0.014 A 
ATOM     29  C   UNL A   1      41.347  24.724  28.470  1.00  0.00     0.010 A 
ATOM     30  C   UNL A   1      40.353  25.738  26.503  1.00  0.00     0.010 A 
ATOM     31  C   UNL A   1      41.131  25.854  27.664  1.00  0.00    -0.014 A 
BRANCH  31  32
ATOM     32  C   UNL A   1      41.694  27.177  28.028  1.00  0.00     0.031 A 
ATOM     33  C   UNL A   1      43.169  27.432  27.879  1.00  0.00     0.074 A 
ATOM     34  C   UNL A   1      40.888  28.126  28.542  1.00  0.00     0.049 A 
ATOM     35  N   UNL A   1      43.853  28.508  28.170  1.00  0.00    -0.248 NA
ATOM     36  C   UNL A   1      43.985  26.323  27.359  1.00  0.00     0.031 C 
ATOM     37  C   UNL A   1      39.447  27.983  28.763  1.00  0.00     0.029 A 
ATOM     38  N   UNL A   1      41.166  29.398  28.970  1.00  0.00    -0.354 N 
ATOM     39  C   UNL A   1      45.178  28.200  27.883  1.00  0.00     0.074 A 
ATOM     40  C   UNL A   1      45.208  26.819  27.459  1.00  0.00     0.031 C 
ATOM     41  C   UNL A   1      38.962  29.139  29.242  1.00  0.00     0.029 A 
ATOM     42  C   UNL A   1      40.060  30.086  29.408  1.00  0.00     0.049 A 
ATOM     43  H   UNL A   1      42.073  29.783  28.964  1.00  0.00     0.167 HD
ATOM     44  C   UNL A   1      46.269  29.002  27.944  1.00  0.00     0.031 A 
ATOM     45  C   UNL A   1      39.943  31.339  29.887  1.00  0.00     0.031 A 
ATOM     46  C   UNL A   1      46.230  30.374  28.377  1.00  0.00     0.049 A 
ATOM     47  C   UNL A   1      41.171  32.200  29.986  1.00  0.00     0.074 A 
ATOM     48  C   UNL A   1      47.267  31.288  28.438  1.00  0.00     0.029 A 
ATOM     49  N   UNL A   1      45.094  31.026  28.836  1.00  0.00    -0.354 N 
ATOM     50  N   UNL A   1      42.407  31.915  29.650  1.00  0.00    -0.248 NA
ATOM     51  C   UNL A   1      40.986  33.556  30.517  1.00  0.00     0.031 C 
ATOM     52  C   UNL A   1      46.770  32.473  28.992  1.00  0.00     0.029 A 
ATOM     53  C   UNL A   1      45.410  32.321  29.211  1.00  0.00     0.049 A 
ATOM     54  H   UNL A   1      44.196  30.626  28.887  1.00  0.00     0.167 HD
ATOM     55  C   UNL A   1      43.144  33.068  29.903  1.00  0.00     0.074 A 
ATOM     56  C   UNL A   1      42.211  34.055  30.408  1.00  0.00     0.031 C 
ATOM     57  C   UNL A   1      44.471  33.289  29.723  1.00  0.00     0.031 A 
BRANCH  44  58
ATOM     58  C   UNL A   1      47.592  28.392  27.554  1.00  0.00    -0.014 A 
ATOM     59  C   UNL A   1      48.430  27.790  28.513  1.00  0.00     0.010 A 
ATOM     60  C   UNL A   1      48.013  28.433  26.213  1.00  0.00     0.010 A 
ATOM     61  C   UNL A   1      49.694  27.314  28.152  1.00  0.00     0.020 A 
ATOM     62  C   UNL A   1      49.260  27.923  25.841  1.00  0.00     0.020 A 
ATOM     63  C   UNL A   1      50.105  27.394  26.819  1.00  0.00     0.054 A 
BRANCH  63  64
ATOM     64  S   UNL A   1      51.761  26.796  26.383  1.00  0.00     0.124 S 
ATOM     65  O   UNL A   1      52.023  25.835  27.452  1.00  0.00    -0.237 OA
ATOM     66  O   UNL A   1      51.555  26.220  25.058  1.00  0.00    -0.237 OA
ATOM     67  O   UNL A   1      52.585  28.002  26.416  1.00  0.00    -0.744 OA
ENDBRANCH  63  64
ENDBRANCH  44  58
BRANCH  45  68
ATOM     68  C   UNL A   1      38.601  31.859  30.265  1.00  0.00    -0.014 A 
ATOM     69  C   UNL A   1      38.088  31.622  31.552  1.00  0.00     0.010 A 
ATOM     70  C   UNL A   1      37.852  32.636  29.362  1.00  0.00     0.010 A 
ATOM     71  C   UNL A   1      36.852  32.152  31.931  1.00  0.00     0.020 A 
ATOM     72  C   UNL A   1      36.628  33.191  29.746  1.00  0.00     0.020 A 
ATOM     73  C   UNL A   1      36.134  32.942  31.028  1.00  0.00     0.054 A 
BRANCH  73  74
ATOM     74  S   UNL A   1      34.573  33.690  31.574  1.00  0.00     0.124 S 
ATOM     75  O   UNL A   1      35.028  34.940  32.173  1.00  0.00    -0.237 OA
ATOM     76  O   UNL A   1      33.834  33.819  30.321  1.00  0.00    -0.237 OA
ATOM     77  O   UNL A   1      34.031  32.706  32.509  1.00  0.00    -0.744 OA
ENDBRANCH  73  74
ENDBRANCH  45  68
BRANCH  57  78
ATOM     78  C   UNL A   1      44.992  34.665  30.048  1.00  0.00    -0.014 A 
ATOM     79  C   UNL A   1      45.001  35.691  29.088  1.00  0.00     0.010 A 
ATOM     80  C   UNL A   1      45.424  34.948  31.358  1.00  0.00     0.010 A 
ATOM     81  C   UNL A   1      45.463  36.967  29.423  1.00  0.00     0.020 A 
ATOM     82  C   UNL A   1      45.856  36.229  31.705  1.00  0.00     0.020 A 
ATOM     83  C   UNL A   1      45.885  37.229  30.731  1.00  0.00     0.054 A 
BRANCH  83  84
ATOM     84  S   UNL A   1      46.433  38.905  31.152  1.00  0.00     0.124 S 
ATOM     85  O   UNL A   1      46.830  39.432  29.848  1.00  0.00    -0.237 OA
ATOM     86  O   UNL A   1      45.229  39.499  31.729  1.00  0.00    -0.237 OA
ATOM     87  O   UNL A   1      47.526  38.687  32.095  1.00  0.00    -0.744 OA
ENDBRANCH  83  84
ENDBRANCH  57  78
ENDBRANCH  31  32
ENDBRANCH  23  26
ENDBRANCH  21  22
ENDBRANCH  20  21
ENDBRANCH  19  20
ENDBRANCH  18  19
ENDBRANCH   1  18
TORSDOF 21
ENDMDL
MODEL 2
REMARK VINA RESULT:      -8.9      5.654     10.416
REMARK SMILES COCCC(=O)N[C@H](C)CC(=O)NCCCCCCNC(=O)c1ccc(-c2c3nc(c(-c4ccc(S(=O)(=O)[O-])cc4)c4ccc([nH]4)c(-c4ccc(S(=O)(=O)[O-])cc4)c4nc(c(-c5ccc(S(=O)(=O)[O-])cc5)c5ccc2[nH]5)C=C4)C=C3)cc1
REMARK SMILES IDX 15 1 14 2 13 3 11 4 12 5 10 7 8 8 9 9 7 10 5 11 6 12 4 14
REMARK SMILES IDX 3 15 2 16 1 17 16 18 17 19 18 20 19 21 20 22 21 23 22 25
REMARK SMILES IDX 23 26 24 27 82 28 25 29 81 30 26 31 27 32 28 33 75 34 29 35
REMARK SMILES IDX 80 36 74 37 76 38 30 39 79 40 73 41 72 42 31 44 61 45 42 46
REMARK SMILES IDX 60 47 43 48 46 49 59 50 77 51 44 52 45 53 58 55 78 56 47 57
REMARK SMILES IDX 32 58 33 59 41 60 34 61 40 62 35 63 36 64 37 65 38 66 39 67
REMARK SMILES IDX 62 68 63 69 71 70 64 71 70 72 65 73 66 74 67 75 68 76 69 77
REMARK SMILES IDX 48 78 49 79 57 80 50 81 56 82 51 83 52 84 53 85 54 86 55 87
REMARK H PARENT 13 6 7 13 20 24 76 43 46 54
REMARK Flexibility Score: inf
ROOT
ATOM      1  C   UNL A   1      39.964  22.715  26.936  1.00  0.00     0.021 C 
ENDROOT
BRANCH   1   2
ATOM      2  C   UNL A   1      38.651  22.752  26.159  1.00  0.00     0.116 C 
BRANCH   2   3
ATOM      3  N   UNL A   1      38.401  21.443  25.598  1.00  0.00    -0.356 N 
ATOM      4  C   UNL A   1      37.244  20.993  25.039  1.00  0.00     0.222 C 
ATOM      5  O   UNL A   1      37.051  19.779  24.985  1.00  0.00    -0.275 OA
ATOM      6  H   UNL A   1      39.152  20.807  25.623  1.00  0.00     0.163 HD
BRANCH   4   7
ATOM      7  C   UNL A   1      36.264  21.991  24.461  1.00  0.00     0.124 C 
BRANCH   7   8
ATOM      8  C   UNL A   1      34.875  21.937  25.102  1.00  0.00     0.088 C 
ATOM      9  C   UNL A   1      34.453  23.244  25.764  1.00  0.00     0.031 C 
BRANCH   8  10
ATOM     10  N   UNL A   1      33.844  21.636  24.101  1.00  0.00    -0.353 N 
ATOM     11  C   UNL A   1      32.881  20.672  24.117  1.00  0.00     0.222 C 
ATOM     12  O   UNL A   1      31.996  20.699  23.260  1.00  0.00    -0.275 OA
ATOM     13  H   UNL A   1      33.849  22.214  23.304  1.00  0.00     0.163 HD
BRANCH  11  14
ATOM     14  C   UNL A   1      32.958  19.548  25.119  1.00  0.00     0.128 C 
BRANCH  14  15
ATOM     15  C   UNL A   1      33.787  18.388  24.577  1.00  0.00     0.169 C 
BRANCH  15  16
ATOM     16  O   UNL A   1      33.411  17.138  25.149  1.00  0.00    -0.384 OA
ATOM     17  C   UNL A   1      34.462  16.173  25.119  1.00  0.00     0.194 C 
ENDBRANCH  15  16
ENDBRANCH  14  15
ENDBRANCH  11  14
ENDBRANCH   8  10
ENDBRANCH   7   8
ENDBRANCH   4   7
ENDBRANCH   2   3
ENDBRANCH   1   2
BRANCH   1  18
ATOM     18  C   UNL A   1      41.007  21.769  26.345  1.00  0.00     0.002 C 
BRANCH  18  19
ATOM     19  C   UNL A   1      42.204  21.495  27.255  1.00  0.00     0.002 C 
BRANCH  19  20
ATOM     20  C   UNL A   1      42.637  22.689  28.109  1.00  0.00     0.021 C 
BRANCH  20  21
ATOM     21  C   UNL A   1      43.733  23.542  27.481  1.00  0.00     0.116 C 
BRANCH  21  22
ATOM     22  N   UNL A   1      43.257  24.236  26.297  1.00  0.00    -0.352 N 
ATOM     23  C   UNL A   1      42.454  25.343  26.222  1.00  0.00     0.251 C 
ATOM     24  H   UNL A   1      43.549  23.862  25.435  1.00  0.00     0.163 HD
ATOM     25  O   UNL A   1      41.920  25.653  25.159  1.00  0.00    -0.269 OA
BRANCH  23  26
ATOM     26  C   UNL A   1      42.237  26.149  27.436  1.00  0.00     0.039 A 
ATOM     27  C   UNL A   1      43.134  27.171  27.747  1.00  0.00     0.014 A 
ATOM     28  C   UNL A   1      41.130  25.897  28.253  1.00  0.00     0.014 A 
ATOM     29  C   UNL A   1      42.893  27.974  28.862  1.00  0.00     0.010 A 
ATOM     30  C   UNL A   1      40.848  26.750  29.312  1.00  0.00     0.010 A 
ATOM     31  C   UNL A   1      41.736  27.786  29.636  1.00  0.00    -0.014 A 
BRANCH  31  32
ATOM     32  C   UNL A   1      41.444  28.650  30.805  1.00  0.00     0.031 A 
ATOM     33  C   UNL A   1      40.314  29.642  30.742  1.00  0.00     0.074 A 
ATOM     34  C   UNL A   1      42.227  28.580  31.898  1.00  0.00     0.049 A 
ATOM     35  N   UNL A   1      39.922  30.502  31.645  1.00  0.00    -0.248 NA
ATOM     36  C   UNL A   1      39.542  29.689  29.490  1.00  0.00     0.031 C 
ATOM     37  C   UNL A   1      43.371  27.680  32.064  1.00  0.00     0.029 A 
ATOM     38  N   UNL A   1      42.179  29.276  33.078  1.00  0.00    -0.354 N 
ATOM     39  C   UNL A   1      38.869  31.202  31.065  1.00  0.00     0.074 A 
ATOM     40  C   UNL A   1      38.729  30.709  29.713  1.00  0.00     0.031 C 
ATOM     41  C   UNL A   1      43.886  27.849  33.291  1.00  0.00     0.029 A 
ATOM     42  C   UNL A   1      43.143  28.898  33.981  1.00  0.00     0.049 A 
ATOM     43  H   UNL A   1      41.515  29.981  33.261  1.00  0.00     0.167 HD
ATOM     44  C   UNL A   1      38.074  32.151  31.616  1.00  0.00     0.031 A 
ATOM     45  C   UNL A   1      43.399  29.345  35.226  1.00  0.00     0.031 A 
ATOM     46  C   UNL A   1      38.227  32.641  32.960  1.00  0.00     0.049 A 
ATOM     47  C   UNL A   1      42.531  30.428  35.805  1.00  0.00     0.074 A 
ATOM     48  C   UNL A   1      37.453  33.570  33.632  1.00  0.00     0.029 A 
ATOM     49  N   UNL A   1      39.232  32.250  33.834  1.00  0.00    -0.354 N 
ATOM     50  N   UNL A   1      41.500  31.034  35.266  1.00  0.00    -0.248 NA
ATOM     51  C   UNL A   1      42.856  30.878  37.164  1.00  0.00     0.031 C 
ATOM     52  C   UNL A   1      38.027  33.786  34.890  1.00  0.00     0.029 A 
ATOM     53  C   UNL A   1      39.116  32.941  35.029  1.00  0.00     0.049 A 
ATOM     54  H   UNL A   1      39.924  31.580  33.634  1.00  0.00     0.167 HD
ATOM     55  C   UNL A   1      41.033  31.918  36.233  1.00  0.00     0.074 A 
ATOM     56  C   UNL A   1      41.889  31.757  37.391  1.00  0.00     0.031 C 
ATOM     57  C   UNL A   1      39.985  32.778  36.169  1.00  0.00     0.031 A 
BRANCH  44  58
ATOM     58  C   UNL A   1      36.989  32.729  30.742  1.00  0.00    -0.014 A 
ATOM     59  C   UNL A   1      37.247  33.809  29.875  1.00  0.00     0.010 A 
ATOM     60  C   UNL A   1      35.688  32.197  30.798  1.00  0.00     0.010 A 
ATOM     61  C   UNL A   1      36.210  34.394  29.142  1.00  0.00     0.020 A 
ATOM     62  C   UNL A   1      34.656  32.756  30.037  1.00  0.00     0.020 A 
ATOM     63  C   UNL A   1      34.919  33.870  29.237  1.00  0.00     0.054 A 
BRANCH  63  64
ATOM     64  S   UNL A   1      33.586  34.667  28.300  1.00  0.00     0.124 S 
ATOM     65  O   UNL A   1      34.284  35.084  27.086  1.00  0.00    -0.237 OA
ATOM     66  O   UNL A   1      32.622  33.584  28.129  1.00  0.00    -0.237 OA
ATOM     67  O   UNL A   1      33.151  35.755  29.172  1.00  0.00    -0.744 OA
ENDBRANCH  63  64
ENDBRANCH  44  58
BRANCH  45  68
ATOM     68  C   UNL A   1      44.500  28.730  36.015  1.00  0.00    -0.014 A 
ATOM     69  C   UNL A   1      44.241  27.625  36.845  1.00  0.00     0.010 A 
ATOM     70  C   UNL A   1      45.818  29.208  35.903  1.00  0.00     0.010 A 
ATOM     71  C   UNL A   1      45.280  27.009  37.549  1.00  0.00     0.020 A 
ATOM     72  C   UNL A   1      46.864  28.578  36.583  1.00  0.00     0.020 A 
ATOM     73  C   UNL A   1      46.587  27.484  37.405  1.00  0.00     0.054 A 
BRANCH  73  74
ATOM     74  S   UNL A   1      47.929  26.613  38.261  1.00  0.00     0.124 S 
ATOM     75  O   UNL A   1      47.220  25.962  39.358  1.00  0.00    -0.237 OA
ATOM     76  O   UNL A   1      48.438  25.724  37.219  1.00  0.00    -0.237 OA
ATOM     77  O   UNL A   1      48.840  27.687  38.651  1.00  0.00    -0.744 OA
ENDBRANCH  73  74
ENDBRANCH  45  68
BRANCH  57  78
ATOM     78  C   UNL A   1      39.684  33.594  37.400  1.00  0.00    -0.014 A 
ATOM     79  C   UNL A   1      38.833  33.112  38.410  1.00  0.00     0.010 A 
ATOM     80  C   UNL A   1      40.314  34.841  37.571  1.00  0.00     0.010 A 
ATOM     81  C   UNL A   1      38.594  33.877  39.555  1.00  0.00     0.020 A 
ATOM     82  C   UNL A   1      40.103  35.594  38.728  1.00  0.00     0.020 A 
ATOM     83  C   UNL A   1      39.233  35.113  39.707  1.00  0.00     0.054 A 
BRANCH  83  84
ATOM     84  S   UNL A   1      38.943  36.062  41.225  1.00  0.00     0.124 S 
ATOM     85  O   UNL A   1      40.159  35.793  41.989  1.00  0.00    -0.237 OA
ATOM     86  O   UNL A   1      38.803  37.428  40.726  1.00  0.00    -0.237 OA
ATOM     87  O   UNL A   1      37.721  35.478  41.772  1.00  0.00    -0.744 OA
ENDBRANCH  83  84
ENDBRANCH  57  78
ENDBRANCH  31  32
ENDBRANCH  23  26
ENDBRANCH  21  22
ENDBRANCH  20  21
ENDBRANCH  19  20
ENDBRANCH  18  19
ENDBRANCH   1  18
TORSDOF 21
ENDMDL
MODEL 3
REMARK VINA RESULT:      -8.8      1.475      8.607
REMARK SMILES COCCC(=O)N[C@H](C)CC(=O)NCCCCCCNC(=O)c1ccc(-c2c3nc(c(-c4ccc(S(=O)(=O)[O-])cc4)c4ccc([nH]4)c(-c4ccc(S(=O)(=O)[O-])cc4)c4nc(c(-c5ccc(S(=O)(=O)[O-])cc5)c5ccc2[nH]5)C=C4)C=C3)cc1
REMARK SMILES IDX 15 1 14 2 13 3 11 4 12 5 10 7 8 8 9 9 7 10 5 11 6 12 4 14
REMARK SMILES IDX 3 15 2 16 1 17 16 18 17 19 18 20 19 21 20 22 21 23 22 25
REMARK SMILES IDX 23 26 24 27 82 28 25 29 81 30 26 31 27 32 28 33 75 34 29 35
REMARK SMILES IDX 80 36 74 37 76 38 30 39 79 40 73 41 72 42 31 44 61 45 42 46
REMARK SMILES IDX 60 47 43 48 46 49 59 50 77 51 44 52 45 53 58 55 78 56 47 57
REMARK SMILES IDX 32 58 33 59 41 60 34 61 40 62 35 63 36 64 37 65 38 66 39 67
REMARK SMILES IDX 62 68 63 69 71 70 64 71 70 72 65 73 66 74 67 75 68 76 69 77
REMARK SMILES IDX 48 78 49 79 57 80 50 81 56 82 51 83 52 84 53 85 54 86 55 87
REMARK H PARENT 13 6 7 13 20 24 76 43 46 54
REMARK Flexibility Score: inf
ROOT
ATOM      1  C   UNL A   1      33.494  24.890  23.788  1.00  0.00     0.021 C 
ENDROOT
BRANCH   1   2
ATOM      2  C   UNL A   1      32.496  24.982  24.939  1.00  0.00     0.116 C 
BRANCH   2   3
ATOM      3  N   UNL A   1      31.204  25.360  24.412  1.00  0.00    -0.356 N 
ATOM      4  C   UNL A   1      30.402  26.374  24.841  1.00  0.00     0.222 C 
ATOM      5  O   UNL A   1      29.200  26.320  24.587  1.00  0.00    -0.275 OA
ATOM      6  H   UNL A   1      30.867  24.824  23.657  1.00  0.00     0.163 HD
BRANCH   4   7
ATOM      7  C   UNL A   1      31.021  27.550  25.566  1.00  0.00     0.124 C 
BRANCH   7   8
ATOM      8  C   UNL A   1      31.386  28.719  24.648  1.00  0.00     0.088 C 
ATOM      9  C   UNL A   1      32.876  28.812  24.337  1.00  0.00     0.031 C 
BRANCH   8  10
ATOM     10  N   UNL A   1      30.707  28.603  23.352  1.00  0.00    -0.353 N 
ATOM     11  C   UNL A   1      29.863  29.481  22.739  1.00  0.00     0.222 C 
ATOM     12  O   UNL A   1      29.538  29.275  21.568  1.00  0.00    -0.275 OA
ATOM     13  H   UNL A   1      30.887  27.773  22.854  1.00  0.00     0.163 HD
BRANCH  11  14
ATOM     14  C   UNL A   1      29.276  30.630  23.518  1.00  0.00     0.128 C 
BRANCH  14  15
ATOM     15  C   UNL A   1      27.854  30.933  23.059  1.00  0.00     0.169 C 
BRANCH  15  16
ATOM     16  O   UNL A   1      27.577  32.331  23.035  1.00  0.00    -0.384 OA
ATOM     17  C   UNL A   1      28.720  33.119  22.707  1.00  0.00     0.194 C 
ENDBRANCH  15  16
ENDBRANCH  14  15
ENDBRANCH  11  14
ENDBRANCH   8  10
ENDBRANCH   7   8
ENDBRANCH   4   7
ENDBRANCH   2   3
ENDBRANCH   1   2
BRANCH   1  18
ATOM     18  C   UNL A   1      34.826  24.252  24.174  1.00  0.00     0.002 C 
BRANCH  18  19
ATOM     19  C   UNL A   1      34.702  23.010  25.057  1.00  0.00     0.002 C 
BRANCH  19  20
ATOM     20  C   UNL A   1      35.602  23.019  26.294  1.00  0.00     0.021 C 
BRANCH  20  21
ATOM     21  C   UNL A   1      37.060  23.358  26.004  1.00  0.00     0.116 C 
BRANCH  21  22
ATOM     22  N   UNL A   1      37.917  22.193  26.146  1.00  0.00    -0.352 N 
ATOM     23  C   UNL A   1      39.264  22.148  26.384  1.00  0.00     0.251 C 
ATOM     24  H   UNL A   1      37.470  21.320  26.060  1.00  0.00     0.163 HD
ATOM     25  O   UNL A   1      39.893  21.105  26.213  1.00  0.00    -0.269 OA
BRANCH  23  26
ATOM     26  C   UNL A   1      39.947  23.372  26.841  1.00  0.00     0.039 A 
ATOM     27  C   UNL A   1      40.726  23.328  27.998  1.00  0.00     0.014 A 
ATOM     28  C   UNL A   1      39.827  24.556  26.105  1.00  0.00     0.014 A 
ATOM     29  C   UNL A   1      41.422  24.469  28.395  1.00  0.00     0.010 A 
ATOM     30  C   UNL A   1      40.587  25.663  26.456  1.00  0.00     0.010 A 
ATOM     31  C   UNL A   1      41.379  25.636  27.613  1.00  0.00    -0.014 A 
BRANCH  31  32
ATOM     32  C   UNL A   1      42.139  26.849  27.999  1.00  0.00     0.031 A 
ATOM     33  C   UNL A   1      41.425  28.013  28.630  1.00  0.00     0.074 A 
ATOM     34  C   UNL A   1      43.457  26.923  27.731  1.00  0.00     0.049 A 
ATOM     35  N   UNL A   1      41.906  29.168  29.008  1.00  0.00    -0.248 NA
ATOM     36  C   UNL A   1      39.975  27.868  28.838  1.00  0.00     0.031 C 
ATOM     37  C   UNL A   1      44.251  25.871  27.094  1.00  0.00     0.029 A 
ATOM     38  N   UNL A   1      44.359  27.927  27.964  1.00  0.00    -0.354 N 
ATOM     39  C   UNL A   1      40.818  29.891  29.485  1.00  0.00     0.074 A 
ATOM     40  C   UNL A   1      39.646  29.068  29.286  1.00  0.00     0.031 C 
ATOM     41  C   UNL A   1      45.532  26.269  27.029  1.00  0.00     0.029 A 
ATOM     42  C   UNL A   1      45.640  27.618  27.574  1.00  0.00     0.049 A 
ATOM     43  H   UNL A   1      44.114  28.789  28.373  1.00  0.00     0.167 HD
ATOM     44  C   UNL A   1      40.799  31.118  30.059  1.00  0.00     0.031 A 
ATOM     45  C   UNL A   1      46.775  28.339  27.648  1.00  0.00     0.031 A 
ATOM     46  C   UNL A   1      41.971  31.933  30.243  1.00  0.00     0.049 A 
ATOM     47  C   UNL A   1      46.727  29.716  28.250  1.00  0.00     0.074 A 
ATOM     48  C   UNL A   1      42.071  33.173  30.849  1.00  0.00     0.029 A 
ATOM     49  N   UNL A   1      43.245  31.594  29.812  1.00  0.00    -0.354 N 
ATOM     50  N   UNL A   1      45.701  30.360  28.754  1.00  0.00    -0.248 NA
ATOM     51  C   UNL A   1      47.993  30.457  28.304  1.00  0.00     0.031 C 
ATOM     52  C   UNL A   1      43.395  33.610  30.728  1.00  0.00     0.029 A 
ATOM     53  C   UNL A   1      44.134  32.613  30.110  1.00  0.00     0.049 A 
ATOM     54  H   UNL A   1      43.483  30.752  29.360  1.00  0.00     0.167 HD
ATOM     55  C   UNL A   1      46.203  31.573  29.213  1.00  0.00     0.074 A 
ATOM     56  C   UNL A   1      47.626  31.565  28.935  1.00  0.00     0.031 C 
ATOM     57  C   UNL A   1      45.546  32.596  29.816  1.00  0.00     0.031 A 
BRANCH  44  58
ATOM     58  C   UNL A   1      39.458  31.650  30.498  1.00  0.00    -0.014 A 
ATOM     59  C   UNL A   1      38.906  31.299  31.746  1.00  0.00     0.010 A 
ATOM     60  C   UNL A   1      38.729  32.500  29.647  1.00  0.00     0.010 A 
ATOM     61  C   UNL A   1      37.621  31.724  32.098  1.00  0.00     0.020 A 
ATOM     62  C   UNL A   1      37.459  32.957  30.012  1.00  0.00     0.020 A 
ATOM     63  C   UNL A   1      36.902  32.542  31.223  1.00  0.00     0.054 A 
BRANCH  63  64
ATOM     64  S   UNL A   1      35.226  33.053  31.692  1.00  0.00     0.124 S 
ATOM     65  O   UNL A   1      34.412  32.358  30.696  1.00  0.00    -0.237 OA
ATOM     66  O   UNL A   1      35.108  32.551  33.058  1.00  0.00    -0.237 OA
ATOM     67  O   UNL A   1      35.258  34.508  31.564  1.00  0.00    -0.744 OA
ENDBRANCH  63  64
ENDBRANCH  44  58
BRANCH  45  68
ATOM     68  C   UNL A   1      48.056  27.745  27.177  1.00  0.00    -0.014 A 
ATOM     69  C   UNL A   1      48.436  27.864  25.828  1.00  0.00     0.010 A 
ATOM     70  C   UNL A   1      48.925  27.104  28.079  1.00  0.00     0.010 A 
ATOM     71  C   UNL A   1      49.661  27.355  25.390  1.00  0.00     0.020 A 
ATOM     72  C   UNL A   1      50.163  26.618  27.650  1.00  0.00     0.020 A 
ATOM     73  C   UNL A   1      50.521  26.743  26.306  1.00  0.00     0.054 A 
BRANCH  73  74
ATOM     74  S   UNL A   1      52.143  26.168  25.729  1.00  0.00     0.124 S 
ATOM     75  O   UNL A   1      52.099  24.748  26.063  1.00  0.00    -0.237 OA
ATOM     76  O   UNL A   1      52.098  26.486  24.304  1.00  0.00    -0.237 OA
ATOM     77  O   UNL A   1      53.086  26.968  26.508  1.00  0.00    -0.744 OA
ENDBRANCH  73  74
ENDBRANCH  45  68
BRANCH  57  78
ATOM     78  C   UNL A   1      46.365  33.785  30.247  1.00  0.00    -0.014 A 
ATOM     79  C   UNL A   1      46.983  33.832  31.509  1.00  0.00     0.010 A 
ATOM     80  C   UNL A   1      46.566  34.847  29.345  1.00  0.00     0.010 A 
ATOM     81  C   UNL A   1      47.761  34.934  31.873  1.00  0.00     0.020 A 
ATOM     82  C   UNL A   1      47.369  35.935  29.693  1.00  0.00     0.020 A 
ATOM     83  C   UNL A   1      47.951  35.978  30.961  1.00  0.00     0.054 A 
BRANCH  83  84
ATOM     84  S   UNL A   1      49.006  37.373  31.440  1.00  0.00     0.124 S 
ATOM     85  O   UNL A   1      50.310  36.958  30.928  1.00  0.00    -0.237 OA
ATOM     86  O   UNL A   1      48.386  38.497  30.743  1.00  0.00    -0.237 OA
ATOM     87  O   UNL A   1      48.892  37.411  32.896  1.00  0.00    -0.744 OA
ENDBRANCH  83  84
ENDBRANCH  57  78
ENDBRANCH  31  32
ENDBRANCH  23  26
ENDBRANCH  21  22
ENDBRANCH  20  21
ENDBRANCH  19  20
ENDBRANCH  18  19
ENDBRANCH   1  18
TORSDOF 21
ENDMDL
