MODEL 1
REMARK VINA RESULT:     -11.0      0.000      0.000
REMARK SMILES O=C(NCCCCCCNC(=O)c1cc(-c2ccc(C(F)(F)F)cc2)cc([N+](=O)[O-])c1)c1ccc(-c2c3nc(c(-c4ccc(S(=O)(=O)[O-])cc4)c4ccc([nH]4)c(-c4ccc(S(=O)(=O)[O-])cc4)c4nc(c(-c5ccc(S(=O)(=O)[O-])cc5)c5ccc2[nH]5)C=C4)C=C3)cc1
REMARK SMILES IDX 6 1 5 2 4 3 3 4 1 5 2 6 32 8 33 9 91 10 34 11 90 12 35 13
REMARK SMILES IDX 36 14 37 15 84 16 38 17 89 18 83 19 85 20 39 21 88 22 82 23
REMARK SMILES IDX 81 24 40 26 70 27 51 28 69 29 52 30 55 31 68 32 86 33 53 34
REMARK SMILES IDX 54 35 67 37 87 38 56 39 41 40 42 41 50 42 43 43 49 44 44 45
REMARK SMILES IDX 45 46 46 47 47 48 48 49 71 50 72 51 80 52 73 53 79 54 74 55
REMARK SMILES IDX 75 56 76 57 77 58 78 59 57 60 58 61 66 62 59 63 65 64 60 65
REMARK SMILES IDX 61 66 62 67 63 68 64 69 7 70 8 71 9 72 10 73 11 74 12 76
REMARK SMILES IDX 13 77 14 78 31 79 15 80 27 81 26 82 16 83 17 84 25 85 18 86
REMARK SMILES IDX 24 87 19 88 20 89 21 90 22 91 23 92 28 93 29 94 30 95
REMARK H PARENT 3 7 85 25 55 36 10 75
REMARK Flexibility Score: inf
ROOT
ATOM      1  C   UNL A   1      35.351  21.940  24.910  1.00  0.00     0.002 C 
ENDROOT
BRANCH   1   2
ATOM      2  C   UNL A   1      35.579  23.453  24.958  1.00  0.00     0.021 C 
BRANCH   2   3
ATOM      3  C   UNL A   1      36.773  23.906  25.793  1.00  0.00     0.116 C 
BRANCH   3   4
ATOM      4  N   UNL A   1      37.709  22.827  26.049  1.00  0.00    -0.352 N 
ATOM      5  O   UNL A   1      39.703  21.876  26.479  1.00  0.00    -0.269 OA
ATOM      6  C   UNL A   1      39.008  22.889  26.485  1.00  0.00     0.251 C 
ATOM      7  H   UNL A   1      37.361  21.921  25.887  1.00  0.00     0.163 HD
BRANCH   6   8
ATOM      8  C   UNL A   1      39.576  24.175  26.943  1.00  0.00     0.039 A 
ATOM      9  C   UNL A   1      39.536  24.545  28.291  1.00  0.00     0.014 A 
ATOM     10  C   UNL A   1      40.193  25.007  26.003  1.00  0.00     0.014 A 
ATOM     11  C   UNL A   1      40.022  25.790  28.685  1.00  0.00     0.010 A 
ATOM     12  C   UNL A   1      40.731  26.229  26.410  1.00  0.00     0.010 A 
ATOM     13  C   UNL A   1      40.632  26.638  27.750  1.00  0.00    -0.014 A 
BRANCH  13  14
ATOM     14  C   UNL A   1      41.222  27.931  28.176  1.00  0.00     0.031 A 
ATOM     15  C   UNL A   1      42.706  28.153  28.123  1.00  0.00     0.074 A 
ATOM     16  C   UNL A   1      40.412  28.890  28.664  1.00  0.00     0.049 A 
ATOM     17  N   UNL A   1      43.401  29.180  28.540  1.00  0.00    -0.248 NA
ATOM     18  C   UNL A   1      43.516  27.077  27.531  1.00  0.00     0.031 C 
ATOM     19  C   UNL A   1      38.955  28.789  28.769  1.00  0.00     0.029 A 
ATOM     20  N   UNL A   1      40.699  30.130  29.177  1.00  0.00    -0.354 N 
ATOM     21  C   UNL A   1      44.730  28.866  28.289  1.00  0.00     0.074 A 
ATOM     22  C   UNL A   1      44.746  27.545  27.695  1.00  0.00     0.031 C 
ATOM     23  C   UNL A   1      38.475  29.918  29.312  1.00  0.00     0.029 A 
ATOM     24  C   UNL A   1      39.592  30.797  29.643  1.00  0.00     0.049 A 
ATOM     25  H   UNL A   1      41.609  30.504  29.208  1.00  0.00     0.167 HD
ATOM     26  C   UNL A   1      45.837  29.609  28.537  1.00  0.00     0.031 A 
ATOM     27  C   UNL A   1      39.484  31.970  30.296  1.00  0.00     0.031 A 
ATOM     28  C   UNL A   1      45.814  30.916  29.137  1.00  0.00     0.049 A 
ATOM     29  C   UNL A   1      40.721  32.766  30.586  1.00  0.00     0.074 A 
ATOM     30  C   UNL A   1      46.877  31.764  29.396  1.00  0.00     0.029 A 
ATOM     31  N   UNL A   1      44.670  31.561  29.585  1.00  0.00    -0.354 N 
ATOM     32  N   UNL A   1      41.969  32.472  30.305  1.00  0.00    -0.248 NA
ATOM     33  C   UNL A   1      40.543  34.049  31.275  1.00  0.00     0.031 C 
ATOM     34  C   UNL A   1      46.381  32.901  30.043  1.00  0.00     0.029 A 
ATOM     35  C   UNL A   1      45.003  32.785  30.141  1.00  0.00     0.049 A 
ATOM     36  H   UNL A   1      43.757  31.201  29.519  1.00  0.00     0.167 HD
ATOM     37  C   UNL A   1      42.723  33.544  30.764  1.00  0.00     0.074 A 
ATOM     38  C   UNL A   1      41.792  34.495  31.338  1.00  0.00     0.031 C 
ATOM     39  C   UNL A   1      44.065  33.724  30.706  1.00  0.00     0.031 A 
BRANCH  26  40
ATOM     40  C   UNL A   1      47.169  28.994  28.196  1.00  0.00    -0.014 A 
ATOM     41  C   UNL A   1      47.887  28.235  29.137  1.00  0.00     0.010 A 
ATOM     42  C   UNL A   1      47.709  29.180  26.911  1.00  0.00     0.010 A 
ATOM     43  C   UNL A   1      49.150  27.727  28.819  1.00  0.00     0.020 A 
ATOM     44  C   UNL A   1      48.962  28.653  26.581  1.00  0.00     0.020 A 
ATOM     45  C   UNL A   1      49.686  27.953  27.548  1.00  0.00     0.054 A 
BRANCH  45  46
ATOM     46  S   UNL A   1      51.341  27.314  27.168  1.00  0.00     0.124 S 
ATOM     47  O   UNL A   1      51.363  26.071  27.937  1.00  0.00    -0.237 OA
ATOM     48  O   UNL A   1      51.301  27.153  25.717  1.00  0.00    -0.237 OA
ATOM     49  O   UNL A   1      52.236  28.362  27.652  1.00  0.00    -0.744 OA
ENDBRANCH  45  46
ENDBRANCH  26  40
BRANCH  27  50
ATOM     50  C   UNL A   1      38.137  32.431  30.722  1.00  0.00    -0.014 A 
ATOM     51  C   UNL A   1      37.570  31.967  31.920  1.00  0.00     0.010 A 
ATOM     52  C   UNL A   1      37.461  33.417  29.977  1.00  0.00     0.010 A 
ATOM     53  C   UNL A   1      36.358  32.494  32.375  1.00  0.00     0.020 A 
ATOM     54  C   UNL A   1      36.261  33.961  30.441  1.00  0.00     0.020 A 
ATOM     55  C   UNL A   1      35.717  33.495  31.639  1.00  0.00     0.054 A 
BRANCH  55  56
ATOM     56  S   UNL A   1      34.208  34.245  32.310  1.00  0.00     0.124 S 
ATOM     57  O   UNL A   1      33.472  34.586  31.096  1.00  0.00    -0.237 OA
ATOM     58  O   UNL A   1      33.642  33.161  33.110  1.00  0.00    -0.237 OA
ATOM     59  O   UNL A   1      34.705  35.381  33.082  1.00  0.00    -0.744 OA
ENDBRANCH  55  56
ENDBRANCH  27  50
BRANCH  39  60
ATOM     60  C   UNL A   1      44.620  35.012  31.248  1.00  0.00    -0.014 A 
ATOM     61  C   UNL A   1      45.147  35.087  32.548  1.00  0.00     0.010 A 
ATOM     62  C   UNL A   1      44.701  36.136  30.404  1.00  0.00     0.010 A 
ATOM     63  C   UNL A   1      45.744  36.269  32.997  1.00  0.00     0.020 A 
ATOM     64  C   UNL A   1      45.315  37.310  30.844  1.00  0.00     0.020 A 
ATOM     65  C   UNL A   1      45.830  37.371  32.141  1.00  0.00     0.054 A 
BRANCH  65  66
ATOM     66  S   UNL A   1      46.688  38.863  32.715  1.00  0.00     0.124 S 
ATOM     67  O   UNL A   1      45.590  39.817  32.836  1.00  0.00    -0.237 OA
ATOM     68  O   UNL A   1      47.285  38.427  33.974  1.00  0.00    -0.237 OA
ATOM     69  O   UNL A   1      47.643  39.146  31.645  1.00  0.00    -0.744 OA
ENDBRANCH  65  66
ENDBRANCH  39  60
ENDBRANCH  13  14
ENDBRANCH   6   8
ENDBRANCH   3   4
ENDBRANCH   2   3
ENDBRANCH   1   2
BRANCH   1  70
ATOM     70  C   UNL A   1      34.016  21.491  24.309  1.00  0.00     0.002 C 
BRANCH  70  71
ATOM     71  C   UNL A   1      32.920  21.131  25.317  1.00  0.00     0.021 C 
BRANCH  71  72
ATOM     72  C   UNL A   1      32.842  22.033  26.546  1.00  0.00     0.116 C 
BRANCH  72  73
ATOM     73  N   UNL A   1      31.518  22.603  26.724  1.00  0.00    -0.352 N 
ATOM     74  C   UNL A   1      31.057  23.852  26.412  1.00  0.00     0.251 C 
ATOM     75  H   UNL A   1      30.853  22.000  27.128  1.00  0.00     0.163 HD
ATOM     76  O   UNL A   1      29.945  24.216  26.790  1.00  0.00    -0.269 OA
BRANCH  74  77
ATOM     77  C   UNL A   1      31.891  24.787  25.625  1.00  0.00     0.047 A 
ATOM     78  C   UNL A   1      32.274  25.996  26.220  1.00  0.00     0.023 A 
ATOM     79  C   UNL A   1      32.210  24.523  24.292  1.00  0.00     0.099 A 
ATOM     80  C   UNL A   1      33.014  26.950  25.503  1.00  0.00    -0.011 A 
ATOM     81  C   UNL A   1      32.981  25.450  23.585  1.00  0.00     0.270 A 
ATOM     82  C   UNL A   1      33.388  26.652  24.183  1.00  0.00     0.094 A 
BRANCH  80  83
ATOM     83  C   UNL A   1      33.317  28.260  26.096  1.00  0.00    -0.018 A 
ATOM     84  C   UNL A   1      34.551  28.528  26.708  1.00  0.00     0.009 A 
ATOM     85  C   UNL A   1      32.341  29.270  26.099  1.00  0.00     0.009 A 
ATOM     86  C   UNL A   1      34.794  29.764  27.317  1.00  0.00     0.014 A 
ATOM     87  C   UNL A   1      32.580  30.503  26.710  1.00  0.00     0.014 A 
ATOM     88  C   UNL A   1      33.806  30.761  27.332  1.00  0.00     0.056 A 
BRANCH  88  89
ATOM     89  C   UNL A   1      34.065  32.077  28.023  1.00  0.00     0.416 C 
ATOM     90  F   UNL A   1      33.084  32.992  27.785  1.00  0.00    -0.166 F 
ATOM     91  F   UNL A   1      34.141  31.953  29.376  1.00  0.00    -0.166 F 
ATOM     92  F   UNL A   1      35.229  32.675  27.637  1.00  0.00    -0.166 F 
ENDBRANCH  88  89
ENDBRANCH  80  83
BRANCH  81  93
ATOM     93  N   UNL A   1      33.350  25.171  22.193  1.00  0.00     0.062 N 
ATOM     94  O   UNL A   1      33.564  26.138  21.449  1.00  0.00    -0.258 OA
ATOM     95  O   UNL A   1      33.425  23.983  21.848  1.00  0.00    -0.258 OA
ENDBRANCH  81  93
ENDBRANCH  74  77
ENDBRANCH  72  73
ENDBRANCH  71  72
ENDBRANCH  70  71
ENDBRANCH   1  70
TORSDOF 19
ENDMDL
MODEL 2
REMARK VINA RESULT:     -10.5      4.865      9.064
REMARK SMILES O=C(NCCCCCCNC(=O)c1cc(-c2ccc(C(F)(F)F)cc2)cc([N+](=O)[O-])c1)c1ccc(-c2c3nc(c(-c4ccc(S(=O)(=O)[O-])cc4)c4ccc([nH]4)c(-c4ccc(S(=O)(=O)[O-])cc4)c4nc(c(-c5ccc(S(=O)(=O)[O-])cc5)c5ccc2[nH]5)C=C4)C=C3)cc1
REMARK SMILES IDX 6 1 5 2 4 3 3 4 1 5 2 6 32 8 33 9 91 10 34 11 90 12 35 13
REMARK SMILES IDX 36 14 37 15 84 16 38 17 89 18 83 19 85 20 39 21 88 22 82 23
REMARK SMILES IDX 81 24 40 26 70 27 51 28 69 29 52 30 55 31 68 32 86 33 53 34
REMARK SMILES IDX 54 35 67 37 87 38 56 39 41 40 42 41 50 42 43 43 49 44 44 45
REMARK SMILES IDX 45 46 46 47 47 48 48 49 71 50 72 51 80 52 73 53 79 54 74 55
REMARK SMILES IDX 75 56 76 57 77 58 78 59 57 60 58 61 66 62 59 63 65 64 60 65
REMARK SMILES IDX 61 66 62 67 63 68 64 69 7 70 8 71 9 72 10 73 11 74 12 76
REMARK SMILES IDX 13 77 14 78 31 79 15 80 27 81 26 82 16 83 17 84 25 85 18 86
REMARK SMILES IDX 24 87 19 88 20 89 21 90 22 91 23 92 28 93 29 94 30 95
REMARK H PARENT 3 7 85 25 55 36 10 75
REMARK Flexibility Score: inf
ROOT
ATOM      1  C   UNL A   1      38.577  23.152  25.606  1.00  0.00     0.002 C 
ENDROOT
BRANCH   1   2
ATOM      2  C   UNL A   1      39.098  23.027  27.040  1.00  0.00     0.021 C 
BRANCH   2   3
ATOM      3  C   UNL A   1      40.534  23.496  27.256  1.00  0.00     0.116 C 
BRANCH   3   4
ATOM      4  N   UNL A   1      41.021  24.305  26.154  1.00  0.00    -0.352 N 
ATOM      5  O   UNL A   1      41.445  26.190  24.999  1.00  0.00    -0.269 OA
ATOM      6  C   UNL A   1      41.181  25.665  26.079  1.00  0.00     0.251 C 
ATOM      7  H   UNL A   1      41.274  23.805  25.344  1.00  0.00     0.163 HD
BRANCH   6   8
ATOM      8  C   UNL A   1      41.017  26.499  27.288  1.00  0.00     0.039 A 
ATOM      9  C   UNL A   1      41.892  27.555  27.563  1.00  0.00     0.014 A 
ATOM     10  C   UNL A   1      39.942  26.236  28.143  1.00  0.00     0.014 A 
ATOM     11  C   UNL A   1      41.752  28.285  28.741  1.00  0.00     0.010 A 
ATOM     12  C   UNL A   1      39.770  27.006  29.294  1.00  0.00     0.010 A 
ATOM     13  C   UNL A   1      40.684  28.023  29.612  1.00  0.00    -0.014 A 
BRANCH  13  14
ATOM     14  C   UNL A   1      40.484  28.847  30.830  1.00  0.00     0.031 A 
ATOM     15  C   UNL A   1      39.435  29.921  30.865  1.00  0.00     0.074 A 
ATOM     16  C   UNL A   1      41.292  28.656  31.889  1.00  0.00     0.049 A 
ATOM     17  N   UNL A   1      39.183  30.795  31.806  1.00  0.00    -0.248 NA
ATOM     18  C   UNL A   1      38.561  30.033  29.688  1.00  0.00     0.031 C 
ATOM     19  C   UNL A   1      42.350  27.646  31.970  1.00  0.00     0.029 A 
ATOM     20  N   UNL A   1      41.363  29.311  33.092  1.00  0.00    -0.354 N 
ATOM     21  C   UNL A   1      38.143  31.579  31.326  1.00  0.00     0.074 A 
ATOM     22  C   UNL A   1      37.819  31.086  30.004  1.00  0.00     0.031 C 
ATOM     23  C   UNL A   1      42.964  27.749  33.159  1.00  0.00     0.029 A 
ATOM     24  C   UNL A   1      42.381  28.864  33.899  1.00  0.00     0.049 A 
ATOM     25  H   UNL A   1      40.744  30.032  33.352  1.00  0.00     0.167 HD
ATOM     26  C   UNL A   1      37.518  32.620  31.931  1.00  0.00     0.031 A 
ATOM     27  C   UNL A   1      42.824  29.317  35.087  1.00  0.00     0.031 A 
ATOM     28  C   UNL A   1      37.852  33.112  33.241  1.00  0.00     0.049 A 
ATOM     29  C   UNL A   1      42.140  30.487  35.729  1.00  0.00     0.074 A 
ATOM     30  C   UNL A   1      37.256  34.135  33.955  1.00  0.00     0.029 A 
ATOM     31  N   UNL A   1      38.884  32.623  34.030  1.00  0.00    -0.354 N 
ATOM     32  N   UNL A   1      41.129  31.192  35.278  1.00  0.00    -0.248 NA
ATOM     33  C   UNL A   1      42.646  30.921  37.036  1.00  0.00     0.031 C 
ATOM     34  C   UNL A   1      37.956  34.297  35.156  1.00  0.00     0.029 A 
ATOM     35  C   UNL A   1      38.957  33.339  35.212  1.00  0.00     0.049 A 
ATOM     36  H   UNL A   1      39.478  31.877  33.784  1.00  0.00     0.167 HD
ATOM     37  C   UNL A   1      40.864  32.141  36.257  1.00  0.00     0.074 A 
ATOM     38  C   UNL A   1      41.818  31.918  37.325  1.00  0.00     0.031 C 
ATOM     39  C   UNL A   1      39.911  33.104  36.269  1.00  0.00     0.031 A 
BRANCH  26  40
ATOM     40  C   UNL A   1      36.437  33.321  31.151  1.00  0.00    -0.014 A 
ATOM     41  C   UNL A   1      36.704  33.918  29.905  1.00  0.00     0.010 A 
ATOM     42  C   UNL A   1      35.133  33.383  31.675  1.00  0.00     0.010 A 
ATOM     43  C   UNL A   1      35.700  34.619  29.229  1.00  0.00     0.020 A 
ATOM     44  C   UNL A   1      34.121  34.061  30.989  1.00  0.00     0.020 A 
ATOM     45  C   UNL A   1      34.419  34.698  29.783  1.00  0.00     0.054 A 
BRANCH  45  46
ATOM     46  S   UNL A   1      33.142  35.640  28.904  1.00  0.00     0.124 S 
ATOM     47  O   UNL A   1      32.456  36.312  30.006  1.00  0.00    -0.237 OA
ATOM     48  O   UNL A   1      33.925  36.510  28.030  1.00  0.00    -0.237 OA
ATOM     49  O   UNL A   1      32.362  34.612  28.220  1.00  0.00    -0.744 OA
ENDBRANCH  45  46
ENDBRANCH  26  40
BRANCH  27  50
ATOM     50  C   UNL A   1      43.993  28.649  35.718  1.00  0.00    -0.014 A 
ATOM     51  C   UNL A   1      45.296  29.102  35.462  1.00  0.00     0.010 A 
ATOM     52  C   UNL A   1      43.793  27.620  36.658  1.00  0.00     0.010 A 
ATOM     53  C   UNL A   1      46.381  28.549  36.150  1.00  0.00     0.020 A 
ATOM     54  C   UNL A   1      44.872  27.082  37.363  1.00  0.00     0.020 A 
ATOM     55  C   UNL A   1      46.161  27.550  37.103  1.00  0.00     0.054 A 
BRANCH  55  56
ATOM     56  S   UNL A   1      47.569  26.933  38.066  1.00  0.00     0.124 S 
ATOM     57  O   UNL A   1      46.913  26.390  39.251  1.00  0.00    -0.237 OA
ATOM     58  O   UNL A   1      48.163  25.948  37.164  1.00  0.00    -0.237 OA
ATOM     59  O   UNL A   1      48.381  28.127  38.288  1.00  0.00    -0.744 OA
ENDBRANCH  55  56
ENDBRANCH  27  50
BRANCH  39  60
ATOM     60  C   UNL A   1      39.819  33.980  37.488  1.00  0.00    -0.014 A 
ATOM     61  C   UNL A   1      38.834  33.765  38.466  1.00  0.00     0.010 A 
ATOM     62  C   UNL A   1      40.798  34.970  37.699  1.00  0.00     0.010 A 
ATOM     63  C   UNL A   1      38.827  34.530  39.636  1.00  0.00     0.020 A 
ATOM     64  C   UNL A   1      40.804  35.721  38.876  1.00  0.00     0.020 A 
ATOM     65  C   UNL A   1      39.815  35.499  39.837  1.00  0.00     0.054 A 
BRANCH  65  66
ATOM     66  S   UNL A   1      39.838  36.417  41.402  1.00  0.00     0.124 S 
ATOM     67  O   UNL A   1      41.024  35.874  42.056  1.00  0.00    -0.237 OA
ATOM     68  O   UNL A   1      39.944  37.805  40.959  1.00  0.00    -0.237 OA
ATOM     69  O   UNL A   1      38.565  36.065  42.028  1.00  0.00    -0.744 OA
ENDBRANCH  65  66
ENDBRANCH  39  60
ENDBRANCH  13  14
ENDBRANCH   6   8
ENDBRANCH   3   4
ENDBRANCH   2   3
ENDBRANCH   1   2
BRANCH   1  70
ATOM     70  C   UNL A   1      37.053  23.141  25.452  1.00  0.00     0.002 C 
BRANCH  70  71
ATOM     71  C   UNL A   1      36.494  22.134  24.442  1.00  0.00     0.021 C 
BRANCH  71  72
ATOM     72  C   UNL A   1      34.977  22.155  24.270  1.00  0.00     0.116 C 
BRANCH  72  73
ATOM     73  N   UNL A   1      34.570  22.891  23.086  1.00  0.00    -0.352 N 
ATOM     74  C   UNL A   1      33.571  23.812  22.933  1.00  0.00     0.251 C 
ATOM     75  H   UNL A   1      35.091  22.698  22.273  1.00  0.00     0.163 HD
ATOM     76  O   UNL A   1      33.261  24.209  21.811  1.00  0.00    -0.269 OA
BRANCH  74  77
ATOM     77  C   UNL A   1      32.845  24.337  24.109  1.00  0.00     0.047 A 
ATOM     78  C   UNL A   1      33.220  25.588  24.616  1.00  0.00     0.023 A 
ATOM     79  C   UNL A   1      31.875  23.573  24.761  1.00  0.00     0.099 A 
ATOM     80  C   UNL A   1      32.611  26.113  25.767  1.00  0.00    -0.011 A 
ATOM     81  C   UNL A   1      31.235  24.107  25.883  1.00  0.00     0.270 A 
ATOM     82  C   UNL A   1      31.591  25.369  26.382  1.00  0.00     0.094 A 
BRANCH  80  83
ATOM     83  C   UNL A   1      33.086  27.372  26.356  1.00  0.00    -0.018 A 
ATOM     84  C   UNL A   1      32.255  28.179  27.149  1.00  0.00     0.009 A 
ATOM     85  C   UNL A   1      34.391  27.819  26.094  1.00  0.00     0.009 A 
ATOM     86  C   UNL A   1      32.713  29.402  27.650  1.00  0.00     0.014 A 
ATOM     87  C   UNL A   1      34.849  29.042  26.590  1.00  0.00     0.014 A 
ATOM     88  C   UNL A   1      34.012  29.850  27.368  1.00  0.00     0.056 A 
BRANCH  88  89
ATOM     89  C   UNL A   1      34.484  31.188  27.883  1.00  0.00     0.416 C 
ATOM     90  F   UNL A   1      33.573  32.178  27.672  1.00  0.00    -0.166 F 
ATOM     91  F   UNL A   1      34.724  31.178  29.223  1.00  0.00    -0.166 F 
ATOM     92  F   UNL A   1      35.640  31.619  27.301  1.00  0.00    -0.166 F 
ENDBRANCH  88  89
ENDBRANCH  80  83
BRANCH  81  93
ATOM     93  N   UNL A   1      30.193  23.326  26.559  1.00  0.00     0.062 N 
ATOM     94  O   UNL A   1      30.155  22.108  26.342  1.00  0.00    -0.258 OA
ATOM     95  O   UNL A   1      29.413  23.937  27.303  1.00  0.00    -0.258 OA
ENDBRANCH  81  93
ENDBRANCH  74  77
ENDBRANCH  72  73
ENDBRANCH  71  72
ENDBRANCH  70  71
ENDBRANCH   1  70
TORSDOF 19
ENDMDL
MODEL 3
REMARK VINA RESULT:     -10.4      1.923      2.507
REMARK SMILES O=C(NCCCCCCNC(=O)c1cc(-c2ccc(C(F)(F)F)cc2)cc([N+](=O)[O-])c1)c1ccc(-c2c3nc(c(-c4ccc(S(=O)(=O)[O-])cc4)c4ccc([nH]4)c(-c4ccc(S(=O)(=O)[O-])cc4)c4nc(c(-c5ccc(S(=O)(=O)[O-])cc5)c5ccc2[nH]5)C=C4)C=C3)cc1
REMARK SMILES IDX 6 1 5 2 4 3 3 4 1 5 2 6 32 8 33 9 91 10 34 11 90 12 35 13
REMARK SMILES IDX 36 14 37 15 84 16 38 17 89 18 83 19 85 20 39 21 88 22 82 23
REMARK SMILES IDX 81 24 40 26 70 27 51 28 69 29 52 30 55 31 68 32 86 33 53 34
REMARK SMILES IDX 54 35 67 37 87 38 56 39 41 40 42 41 50 42 43 43 49 44 44 45
REMARK SMILES IDX 45 46 46 47 47 48 48 49 71 50 72 51 80 52 73 53 79 54 74 55
REMARK SMILES IDX 75 56 76 57 77 58 78 59 57 60 58 61 66 62 59 63 65 64 60 65
REMARK SMILES IDX 61 66 62 67 63 68 64 69 7 70 8 71 9 72 10 73 11 74 12 76
REMARK SMILES IDX 13 77 14 78 31 79 15 80 27 81 26 82 16 83 17 84 25 85 18 86
REMARK SMILES IDX 24 87 19 88 20 89 21 90 22 91 23 92 28 93 29 94 30 95
REMARK H PARENT 3 7 85 25 55 36 10 75
REMARK Flexibility Score: inf
ROOT
ATOM      1  C   UNL A   1      35.616  21.436  25.631  1.00  0.00     0.002 C 
ENDROOT
BRANCH   1   2
ATOM      2  C   UNL A   1      35.838  22.934  25.855  1.00  0.00     0.021 C 
BRANCH   2   3
ATOM      3  C   UNL A   1      37.288  23.399  25.765  1.00  0.00     0.116 C 
BRANCH   3   4
ATOM      4  N   UNL A   1      38.228  22.336  26.070  1.00  0.00    -0.352 N 
ATOM      5  O   UNL A   1      40.223  21.415  26.559  1.00  0.00    -0.269 OA
ATOM      6  C   UNL A   1      39.520  22.423  26.522  1.00  0.00     0.251 C 
ATOM      7  H   UNL A   1      37.890  21.422  25.933  1.00  0.00     0.163 HD
BRANCH   6   8
ATOM      8  C   UNL A   1      40.073  23.728  26.944  1.00  0.00     0.039 A 
ATOM      9  C   UNL A   1      40.616  23.904  28.221  1.00  0.00     0.014 A 
ATOM     10  C   UNL A   1      40.077  24.782  26.027  1.00  0.00     0.014 A 
ATOM     11  C   UNL A   1      41.072  25.160  28.615  1.00  0.00     0.010 A 
ATOM     12  C   UNL A   1      40.587  26.025  26.405  1.00  0.00     0.010 A 
ATOM     13  C   UNL A   1      41.070  26.229  27.707  1.00  0.00    -0.014 A 
BRANCH  13  14
ATOM     14  C   UNL A   1      41.626  27.549  28.095  1.00  0.00     0.031 A 
ATOM     15  C   UNL A   1      43.106  27.799  28.059  1.00  0.00     0.074 A 
ATOM     16  C   UNL A   1      40.789  28.508  28.532  1.00  0.00     0.049 A 
ATOM     17  N   UNL A   1      43.773  28.855  28.448  1.00  0.00    -0.248 NA
ATOM     18  C   UNL A   1      43.948  26.719  27.521  1.00  0.00     0.031 C 
ATOM     19  C   UNL A   1      39.332  28.380  28.616  1.00  0.00     0.029 A 
ATOM     20  N   UNL A   1      41.041  29.771  29.003  1.00  0.00    -0.354 N 
ATOM     21  C   UNL A   1      45.112  28.559  28.232  1.00  0.00     0.074 A 
ATOM     22  C   UNL A   1      45.165  27.218  27.689  1.00  0.00     0.031 C 
ATOM     23  C   UNL A   1      38.821  29.519  29.109  1.00  0.00     0.029 A 
ATOM     24  C   UNL A   1      39.914  30.432  29.425  1.00  0.00     0.049 A 
ATOM     25  H   UNL A   1      41.944  30.166  29.036  1.00  0.00     0.167 HD
ATOM     26  C   UNL A   1      46.199  29.334  28.470  1.00  0.00     0.031 A 
ATOM     27  C   UNL A   1      39.771  31.626  30.032  1.00  0.00     0.031 A 
ATOM     28  C   UNL A   1      46.140  30.662  29.021  1.00  0.00     0.049 A 
ATOM     29  C   UNL A   1      40.986  32.458  30.314  1.00  0.00     0.074 A 
ATOM     30  C   UNL A   1      47.181  31.540  29.266  1.00  0.00     0.029 A 
ATOM     31  N   UNL A   1      44.975  31.299  29.425  1.00  0.00    -0.354 N 
ATOM     32  N   UNL A   1      42.244  32.179  30.065  1.00  0.00    -0.248 NA
ATOM     33  C   UNL A   1      40.769  33.762  30.951  1.00  0.00     0.031 C 
ATOM     34  C   UNL A   1      46.651  32.691  29.862  1.00  0.00     0.029 A 
ATOM     35  C   UNL A   1      45.274  32.549  29.940  1.00  0.00     0.049 A 
ATOM     36  H   UNL A   1      44.071  30.918  29.357  1.00  0.00     0.167 HD
ATOM     37  C   UNL A   1      42.968  33.284  30.495  1.00  0.00     0.074 A 
ATOM     38  C   UNL A   1      42.008  34.236  31.018  1.00  0.00     0.031 C 
ATOM     39  C   UNL A   1      44.307  33.489  30.454  1.00  0.00     0.031 A 
BRANCH  26  40
ATOM     40  C   UNL A   1      47.549  28.735  28.175  1.00  0.00    -0.014 A 
ATOM     41  C   UNL A   1      48.260  28.015  29.153  1.00  0.00     0.010 A 
ATOM     42  C   UNL A   1      48.114  28.895  26.898  1.00  0.00     0.010 A 
ATOM     43  C   UNL A   1      49.539  27.522  28.876  1.00  0.00     0.020 A 
ATOM     44  C   UNL A   1      49.383  28.383  26.609  1.00  0.00     0.020 A 
ATOM     45  C   UNL A   1      50.098  27.723  27.611  1.00  0.00     0.054 A 
BRANCH  45  46
ATOM     46  S   UNL A   1      51.772  27.104  27.285  1.00  0.00     0.124 S 
ATOM     47  O   UNL A   1      51.945  27.442  25.874  1.00  0.00    -0.237 OA
ATOM     48  O   UNL A   1      52.589  27.873  28.219  1.00  0.00    -0.237 OA
ATOM     49  O   UNL A   1      51.676  25.676  27.575  1.00  0.00    -0.744 OA
ENDBRANCH  45  46
ENDBRANCH  26  40
BRANCH  27  50
ATOM     50  C   UNL A   1      38.407  32.075  30.418  1.00  0.00    -0.014 A 
ATOM     51  C   UNL A   1      37.911  31.822  31.706  1.00  0.00     0.010 A 
ATOM     52  C   UNL A   1      37.641  32.848  29.524  1.00  0.00     0.010 A 
ATOM     53  C   UNL A   1      36.678  32.349  32.102  1.00  0.00     0.020 A 
ATOM     54  C   UNL A   1      36.419  33.395  29.925  1.00  0.00     0.020 A 
ATOM     55  C   UNL A   1      35.945  33.141  31.212  1.00  0.00     0.054 A 
BRANCH  55  56
ATOM     56  S   UNL A   1      34.407  33.911  31.789  1.00  0.00     0.124 S 
ATOM     57  O   UNL A   1      33.812  32.842  32.585  1.00  0.00    -0.237 OA
ATOM     58  O   UNL A   1      34.891  35.066  32.541  1.00  0.00    -0.237 OA
ATOM     59  O   UNL A   1      33.703  34.237  30.551  1.00  0.00    -0.744 OA
ENDBRANCH  55  56
ENDBRANCH  27  50
BRANCH  39  60
ATOM     60  C   UNL A   1      44.826  34.807  30.957  1.00  0.00    -0.014 A 
ATOM     61  C   UNL A   1      45.229  34.969  32.293  1.00  0.00     0.010 A 
ATOM     62  C   UNL A   1      45.003  35.869  30.049  1.00  0.00     0.010 A 
ATOM     63  C   UNL A   1      45.798  36.174  32.715  1.00  0.00     0.020 A 
ATOM     64  C   UNL A   1      45.589  37.067  30.464  1.00  0.00     0.020 A 
ATOM     65  C   UNL A   1      45.980  37.213  31.797  1.00  0.00     0.054 A 
BRANCH  65  66
ATOM     66  S   UNL A   1      46.801  38.736  32.346  1.00  0.00     0.124 S 
ATOM     67  O   UNL A   1      47.087  38.438  33.746  1.00  0.00    -0.237 OA
ATOM     68  O   UNL A   1      47.965  38.808  31.467  1.00  0.00    -0.237 OA
ATOM     69  O   UNL A   1      45.794  39.771  32.123  1.00  0.00    -0.744 OA
ENDBRANCH  65  66
ENDBRANCH  39  60
ENDBRANCH  13  14
ENDBRANCH   6   8
ENDBRANCH   3   4
ENDBRANCH   2   3
ENDBRANCH   1   2
BRANCH   1  70
ATOM     70  C   UNL A   1      34.329  21.061  24.890  1.00  0.00     0.002 C 
BRANCH  70  71
ATOM     71  C   UNL A   1      33.077  20.921  25.761  1.00  0.00     0.021 C 
BRANCH  71  72
ATOM     72  C   UNL A   1      31.780  21.414  25.124  1.00  0.00     0.116 C 
BRANCH  72  73
ATOM     73  N   UNL A   1      30.956  22.154  26.064  1.00  0.00    -0.352 N 
ATOM     74  C   UNL A   1      30.684  23.493  26.119  1.00  0.00     0.251 C 
ATOM     75  H   UNL A   1      30.530  21.610  26.765  1.00  0.00     0.163 HD
ATOM     76  O   UNL A   1      30.098  23.968  27.090  1.00  0.00    -0.269 OA
BRANCH  74  77
ATOM     77  C   UNL A   1      31.098  24.390  25.019  1.00  0.00     0.047 A 
ATOM     78  C   UNL A   1      30.491  25.650  24.926  1.00  0.00     0.023 A 
ATOM     79  C   UNL A   1      31.997  23.966  24.038  1.00  0.00     0.099 A 
ATOM     80  C   UNL A   1      30.796  26.522  23.869  1.00  0.00    -0.011 A 
ATOM     81  C   UNL A   1      32.337  24.845  23.006  1.00  0.00     0.270 A 
ATOM     82  C   UNL A   1      31.750  26.117  22.921  1.00  0.00     0.094 A 
BRANCH  80  83
ATOM     83  C   UNL A   1      30.075  27.793  23.717  1.00  0.00    -0.018 A 
ATOM     84  C   UNL A   1      28.798  27.855  23.139  1.00  0.00     0.009 A 
ATOM     85  C   UNL A   1      30.682  28.995  24.116  1.00  0.00     0.009 A 
ATOM     86  C   UNL A   1      28.156  29.084  22.952  1.00  0.00     0.014 A 
ATOM     87  C   UNL A   1      30.045  30.223  23.927  1.00  0.00     0.014 A 
ATOM     88  C   UNL A   1      28.778  30.282  23.336  1.00  0.00     0.056 A 
BRANCH  88  89
ATOM     89  C   UNL A   1      28.092  31.605  23.098  1.00  0.00     0.416 C 
ATOM     90  F   UNL A   1      26.947  31.736  23.825  1.00  0.00    -0.166 F 
ATOM     91  F   UNL A   1      28.873  32.668  23.434  1.00  0.00    -0.166 F 
ATOM     92  F   UNL A   1      27.729  31.804  21.799  1.00  0.00    -0.166 F 
ENDBRANCH  88  89
ENDBRANCH  80  83
BRANCH  81  93
ATOM     93  N   UNL A   1      33.304  24.423  21.987  1.00  0.00     0.062 N 
ATOM     94  O   UNL A   1      34.079  23.501  22.277  1.00  0.00    -0.258 OA
ATOM     95  O   UNL A   1      33.287  25.016  20.900  1.00  0.00    -0.258 OA
ENDBRANCH  81  93
ENDBRANCH  74  77
ENDBRANCH  72  73
ENDBRANCH  71  72
ENDBRANCH  70  71
ENDBRANCH   1  70
TORSDOF 19
ENDMDL
