MODEL 1
REMARK VINA RESULT:     -13.0      0.000      0.000
REMARK SMILES Cc1c(N[C@@H]2CC[C@@H]([NH3+])C2)cccc1C(=O)NCCCCCCNC(=O)c1ccc(-c2c3nc(c(-c4ccc(S(=O)(=O)[O-])cc4)c4ccc([nH]4)c(-c4ccc(S(=O)(=O)[O-])cc4)c4nc(c(-c5ccc(S(=O)(=O)[O-])cc5)c5ccc2[nH]5)C=C4)C=C3)cc1
REMARK SMILES IDX 20 1 19 2 18 3 17 4 15 5 16 6 14 8 1 9 2 10 3 11 11 12 13 13
REMARK SMILES IDX 12 14 4 15 5 17 6 18 10 19 7 20 8 21 9 22 21 26 22 27 23 28
REMARK SMILES IDX 24 29 25 30 26 32 27 33 28 34 86 35 29 36 85 37 30 38 31 39
REMARK SMILES IDX 32 40 79 41 33 42 84 43 78 44 80 45 34 46 83 47 77 48 76 49
REMARK SMILES IDX 35 51 65 52 46 53 64 54 47 55 50 56 63 57 81 58 48 59 49 60
REMARK SMILES IDX 62 62 82 63 51 64 36 65 37 66 45 67 38 68 44 69 39 70 40 71
REMARK SMILES IDX 41 72 42 73 43 74 66 75 67 76 75 77 68 78 74 79 69 80 70 81
REMARK SMILES IDX 71 82 72 83 73 84 52 85 53 86 61 87 54 88 60 89 55 90 56 91
REMARK SMILES IDX 57 92 58 93 59 94
REMARK H PARENT 17 7 4 16 9 23 9 24 9 25 24 31 80 50 50 61
REMARK Flexibility Score: inf
ROOT
ATOM      1  C   UNL A   1      32.811  29.013  23.684  1.00  0.00     0.002 C 
ENDROOT
BRANCH   1   2
ATOM      2  C   UNL A   1      31.472  28.986  22.933  1.00  0.00     0.021 C 
BRANCH   2   3
ATOM      3  C   UNL A   1      30.893  27.589  22.664  1.00  0.00     0.116 C 
BRANCH   3   4
ATOM      4  N   UNL A   1      31.714  26.881  21.696  1.00  0.00    -0.352 N 
ATOM      5  C   UNL A   1      32.612  25.849  21.782  1.00  0.00     0.251 C 
ATOM      6  O   UNL A   1      33.132  25.478  20.726  1.00  0.00    -0.269 OA
ATOM      7  H   UNL A   1      31.601  27.217  20.777  1.00  0.00     0.163 HD
BRANCH   5   8
ATOM      8  C   UNL A   1      32.928  25.079  23.028  1.00  0.00     0.044 A 
ATOM      9  C   UNL A   1      30.713  23.834  23.240  1.00  0.00     0.047 C 
ATOM     10  C   UNL A   1      32.136  24.095  23.661  1.00  0.00    -0.015 A 
ATOM     11  C   UNL A   1      32.618  23.415  24.821  1.00  0.00     0.038 A 
ATOM     12  C   UNL A   1      33.743  23.938  25.462  1.00  0.00     0.026 A 
ATOM     13  C   UNL A   1      34.098  25.512  23.678  1.00  0.00     0.014 A 
ATOM     14  C   UNL A   1      34.478  24.979  24.903  1.00  0.00     0.003 A 
BRANCH  11  15
ATOM     15  N   UNL A   1      31.922  22.320  25.300  1.00  0.00    -0.382 N 
ATOM     16  H   UNL A   1      31.171  22.545  25.895  1.00  0.00     0.160 HD
BRANCH  15  17
ATOM     17  C   UNL A   1      32.102  20.895  25.079  1.00  0.00     0.085 C 
ATOM     18  C   UNL A   1      33.286  20.293  25.840  1.00  0.00     0.031 C 
ATOM     19  C   UNL A   1      32.223  20.453  23.624  1.00  0.00     0.089 C 
ATOM     20  C   UNL A   1      34.026  19.427  24.822  1.00  0.00     0.067 C 
ATOM     21  C   UNL A   1      33.025  19.151  23.699  1.00  0.00     0.182 C 
BRANCH  21  22
ATOM     22  N   UNL A   1      32.183  17.998  24.009  1.00  0.00    -0.355 N 
ATOM     23  H   UNL A   1      32.355  17.258  23.328  1.00  0.00     0.344 HD
ATOM     24  H   UNL A   1      31.202  18.273  23.970  1.00  0.00     0.344 HD
ATOM     25  H   UNL A   1      32.404  17.657  24.945  1.00  0.00     0.344 HD
ENDBRANCH  21  22
ENDBRANCH  15  17
ENDBRANCH  11  15
ENDBRANCH   5   8
ENDBRANCH   3   4
ENDBRANCH   2   3
ENDBRANCH   1   2
BRANCH   1  26
ATOM     26  C   UNL A   1      32.736  29.096  25.217  1.00  0.00     0.002 C 
BRANCH  26  27
ATOM     27  C   UNL A   1      34.056  28.916  25.970  1.00  0.00     0.021 C 
BRANCH  27  28
ATOM     28  C   UNL A   1      34.122  29.643  27.307  1.00  0.00     0.116 C 
BRANCH  28  29
ATOM     29  N   UNL A   1      34.953  30.838  27.290  1.00  0.00    -0.352 N 
ATOM     30  C   UNL A   1      35.951  31.018  28.237  1.00  0.00     0.251 C 
ATOM     31  H   UNL A   1      34.806  31.525  26.601  1.00  0.00     0.163 HD
ATOM     32  O   UNL A   1      36.030  31.972  29.001  1.00  0.00    -0.269 OA
BRANCH  30  33
ATOM     33  C   UNL A   1      36.940  29.923  28.291  1.00  0.00     0.039 A 
ATOM     34  C   UNL A   1      37.136  29.233  29.488  1.00  0.00     0.014 A 
ATOM     35  C   UNL A   1      37.820  29.779  27.218  1.00  0.00     0.014 A 
ATOM     36  C   UNL A   1      38.298  28.481  29.657  1.00  0.00     0.010 A 
ATOM     37  C   UNL A   1      39.006  29.099  27.417  1.00  0.00     0.010 A 
ATOM     38  C   UNL A   1      39.265  28.479  28.647  1.00  0.00    -0.014 A 
BRANCH  38  39
ATOM     39  C   UNL A   1      40.602  27.916  28.806  1.00  0.00     0.031 A 
ATOM     40  C   UNL A   1      40.867  26.501  28.454  1.00  0.00     0.074 A 
ATOM     41  C   UNL A   1      41.629  28.694  29.215  1.00  0.00     0.049 A 
ATOM     42  N   UNL A   1      41.866  25.812  28.898  1.00  0.00    -0.248 NA
ATOM     43  C   UNL A   1      39.973  25.730  27.597  1.00  0.00     0.031 C 
ATOM     44  C   UNL A   1      43.054  28.374  29.147  1.00  0.00     0.029 A 
ATOM     45  N   UNL A   1      41.582  29.841  30.008  1.00  0.00    -0.354 N 
ATOM     46  C   UNL A   1      41.913  24.639  28.181  1.00  0.00     0.074 A 
ATOM     47  C   UNL A   1      40.675  24.603  27.436  1.00  0.00     0.031 C 
ATOM     48  C   UNL A   1      43.693  29.077  30.094  1.00  0.00     0.029 A 
ATOM     49  C   UNL A   1      42.678  29.752  30.884  1.00  0.00     0.049 A 
ATOM     50  H   UNL A   1      40.916  30.565  29.963  1.00  0.00     0.167 HD
ATOM     51  C   UNL A   1      43.043  23.874  28.192  1.00  0.00     0.031 A 
ATOM     52  C   UNL A   1      42.556  29.690  32.244  1.00  0.00     0.031 A 
ATOM     53  C   UNL A   1      44.063  24.388  29.101  1.00  0.00     0.049 A 
ATOM     54  C   UNL A   1      43.180  28.450  32.860  1.00  0.00     0.074 A 
ATOM     55  C   UNL A   1      45.265  25.060  28.943  1.00  0.00     0.029 A 
ATOM     56  N   UNL A   1      43.773  24.442  30.455  1.00  0.00    -0.354 N 
ATOM     57  N   UNL A   1      43.759  27.498  32.182  1.00  0.00    -0.248 NA
ATOM     58  C   UNL A   1      43.099  28.137  34.289  1.00  0.00     0.031 C 
ATOM     59  C   UNL A   1      45.692  25.517  30.223  1.00  0.00     0.029 A 
ATOM     60  C   UNL A   1      44.752  25.120  31.154  1.00  0.00     0.049 A 
ATOM     61  H   UNL A   1      42.971  24.047  30.865  1.00  0.00     0.167 HD
ATOM     62  C   UNL A   1      44.068  26.462  33.022  1.00  0.00     0.074 A 
ATOM     63  C   UNL A   1      43.651  26.913  34.336  1.00  0.00     0.031 C 
ATOM     64  C   UNL A   1      44.593  25.283  32.586  1.00  0.00     0.031 A 
BRANCH  51  65
ATOM     65  C   UNL A   1      43.300  22.772  27.188  1.00  0.00    -0.014 A 
ATOM     66  C   UNL A   1      42.494  21.615  27.199  1.00  0.00     0.010 A 
ATOM     67  C   UNL A   1      44.342  22.794  26.243  1.00  0.00     0.010 A 
ATOM     68  C   UNL A   1      42.784  20.499  26.400  1.00  0.00     0.020 A 
ATOM     69  C   UNL A   1      44.671  21.671  25.469  1.00  0.00     0.020 A 
ATOM     70  C   UNL A   1      43.896  20.520  25.564  1.00  0.00     0.054 A 
BRANCH  70  71
ATOM     71  S   UNL A   1      44.329  19.029  24.630  1.00  0.00     0.124 S 
ATOM     72  O   UNL A   1      43.231  18.122  24.958  1.00  0.00    -0.237 OA
ATOM     73  O   UNL A   1      44.356  19.517  23.255  1.00  0.00    -0.237 OA
ATOM     74  O   UNL A   1      45.627  18.642  25.180  1.00  0.00    -0.744 OA
ENDBRANCH  70  71
ENDBRANCH  51  65
BRANCH  52  75
ATOM     75  C   UNL A   1      41.348  30.384  32.774  1.00  0.00    -0.014 A 
ATOM     76  C   UNL A   1      40.194  29.603  33.007  1.00  0.00     0.010 A 
ATOM     77  C   UNL A   1      41.464  31.630  33.413  1.00  0.00     0.010 A 
ATOM     78  C   UNL A   1      39.275  29.970  33.993  1.00  0.00     0.020 A 
ATOM     79  C   UNL A   1      40.534  32.007  34.390  1.00  0.00     0.020 A 
ATOM     80  C   UNL A   1      39.492  31.136  34.725  1.00  0.00     0.054 A 
BRANCH  80  81
ATOM     81  S   UNL A   1      38.503  31.407  36.229  1.00  0.00     0.124 S 
ATOM     82  O   UNL A   1      37.374  32.180  35.728  1.00  0.00    -0.237 OA
ATOM     83  O   UNL A   1      38.198  30.039  36.653  1.00  0.00    -0.237 OA
ATOM     84  O   UNL A   1      39.421  32.126  37.106  1.00  0.00    -0.744 OA
ENDBRANCH  80  81
ENDBRANCH  52  75
BRANCH  64  85
ATOM     85  C   UNL A   1      44.964  24.155  33.503  1.00  0.00    -0.014 A 
ATOM     86  C   UNL A   1      46.275  23.980  33.975  1.00  0.00     0.010 A 
ATOM     87  C   UNL A   1      44.016  23.157  33.813  1.00  0.00     0.010 A 
ATOM     88  C   UNL A   1      46.612  22.878  34.771  1.00  0.00     0.020 A 
ATOM     89  C   UNL A   1      44.347  22.045  34.592  1.00  0.00     0.020 A 
ATOM     90  C   UNL A   1      45.642  21.922  35.083  1.00  0.00     0.054 A 
BRANCH  90  91
ATOM     91  S   UNL A   1      46.104  20.485  36.085  1.00  0.00     0.124 S 
ATOM     92  O   UNL A   1      47.551  20.409  35.896  1.00  0.00    -0.237 OA
ATOM     93  O   UNL A   1      45.667  20.895  37.417  1.00  0.00    -0.237 OA
ATOM     94  O   UNL A   1      45.346  19.388  35.489  1.00  0.00    -0.744 OA
ENDBRANCH  90  91
ENDBRANCH  64  85
ENDBRANCH  38  39
ENDBRANCH  30  33
ENDBRANCH  28  29
ENDBRANCH  27  28
ENDBRANCH  26  27
ENDBRANCH   1  26
TORSDOF 19
ENDMDL
MODEL 2
REMARK VINA RESULT:     -12.9      1.836      4.022
REMARK SMILES Cc1c(N[C@@H]2CC[C@@H]([NH3+])C2)cccc1C(=O)NCCCCCCNC(=O)c1ccc(-c2c3nc(c(-c4ccc(S(=O)(=O)[O-])cc4)c4ccc([nH]4)c(-c4ccc(S(=O)(=O)[O-])cc4)c4nc(c(-c5ccc(S(=O)(=O)[O-])cc5)c5ccc2[nH]5)C=C4)C=C3)cc1
REMARK SMILES IDX 20 1 19 2 18 3 17 4 15 5 16 6 14 8 1 9 2 10 3 11 11 12 13 13
REMARK SMILES IDX 12 14 4 15 5 17 6 18 10 19 7 20 8 21 9 22 21 26 22 27 23 28
REMARK SMILES IDX 24 29 25 30 26 32 27 33 28 34 86 35 29 36 85 37 30 38 31 39
REMARK SMILES IDX 32 40 79 41 33 42 84 43 78 44 80 45 34 46 83 47 77 48 76 49
REMARK SMILES IDX 35 51 65 52 46 53 64 54 47 55 50 56 63 57 81 58 48 59 49 60
REMARK SMILES IDX 62 62 82 63 51 64 36 65 37 66 45 67 38 68 44 69 39 70 40 71
REMARK SMILES IDX 41 72 42 73 43 74 66 75 67 76 75 77 68 78 74 79 69 80 70 81
REMARK SMILES IDX 71 82 72 83 73 84 52 85 53 86 61 87 54 88 60 89 55 90 56 91
REMARK SMILES IDX 57 92 58 93 59 94
REMARK H PARENT 17 7 4 16 9 23 9 24 9 25 24 31 80 50 50 61
REMARK Flexibility Score: inf
ROOT
ATOM      1  C   UNL A   1      33.319  25.935  26.121  1.00  0.00     0.002 C 
ENDROOT
BRANCH   1   2
ATOM      2  C   UNL A   1      34.372  25.612  25.051  1.00  0.00     0.021 C 
BRANCH   2   3
ATOM      3  C   UNL A   1      34.118  24.332  24.240  1.00  0.00     0.116 C 
BRANCH   3   4
ATOM      4  N   UNL A   1      33.987  24.648  22.828  1.00  0.00    -0.352 N 
ATOM      5  C   UNL A   1      33.117  25.419  22.101  1.00  0.00     0.251 C 
ATOM      6  O   UNL A   1      33.312  25.475  20.883  1.00  0.00    -0.269 OA
ATOM      7  H   UNL A   1      34.671  24.212  22.271  1.00  0.00     0.163 HD
BRANCH   5   8
ATOM      8  C   UNL A   1      32.026  26.269  22.676  1.00  0.00     0.044 A 
ATOM      9  C   UNL A   1      33.307  28.473  22.755  1.00  0.00     0.047 C 
ATOM     10  C   UNL A   1      32.043  27.665  22.898  1.00  0.00    -0.015 A 
ATOM     11  C   UNL A   1      30.886  28.330  23.407  1.00  0.00     0.038 A 
ATOM     12  C   UNL A   1      29.861  27.543  23.936  1.00  0.00     0.026 A 
ATOM     13  C   UNL A   1      30.929  25.532  23.156  1.00  0.00     0.014 A 
ATOM     14  C   UNL A   1      29.878  26.156  23.818  1.00  0.00     0.003 A 
BRANCH  11  15
ATOM     15  N   UNL A   1      30.854  29.713  23.422  1.00  0.00    -0.382 N 
ATOM     16  H   UNL A   1      31.552  30.129  23.979  1.00  0.00     0.160 HD
BRANCH  15  17
ATOM     17  C   UNL A   1      29.975  30.661  22.761  1.00  0.00     0.085 C 
ATOM     18  C   UNL A   1      28.893  31.246  23.673  1.00  0.00     0.031 C 
ATOM     19  C   UNL A   1      29.282  30.162  21.496  1.00  0.00     0.089 C 
ATOM     20  C   UNL A   1      27.595  31.161  22.872  1.00  0.00     0.067 C 
ATOM     21  C   UNL A   1      28.013  31.015  21.408  1.00  0.00     0.182 C 
BRANCH  21  22
ATOM     22  N   UNL A   1      28.261  32.317  20.794  1.00  0.00    -0.355 N 
ATOM     23  H   UNL A   1      27.761  33.039  21.313  1.00  0.00     0.344 HD
ATOM     24  H   UNL A   1      27.934  32.306  19.829  1.00  0.00     0.344 HD
ATOM     25  H   UNL A   1      29.262  32.517  20.812  1.00  0.00     0.344 HD
ENDBRANCH  21  22
ENDBRANCH  15  17
ENDBRANCH  11  15
ENDBRANCH   5   8
ENDBRANCH   3   4
ENDBRANCH   2   3
ENDBRANCH   1   2
BRANCH   1  26
ATOM     26  C   UNL A   1      33.003  27.423  26.345  1.00  0.00     0.002 C 
BRANCH  26  27
ATOM     27  C   UNL A   1      34.190  28.386  26.275  1.00  0.00     0.021 C 
BRANCH  27  28
ATOM     28  C   UNL A   1      34.299  29.337  27.459  1.00  0.00     0.116 C 
BRANCH  28  29
ATOM     29  N   UNL A   1      35.085  30.532  27.188  1.00  0.00    -0.352 N 
ATOM     30  C   UNL A   1      36.179  30.853  27.977  1.00  0.00     0.251 C 
ATOM     31  H   UNL A   1      34.836  31.119  26.438  1.00  0.00     0.163 HD
ATOM     32  O   UNL A   1      36.315  31.902  28.596  1.00  0.00    -0.269 OA
BRANCH  30  33
ATOM     33  C   UNL A   1      37.202  29.792  28.055  1.00  0.00     0.039 A 
ATOM     34  C   UNL A   1      37.336  29.052  29.231  1.00  0.00     0.014 A 
ATOM     35  C   UNL A   1      38.162  29.729  27.044  1.00  0.00     0.014 A 
ATOM     36  C   UNL A   1      38.511  28.334  29.451  1.00  0.00     0.010 A 
ATOM     37  C   UNL A   1      39.355  29.082  27.300  1.00  0.00     0.010 A 
ATOM     38  C   UNL A   1      39.547  28.413  28.516  1.00  0.00    -0.014 A 
BRANCH  38  39
ATOM     39  C   UNL A   1      40.890  27.889  28.748  1.00  0.00     0.031 A 
ATOM     40  C   UNL A   1      41.239  26.508  28.336  1.00  0.00     0.074 A 
ATOM     41  C   UNL A   1      41.851  28.676  29.283  1.00  0.00     0.049 A 
ATOM     42  N   UNL A   1      42.228  25.830  28.817  1.00  0.00    -0.248 NA
ATOM     43  C   UNL A   1      40.446  25.761  27.366  1.00  0.00     0.031 C 
ATOM     44  C   UNL A   1      43.288  28.412  29.310  1.00  0.00     0.029 A 
ATOM     45  N   UNL A   1      41.695  29.769  30.135  1.00  0.00    -0.354 N 
ATOM     46  C   UNL A   1      42.377  24.706  28.038  1.00  0.00     0.074 A 
ATOM     47  C   UNL A   1      41.202  24.672  27.196  1.00  0.00     0.031 C 
ATOM     48  C   UNL A   1      43.823  29.078  30.344  1.00  0.00     0.029 A 
ATOM     49  C   UNL A   1      42.723  29.665  31.090  1.00  0.00     0.049 A 
ATOM     50  H   UNL A   1      41.007  30.471  30.080  1.00  0.00     0.167 HD
ATOM     51  C   UNL A   1      43.532  23.982  28.094  1.00  0.00     0.031 A 
ATOM     52  C   UNL A   1      42.499  29.516  32.429  1.00  0.00     0.031 A 
ATOM     53  C   UNL A   1      44.458  24.475  29.111  1.00  0.00     0.049 A 
ATOM     54  C   UNL A   1      43.123  28.263  33.019  1.00  0.00     0.074 A 
ATOM     55  C   UNL A   1      45.640  25.197  29.088  1.00  0.00     0.029 A 
ATOM     56  N   UNL A   1      44.061  24.434  30.437  1.00  0.00    -0.354 N 
ATOM     57  N   UNL A   1      43.791  27.375  32.335  1.00  0.00    -0.248 NA
ATOM     58  C   UNL A   1      42.943  27.859  34.417  1.00  0.00     0.031 C 
ATOM     59  C   UNL A   1      45.948  25.590  30.423  1.00  0.00     0.029 A 
ATOM     60  C   UNL A   1      44.955  25.102  31.251  1.00  0.00     0.049 A 
ATOM     61  H   UNL A   1      43.247  23.987  30.759  1.00  0.00     0.167 HD
ATOM     62  C   UNL A   1      44.074  26.301  33.135  1.00  0.00     0.074 A 
ATOM     63  C   UNL A   1      43.539  26.655  34.435  1.00  0.00     0.031 C 
ATOM     64  C   UNL A   1      44.679  25.171  32.674  1.00  0.00     0.031 A 
BRANCH  51  65
ATOM     65  C   UNL A   1      43.911  22.953  27.051  1.00  0.00    -0.014 A 
ATOM     66  C   UNL A   1      42.999  21.932  26.714  1.00  0.00     0.010 A 
ATOM     67  C   UNL A   1      45.159  22.911  26.402  1.00  0.00     0.010 A 
ATOM     68  C   UNL A   1      43.354  20.866  25.874  1.00  0.00     0.020 A 
ATOM     69  C   UNL A   1      45.543  21.830  25.595  1.00  0.00     0.020 A 
ATOM     70  C   UNL A   1      44.641  20.802  25.347  1.00  0.00     0.054 A 
BRANCH  70  71
ATOM     71  S   UNL A   1      45.123  19.359  24.365  1.00  0.00     0.124 S 
ATOM     72  O   UNL A   1      44.496  19.631  23.073  1.00  0.00    -0.237 OA
ATOM     73  O   UNL A   1      46.580  19.437  24.388  1.00  0.00    -0.237 OA
ATOM     74  O   UNL A   1      44.548  18.233  25.099  1.00  0.00    -0.744 OA
ENDBRANCH  70  71
ENDBRANCH  51  65
BRANCH  52  75
ATOM     75  C   UNL A   1      41.226  30.132  32.901  1.00  0.00    -0.014 A 
ATOM     76  C   UNL A   1      41.315  31.319  33.660  1.00  0.00     0.010 A 
ATOM     77  C   UNL A   1      40.007  29.815  32.277  1.00  0.00     0.010 A 
ATOM     78  C   UNL A   1      40.278  32.255  33.641  1.00  0.00     0.020 A 
ATOM     79  C   UNL A   1      38.960  30.746  32.270  1.00  0.00     0.020 A 
ATOM     80  C   UNL A   1      39.136  31.989  32.886  1.00  0.00     0.054 A 
BRANCH  80  81
ATOM     81  S   UNL A   1      37.969  33.351  32.578  1.00  0.00     0.124 S 
ATOM     82  O   UNL A   1      37.019  33.205  33.674  1.00  0.00    -0.237 OA
ATOM     83  O   UNL A   1      38.838  34.529  32.644  1.00  0.00    -0.237 OA
ATOM     84  O   UNL A   1      37.450  33.051  31.248  1.00  0.00    -0.744 OA
ENDBRANCH  80  81
ENDBRANCH  52  75
BRANCH  64  85
ATOM     85  C   UNL A   1      45.023  24.003  33.549  1.00  0.00    -0.014 A 
ATOM     86  C   UNL A   1      46.297  23.850  34.120  1.00  0.00     0.010 A 
ATOM     87  C   UNL A   1      44.098  22.949  33.716  1.00  0.00     0.010 A 
ATOM     88  C   UNL A   1      46.616  22.713  34.874  1.00  0.00     0.020 A 
ATOM     89  C   UNL A   1      44.413  21.804  34.452  1.00  0.00     0.020 A 
ATOM     90  C   UNL A   1      45.668  21.702  35.044  1.00  0.00     0.054 A 
BRANCH  90  91
ATOM     91  S   UNL A   1      46.109  20.223  35.994  1.00  0.00     0.124 S 
ATOM     92  O   UNL A   1      45.268  19.189  35.393  1.00  0.00    -0.237 OA
ATOM     93  O   UNL A   1      47.538  20.105  35.719  1.00  0.00    -0.237 OA
ATOM     94  O   UNL A   1      45.763  20.577  37.368  1.00  0.00    -0.744 OA
ENDBRANCH  90  91
ENDBRANCH  64  85
ENDBRANCH  38  39
ENDBRANCH  30  33
ENDBRANCH  28  29
ENDBRANCH  27  28
ENDBRANCH  26  27
ENDBRANCH   1  26
TORSDOF 19
ENDMDL
MODEL 3
REMARK VINA RESULT:     -12.9      1.664      2.364
REMARK SMILES Cc1c(N[C@@H]2CC[C@@H]([NH3+])C2)cccc1C(=O)NCCCCCCNC(=O)c1ccc(-c2c3nc(c(-c4ccc(S(=O)(=O)[O-])cc4)c4ccc([nH]4)c(-c4ccc(S(=O)(=O)[O-])cc4)c4nc(c(-c5ccc(S(=O)(=O)[O-])cc5)c5ccc2[nH]5)C=C4)C=C3)cc1
REMARK SMILES IDX 20 1 19 2 18 3 17 4 15 5 16 6 14 8 1 9 2 10 3 11 11 12 13 13
REMARK SMILES IDX 12 14 4 15 5 17 6 18 10 19 7 20 8 21 9 22 21 26 22 27 23 28
REMARK SMILES IDX 24 29 25 30 26 32 27 33 28 34 86 35 29 36 85 37 30 38 31 39
REMARK SMILES IDX 32 40 79 41 33 42 84 43 78 44 80 45 34 46 83 47 77 48 76 49
REMARK SMILES IDX 35 51 65 52 46 53 64 54 47 55 50 56 63 57 81 58 48 59 49 60
REMARK SMILES IDX 62 62 82 63 51 64 36 65 37 66 45 67 38 68 44 69 39 70 40 71
REMARK SMILES IDX 41 72 42 73 43 74 66 75 67 76 75 77 68 78 74 79 69 80 70 81
REMARK SMILES IDX 71 82 72 83 73 84 52 85 53 86 61 87 54 88 60 89 55 90 56 91
REMARK SMILES IDX 57 92 58 93 59 94
REMARK H PARENT 17 7 4 16 9 23 9 24 9 25 24 31 80 50 50 61
REMARK Flexibility Score: inf
ROOT
ATOM      1  C   UNL A   1      31.399  28.635  25.112  1.00  0.00     0.002 C 
ENDROOT
BRANCH   1   2
ATOM      2  C   UNL A   1      31.314  27.470  26.108  1.00  0.00     0.021 C 
BRANCH   2   3
ATOM      3  C   UNL A   1      30.325  26.354  25.737  1.00  0.00     0.116 C 
BRANCH   3   4
ATOM      4  N   UNL A   1      30.508  25.207  26.609  1.00  0.00    -0.352 N 
ATOM      5  C   UNL A   1      31.217  24.038  26.510  1.00  0.00     0.251 C 
ATOM      6  O   UNL A   1      31.156  23.270  27.474  1.00  0.00    -0.269 OA
ATOM      7  H   UNL A   1      30.014  25.286  27.457  1.00  0.00     0.163 HD
BRANCH   5   8
ATOM      8  C   UNL A   1      32.130  23.673  25.379  1.00  0.00     0.044 A 
ATOM      9  C   UNL A   1      33.969  25.375  25.853  1.00  0.00     0.047 C 
ATOM     10  C   UNL A   1      33.418  24.188  25.107  1.00  0.00    -0.015 A 
ATOM     11  C   UNL A   1      34.180  23.684  24.009  1.00  0.00     0.038 A 
ATOM     12  C   UNL A   1      33.521  22.893  23.066  1.00  0.00     0.026 A 
ATOM     13  C   UNL A   1      31.543  22.812  24.435  1.00  0.00     0.014 A 
ATOM     14  C   UNL A   1      32.213  22.460  23.269  1.00  0.00     0.003 A 
BRANCH  11  15
ATOM     15  N   UNL A   1      35.508  24.052  23.884  1.00  0.00    -0.382 N 
ATOM     16  H   UNL A   1      35.648  24.926  23.453  1.00  0.00     0.160 HD
BRANCH  15  17
ATOM     17  C   UNL A   1      36.733  23.377  24.276  1.00  0.00     0.085 C 
ATOM     18  C   UNL A   1      36.955  22.034  23.575  1.00  0.00     0.031 C 
ATOM     19  C   UNL A   1      36.919  23.145  25.773  1.00  0.00     0.089 C 
ATOM     20  C   UNL A   1      37.363  21.060  24.679  1.00  0.00     0.067 C 
ATOM     21  C   UNL A   1      37.843  21.925  25.846  1.00  0.00     0.182 C 
BRANCH  21  22
ATOM     22  N   UNL A   1      39.251  22.286  25.696  1.00  0.00    -0.355 N 
ATOM     23  H   UNL A   1      39.493  23.002  26.381  1.00  0.00     0.344 HD
ATOM     24  H   UNL A   1      39.411  22.648  24.757  1.00  0.00     0.344 HD
ATOM     25  H   UNL A   1      39.832  21.461  25.848  1.00  0.00     0.344 HD
ENDBRANCH  21  22
ENDBRANCH  15  17
ENDBRANCH  11  15
ENDBRANCH   5   8
ENDBRANCH   3   4
ENDBRANCH   2   3
ENDBRANCH   1   2
BRANCH   1  26
ATOM     26  C   UNL A   1      32.542  29.640  25.327  1.00  0.00     0.002 C 
BRANCH  26  27
ATOM     27  C   UNL A   1      33.876  29.058  25.797  1.00  0.00     0.021 C 
BRANCH  27  28
ATOM     28  C   UNL A   1      34.304  29.508  27.189  1.00  0.00     0.116 C 
BRANCH  28  29
ATOM     29  N   UNL A   1      35.098  30.727  27.198  1.00  0.00    -0.352 N 
ATOM     30  C   UNL A   1      36.093  30.915  28.146  1.00  0.00     0.251 C 
ATOM     31  H   UNL A   1      34.927  31.426  26.526  1.00  0.00     0.163 HD
ATOM     32  O   UNL A   1      36.145  31.853  28.933  1.00  0.00    -0.269 OA
BRANCH  30  33
ATOM     33  C   UNL A   1      37.115  29.850  28.171  1.00  0.00     0.039 A 
ATOM     34  C   UNL A   1      37.273  29.077  29.322  1.00  0.00     0.014 A 
ATOM     35  C   UNL A   1      38.053  29.815  27.139  1.00  0.00     0.014 A 
ATOM     36  C   UNL A   1      38.451  28.350  29.496  1.00  0.00     0.010 A 
ATOM     37  C   UNL A   1      39.250  29.158  27.350  1.00  0.00     0.010 A 
ATOM     38  C   UNL A   1      39.467  28.455  28.543  1.00  0.00    -0.014 A 
BRANCH  38  39
ATOM     39  C   UNL A   1      40.813  27.922  28.730  1.00  0.00     0.031 A 
ATOM     40  C   UNL A   1      41.134  26.533  28.324  1.00  0.00     0.074 A 
ATOM     41  C   UNL A   1      41.799  28.707  29.218  1.00  0.00     0.049 A 
ATOM     42  N   UNL A   1      42.135  25.852  28.775  1.00  0.00    -0.248 NA
ATOM     43  C   UNL A   1      40.299  25.780  27.394  1.00  0.00     0.031 C 
ATOM     44  C   UNL A   1      43.234  28.431  29.194  1.00  0.00     0.029 A 
ATOM     45  N   UNL A   1      41.685  29.813  30.061  1.00  0.00    -0.354 N 
ATOM     46  C   UNL A   1      42.245  24.717  28.007  1.00  0.00     0.074 A 
ATOM     47  C   UNL A   1      41.039  24.682  27.210  1.00  0.00     0.031 C 
ATOM     48  C   UNL A   1      43.814  29.105  30.199  1.00  0.00     0.029 A 
ATOM     49  C   UNL A   1      42.747  29.712  30.977  1.00  0.00     0.049 A 
ATOM     50  H   UNL A   1      41.001  30.519  30.023  1.00  0.00     0.167 HD
ATOM     51  C   UNL A   1      43.396  23.984  28.028  1.00  0.00     0.031 A 
ATOM     52  C   UNL A   1      42.573  29.581  32.326  1.00  0.00     0.031 A 
ATOM     53  C   UNL A   1      44.363  24.481  29.003  1.00  0.00     0.049 A 
ATOM     54  C   UNL A   1      43.209  28.331  32.909  1.00  0.00     0.074 A 
ATOM     55  C   UNL A   1      45.550  25.193  28.926  1.00  0.00     0.029 A 
ATOM     56  N   UNL A   1      44.017  24.461  30.344  1.00  0.00    -0.354 N 
ATOM     57  N   UNL A   1      43.843  27.428  32.212  1.00  0.00    -0.248 NA
ATOM     58  C   UNL A   1      43.079  27.947  34.317  1.00  0.00     0.031 C 
ATOM     59  C   UNL A   1      45.911  25.600  30.243  1.00  0.00     0.029 A 
ATOM     60  C   UNL A   1      44.946  25.132  31.114  1.00  0.00     0.049 A 
ATOM     61  H   UNL A   1      43.211  24.025  30.702  1.00  0.00     0.167 HD
ATOM     62  C   UNL A   1      44.148  26.362  33.014  1.00  0.00     0.074 A 
ATOM     63  C   UNL A   1      43.665  26.737  34.329  1.00  0.00     0.031 C 
ATOM     64  C   UNL A   1      44.725  25.221  32.545  1.00  0.00     0.031 A 
BRANCH  51  65
ATOM     65  C   UNL A   1      43.726  22.939  26.985  1.00  0.00    -0.014 A 
ATOM     66  C   UNL A   1      42.845  21.858  26.776  1.00  0.00     0.010 A 
ATOM     67  C   UNL A   1      44.903  22.940  26.214  1.00  0.00     0.010 A 
ATOM     68  C   UNL A   1      43.174  20.781  25.939  1.00  0.00     0.020 A 
ATOM     69  C   UNL A   1      45.266  21.851  25.406  1.00  0.00     0.020 A 
ATOM     70  C   UNL A   1      44.403  20.768  25.285  1.00  0.00     0.054 A 
BRANCH  70  71
ATOM     71  S   UNL A   1      44.866  19.317  24.305  1.00  0.00     0.124 S 
ATOM     72  O   UNL A   1      44.073  18.254  24.919  1.00  0.00    -0.237 OA
ATOM     73  O   UNL A   1      44.464  19.707  22.957  1.00  0.00    -0.237 OA
ATOM     74  O   UNL A   1      46.309  19.203  24.515  1.00  0.00    -0.744 OA
ENDBRANCH  70  71
ENDBRANCH  51  65
BRANCH  52  75
ATOM     75  C   UNL A   1      41.324  30.215  32.838  1.00  0.00    -0.014 A 
ATOM     76  C   UNL A   1      40.278  29.360  33.250  1.00  0.00     0.010 A 
ATOM     77  C   UNL A   1      41.335  31.544  33.294  1.00  0.00     0.010 A 
ATOM     78  C   UNL A   1      39.376  29.765  34.237  1.00  0.00     0.020 A 
ATOM     79  C   UNL A   1      40.420  31.957  34.272  1.00  0.00     0.020 A 
ATOM     80  C   UNL A   1      39.500  31.039  34.790  1.00  0.00     0.054 A 
BRANCH  80  81
ATOM     81  S   UNL A   1      38.567  31.416  36.306  1.00  0.00     0.124 S 
ATOM     82  O   UNL A   1      37.546  32.339  35.825  1.00  0.00    -0.237 OA
ATOM     83  O   UNL A   1      38.087  30.094  36.715  1.00  0.00    -0.237 OA
ATOM     84  O   UNL A   1      39.578  31.995  37.185  1.00  0.00    -0.744 OA
ENDBRANCH  80  81
ENDBRANCH  52  75
BRANCH  64  85
ATOM     85  C   UNL A   1      45.092  24.061  33.422  1.00  0.00    -0.014 A 
ATOM     86  C   UNL A   1      44.211  22.990  33.645  1.00  0.00     0.010 A 
ATOM     87  C   UNL A   1      46.298  24.083  34.155  1.00  0.00     0.010 A 
ATOM     88  C   UNL A   1      44.547  21.954  34.526  1.00  0.00     0.020 A 
ATOM     89  C   UNL A   1      46.634  23.063  35.049  1.00  0.00     0.020 A 
ATOM     90  C   UNL A   1      45.761  21.992  35.215  1.00  0.00     0.054 A 
BRANCH  90  91
ATOM     91  S   UNL A   1      46.165  20.661  36.376  1.00  0.00     0.124 S 
ATOM     92  O   UNL A   1      45.669  21.180  37.649  1.00  0.00    -0.237 OA
ATOM     93  O   UNL A   1      45.412  19.539  35.821  1.00  0.00    -0.237 OA
ATOM     94  O   UNL A   1      47.618  20.546  36.282  1.00  0.00    -0.744 OA
ENDBRANCH  90  91
ENDBRANCH  64  85
ENDBRANCH  38  39
ENDBRANCH  30  33
ENDBRANCH  28  29
ENDBRANCH  27  28
ENDBRANCH  26  27
ENDBRANCH   1  26
TORSDOF 19
ENDMDL
