MODEL 1
REMARK VINA RESULT:     -10.9      0.000      0.000
REMARK SMILES O=C(NCCCCCCNC(=O)c1cc(Cl)cc(Cl)c1NC(=S)NC(=O)c1cccc2ccccc12)c1ccc(-c2c3nc(c(-c4ccc(S(=O)(=O)[O-])cc4)c4ccc([nH]4)c(-c4ccc(S(=O)(=O)[O-])cc4)c4nc(c(-c5ccc(S(=O)(=O)[O-])cc5)c5ccc2[nH]5)C=C4)C=C3)cc1
REMARK SMILES IDX 7 1 6 2 5 3 4 4 3 5 1 6 2 7 37 9 38 10 96 11 39 12 95 13
REMARK SMILES IDX 40 14 41 15 42 16 89 17 43 18 94 19 88 20 90 21 44 22 93 23
REMARK SMILES IDX 87 24 86 25 45 27 75 28 56 29 74 30 57 31 60 32 73 33 91 34
REMARK SMILES IDX 58 35 59 36 72 38 92 39 61 40 46 41 47 42 55 43 48 44 54 45
REMARK SMILES IDX 49 46 50 47 51 48 52 49 53 50 76 51 77 52 85 53 78 54 84 55
REMARK SMILES IDX 79 56 80 57 81 58 82 59 83 60 62 61 63 62 71 63 64 64 70 65
REMARK SMILES IDX 65 66 66 67 67 68 68 69 69 70 8 71 9 72 10 73 11 74 12 76
REMARK SMILES IDX 13 77 14 78 20 79 15 80 18 81 16 82 17 83 19 84 21 85 22 87
REMARK SMILES IDX 23 88 24 89 25 90 26 92 27 93 28 94 36 95 29 96 31 97 35 98
REMARK SMILES IDX 30 99 32 100 34 101 33 102
REMARK H PARENT 3 8 90 26 60 37 10 75 21 86 24 91
REMARK Flexibility Score: inf
ROOT
ATOM      1  C   UNL A   1      35.736  30.357  27.358  1.00  0.00     0.002 C 
ENDROOT
BRANCH   1   2
ATOM      2  C   UNL A   1      35.422  31.477  28.356  1.00  0.00     0.002 C 
BRANCH   2   3
ATOM      3  C   UNL A   1      34.099  32.200  28.101  1.00  0.00     0.021 C 
BRANCH   3   4
ATOM      4  C   UNL A   1      34.248  33.698  27.881  1.00  0.00     0.116 C 
BRANCH   4   5
ATOM      5  N   UNL A   1      33.464  34.465  28.836  1.00  0.00    -0.352 N 
ATOM      6  O   UNL A   1      32.724  35.043  30.887  1.00  0.00    -0.269 OA
ATOM      7  C   UNL A   1      33.595  34.521  30.200  1.00  0.00     0.251 C 
ATOM      8  H   UNL A   1      32.747  35.018  28.453  1.00  0.00     0.163 HD
BRANCH   7   9
ATOM      9  C   UNL A   1      34.792  33.926  30.823  1.00  0.00     0.039 A 
ATOM     10  C   UNL A   1      36.050  34.490  30.591  1.00  0.00     0.014 A 
ATOM     11  C   UNL A   1      34.658  32.793  31.627  1.00  0.00     0.014 A 
ATOM     12  C   UNL A   1      37.187  33.845  31.055  1.00  0.00     0.010 A 
ATOM     13  C   UNL A   1      35.798  32.203  32.175  1.00  0.00     0.010 A 
ATOM     14  C   UNL A   1      37.072  32.715  31.880  1.00  0.00    -0.014 A 
BRANCH  14  15
ATOM     15  C   UNL A   1      38.291  32.151  32.506  1.00  0.00     0.031 A 
ATOM     16  C   UNL A   1      38.707  32.534  33.896  1.00  0.00     0.074 A 
ATOM     17  C   UNL A   1      39.021  31.272  31.790  1.00  0.00     0.049 A 
ATOM     18  N   UNL A   1      39.752  32.137  34.576  1.00  0.00    -0.248 NA
ATOM     19  C   UNL A   1      37.849  33.487  34.617  1.00  0.00     0.031 C 
ATOM     20  C   UNL A   1      38.708  30.829  30.427  1.00  0.00     0.029 A 
ATOM     21  N   UNL A   1      40.163  30.584  32.104  1.00  0.00    -0.354 N 
ATOM     22  C   UNL A   1      39.692  32.802  35.794  1.00  0.00     0.074 A 
ATOM     23  C   UNL A   1      38.519  33.650  35.751  1.00  0.00     0.031 C 
ATOM     24  C   UNL A   1      39.607  29.914  30.042  1.00  0.00     0.029 A 
ATOM     25  C   UNL A   1      40.605  29.765  31.093  1.00  0.00     0.049 A 
ATOM     26  H   UNL A   1      40.624  30.669  32.971  1.00  0.00     0.167 HD
ATOM     27  C   UNL A   1      40.539  32.711  36.848  1.00  0.00     0.031 A 
ATOM     28  C   UNL A   1      41.708  29.001  31.002  1.00  0.00     0.031 A 
ATOM     29  C   UNL A   1      41.711  31.873  36.869  1.00  0.00     0.049 A 
ATOM     30  C   UNL A   1      42.658  28.964  32.162  1.00  0.00     0.074 A 
ATOM     31  C   UNL A   1      42.619  31.689  37.898  1.00  0.00     0.029 A 
ATOM     32  N   UNL A   1      42.148  31.089  35.809  1.00  0.00    -0.354 N 
ATOM     33  N   UNL A   1      42.562  29.571  33.322  1.00  0.00    -0.248 NA
ATOM     34  C   UNL A   1      43.863  28.142  32.004  1.00  0.00     0.031 C 
ATOM     35  C   UNL A   1      43.638  30.848  37.438  1.00  0.00     0.029 A 
ATOM     36  C   UNL A   1      43.328  30.447  36.149  1.00  0.00     0.049 A 
ATOM     37  H   UNL A   1      41.687  31.002  34.943  1.00  0.00     0.167 HD
ATOM     38  C   UNL A   1      43.685  29.184  34.042  1.00  0.00     0.074 A 
ATOM     39  C   UNL A   1      44.432  28.277  33.194  1.00  0.00     0.031 C 
ATOM     40  C   UNL A   1      44.063  29.550  35.291  1.00  0.00     0.031 A 
BRANCH  27  41
ATOM     41  C   UNL A   1      40.251  33.563  38.059  1.00  0.00    -0.014 A 
ATOM     42  C   UNL A   1      40.460  34.954  38.042  1.00  0.00     0.010 A 
ATOM     43  C   UNL A   1      39.708  32.970  39.214  1.00  0.00     0.010 A 
ATOM     44  C   UNL A   1      40.169  35.727  39.169  1.00  0.00     0.020 A 
ATOM     45  C   UNL A   1      39.388  33.745  40.333  1.00  0.00     0.020 A 
ATOM     46  C   UNL A   1      39.636  35.118  40.309  1.00  0.00     0.054 A 
BRANCH  46  47
ATOM     47  S   UNL A   1      39.251  36.153  41.748  1.00  0.00     0.124 S 
ATOM     48  O   UNL A   1      39.252  37.491  41.164  1.00  0.00    -0.237 OA
ATOM     49  O   UNL A   1      37.945  35.649  42.162  1.00  0.00    -0.237 OA
ATOM     50  O   UNL A   1      40.345  35.879  42.677  1.00  0.00    -0.744 OA
ENDBRANCH  46  47
ENDBRANCH  27  41
BRANCH  28  51
ATOM     51  C   UNL A   1      41.975  28.235  29.755  1.00  0.00    -0.014 A 
ATOM     52  C   UNL A   1      41.155  27.156  29.386  1.00  0.00     0.010 A 
ATOM     53  C   UNL A   1      43.041  28.604  28.911  1.00  0.00     0.010 A 
ATOM     54  C   UNL A   1      41.406  26.448  28.206  1.00  0.00     0.020 A 
ATOM     55  C   UNL A   1      43.273  27.924  27.716  1.00  0.00     0.020 A 
ATOM     56  C   UNL A   1      42.462  26.840  27.378  1.00  0.00     0.054 A 
BRANCH  56  57
ATOM     57  S   UNL A   1      42.738  25.935  25.831  1.00  0.00     0.124 S 
ATOM     58  O   UNL A   1      42.412  24.566  26.218  1.00  0.00    -0.237 OA
ATOM     59  O   UNL A   1      41.795  26.578  24.918  1.00  0.00    -0.237 OA
ATOM     60  O   UNL A   1      44.148  26.184  25.536  1.00  0.00    -0.744 OA
ENDBRANCH  56  57
ENDBRANCH  28  51
BRANCH  40  61
ATOM     61  C   UNL A   1      45.327  28.938  35.835  1.00  0.00    -0.014 A 
ATOM     62  C   UNL A   1      45.309  27.708  36.517  1.00  0.00     0.010 A 
ATOM     63  C   UNL A   1      46.559  29.580  35.612  1.00  0.00     0.010 A 
ATOM     64  C   UNL A   1      46.497  27.147  36.992  1.00  0.00     0.020 A 
ATOM     65  C   UNL A   1      47.751  29.006  36.055  1.00  0.00     0.020 A 
ATOM     66  C   UNL A   1      47.712  27.798  36.754  1.00  0.00     0.054 A 
BRANCH  66  67
ATOM     67  S   UNL A   1      49.245  27.021  37.333  1.00  0.00     0.124 S 
ATOM     68  O   UNL A   1      50.249  27.668  36.493  1.00  0.00    -0.237 OA
ATOM     69  O   UNL A   1      49.275  27.388  38.746  1.00  0.00    -0.237 OA
ATOM     70  O   UNL A   1      49.035  25.600  37.068  1.00  0.00    -0.744 OA
ENDBRANCH  66  67
ENDBRANCH  40  61
ENDBRANCH  14  15
ENDBRANCH   7   9
ENDBRANCH   4   5
ENDBRANCH   3   4
ENDBRANCH   2   3
ENDBRANCH   1   2
BRANCH   1  71
ATOM     71  C   UNL A   1      34.823  29.137  27.472  1.00  0.00     0.021 C 
BRANCH  71  72
ATOM     72  C   UNL A   1      34.047  28.846  26.193  1.00  0.00     0.116 C 
BRANCH  72  73
ATOM     73  N   UNL A   1      32.844  29.677  26.108  1.00  0.00    -0.352 N 
ATOM     74  C   UNL A   1      31.777  29.559  25.245  1.00  0.00     0.253 C 
ATOM     75  H   UNL A   1      32.790  30.418  26.755  1.00  0.00     0.163 HD
ATOM     76  O   UNL A   1      30.968  30.457  25.068  1.00  0.00    -0.269 OA
BRANCH  74  77
ATOM     77  C   UNL A   1      31.604  28.273  24.569  1.00  0.00     0.066 A 
ATOM     78  C   UNL A   1      31.800  28.218  23.191  1.00  0.00     0.036 A 
ATOM     79  C   UNL A   1      31.069  27.167  25.186  1.00  0.00     0.072 A 
ATOM     80  C   UNL A   1      31.321  27.090  22.406  1.00  0.00     0.043 A 
ATOM     81  C   UNL A   1      30.005  26.643  24.526  1.00  0.00     0.066 A 
ATOM     82  Cl  UNL A   1      32.446  25.934  20.533  1.00  0.00    -0.084 Cl
ATOM     83  C   UNL A   1      30.068  26.683  23.142  1.00  0.00     0.043 A 
ATOM     84  Cl  UNL A   1      28.776  25.758  25.339  1.00  0.00    -0.082 Cl
BRANCH  79  85
ATOM     85  N   UNL A   1      31.978  26.321  25.863  1.00  0.00    -0.330 N 
ATOM     86  H   UNL A   1      32.297  26.677  26.724  1.00  0.00     0.169 HD
BRANCH  85  87
ATOM     87  C   UNL A   1      32.486  25.108  25.540  1.00  0.00     0.177 C 
ATOM     88  S   UNL A   1      32.403  23.910  26.711  1.00  0.00    -0.040 S 
BRANCH  87  89
ATOM     89  N   UNL A   1      33.117  24.764  24.346  1.00  0.00    -0.299 N 
ATOM     90  C   UNL A   1      34.161  24.054  23.680  1.00  0.00     0.258 C 
ATOM     91  H   UNL A   1      32.608  25.218  23.635  1.00  0.00     0.172 HD
ATOM     92  O   UNL A   1      34.444  24.347  22.520  1.00  0.00    -0.269 OA
BRANCH  90  93
ATOM     93  C   UNL A   1      34.907  22.965  24.330  1.00  0.00     0.048 A 
ATOM     94  C   UNL A   1      36.661  23.240  24.682  1.00  0.00     0.014 A 
ATOM     95  C   UNL A   1      34.141  21.272  24.437  1.00  0.00    -0.006 A 
ATOM     96  C   UNL A   1      37.720  21.849  25.134  1.00  0.00     0.001 A 
ATOM     97  C   UNL A   1      35.269  19.851  24.702  1.00  0.00    -0.018 A 
ATOM     98  C   UNL A   1      32.798  20.902  24.273  1.00  0.00     0.009 A 
ATOM     99  C   UNL A   1      37.035  20.157  25.072  1.00  0.00     0.009 A 
ATOM    100  C   UNL A   1      34.721  18.587  24.574  1.00  0.00     0.009 A 
ATOM    101  C   UNL A   1      32.447  19.539  24.175  1.00  0.00     0.001 A 
ATOM    102  C   UNL A   1      33.358  18.452  24.285  1.00  0.00     0.001 A 
ENDBRANCH  90  93
ENDBRANCH  87  89
ENDBRANCH  85  87
ENDBRANCH  79  85
ENDBRANCH  74  77
ENDBRANCH  72  73
ENDBRANCH  71  72
ENDBRANCH   1  71
TORSDOF 20
ENDMDL
MODEL 2
REMARK VINA RESULT:     -10.6      5.973     13.436
REMARK SMILES O=C(NCCCCCCNC(=O)c1cc(Cl)cc(Cl)c1NC(=S)NC(=O)c1cccc2ccccc12)c1ccc(-c2c3nc(c(-c4ccc(S(=O)(=O)[O-])cc4)c4ccc([nH]4)c(-c4ccc(S(=O)(=O)[O-])cc4)c4nc(c(-c5ccc(S(=O)(=O)[O-])cc5)c5ccc2[nH]5)C=C4)C=C3)cc1
REMARK SMILES IDX 7 1 6 2 5 3 4 4 3 5 1 6 2 7 37 9 38 10 96 11 39 12 95 13
REMARK SMILES IDX 40 14 41 15 42 16 89 17 43 18 94 19 88 20 90 21 44 22 93 23
REMARK SMILES IDX 87 24 86 25 45 27 75 28 56 29 74 30 57 31 60 32 73 33 91 34
REMARK SMILES IDX 58 35 59 36 72 38 92 39 61 40 46 41 47 42 55 43 48 44 54 45
REMARK SMILES IDX 49 46 50 47 51 48 52 49 53 50 76 51 77 52 85 53 78 54 84 55
REMARK SMILES IDX 79 56 80 57 81 58 82 59 83 60 62 61 63 62 71 63 64 64 70 65
REMARK SMILES IDX 65 66 66 67 67 68 68 69 69 70 8 71 9 72 10 73 11 74 12 76
REMARK SMILES IDX 13 77 14 78 20 79 15 80 18 81 16 82 17 83 19 84 21 85 22 87
REMARK SMILES IDX 23 88 24 89 25 90 26 92 27 93 28 94 36 95 29 96 31 97 35 98
REMARK SMILES IDX 30 99 32 100 34 101 33 102
REMARK H PARENT 3 8 90 26 60 37 10 75 21 86 24 91
REMARK Flexibility Score: inf
ROOT
ATOM      1  C   UNL A   1      46.806  21.774  39.090  1.00  0.00     0.002 C 
ENDROOT
BRANCH   1   2
ATOM      2  C   UNL A   1      45.609  22.456  39.760  1.00  0.00     0.002 C 
BRANCH   2   3
ATOM      3  C   UNL A   1      45.762  23.965  39.946  1.00  0.00     0.021 C 
BRANCH   3   4
ATOM      4  C   UNL A   1      46.168  24.705  38.680  1.00  0.00     0.116 C 
BRANCH   4   5
ATOM      5  N   UNL A   1      47.282  25.610  38.916  1.00  0.00    -0.352 N 
ATOM      6  O   UNL A   1      48.608  27.385  38.493  1.00  0.00    -0.269 OA
ATOM      7  C   UNL A   1      47.519  26.839  38.356  1.00  0.00     0.251 C 
ATOM      8  H   UNL A   1      47.954  25.299  39.564  1.00  0.00     0.163 HD
BRANCH   7   9
ATOM      9  C   UNL A   1      46.444  27.482  37.576  1.00  0.00     0.039 A 
ATOM     10  C   UNL A   1      45.117  27.081  37.757  1.00  0.00     0.014 A 
ATOM     11  C   UNL A   1      46.767  28.476  36.651  1.00  0.00     0.014 A 
ATOM     12  C   UNL A   1      44.130  27.579  36.920  1.00  0.00     0.010 A 
ATOM     13  C   UNL A   1      45.755  29.048  35.879  1.00  0.00     0.010 A 
ATOM     14  C   UNL A   1      44.432  28.593  35.997  1.00  0.00    -0.014 A 
BRANCH  14  15
ATOM     15  C   UNL A   1      43.328  29.232  35.240  1.00  0.00     0.031 A 
ATOM     16  C   UNL A   1      42.508  30.338  35.837  1.00  0.00     0.074 A 
ATOM     17  C   UNL A   1      43.082  28.794  33.989  1.00  0.00     0.049 A 
ATOM     18  N   UNL A   1      41.504  30.988  35.307  1.00  0.00    -0.248 NA
ATOM     19  C   UNL A   1      42.850  30.769  37.201  1.00  0.00     0.031 C 
ATOM     20  C   UNL A   1      43.819  27.722  33.311  1.00  0.00     0.029 A 
ATOM     21  N   UNL A   1      42.160  29.196  33.061  1.00  0.00    -0.354 N 
ATOM     22  C   UNL A   1      41.079  31.890  36.275  1.00  0.00     0.074 A 
ATOM     23  C   UNL A   1      41.920  31.686  37.436  1.00  0.00     0.031 C 
ATOM     24  C   UNL A   1      43.351  27.584  32.064  1.00  0.00     0.029 A 
ATOM     25  C   UNL A   1      42.230  28.496  31.880  1.00  0.00     0.049 A 
ATOM     26  H   UNL A   1      41.508  29.917  33.223  1.00  0.00     0.167 HD
ATOM     27  C   UNL A   1      40.080  32.802  36.197  1.00  0.00     0.031 A 
ATOM     28  C   UNL A   1      41.459  28.554  30.778  1.00  0.00     0.031 A 
ATOM     29  C   UNL A   1      39.242  32.982  35.038  1.00  0.00     0.049 A 
ATOM     30  C   UNL A   1      40.324  29.534  30.743  1.00  0.00     0.074 A 
ATOM     31  C   UNL A   1      38.220  33.897  34.849  1.00  0.00     0.029 A 
ATOM     32  N   UNL A   1      39.317  32.225  33.876  1.00  0.00    -0.354 N 
ATOM     33  N   UNL A   1      39.964  30.406  31.655  1.00  0.00    -0.248 NA
ATOM     34  C   UNL A   1      39.493  29.538  29.535  1.00  0.00     0.031 C 
ATOM     35  C   UNL A   1      37.636  33.649  33.603  1.00  0.00     0.029 A 
ATOM     36  C   UNL A   1      38.339  32.631  32.982  1.00  0.00     0.049 A 
ATOM     37  H   UNL A   1      39.970  31.506  33.712  1.00  0.00     0.167 HD
ATOM     38  C   UNL A   1      38.874  31.081  31.118  1.00  0.00     0.074 A 
ATOM     39  C   UNL A   1      38.651  30.529  29.797  1.00  0.00     0.031 C 
ATOM     40  C   UNL A   1      38.126  32.067  31.671  1.00  0.00     0.031 A 
BRANCH  27  41
ATOM     41  C   UNL A   1      39.811  33.658  37.410  1.00  0.00    -0.014 A 
ATOM     42  C   UNL A   1      40.482  34.877  37.609  1.00  0.00     0.010 A 
ATOM     43  C   UNL A   1      38.829  33.262  38.337  1.00  0.00     0.010 A 
ATOM     44  C   UNL A   1      40.205  35.664  38.731  1.00  0.00     0.020 A 
ATOM     45  C   UNL A   1      38.527  34.060  39.445  1.00  0.00     0.020 A 
ATOM     46  C   UNL A   1      39.230  35.250  39.643  1.00  0.00     0.054 A 
BRANCH  46  47
ATOM     47  S   UNL A   1      38.880  36.303  41.078  1.00  0.00     0.124 S 
ATOM     48  O   UNL A   1      37.767  35.595  41.705  1.00  0.00    -0.237 OA
ATOM     49  O   UNL A   1      40.141  36.268  41.813  1.00  0.00    -0.237 OA
ATOM     50  O   UNL A   1      38.541  37.595  40.488  1.00  0.00    -0.744 OA
ENDBRANCH  46  47
ENDBRANCH  27  41
BRANCH  28  51
ATOM     51  C   UNL A   1      41.730  27.637  29.639  1.00  0.00    -0.014 A 
ATOM     52  C   UNL A   1      40.955  26.483  29.446  1.00  0.00     0.010 A 
ATOM     53  C   UNL A   1      42.755  27.935  28.720  1.00  0.00     0.010 A 
ATOM     54  C   UNL A   1      41.210  25.632  28.366  1.00  0.00     0.020 A 
ATOM     55  C   UNL A   1      42.991  27.107  27.621  1.00  0.00     0.020 A 
ATOM     56  C   UNL A   1      42.224  25.953  27.459  1.00  0.00     0.054 A 
BRANCH  56  57
ATOM     57  S   UNL A   1      42.504  24.857  26.041  1.00  0.00     0.124 S 
ATOM     58  O   UNL A   1      42.185  25.730  24.916  1.00  0.00    -0.237 OA
ATOM     59  O   UNL A   1      43.914  24.504  26.190  1.00  0.00    -0.237 OA
ATOM     60  O   UNL A   1      41.567  23.759  26.268  1.00  0.00    -0.744 OA
ENDBRANCH  56  57
ENDBRANCH  28  51
BRANCH  40  61
ATOM     61  C   UNL A   1      37.016  32.642  30.833  1.00  0.00    -0.014 A 
ATOM     62  C   UNL A   1      37.260  33.661  29.895  1.00  0.00     0.010 A 
ATOM     63  C   UNL A   1      35.717  32.114  30.949  1.00  0.00     0.010 A 
ATOM     64  C   UNL A   1      36.218  34.163  29.110  1.00  0.00     0.020 A 
ATOM     65  C   UNL A   1      34.681  32.589  30.144  1.00  0.00     0.020 A 
ATOM     66  C   UNL A   1      34.935  33.620  29.238  1.00  0.00     0.054 A 
BRANCH  66  67
ATOM     67  S   UNL A   1      33.613  34.251  28.168  1.00  0.00     0.124 S 
ATOM     68  O   UNL A   1      34.360  35.053  27.203  1.00  0.00    -0.237 OA
ATOM     69  O   UNL A   1      33.018  33.026  27.641  1.00  0.00    -0.237 OA
ATOM     70  O   UNL A   1      32.761  35.009  29.080  1.00  0.00    -0.744 OA
ENDBRANCH  66  67
ENDBRANCH  40  61
ENDBRANCH  14  15
ENDBRANCH   7   9
ENDBRANCH   4   5
ENDBRANCH   3   4
ENDBRANCH   2   3
ENDBRANCH   1   2
BRANCH   1  71
ATOM     71  C   UNL A   1      46.517  21.221  37.694  1.00  0.00     0.021 C 
BRANCH  71  72
ATOM     72  C   UNL A   1      47.354  19.995  37.349  1.00  0.00     0.116 C 
BRANCH  72  73
ATOM     73  N   UNL A   1      47.160  19.604  35.951  1.00  0.00    -0.352 N 
ATOM     74  C   UNL A   1      47.823  20.057  34.833  1.00  0.00     0.253 C 
ATOM     75  H   UNL A   1      46.464  18.926  35.790  1.00  0.00     0.163 HD
ATOM     76  O   UNL A   1      47.401  19.881  33.698  1.00  0.00    -0.269 OA
BRANCH  74  77
ATOM     77  C   UNL A   1      49.107  20.725  35.041  1.00  0.00     0.066 A 
ATOM     78  C   UNL A   1      50.213  19.946  35.373  1.00  0.00     0.036 A 
ATOM     79  C   UNL A   1      49.238  22.091  35.119  1.00  0.00     0.072 A 
ATOM     80  C   UNL A   1      51.419  20.544  35.925  1.00  0.00     0.043 A 
ATOM     81  C   UNL A   1      49.852  22.511  36.254  1.00  0.00     0.066 A 
ATOM     82  Cl  UNL A   1      53.776  19.997  35.422  1.00  0.00    -0.084 Cl
ATOM     83  C   UNL A   1      50.875  21.703  36.726  1.00  0.00     0.043 A 
ATOM     84  Cl  UNL A   1      49.558  24.065  36.926  1.00  0.00    -0.082 Cl
BRANCH  79  85
ATOM     85  N   UNL A   1      49.447  22.776  33.898  1.00  0.00    -0.330 N 
ATOM     86  H   UNL A   1      49.082  22.315  33.108  1.00  0.00     0.169 HD
BRANCH  85  87
ATOM     87  C   UNL A   1      50.060  23.952  33.623  1.00  0.00     0.177 C 
ATOM     88  S   UNL A   1      51.678  23.883  33.183  1.00  0.00    -0.040 S 
BRANCH  87  89
ATOM     89  N   UNL A   1      49.496  25.223  33.712  1.00  0.00    -0.299 N 
ATOM     90  C   UNL A   1      48.338  26.053  33.615  1.00  0.00     0.258 C 
ATOM     91  H   UNL A   1      50.236  25.826  33.955  1.00  0.00     0.172 HD
ATOM     92  O   UNL A   1      48.476  27.270  33.520  1.00  0.00    -0.269 OA
BRANCH  90  93
ATOM     93  C   UNL A   1      46.975  25.500  33.640  1.00  0.00     0.048 A 
ATOM     94  C   UNL A   1      46.399  24.751  35.183  1.00  0.00     0.014 A 
ATOM     95  C   UNL A   1      46.053  25.273  32.039  1.00  0.00    -0.006 A 
ATOM     96  C   UNL A   1      44.903  23.739  35.194  1.00  0.00     0.001 A 
ATOM     97  C   UNL A   1      44.656  24.086  32.030  1.00  0.00    -0.018 A 
ATOM     98  C   UNL A   1      46.317  25.840  30.783  1.00  0.00     0.009 A 
ATOM     99  C   UNL A   1      44.083  23.355  33.608  1.00  0.00     0.009 A 
ATOM    100  C   UNL A   1      44.112  23.770  30.797  1.00  0.00     0.009 A 
ATOM    101  C   UNL A   1      45.635  25.375  29.640  1.00  0.00     0.001 A 
ATOM    102  C   UNL A   1      44.620  24.378  29.644  1.00  0.00     0.001 A 
ENDBRANCH  90  93
ENDBRANCH  87  89
ENDBRANCH  85  87
ENDBRANCH  79  85
ENDBRANCH  74  77
ENDBRANCH  72  73
ENDBRANCH  71  72
ENDBRANCH   1  71
TORSDOF 20
ENDMDL
MODEL 3
REMARK VINA RESULT:     -10.6      5.405     10.226
REMARK SMILES O=C(NCCCCCCNC(=O)c1cc(Cl)cc(Cl)c1NC(=S)NC(=O)c1cccc2ccccc12)c1ccc(-c2c3nc(c(-c4ccc(S(=O)(=O)[O-])cc4)c4ccc([nH]4)c(-c4ccc(S(=O)(=O)[O-])cc4)c4nc(c(-c5ccc(S(=O)(=O)[O-])cc5)c5ccc2[nH]5)C=C4)C=C3)cc1
REMARK SMILES IDX 7 1 6 2 5 3 4 4 3 5 1 6 2 7 37 9 38 10 96 11 39 12 95 13
REMARK SMILES IDX 40 14 41 15 42 16 89 17 43 18 94 19 88 20 90 21 44 22 93 23
REMARK SMILES IDX 87 24 86 25 45 27 75 28 56 29 74 30 57 31 60 32 73 33 91 34
REMARK SMILES IDX 58 35 59 36 72 38 92 39 61 40 46 41 47 42 55 43 48 44 54 45
REMARK SMILES IDX 49 46 50 47 51 48 52 49 53 50 76 51 77 52 85 53 78 54 84 55
REMARK SMILES IDX 79 56 80 57 81 58 82 59 83 60 62 61 63 62 71 63 64 64 70 65
REMARK SMILES IDX 65 66 66 67 67 68 68 69 69 70 8 71 9 72 10 73 11 74 12 76
REMARK SMILES IDX 13 77 14 78 20 79 15 80 18 81 16 82 17 83 19 84 21 85 22 87
REMARK SMILES IDX 23 88 24 89 25 90 26 92 27 93 28 94 36 95 29 96 31 97 35 98
REMARK SMILES IDX 30 99 32 100 34 101 33 102
REMARK H PARENT 3 8 90 26 60 37 10 75 21 86 24 91
REMARK Flexibility Score: inf
ROOT
ATOM      1  C   UNL A   1      36.588  30.959  27.995  1.00  0.00     0.002 C 
ENDROOT
BRANCH   1   2
ATOM      2  C   UNL A   1      37.107  31.876  29.107  1.00  0.00     0.002 C 
BRANCH   2   3
ATOM      3  C   UNL A   1      36.301  31.816  30.405  1.00  0.00     0.021 C 
BRANCH   3   4
ATOM      4  C   UNL A   1      37.153  31.891  31.664  1.00  0.00     0.116 C 
BRANCH   4   5
ATOM      5  N   UNL A   1      36.874  30.790  32.572  1.00  0.00    -0.352 N 
ATOM      6  O   UNL A   1      36.990  28.663  33.313  1.00  0.00    -0.269 OA
ATOM      7  C   UNL A   1      37.480  29.561  32.639  1.00  0.00     0.251 C 
ATOM      8  H   UNL A   1      36.155  30.948  33.225  1.00  0.00     0.163 HD
BRANCH   7   9
ATOM      9  C   UNL A   1      38.721  29.340  31.872  1.00  0.00     0.039 A 
ATOM     10  C   UNL A   1      39.962  29.548  32.481  1.00  0.00     0.014 A 
ATOM     11  C   UNL A   1      38.641  28.940  30.538  1.00  0.00     0.014 A 
ATOM     12  C   UNL A   1      41.119  29.484  31.719  1.00  0.00     0.010 A 
ATOM     13  C   UNL A   1      39.815  28.778  29.800  1.00  0.00     0.010 A 
ATOM     14  C   UNL A   1      41.061  29.064  30.381  1.00  0.00    -0.014 A 
BRANCH  14  15
ATOM     15  C   UNL A   1      42.325  28.834  29.641  1.00  0.00     0.031 A 
ATOM     16  C   UNL A   1      42.608  27.525  28.963  1.00  0.00     0.074 A 
ATOM     17  C   UNL A   1      43.220  29.840  29.588  1.00  0.00     0.049 A 
ATOM     18  N   UNL A   1      43.670  27.166  28.289  1.00  0.00    -0.248 NA
ATOM     19  C   UNL A   1      41.574  26.482  29.054  1.00  0.00     0.031 C 
ATOM     20  C   UNL A   1      43.048  31.156  30.214  1.00  0.00     0.029 A 
ATOM     21  N   UNL A   1      44.442  29.926  28.977  1.00  0.00    -0.354 N 
ATOM     22  C   UNL A   1      43.445  25.854  27.891  1.00  0.00     0.074 A 
ATOM     23  C   UNL A   1      42.154  25.470  28.422  1.00  0.00     0.031 C 
ATOM     24  C   UNL A   1      44.100  31.929  29.917  1.00  0.00     0.029 A 
ATOM     25  C   UNL A   1      45.058  31.142  29.151  1.00  0.00     0.049 A 
ATOM     26  H   UNL A   1      44.842  29.188  28.461  1.00  0.00     0.167 HD
ATOM     27  C   UNL A   1      44.246  25.048  27.152  1.00  0.00     0.031 A 
ATOM     28  C   UNL A   1      46.274  31.574  28.768  1.00  0.00     0.031 A 
ATOM     29  C   UNL A   1      45.535  25.441  26.644  1.00  0.00     0.049 A 
ATOM     30  C   UNL A   1      47.161  30.639  28.000  1.00  0.00     0.074 A 
ATOM     31  C   UNL A   1      46.411  24.707  25.862  1.00  0.00     0.029 A 
ATOM     32  N   UNL A   1      46.143  26.667  26.877  1.00  0.00    -0.354 N 
ATOM     33  N   UNL A   1      46.914  29.414  27.600  1.00  0.00    -0.248 NA
ATOM     34  C   UNL A   1      48.489  31.143  27.631  1.00  0.00     0.031 C 
ATOM     35  C   UNL A   1      47.574  25.464  25.678  1.00  0.00     0.029 A 
ATOM     36  C   UNL A   1      47.394  26.698  26.282  1.00  0.00     0.049 A 
ATOM     37  H   UNL A   1      45.743  27.407  27.389  1.00  0.00     0.167 HD
ATOM     38  C   UNL A   1      48.049  29.008  26.911  1.00  0.00     0.074 A 
ATOM     39  C   UNL A   1      48.972  30.125  26.933  1.00  0.00     0.031 C 
ATOM     40  C   UNL A   1      48.304  27.816  26.316  1.00  0.00     0.031 A 
BRANCH  27  41
ATOM     41  C   UNL A   1      43.767  23.645  26.873  1.00  0.00    -0.014 A 
ATOM     42  C   UNL A   1      43.665  22.688  27.899  1.00  0.00     0.010 A 
ATOM     43  C   UNL A   1      43.357  23.296  25.572  1.00  0.00     0.010 A 
ATOM     44  C   UNL A   1      43.201  21.399  27.621  1.00  0.00     0.020 A 
ATOM     45  C   UNL A   1      42.865  22.016  25.296  1.00  0.00     0.020 A 
ATOM     46  C   UNL A   1      42.805  21.070  26.321  1.00  0.00     0.054 A 
BRANCH  46  47
ATOM     47  S   UNL A   1      42.190  19.394  25.998  1.00  0.00     0.124 S 
ATOM     48  O   UNL A   1      42.927  19.032  24.790  1.00  0.00    -0.237 OA
ATOM     49  O   UNL A   1      42.576  18.675  27.208  1.00  0.00    -0.237 OA
ATOM     50  O   UNL A   1      40.752  19.580  25.817  1.00  0.00    -0.744 OA
ENDBRANCH  46  47
ENDBRANCH  27  41
BRANCH  28  51
ATOM     51  C   UNL A   1      46.719  32.945  29.131  1.00  0.00    -0.014 A 
ATOM     52  C   UNL A   1      46.348  34.052  28.350  1.00  0.00     0.010 A 
ATOM     53  C   UNL A   1      47.496  33.154  30.287  1.00  0.00     0.010 A 
ATOM     54  C   UNL A   1      46.763  35.339  28.705  1.00  0.00     0.020 A 
ATOM     55  C   UNL A   1      47.882  34.441  30.666  1.00  0.00     0.020 A 
ATOM     56  C   UNL A   1      47.524  35.524  29.863  1.00  0.00     0.054 A 
BRANCH  56  57
ATOM     57  S   UNL A   1      48.008  37.209  30.327  1.00  0.00     0.124 S 
ATOM     58  O   UNL A   1      47.213  38.017  29.409  1.00  0.00    -0.237 OA
ATOM     59  O   UNL A   1      47.614  37.274  31.733  1.00  0.00    -0.237 OA
ATOM     60  O   UNL A   1      49.451  37.227  30.091  1.00  0.00    -0.744 OA
ENDBRANCH  56  57
ENDBRANCH  28  51
BRANCH  40  61
ATOM     61  C   UNL A   1      49.623  27.670  25.605  1.00  0.00    -0.014 A 
ATOM     62  C   UNL A   1      50.833  27.591  26.317  1.00  0.00     0.010 A 
ATOM     63  C   UNL A   1      49.645  27.558  24.203  1.00  0.00     0.010 A 
ATOM     64  C   UNL A   1      52.043  27.431  25.638  1.00  0.00     0.020 A 
ATOM     65  C   UNL A   1      50.848  27.364  23.522  1.00  0.00     0.020 A 
ATOM     66  C   UNL A   1      52.042  27.315  24.244  1.00  0.00     0.054 A 
BRANCH  66  67
ATOM     67  S   UNL A   1      53.621  27.053  23.390  1.00  0.00     0.124 S 
ATOM     68  O   UNL A   1      54.588  27.391  24.431  1.00  0.00    -0.237 OA
ATOM     69  O   UNL A   1      53.556  25.640  23.027  1.00  0.00    -0.237 OA
ATOM     70  O   UNL A   1      53.566  27.983  22.266  1.00  0.00    -0.744 OA
ENDBRANCH  66  67
ENDBRANCH  40  61
ENDBRANCH  14  15
ENDBRANCH   7   9
ENDBRANCH   4   5
ENDBRANCH   3   4
ENDBRANCH   2   3
ENDBRANCH   1   2
BRANCH   1  71
ATOM     71  C   UNL A   1      36.019  29.629  28.488  1.00  0.00     0.021 C 
BRANCH  71  72
ATOM     72  C   UNL A   1      34.915  29.080  27.593  1.00  0.00     0.116 C 
BRANCH  72  73
ATOM     73  N   UNL A   1      33.830  30.052  27.442  1.00  0.00    -0.352 N 
ATOM     74  C   UNL A   1      32.708  29.971  26.648  1.00  0.00     0.253 C 
ATOM     75  H   UNL A   1      33.914  30.874  27.979  1.00  0.00     0.163 HD
ATOM     76  O   UNL A   1      32.016  30.942  26.379  1.00  0.00    -0.269 OA
BRANCH  74  77
ATOM     77  C   UNL A   1      32.324  28.644  26.166  1.00  0.00     0.066 A 
ATOM     78  C   UNL A   1      31.256  27.997  26.785  1.00  0.00     0.036 A 
ATOM     79  C   UNL A   1      33.082  27.922  25.274  1.00  0.00     0.072 A 
ATOM     80  C   UNL A   1      31.035  26.570  26.609  1.00  0.00     0.043 A 
ATOM     81  C   UNL A   1      33.407  26.682  25.721  1.00  0.00     0.066 A 
ATOM     82  Cl  UNL A   1      28.894  25.374  26.297  1.00  0.00    -0.084 Cl
ATOM     83  C   UNL A   1      32.439  26.032  26.469  1.00  0.00     0.043 A 
ATOM     84  Cl  UNL A   1      34.821  25.865  25.186  1.00  0.00    -0.082 Cl
BRANCH  79  85
ATOM     85  N   UNL A   1      32.818  28.140  23.901  1.00  0.00    -0.330 N 
ATOM     86  H   UNL A   1      33.320  28.890  23.507  1.00  0.00     0.169 HD
BRANCH  85  87
ATOM     87  C   UNL A   1      31.998  27.502  23.032  1.00  0.00     0.177 C 
ATOM     88  S   UNL A   1      30.360  27.854  23.132  1.00  0.00    -0.040 S 
BRANCH  87  89
ATOM     89  N   UNL A   1      32.369  26.545  22.091  1.00  0.00    -0.299 N 
ATOM     90  C   UNL A   1      32.810  25.215  21.813  1.00  0.00     0.258 C 
ATOM     91  H   UNL A   1      32.291  26.987  21.215  1.00  0.00     0.172 HD
ATOM     92  O   UNL A   1      33.291  24.958  20.712  1.00  0.00    -0.269 OA
BRANCH  90  93
ATOM     93  C   UNL A   1      32.694  24.129  22.799  1.00  0.00     0.048 A 
ATOM     94  C   UNL A   1      31.107  23.928  23.646  1.00  0.00     0.014 A 
ATOM     95  C   UNL A   1      34.233  23.262  23.386  1.00  0.00    -0.006 A 
ATOM     96  C   UNL A   1      30.991  22.876  25.109  1.00  0.00     0.001 A 
ATOM     97  C   UNL A   1      34.139  22.362  24.981  1.00  0.00    -0.018 A 
ATOM     98  C   UNL A   1      35.511  23.249  22.808  1.00  0.00     0.009 A 
ATOM     99  C   UNL A   1      32.518  22.159  25.808  1.00  0.00     0.009 A 
ATOM    100  C   UNL A   1      35.331  21.898  25.508  1.00  0.00     0.009 A 
ATOM    101  C   UNL A   1      36.604  22.712  23.519  1.00  0.00     0.001 A 
ATOM    102  C   UNL A   1      36.523  22.105  24.803  1.00  0.00     0.001 A 
ENDBRANCH  90  93
ENDBRANCH  87  89
ENDBRANCH  85  87
ENDBRANCH  79  85
ENDBRANCH  74  77
ENDBRANCH  72  73
ENDBRANCH  71  72
ENDBRANCH   1  71
TORSDOF 20
ENDMDL
