MODEL 1
REMARK VINA RESULT:      -9.2      0.000      0.000
REMARK SMILES CCCCCN(C(=O)N1CCC(CC(=O)NCCCCCCNC(=O)c2ccc(-c3c4nc(c(-c5ccc(S(=O)(=O)[O-])cc5)c5ccc([nH]5)c(-c5ccc(S(=O)(=O)[O-])cc5)c5nc(c(-c6ccc(S(=O)(=O)[O-])cc6)c6ccc3[nH]6)C=C5)C=C4)cc2)CC1)C(C)C
REMARK SMILES IDX 18 1 17 2 16 3 14 4 15 5 13 7 12 8 7 9 8 10 9 11 10 12 87 13
REMARK SMILES IDX 11 14 86 15 6 16 5 17 4 18 3 19 2 20 1 21 88 22 89 23 90 24
REMARK SMILES IDX 19 25 20 26 21 27 22 28 23 29 24 30 25 32 26 33 27 34 85 35
REMARK SMILES IDX 28 36 84 37 29 38 30 39 31 40 78 41 32 42 83 43 77 44 79 45
REMARK SMILES IDX 33 46 82 47 76 48 75 49 34 51 64 52 45 53 63 54 46 55 49 56
REMARK SMILES IDX 62 57 80 58 47 59 48 60 61 62 81 63 50 64 35 65 36 66 44 67
REMARK SMILES IDX 37 68 43 69 38 70 39 71 40 72 41 73 42 74 65 75 66 76 74 77
REMARK SMILES IDX 67 78 73 79 68 80 69 81 70 82 71 83 72 84 51 85 52 86 60 87
REMARK SMILES IDX 53 88 59 89 54 90 55 91 56 92 57 93 58 94
REMARK H PARENT 16 6 23 31 79 50 49 61
REMARK Flexibility Score: inf
ROOT
ATOM      1  C   UNL A   1      31.413  31.340  26.108  1.00  0.00     0.021 C 
ENDROOT
BRANCH   1   2
ATOM      2  C   UNL A   1      31.442  29.974  25.414  1.00  0.00     0.116 C 
BRANCH   2   3
ATOM      3  N   UNL A   1      30.937  30.078  24.054  1.00  0.00    -0.356 N 
ATOM      4  C   UNL A   1      30.447  29.115  23.222  1.00  0.00     0.220 C 
ATOM      5  O   UNL A   1      30.183  29.423  22.058  1.00  0.00    -0.275 OA
ATOM      6  H   UNL A   1      30.949  30.986  23.673  1.00  0.00     0.163 HD
BRANCH   4   7
ATOM      7  C   UNL A   1      30.220  27.697  23.722  1.00  0.00     0.103 C 
BRANCH   7   8
ATOM      8  C   UNL A   1      31.494  26.990  24.225  1.00  0.00     0.002 C 
ATOM      9  C   UNL A   1      32.308  23.354  25.740  1.00  0.00     0.320 C 
ATOM     10  O   UNL A   1      31.330  23.279  26.485  1.00  0.00    -0.248 OA
ATOM     11  N   UNL A   1      32.763  24.587  25.305  1.00  0.00    -0.325 N 
ATOM     12  C   UNL A   1      32.553  25.733  26.167  1.00  0.00     0.121 C 
ATOM     13  C   UNL A   1      32.945  24.904  23.891  1.00  0.00     0.121 C 
ATOM     14  C   UNL A   1      31.375  26.567  25.692  1.00  0.00     0.026 C 
ATOM     15  C   UNL A   1      31.792  25.758  23.350  1.00  0.00     0.026 C 
BRANCH   9  16
ATOM     16  N   UNL A   1      33.017  22.227  25.319  1.00  0.00    -0.322 N 
BRANCH  16  17
ATOM     17  C   UNL A   1      32.480  21.279  24.323  1.00  0.00     0.121 C 
BRANCH  17  18
ATOM     18  C   UNL A   1      32.230  19.844  24.824  1.00  0.00     0.022 C 
BRANCH  18  19
ATOM     19  C   UNL A   1      32.588  18.674  23.895  1.00  0.00     0.002 C 
BRANCH  19  20
ATOM     20  C   UNL A   1      33.720  17.750  24.346  1.00  0.00    -0.003 C 
ATOM     21  C   UNL A   1      34.254  16.867  23.231  1.00  0.00     0.004 C 
ENDBRANCH  19  20
ENDBRANCH  18  19
ENDBRANCH  17  18
ENDBRANCH  16  17
BRANCH  16  22
ATOM     22  C   UNL A   1      34.439  22.155  25.726  1.00  0.00     0.080 C 
ATOM     23  C   UNL A   1      34.616  21.755  27.192  1.00  0.00     0.031 C 
ATOM     24  C   UNL A   1      35.303  21.291  24.811  1.00  0.00     0.031 C 
ENDBRANCH  16  22
ENDBRANCH   9  16
ENDBRANCH   7   8
ENDBRANCH   4   7
ENDBRANCH   2   3
ENDBRANCH   1   2
BRANCH   1  25
ATOM     25  C   UNL A   1      32.370  31.474  27.290  1.00  0.00     0.002 C 
BRANCH  25  26
ATOM     26  C   UNL A   1      33.133  32.798  27.356  1.00  0.00     0.002 C 
BRANCH  26  27
ATOM     27  C   UNL A   1      33.531  33.263  28.761  1.00  0.00     0.021 C 
BRANCH  27  28
ATOM     28  C   UNL A   1      33.672  34.773  28.937  1.00  0.00     0.116 C 
BRANCH  28  29
ATOM     29  N   UNL A   1      32.862  35.269  30.036  1.00  0.00    -0.352 N 
ATOM     30  C   UNL A   1      32.981  35.049  31.384  1.00  0.00     0.251 C 
ATOM     31  H   UNL A   1      32.114  35.852  29.773  1.00  0.00     0.163 HD
ATOM     32  O   UNL A   1      32.061  35.369  32.131  1.00  0.00    -0.269 OA
BRANCH  30  33
ATOM     33  C   UNL A   1      34.205  34.431  31.942  1.00  0.00     0.039 A 
ATOM     34  C   UNL A   1      35.413  35.128  31.848  1.00  0.00     0.014 A 
ATOM     35  C   UNL A   1      34.182  33.143  32.489  1.00  0.00     0.014 A 
ATOM     36  C   UNL A   1      36.591  34.544  32.316  1.00  0.00     0.010 A 
ATOM     37  C   UNL A   1      35.347  32.590  33.018  1.00  0.00     0.010 A 
ATOM     38  C   UNL A   1      36.568  33.271  32.910  1.00  0.00    -0.014 A 
BRANCH  38  39
ATOM     39  C   UNL A   1      37.823  32.619  33.361  1.00  0.00     0.031 A 
ATOM     40  C   UNL A   1      38.432  32.999  34.686  1.00  0.00     0.074 A 
ATOM     41  C   UNL A   1      38.427  31.706  32.576  1.00  0.00     0.049 A 
ATOM     42  N   UNL A   1      39.524  32.551  35.252  1.00  0.00    -0.248 NA
ATOM     43  C   UNL A   1      37.734  34.034  35.468  1.00  0.00     0.031 C 
ATOM     44  C   UNL A   1      37.957  31.278  31.256  1.00  0.00     0.029 A 
ATOM     45  N   UNL A   1      39.567  30.970  32.776  1.00  0.00    -0.354 N 
ATOM     46  C   UNL A   1      39.651  33.259  36.443  1.00  0.00     0.074 A 
ATOM     47  C   UNL A   1      38.555  34.202  36.493  1.00  0.00     0.031 C 
ATOM     48  C   UNL A   1      38.785  30.335  30.780  1.00  0.00     0.029 A 
ATOM     49  C   UNL A   1      39.857  30.110  31.743  1.00  0.00     0.049 A 
ATOM     50  H   UNL A   1      40.126  31.050  33.583  1.00  0.00     0.167 HD
ATOM     51  C   UNL A   1      40.580  33.122  37.419  1.00  0.00     0.031 A 
ATOM     52  C   UNL A   1      40.870  29.233  31.593  1.00  0.00     0.031 A 
ATOM     53  C   UNL A   1      41.659  32.173  37.375  1.00  0.00     0.049 A 
ATOM     54  C   UNL A   1      41.881  29.087  32.698  1.00  0.00     0.074 A 
ATOM     55  C   UNL A   1      42.632  31.926  38.328  1.00  0.00     0.029 A 
ATOM     56  N   UNL A   1      41.903  31.304  36.321  1.00  0.00    -0.354 N 
ATOM     57  N   UNL A   1      41.956  29.730  33.839  1.00  0.00    -0.248 NA
ATOM     58  C   UNL A   1      42.930  28.076  32.505  1.00  0.00     0.031 C 
ATOM     59  C   UNL A   1      43.486  30.934  37.835  1.00  0.00     0.029 A 
ATOM     60  C   UNL A   1      43.013  30.524  36.598  1.00  0.00     0.049 A 
ATOM     61  H   UNL A   1      41.366  31.250  35.498  1.00  0.00     0.167 HD
ATOM     62  C   UNL A   1      43.038  29.177  34.516  1.00  0.00     0.074 A 
ATOM     63  C   UNL A   1      43.580  28.140  33.660  1.00  0.00     0.031 C 
ATOM     64  C   UNL A   1      43.533  29.492  35.738  1.00  0.00     0.031 A 
BRANCH  51  65
ATOM     65  C   UNL A   1      40.465  34.027  38.618  1.00  0.00    -0.014 A 
ATOM     66  C   UNL A   1      40.945  35.349  38.578  1.00  0.00     0.010 A 
ATOM     67  C   UNL A   1      39.849  33.561  39.794  1.00  0.00     0.010 A 
ATOM     68  C   UNL A   1      40.854  36.172  39.704  1.00  0.00     0.020 A 
ATOM     69  C   UNL A   1      39.729  34.390  40.912  1.00  0.00     0.020 A 
ATOM     70  C   UNL A   1      40.251  35.685  40.866  1.00  0.00     0.054 A 
BRANCH  70  71
ATOM     71  S   UNL A   1      40.132  36.779  42.309  1.00  0.00     0.124 S 
ATOM     72  O   UNL A   1      41.495  36.737  42.831  1.00  0.00    -0.237 OA
ATOM     73  O   UNL A   1      39.724  38.050  41.717  1.00  0.00    -0.237 OA
ATOM     74  O   UNL A   1      39.123  36.136  43.148  1.00  0.00    -0.744 OA
ENDBRANCH  70  71
ENDBRANCH  51  65
BRANCH  52  75
ATOM     75  C   UNL A   1      40.954  28.397  30.365  1.00  0.00    -0.014 A 
ATOM     76  C   UNL A   1      42.068  28.493  29.512  1.00  0.00     0.010 A 
ATOM     77  C   UNL A   1      39.924  27.495  30.045  1.00  0.00     0.010 A 
ATOM     78  C   UNL A   1      42.140  27.720  28.350  1.00  0.00     0.020 A 
ATOM     79  C   UNL A   1      40.004  26.700  28.897  1.00  0.00     0.020 A 
ATOM     80  C   UNL A   1      41.107  26.828  28.050  1.00  0.00     0.054 A 
BRANCH  80  81
ATOM     81  S   UNL A   1      41.241  25.802  26.559  1.00  0.00     0.124 S 
ATOM     82  O   UNL A   1      39.999  25.038  26.603  1.00  0.00    -0.237 OA
ATOM     83  O   UNL A   1      41.334  26.799  25.495  1.00  0.00    -0.237 OA
ATOM     84  O   UNL A   1      42.462  25.029  26.785  1.00  0.00    -0.744 OA
ENDBRANCH  80  81
ENDBRANCH  52  75
BRANCH  64  85
ATOM     85  C   UNL A   1      44.687  28.671  36.248  1.00  0.00    -0.014 A 
ATOM     86  C   UNL A   1      44.481  27.473  36.955  1.00  0.00     0.010 A 
ATOM     87  C   UNL A   1      46.002  29.093  35.980  1.00  0.00     0.010 A 
ATOM     88  C   UNL A   1      45.571  26.733  37.420  1.00  0.00     0.020 A 
ATOM     89  C   UNL A   1      47.094  28.341  36.419  1.00  0.00     0.020 A 
ATOM     90  C   UNL A   1      46.871  27.175  37.154  1.00  0.00     0.054 A 
BRANCH  90  91
ATOM     91  S   UNL A   1      48.271  26.186  37.746  1.00  0.00     0.124 S 
ATOM     92  O   UNL A   1      49.082  26.055  36.540  1.00  0.00    -0.237 OA
ATOM     93  O   UNL A   1      48.838  27.027  38.797  1.00  0.00    -0.237 OA
ATOM     94  O   UNL A   1      47.648  24.950  38.216  1.00  0.00    -0.744 OA
ENDBRANCH  90  91
ENDBRANCH  64  85
ENDBRANCH  38  39
ENDBRANCH  30  33
ENDBRANCH  28  29
ENDBRANCH  27  28
ENDBRANCH  26  27
ENDBRANCH  25  26
ENDBRANCH   1  25
TORSDOF 23
ENDMDL
MODEL 2
REMARK VINA RESULT:      -9.1      4.094      6.098
REMARK SMILES CCCCCN(C(=O)N1CCC(CC(=O)NCCCCCCNC(=O)c2ccc(-c3c4nc(c(-c5ccc(S(=O)(=O)[O-])cc5)c5ccc([nH]5)c(-c5ccc(S(=O)(=O)[O-])cc5)c5nc(c(-c6ccc(S(=O)(=O)[O-])cc6)c6ccc3[nH]6)C=C5)C=C4)cc2)CC1)C(C)C
REMARK SMILES IDX 18 1 17 2 16 3 14 4 15 5 13 7 12 8 7 9 8 10 9 11 10 12 87 13
REMARK SMILES IDX 11 14 86 15 6 16 5 17 4 18 3 19 2 20 1 21 88 22 89 23 90 24
REMARK SMILES IDX 19 25 20 26 21 27 22 28 23 29 24 30 25 32 26 33 27 34 85 35
REMARK SMILES IDX 28 36 84 37 29 38 30 39 31 40 78 41 32 42 83 43 77 44 79 45
REMARK SMILES IDX 33 46 82 47 76 48 75 49 34 51 64 52 45 53 63 54 46 55 49 56
REMARK SMILES IDX 62 57 80 58 47 59 48 60 61 62 81 63 50 64 35 65 36 66 44 67
REMARK SMILES IDX 37 68 43 69 38 70 39 71 40 72 41 73 42 74 65 75 66 76 74 77
REMARK SMILES IDX 67 78 73 79 68 80 69 81 70 82 71 83 72 84 51 85 52 86 60 87
REMARK SMILES IDX 53 88 59 89 54 90 55 91 56 92 57 93 58 94
REMARK H PARENT 16 6 23 31 79 50 49 61
REMARK Flexibility Score: inf
ROOT
ATOM      1  C   UNL A   1      35.340  29.616  28.289  1.00  0.00     0.021 C 
ENDROOT
BRANCH   1   2
ATOM      2  C   UNL A   1      34.348  29.073  27.255  1.00  0.00     0.116 C 
BRANCH   2   3
ATOM      3  N   UNL A   1      33.120  28.635  27.901  1.00  0.00    -0.356 N 
ATOM      4  C   UNL A   1      31.967  28.150  27.360  1.00  0.00     0.220 C 
ATOM      5  O   UNL A   1      31.005  27.952  28.105  1.00  0.00    -0.275 OA
ATOM      6  H   UNL A   1      33.122  28.699  28.884  1.00  0.00     0.163 HD
BRANCH   4   7
ATOM      7  C   UNL A   1      31.871  27.848  25.873  1.00  0.00     0.103 C 
BRANCH   7   8
ATOM      8  C   UNL A   1      31.570  26.373  25.544  1.00  0.00     0.002 C 
ATOM      9  C   UNL A   1      33.720  23.291  24.109  1.00  0.00     0.320 C 
ATOM     10  O   UNL A   1      34.317  23.919  23.233  1.00  0.00    -0.248 OA
ATOM     11  N   UNL A   1      32.525  23.768  24.619  1.00  0.00    -0.325 N 
ATOM     12  C   UNL A   1      31.685  24.569  23.753  1.00  0.00     0.121 C 
ATOM     13  C   UNL A   1      32.306  23.971  26.049  1.00  0.00     0.121 C 
ATOM     14  C   UNL A   1      31.826  26.049  24.068  1.00  0.00     0.026 C 
ATOM     15  C   UNL A   1      32.423  25.450  26.435  1.00  0.00     0.026 C 
BRANCH   9  16
ATOM     16  N   UNL A   1      34.188  22.075  24.610  1.00  0.00    -0.322 N 
BRANCH  16  17
ATOM     17  C   UNL A   1      33.325  20.884  24.737  1.00  0.00     0.121 C 
BRANCH  17  18
ATOM     18  C   UNL A   1      32.458  20.545  23.510  1.00  0.00     0.022 C 
BRANCH  18  19
ATOM     19  C   UNL A   1      32.345  19.075  23.081  1.00  0.00     0.002 C 
BRANCH  19  20
ATOM     20  C   UNL A   1      32.903  18.024  24.042  1.00  0.00    -0.003 C 
ATOM     21  C   UNL A   1      34.041  17.212  23.448  1.00  0.00     0.004 C 
ENDBRANCH  19  20
ENDBRANCH  18  19
ENDBRANCH  17  18
ENDBRANCH  16  17
BRANCH  16  22
ATOM     22  C   UNL A   1      35.655  21.955  24.779  1.00  0.00     0.080 C 
ATOM     23  C   UNL A   1      36.208  22.901  25.845  1.00  0.00     0.031 C 
ATOM     24  C   UNL A   1      36.137  20.525  25.006  1.00  0.00     0.031 C 
ENDBRANCH  16  22
ENDBRANCH   9  16
ENDBRANCH   7   8
ENDBRANCH   4   7
ENDBRANCH   2   3
ENDBRANCH   1   2
BRANCH   1  25
ATOM     25  C   UNL A   1      36.394  30.564  27.722  1.00  0.00     0.002 C 
BRANCH  25  26
ATOM     26  C   UNL A   1      36.317  32.001  28.242  1.00  0.00     0.002 C 
BRANCH  26  27
ATOM     27  C   UNL A   1      37.171  32.304  29.478  1.00  0.00     0.021 C 
BRANCH  27  28
ATOM     28  C   UNL A   1      36.886  33.640  30.161  1.00  0.00     0.116 C 
BRANCH  28  29
ATOM     29  N   UNL A   1      35.574  33.662  30.785  1.00  0.00    -0.352 N 
ATOM     30  C   UNL A   1      35.207  33.351  32.068  1.00  0.00     0.251 C 
ATOM     31  H   UNL A   1      34.837  33.942  30.196  1.00  0.00     0.163 HD
ATOM     32  O   UNL A   1      34.017  33.209  32.338  1.00  0.00    -0.269 OA
BRANCH  30  33
ATOM     33  C   UNL A   1      36.228  33.185  33.126  1.00  0.00     0.039 A 
ATOM     34  C   UNL A   1      36.630  31.893  33.475  1.00  0.00     0.014 A 
ATOM     35  C   UNL A   1      36.735  34.287  33.824  1.00  0.00     0.014 A 
ATOM     36  C   UNL A   1      37.550  31.706  34.508  1.00  0.00     0.010 A 
ATOM     37  C   UNL A   1      37.705  34.102  34.808  1.00  0.00     0.010 A 
ATOM     38  C   UNL A   1      38.100  32.809  35.181  1.00  0.00    -0.014 A 
BRANCH  38  39
ATOM     39  C   UNL A   1      39.037  32.619  36.317  1.00  0.00     0.031 A 
ATOM     40  C   UNL A   1      38.506  32.574  37.727  1.00  0.00     0.074 A 
ATOM     41  C   UNL A   1      40.359  32.507  36.088  1.00  0.00     0.049 A 
ATOM     42  N   UNL A   1      39.159  32.423  38.850  1.00  0.00    -0.248 NA
ATOM     43  C   UNL A   1      37.053  32.744  37.897  1.00  0.00     0.031 C 
ATOM     44  C   UNL A   1      41.000  32.569  34.772  1.00  0.00     0.029 A 
ATOM     45  N   UNL A   1      41.403  32.315  36.957  1.00  0.00    -0.354 N 
ATOM     46  C   UNL A   1      38.202  32.496  39.858  1.00  0.00     0.074 A 
ATOM     47  C   UNL A   1      36.933  32.757  39.216  1.00  0.00     0.031 C 
ATOM     48  C   UNL A   1      42.322  32.388  34.920  1.00  0.00     0.029 A 
ATOM     49  C   UNL A   1      42.627  32.225  36.338  1.00  0.00     0.049 A 
ATOM     50  H   UNL A   1      41.287  32.248  37.932  1.00  0.00     0.167 HD
ATOM     51  C   UNL A   1      38.360  32.337  41.194  1.00  0.00     0.031 A 
ATOM     52  C   UNL A   1      43.856  32.027  36.854  1.00  0.00     0.031 A 
ATOM     53  C   UNL A   1      39.620  32.062  41.828  1.00  0.00     0.049 A 
ATOM     54  C   UNL A   1      44.004  31.836  38.339  1.00  0.00     0.074 A 
ATOM     55  C   UNL A   1      39.883  31.845  43.170  1.00  0.00     0.029 A 
ATOM     56  N   UNL A   1      40.832  31.956  41.162  1.00  0.00    -0.354 N 
ATOM     57  N   UNL A   1      43.081  31.859  39.271  1.00  0.00    -0.248 NA
ATOM     58  C   UNL A   1      45.359  31.567  38.840  1.00  0.00     0.031 C 
ATOM     59  C   UNL A   1      41.259  31.643  43.319  1.00  0.00     0.029 A 
ATOM     60  C   UNL A   1      41.846  31.682  42.064  1.00  0.00     0.049 A 
ATOM     61  H   UNL A   1      40.954  32.060  40.190  1.00  0.00     0.167 HD
ATOM     62  C   UNL A   1      43.736  31.571  40.462  1.00  0.00     0.074 A 
ATOM     63  C   UNL A   1      45.133  31.368  40.132  1.00  0.00     0.031 C 
ATOM     64  C   UNL A   1      43.228  31.475  41.716  1.00  0.00     0.031 A 
BRANCH  51  65
ATOM     65  C   UNL A   1      37.131  32.460  42.057  1.00  0.00    -0.014 A 
ATOM     66  C   UNL A   1      36.381  31.325  42.418  1.00  0.00     0.010 A 
ATOM     67  C   UNL A   1      36.731  33.722  42.534  1.00  0.00     0.010 A 
ATOM     68  C   UNL A   1      35.230  31.454  43.199  1.00  0.00     0.020 A 
ATOM     69  C   UNL A   1      35.596  33.851  43.340  1.00  0.00     0.020 A 
ATOM     70  C   UNL A   1      34.842  32.718  43.652  1.00  0.00     0.054 A 
BRANCH  70  71
ATOM     71  S   UNL A   1      33.352  32.856  44.677  1.00  0.00     0.124 S 
ATOM     72  O   UNL A   1      33.189  31.485  45.156  1.00  0.00    -0.237 OA
ATOM     73  O   UNL A   1      33.745  33.832  45.689  1.00  0.00    -0.237 OA
ATOM     74  O   UNL A   1      32.328  33.313  43.741  1.00  0.00    -0.744 OA
ENDBRANCH  70  71
ENDBRANCH  51  65
BRANCH  52  75
ATOM     75  C   UNL A   1      45.039  31.958  35.953  1.00  0.00    -0.014 A 
ATOM     76  C   UNL A   1      45.428  30.734  35.380  1.00  0.00     0.010 A 
ATOM     77  C   UNL A   1      45.779  33.117  35.658  1.00  0.00     0.010 A 
ATOM     78  C   UNL A   1      46.548  30.666  34.547  1.00  0.00     0.020 A 
ATOM     79  C   UNL A   1      46.885  33.058  34.804  1.00  0.00     0.020 A 
ATOM     80  C   UNL A   1      47.270  31.828  34.265  1.00  0.00     0.054 A 
BRANCH  80  81
ATOM     81  S   UNL A   1      48.695  31.725  33.146  1.00  0.00     0.124 S 
ATOM     82  O   UNL A   1      48.290  30.661  32.235  1.00  0.00    -0.237 OA
ATOM     83  O   UNL A   1      48.745  33.067  32.570  1.00  0.00    -0.237 OA
ATOM     84  O   UNL A   1      49.806  31.398  34.038  1.00  0.00    -0.744 OA
ENDBRANCH  80  81
ENDBRANCH  52  75
BRANCH  64  85
ATOM     85  C   UNL A   1      44.176  31.081  42.816  1.00  0.00    -0.014 A 
ATOM     86  C   UNL A   1      44.421  29.732  43.129  1.00  0.00     0.010 A 
ATOM     87  C   UNL A   1      44.862  32.085  43.525  1.00  0.00     0.010 A 
ATOM     88  C   UNL A   1      45.303  29.396  44.159  1.00  0.00     0.020 A 
ATOM     89  C   UNL A   1      45.766  31.753  44.536  1.00  0.00     0.020 A 
ATOM     90  C   UNL A   1      45.966  30.409  44.860  1.00  0.00     0.054 A 
BRANCH  90  91
ATOM     91  S   UNL A   1      47.125  29.949  46.176  1.00  0.00     0.124 S 
ATOM     92  O   UNL A   1      46.340  30.211  47.378  1.00  0.00    -0.237 OA
ATOM     93  O   UNL A   1      47.392  28.540  45.894  1.00  0.00    -0.237 OA
ATOM     94  O   UNL A   1      48.261  30.845  45.966  1.00  0.00    -0.744 OA
ENDBRANCH  90  91
ENDBRANCH  64  85
ENDBRANCH  38  39
ENDBRANCH  30  33
ENDBRANCH  28  29
ENDBRANCH  27  28
ENDBRANCH  26  27
ENDBRANCH  25  26
ENDBRANCH   1  25
TORSDOF 23
ENDMDL
MODEL 3
REMARK VINA RESULT:      -8.8      6.620     11.328
REMARK SMILES CCCCCN(C(=O)N1CCC(CC(=O)NCCCCCCNC(=O)c2ccc(-c3c4nc(c(-c5ccc(S(=O)(=O)[O-])cc5)c5ccc([nH]5)c(-c5ccc(S(=O)(=O)[O-])cc5)c5nc(c(-c6ccc(S(=O)(=O)[O-])cc6)c6ccc3[nH]6)C=C5)C=C4)cc2)CC1)C(C)C
REMARK SMILES IDX 18 1 17 2 16 3 14 4 15 5 13 7 12 8 7 9 8 10 9 11 10 12 87 13
REMARK SMILES IDX 11 14 86 15 6 16 5 17 4 18 3 19 2 20 1 21 88 22 89 23 90 24
REMARK SMILES IDX 19 25 20 26 21 27 22 28 23 29 24 30 25 32 26 33 27 34 85 35
REMARK SMILES IDX 28 36 84 37 29 38 30 39 31 40 78 41 32 42 83 43 77 44 79 45
REMARK SMILES IDX 33 46 82 47 76 48 75 49 34 51 64 52 45 53 63 54 46 55 49 56
REMARK SMILES IDX 62 57 80 58 47 59 48 60 61 62 81 63 50 64 35 65 36 66 44 67
REMARK SMILES IDX 37 68 43 69 38 70 39 71 40 72 41 73 42 74 65 75 66 76 74 77
REMARK SMILES IDX 67 78 73 79 68 80 69 81 70 82 71 83 72 84 51 85 52 86 60 87
REMARK SMILES IDX 53 88 59 89 54 90 55 91 56 92 57 93 58 94
REMARK H PARENT 16 6 23 31 79 50 49 61
REMARK Flexibility Score: inf
ROOT
ATOM      1  C   UNL A   1      36.911  22.162  24.332  1.00  0.00     0.021 C 
ENDROOT
BRANCH   1   2
ATOM      2  C   UNL A   1      35.396  22.064  24.124  1.00  0.00     0.116 C 
BRANCH   2   3
ATOM      3  N   UNL A   1      34.827  21.027  24.970  1.00  0.00    -0.356 N 
ATOM      4  C   UNL A   1      33.534  20.616  25.108  1.00  0.00     0.220 C 
ATOM      5  O   UNL A   1      33.270  19.788  25.982  1.00  0.00    -0.275 OA
ATOM      6  H   UNL A   1      35.476  20.544  25.531  1.00  0.00     0.163 HD
BRANCH   4   7
ATOM      7  C   UNL A   1      32.444  21.157  24.197  1.00  0.00     0.103 C 
BRANCH   7   8
ATOM      8  C   UNL A   1      31.758  22.436  24.717  1.00  0.00     0.002 C 
ATOM      9  C   UNL A   1      32.582  26.369  24.537  1.00  0.00     0.320 C 
ATOM     10  O   UNL A   1      33.788  26.281  24.770  1.00  0.00    -0.248 OA
ATOM     11  N   UNL A   1      31.720  25.353  24.916  1.00  0.00    -0.325 N 
ATOM     12  C   UNL A   1      32.069  24.563  26.079  1.00  0.00     0.121 C 
ATOM     13  C   UNL A   1      30.814  24.699  23.976  1.00  0.00     0.121 C 
ATOM     14  C   UNL A   1      32.660  23.223  25.674  1.00  0.00     0.026 C 
ATOM     15  C   UNL A   1      31.347  23.331  23.534  1.00  0.00     0.026 C 
BRANCH   9  16
ATOM     16  N   UNL A   1      32.019  27.484  23.914  1.00  0.00    -0.322 N 
BRANCH  16  17
ATOM     17  C   UNL A   1      31.189  28.465  24.642  1.00  0.00     0.121 C 
BRANCH  17  18
ATOM     18  C   UNL A   1      31.926  29.706  25.179  1.00  0.00     0.022 C 
BRANCH  18  19
ATOM     19  C   UNL A   1      33.280  29.505  25.877  1.00  0.00     0.002 C 
BRANCH  19  20
ATOM     20  C   UNL A   1      33.346  29.825  27.371  1.00  0.00    -0.003 C 
ATOM     21  C   UNL A   1      33.984  31.171  27.669  1.00  0.00     0.004 C 
ENDBRANCH  19  20
ENDBRANCH  18  19
ENDBRANCH  17  18
ENDBRANCH  16  17
BRANCH  16  22
ATOM     22  C   UNL A   1      32.493  27.781  22.543  1.00  0.00     0.080 C 
ATOM     23  C   UNL A   1      33.819  28.543  22.526  1.00  0.00     0.031 C 
ATOM     24  C   UNL A   1      32.548  26.560  21.628  1.00  0.00     0.031 C 
ENDBRANCH  16  22
ENDBRANCH   9  16
ENDBRANCH   7   8
ENDBRANCH   4   7
ENDBRANCH   2   3
ENDBRANCH   1   2
BRANCH   1  25
ATOM     25  C   UNL A   1      37.430  21.451  25.580  1.00  0.00     0.002 C 
BRANCH  25  26
ATOM     26  C   UNL A   1      38.948  21.488  25.760  1.00  0.00     0.002 C 
BRANCH  26  27
ATOM     27  C   UNL A   1      39.616  20.134  26.026  1.00  0.00     0.021 C 
BRANCH  27  28
ATOM     28  C   UNL A   1      40.973  20.199  26.723  1.00  0.00     0.116 C 
BRANCH  28  29
ATOM     29  N   UNL A   1      42.027  19.611  25.915  1.00  0.00    -0.352 N 
ATOM     30  C   UNL A   1      43.141  20.191  25.365  1.00  0.00     0.251 C 
ATOM     31  H   UNL A   1      41.926  18.648  25.734  1.00  0.00     0.163 HD
ATOM     32  O   UNL A   1      43.788  19.577  24.522  1.00  0.00    -0.269 OA
BRANCH  30  33
ATOM     33  C   UNL A   1      43.566  21.548  25.778  1.00  0.00     0.039 A 
ATOM     34  C   UNL A   1      43.094  22.648  25.057  1.00  0.00     0.014 A 
ATOM     35  C   UNL A   1      44.481  21.736  26.820  1.00  0.00     0.014 A 
ATOM     36  C   UNL A   1      43.524  23.934  25.390  1.00  0.00     0.010 A 
ATOM     37  C   UNL A   1      44.855  23.025  27.194  1.00  0.00     0.010 A 
ATOM     38  C   UNL A   1      44.404  24.134  26.466  1.00  0.00    -0.014 A 
BRANCH  38  39
ATOM     39  C   UNL A   1      44.910  25.492  26.793  1.00  0.00     0.031 A 
ATOM     40  C   UNL A   1      44.027  26.462  27.534  1.00  0.00     0.074 A 
ATOM     41  C   UNL A   1      46.147  25.860  26.408  1.00  0.00     0.049 A 
ATOM     42  N   UNL A   1      44.280  27.691  27.905  1.00  0.00    -0.248 NA
ATOM     43  C   UNL A   1      42.674  25.998  27.884  1.00  0.00     0.031 C 
ATOM     44  C   UNL A   1      47.085  25.025  25.654  1.00  0.00     0.029 A 
ATOM     45  N   UNL A   1      46.830  27.034  26.600  1.00  0.00    -0.354 N 
ATOM     46  C   UNL A   1      43.117  28.150  28.516  1.00  0.00     0.074 A 
ATOM     47  C   UNL A   1      42.141  27.087  28.418  1.00  0.00     0.031 C 
ATOM     48  C   UNL A   1      48.230  25.702  25.476  1.00  0.00     0.029 A 
ATOM     49  C   UNL A   1      48.100  27.027  26.075  1.00  0.00     0.049 A 
ATOM     50  H   UNL A   1      46.446  27.810  27.071  1.00  0.00     0.167 HD
ATOM     51  C   UNL A   1      42.887  29.338  29.124  1.00  0.00     0.031 A 
ATOM     52  C   UNL A   1      49.055  27.977  26.081  1.00  0.00     0.031 A 
ATOM     53  C   UNL A   1      43.864  30.388  29.234  1.00  0.00     0.049 A 
ATOM     54  C   UNL A   1      48.783  29.283  26.778  1.00  0.00     0.074 A 
ATOM     55  C   UNL A   1      43.746  31.615  29.864  1.00  0.00     0.029 A 
ATOM     56  N   UNL A   1      45.147  30.330  28.709  1.00  0.00    -0.354 N 
ATOM     57  N   UNL A   1      47.694  29.680  27.393  1.00  0.00    -0.248 NA
ATOM     58  C   UNL A   1      49.880  30.261  26.803  1.00  0.00     0.031 C 
ATOM     59  C   UNL A   1      44.945  32.314  29.687  1.00  0.00     0.029 A 
ATOM     60  C   UNL A   1      45.829  31.501  28.994  1.00  0.00     0.049 A 
ATOM     61  H   UNL A   1      45.518  29.569  28.206  1.00  0.00     0.167 HD
ATOM     62  C   UNL A   1      47.986  30.937  27.910  1.00  0.00     0.074 A 
ATOM     63  C   UNL A   1      49.358  31.230  27.543  1.00  0.00     0.031 C 
ATOM     64  C   UNL A   1      47.195  31.771  28.629  1.00  0.00     0.031 A 
BRANCH  51  65
ATOM     65  C   UNL A   1      41.520  29.562  29.716  1.00  0.00    -0.014 A 
ATOM     66  C   UNL A   1      41.267  29.304  31.076  1.00  0.00     0.010 A 
ATOM     67  C   UNL A   1      40.479  30.059  28.911  1.00  0.00     0.010 A 
ATOM     68  C   UNL A   1      39.989  29.493  31.608  1.00  0.00     0.020 A 
ATOM     69  C   UNL A   1      39.207  30.277  29.447  1.00  0.00     0.020 A 
ATOM     70  C   UNL A   1      38.965  29.974  30.789  1.00  0.00     0.054 A 
BRANCH  70  71
ATOM     71  S   UNL A   1      37.319  30.225  31.509  1.00  0.00     0.124 S 
ATOM     72  O   UNL A   1      36.655  28.963  31.188  1.00  0.00    -0.237 OA
ATOM     73  O   UNL A   1      37.615  30.437  32.923  1.00  0.00    -0.237 OA
ATOM     74  O   UNL A   1      36.806  31.396  30.801  1.00  0.00    -0.744 OA
ENDBRANCH  70  71
ENDBRANCH  51  65
BRANCH  52  75
ATOM     75  C   UNL A   1      50.372  27.713  25.441  1.00  0.00    -0.014 A 
ATOM     76  C   UNL A   1      50.540  27.892  24.056  1.00  0.00     0.010 A 
ATOM     77  C   UNL A   1      51.468  27.288  26.214  1.00  0.00     0.010 A 
ATOM     78  C   UNL A   1      51.773  27.628  23.452  1.00  0.00     0.020 A 
ATOM     79  C   UNL A   1      52.709  27.048  25.617  1.00  0.00     0.020 A 
ATOM     80  C   UNL A   1      52.850  27.208  24.237  1.00  0.00     0.054 A 
BRANCH  80  81
ATOM     81  S   UNL A   1      54.453  26.913  23.439  1.00  0.00     0.124 S 
ATOM     82  O   UNL A   1      54.053  26.364  22.147  1.00  0.00    -0.237 OA
ATOM     83  O   UNL A   1      55.041  28.250  23.404  1.00  0.00    -0.237 OA
ATOM     84  O   UNL A   1      55.116  25.973  24.341  1.00  0.00    -0.744 OA
ENDBRANCH  80  81
ENDBRANCH  52  75
BRANCH  64  85
ATOM     85  C   UNL A   1      47.809  33.056  29.115  1.00  0.00    -0.014 A 
ATOM     86  C   UNL A   1      48.547  33.112  30.311  1.00  0.00     0.010 A 
ATOM     87  C   UNL A   1      47.673  34.221  28.337  1.00  0.00     0.010 A 
ATOM     88  C   UNL A   1      49.102  34.321  30.741  1.00  0.00     0.020 A 
ATOM     89  C   UNL A   1      48.250  35.424  28.749  1.00  0.00     0.020 A 
ATOM     90  C   UNL A   1      48.946  35.470  29.960  1.00  0.00     0.054 A 
BRANCH  90  91
ATOM     91  S   UNL A   1      49.695  37.022  30.524  1.00  0.00     0.124 S 
ATOM     92  O   UNL A   1      50.603  37.337  29.425  1.00  0.00    -0.237 OA
ATOM     93  O   UNL A   1      48.541  37.907  30.660  1.00  0.00    -0.237 OA
ATOM     94  O   UNL A   1      50.343  36.656  31.782  1.00  0.00    -0.744 OA
ENDBRANCH  90  91
ENDBRANCH  64  85
ENDBRANCH  38  39
ENDBRANCH  30  33
ENDBRANCH  28  29
ENDBRANCH  27  28
ENDBRANCH  26  27
ENDBRANCH  25  26
ENDBRANCH   1  25
TORSDOF 23
ENDMDL
